data_PCOD9113689
_publ_section_title
;
Structure prediction by ZEFSAII (Michael W. Deem and Ramdas Pophale) SiO2 
 PCOD9113689
Probable space group: P 2
;
_chemical_formula_sum "Si O2"
_cell_formula_units_Z 14
_cell_length_a 5.159068
_cell_length_b 5.369459
_cell_length_c 21.029381
_cell_angle_alpha 90.000000
_cell_angle_beta 65.298041
_cell_angle_gamma 90.000000
_cell_volume 529.237102
_symmetry_space_group_name_H-M "P 2"
_symmetry_group_IT_number 3
_symmetry_cell_setting 'monoclinic'
loop_
_space_group_symop_operation_xyz
x,y,z
-x,y,-z
loop_
_atom_site_type_symbol
_atom_site_label
_atom_site_fract_x
_atom_site_fract_y
_atom_site_fract_z
Si Si1 0.393935 0.724050 0.298932
Si Si2 0.500000 0.800253 0.000000
Si Si3 0.964772 0.017991 0.106899
Si Si4 0.686783 0.318783 0.355860
Si Si5 0.212676 0.946193 0.437890
Si Si6 0.252864 0.516336 0.921342
Si Si7 0.985606 0.980234 0.758018
Si Si8 0.500000 0.577532 0.500000
O O1 0.504032 0.469980 0.321326
O O2 0.167790 0.837866 0.373059
O O3 0.692272 0.875215 0.265880
O O4 0.222486 0.774529 0.251469
O O5 0.772447 0.980141 0.969030
O O6 0.511942 0.616835 0.937961
O O7 0.813468 0.748598 0.117952
O O8 0.097183 0.059658 0.162815
O O9 0.762469 0.250842 0.111054
O O10 0.684500 0.457550 0.423592
O O11 0.507096 0.083643 0.396622
O O12 0.972687 0.217249 0.293306
O O13 0.278062 0.740731 0.483558
O O14 0.000000 0.120540 0.500000
O O15 0.000000 0.507506 0.000000
#
# Coordination Sequence:
#
# PCOD9113689 Si02
#       8
#     2   1   2   2   2   2   2   1
#     4  10  26  47  69 100 146 193 249 312 385 462
#     4  10  24  48  80 116 164 204 258 336 396 462
#     4  11  26  44  78 111 156 200 263 314 391 468
#     4  10  24  45  72 100 145 199 250 323 394 462
#     4  10  23  41  65 101 132 178 249 311 379 462
#     4  10  23  46  71 116 148 197 250 317 383 464
#     4  11  27  49  70 109 148 201 257 312 379 478
#     4  10  22  42  66 102 136 188 248 326 392 454
#
# _framework density 26.453168999999999
#
# number of rings (size 3 to 8) (size 9 to 14) (size 15 to 20)
#    0.000    1.714    0.000    1.714   12.000    9.714 
#    2.571    0.000    0.000    0.000    0.000    0.000 
#    0.000    0.000    0.000    0.000    0.000    0.000 
#
# Total GULP energy -78173.688879 kJ/mol
# GULP energy per Si atom -5583.834920 kJ/mol
# Density = 2.639296 g / cm^3
# Si number density = 26.453169 Si / 1000 Ang^3
#
#
#
# Elastic Constant Matrix: (Units=GPa)
#
#
# Indices 1 2 3 4 5 6 
#
# 1 98.2807 43.3098 39.4764 0.0000 17.5545 0.0000
# 2 43.3098 136.1610 46.0972 0.0000 24.8970 0.0000
# 3 39.4764 46.0972 108.6882 0.0000 27.6185 0.0000
# 4 0.0000 0.0000 0.0000 -1.9208 0.0000 -24.5462
# 5 17.5545 24.8970 27.6185 0.0000 44.1700 0.0000
# 6 0.0000 0.0000 0.0000 -24.5462 0.0000 -6.4257
#
#
#
# Elastic Compliance Matrix: (Units=1/GPa)
#
#
# Indices 1 2 3 4 5 6 
#
# 1 0.012934 -0.002761 -0.003110 0.000000 -0.001639 0.000000
# 2 -0.002761 0.009524 -0.002320 0.000000 -0.002820 0.000000
# 3 -0.003110 -0.002320 0.012683 0.000000 -0.005387 0.000000
# 4 0.000000 0.000000 0.000000 0.010888 0.000000 -0.041592
# 5 -0.001639 -0.002820 -0.005387 0.000000 0.028249 0.000000
# 6 0.000000 0.000000 0.000000 -0.041592 0.000000 0.003255
#
#
# Mechanical properties :
#
#
# Convention : Reuss Voigt Hill
#
# Bulk Modulus (GPa) = 53.30950 66.76629 60.03790
# Shear Modulus (GPa) = 49.91699 21.44780 35.68240
#
# Velocity S-wave (km/s) = 4.34867 2.85052 3.67671
# Velocity P-wave (km/s) = 6.73875 6.01067 6.38509
#
# Compressibility (1/GPa) = 0.01875838
#
# Stress axis : x y z
#
# Youngs Moduli (GPa) = 77.31709 105.00299 78.84687
#
# Poissons Ratio (x) = 0.28995 0.24521
# Poissons Ratio (y) = 0.21350 0.18289
# Poissons Ratio (z) = 0.24045 0.24356
#
# Static dielectric constant tensor:
#      x y z
#    x 3.607090 0.000000 -1.852220 
#    y 0.000000 2.148250 0.000000 
#    z -1.852220 0.000000 4.670130 
# 
# From -- ./inp_files/15552.got.cif
#   From: 2010.05.17/outbox.cif.g08.bks.cpg/sg3_8_cif.got.tgz:15552.got - 2010.06.03 18:33:08.
