data_PCOD9113979
_publ_section_title
;
Structure prediction by ZEFSAII (Michael W. Deem and Ramdas Pophale) SiO2 
 PCOD9113979
Probable space group: P 2
;
_chemical_formula_sum "Si O2"
_cell_formula_units_Z 14
_cell_length_a 16.296981
_cell_length_b 5.091226
_cell_length_c 22.657667
_cell_angle_alpha 90.000000
_cell_angle_beta 161.268893
_cell_angle_gamma 90.000000
_cell_volume 603.700896
_symmetry_space_group_name_H-M "P 2"
_symmetry_group_IT_number 3
_symmetry_cell_setting 'monoclinic'
loop_
_space_group_symop_operation_xyz
x,y,z
-x,y,-z
loop_
_atom_site_type_symbol
_atom_site_label
_atom_site_fract_x
_atom_site_fract_y
_atom_site_fract_z
Si Si1 0.946887 0.922570 0.623656
Si Si2 0.461253 0.795794 0.361566
Si Si3 0.395015 0.619154 0.093591
Si Si4 0.000000 0.092971 0.000000
Si Si5 0.923115 0.442763 0.838383
Si Si6 0.266964 0.115968 0.647185
Si Si7 0.500000 0.165861 0.500000
Si Si8 0.247516 0.434081 0.861232
O O1 0.153189 0.689214 0.759742
O O2 0.729839 0.779530 0.514205
O O3 0.817522 0.018819 0.475082
O O4 0.056909 0.185310 0.729212
O O5 0.249566 0.916411 0.174814
O O6 0.324177 0.544629 0.294366
O O7 0.480647 0.986108 0.430052
O O8 0.552274 0.889480 0.201965
O O9 0.575305 0.387567 0.242605
O O10 0.311210 0.532136 0.970716
O O11 0.138381 0.632398 0.959139
O O12 0.958491 0.256133 0.031539
O O13 0.772016 0.312595 0.681481
O O14 0.000000 0.147819 0.500000
O O15 0.500000 0.335078 0.000000
#
# Coordination Sequence:
#
# PCOD9113979 Si02
#       8
#     2   2   2   1   2   2   1   2
#     4  12  27  44  76 104 143 186 234 287 362 415
#     4  11  25  41  67  97 140 178 231 276 341 412
#     4  12  27  44  76 104 143 186 234 287 362 415
#     4  10  24  42  64  92 140 178 226 278 334 398
#     4  11  25  41  67  97 140 178 231 276 341 412
#     4  12  26  49  74 106 141 183 239 297 351 417
#     4  10  24  42  64  92 140 178 226 278 334 398
#     4  12  26  49  74 106 141 183 239 297 351 417
#
# _framework density 23.190294000000002
#
# number of rings (size 3 to 8) (size 9 to 14) (size 15 to 20)
#    0.000    0.571    0.000    6.857   16.000    0.000 
#    0.000    0.000    0.000    0.000    0.000    0.000 
#    0.000    0.000    0.000    0.000    0.000    0.000 
#
# Total GULP energy -78330.322407 kJ/mol
# GULP energy per Si atom -5595.023029 kJ/mol
# Density = 2.313751 g / cm^3
# Si number density = 23.190294 Si / 1000 Ang^3
#
#
#
# Elastic Constant Matrix: (Units=GPa)
#
#
# Indices 1 2 3 4 5 6 
#
# 1 56.2479 -17.0633 12.1767 0.0000 2.1926 0.0000
# 2 -17.0633 66.2449 -1.4357 0.0000 -13.4960 0.0000
# 3 12.1767 -1.4357 66.6949 0.0000 -22.7233 0.0000
# 4 0.0000 0.0000 0.0000 18.9583 0.0000 3.6359
# 5 2.1926 -13.4960 -22.7233 0.0000 30.0396 0.0000
# 6 0.0000 0.0000 0.0000 3.6359 0.0000 12.2922
#
#
#
# Elastic Compliance Matrix: (Units=1/GPa)
#
#
# Indices 1 2 3 4 5 6 
#
# 1 0.020260 0.004523 -0.004598 0.000000 -0.002925 0.000000
# 2 0.004523 0.018418 0.003068 0.000000 0.010266 0.000000
# 3 -0.004598 0.003068 0.022206 0.000000 0.018512 0.000000
# 4 0.000000 0.000000 0.000000 0.055920 0.000000 -0.016541
# 5 -0.002925 0.010266 0.018512 0.000000 0.052118 0.000000
# 6 0.000000 0.000000 0.000000 -0.016541 0.000000 0.086245
#
#
# Mechanical properties :
#
#
# Convention : Reuss Voigt Hill
#
# Bulk Modulus (GPa) = 14.95411 19.61590 17.28501
# Shear Modulus (GPa) = 18.41812 25.29202 21.85507
#
# Velocity S-wave (km/s) = 2.82124 3.30605 3.07322
# Velocity P-wave (km/s) = 4.13219 4.80108 4.47914
#
# Compressibility (1/GPa) = 0.06687123
#
# Stress axis : x y z
#
# Youngs Moduli (GPa) = 49.35841 54.29326 45.03225
#
# Poissons Ratio (x) = -0.24557 0.20706
# Poissons Ratio (y) = -0.22325 -0.13817
# Poissons Ratio (z) = 0.22695 -0.16659
#
# Static dielectric constant tensor:
#      x y z
#    x 2.201580 0.000000 0.100850 
#    y 0.000000 1.875450 0.000000 
#    z 0.100850 0.000000 1.944280 
# 
# From -- ./inp_files/15658.got.cif
#   From: 2010.05.17/outbox.cif.g08.bks.cpg/sg3_8_cif.got.tgz:15658.got - 2010.06.03 18:33:08.
