data_PCOD9113768
_publ_section_title
;
Structure prediction by ZEFSAII (Michael W. Deem and Ramdas Pophale) SiO2 
 PCOD9113768
Probable space group: P 2
;
_chemical_formula_sum "Si O2"
_cell_formula_units_Z 12
_cell_length_a 5.084817
_cell_length_b 5.291674
_cell_length_c 16.696917
_cell_angle_alpha 90.000000
_cell_angle_beta 73.512204
_cell_angle_gamma 90.000000
_cell_volume 430.793411
_symmetry_space_group_name_H-M "P 2"
_symmetry_group_IT_number 3
_symmetry_cell_setting 'monoclinic'
loop_
_space_group_symop_operation_xyz
x,y,z
-x,y,-z
loop_
_atom_site_type_symbol
_atom_site_label
_atom_site_fract_x
_atom_site_fract_y
_atom_site_fract_z
Si Si1 0.786056 0.130540 0.672866
Si Si2 0.519727 0.511167 0.581687
Si Si3 0.775946 0.598808 0.868166
Si Si4 0.217984 0.833816 0.720826
Si Si5 0.000000 0.892752 0.500000
Si Si6 0.469749 0.103662 0.905852
Si Si7 0.000000 0.376971 0.000000
O O1 0.643653 0.381537 0.650820
O O2 0.521234 0.946930 0.708896
O O3 0.970719 0.063956 0.579652
O O4 0.012474 0.066073 0.719913
O O5 0.500000 0.350613 0.500000
O O6 0.252268 0.649245 0.640724
O O7 0.735509 0.717624 0.532425
O O8 0.639526 0.335405 0.852934
O O9 0.825533 0.558811 0.958542
O O10 0.059840 0.673438 0.801592
O O11 0.568071 0.829805 0.873379
O O12 0.156633 0.191931 0.924622
O O13 0.500000 0.115541 0.000000
#
# Coordination Sequence:
#
# PCOD9113768 Si02
#       7
#     2   2   2   2   1   2   1
#     4  11  26  43  72 103 146 199 254 321 386 460
#     4  11  24  44  77 102 150 206 263 326 386 468
#     4  11  26  45  76 110 157 200 258 324 389 475
#     4  11  28  47  67 112 154 196 260 322 392 465
#     4  10  22  44  66 104 140 184 262 314 376 456
#     4  10  23  45  73 110 145 192 259 312 388 469
#     4  10  24  48  82 114 152 212 260 322 398 474
#
# _framework density 27.855577
#
# number of rings (size 3 to 8) (size 9 to 14) (size 15 to 20)
#    0.000    1.333    1.667    2.000    9.333    7.333 
#    0.000    0.000    0.000    0.000    0.000    0.000 
#    0.000    0.000    0.000    0.000    0.000    0.000 
#
# Total GULP energy -67140.438553 kJ/mol
# GULP energy per Si atom -5595.036546 kJ/mol
# Density = 2.779218 g / cm^3
# Si number density = 27.855577 Si / 1000 Ang^3
#
#
#
# Elastic Constant Matrix: (Units=GPa)
#
#
# Indices 1 2 3 4 5 6 
#
# 1 103.2966 38.0260 38.4401 0.0000 -21.2466 0.0000
# 2 38.0260 155.1666 56.9529 0.0000 -23.3670 0.0000
# 3 38.4401 56.9529 149.0309 0.0000 -38.4336 0.0000
# 4 0.0000 0.0000 0.0000 44.8096 0.0000 -20.8852
# 5 -21.2466 -23.3670 -38.4336 0.0000 53.2859 0.0000
# 6 0.0000 0.0000 0.0000 -20.8852 0.0000 41.7964
#
#
#
# Elastic Compliance Matrix: (Units=1/GPa)
#
#
# Indices 1 2 3 4 5 6 
#
# 1 0.011488 -0.001838 -0.001581 0.000000 0.002634 0.000000
# 2 -0.001838 0.007889 -0.002257 0.000000 0.001098 0.000000
# 3 -0.001581 -0.002257 0.009291 0.000000 0.005081 0.000000
# 4 0.000000 0.000000 0.000000 0.029092 0.000000 0.014537
# 5 0.002634 0.001098 0.005081 0.000000 0.023963 0.000000
# 6 0.000000 0.000000 0.000000 0.014537 0.000000 0.031189
#
#
# Mechanical properties :
#
#
# Convention : Reuss Voigt Hill
#
# Bulk Modulus (GPa) = 57.75772 74.92579 66.34176
# Shear Modulus (GPa) = 38.45033 46.25006 42.35019
#
# Velocity S-wave (km/s) = 3.71933 4.07916 3.90340
# Velocity P-wave (km/s) = 6.26293 7.01017 6.64706
#
# Compressibility (1/GPa) = 0.01731370
#
# Stress axis : x y z
#
# Youngs Moduli (GPa) = 87.04918 126.75608 107.63215
#
# Poissons Ratio (x) = 0.23300 0.17021
# Poissons Ratio (y) = 0.16001 0.24298
# Poissons Ratio (z) = 0.13766 0.28615
#
# Static dielectric constant tensor:
#      x y z
#    x 2.442480 0.000000 0.174970 
#    y 0.000000 2.179990 0.000000 
#    z 0.174970 0.000000 2.269510 
# 
# From -- ./inp_files/15539.got.cif
#   From: 2010.05.17/outbox.cif.g08.bks.cpg/sg3_8_cif.got.tgz:15539.got - 2010.06.03 18:33:08.
