data_PCOD9113375
_publ_section_title
;
Structure prediction by ZEFSAII (Michael W. Deem and Ramdas Pophale) SiO2 
 PCOD9113375
Probable space group: P 2
;
_chemical_formula_sum "Si O2"
_cell_formula_units_Z 14
_cell_length_a 9.769031
_cell_length_b 9.921754
_cell_length_c 9.259590
_cell_angle_alpha 90.000000
_cell_angle_beta 46.377158
_cell_angle_gamma 90.000000
_cell_volume 649.693320
_symmetry_space_group_name_H-M "P 2"
_symmetry_group_IT_number 3
_symmetry_cell_setting 'monoclinic'
loop_
_space_group_symop_operation_xyz
x,y,z
-x,y,-z
loop_
_atom_site_type_symbol
_atom_site_label
_atom_site_fract_x
_atom_site_fract_y
_atom_site_fract_z
Si Si1 0.777626 0.040170 0.163838
Si Si2 0.287119 0.767924 0.637099
Si Si3 0.528882 0.143656 0.826737
Si Si4 0.222316 0.881254 0.363467
Si Si5 0.682626 0.279932 0.441980
Si Si6 0.706187 0.586567 0.787853
Si Si7 0.090018 0.522887 0.664471
O O1 0.663600 0.091617 0.107937
O O2 0.709965 0.138217 0.341249
O O3 0.737287 0.883870 0.225938
O O4 0.000000 0.056519 0.000000
O O5 0.500000 0.715380 0.500000
O O6 0.259856 0.843936 0.503575
O O7 0.143611 0.643844 0.733628
O O8 0.631561 0.242014 0.641512
O O9 0.658790 0.012971 0.758463
O O10 0.500000 0.212807 0.000000
O O11 0.280206 0.749772 0.230243
O O12 0.000000 0.903912 0.500000
O O13 0.500000 0.346867 0.500000
O O14 0.858679 0.379037 0.306686
O O15 0.770816 0.542554 0.577954
O O16 0.876564 0.535579 0.765167
O O17 0.500000 0.550327 0.000000
#
# Coordination Sequence:
#
# PCOD9113375 Si02
#       7
#     2   2   2   2   2   2   2
#     4  11  24  43  65  97 137 174 221 283 337 406
#     4  11  19  40  68  94 127 178 220 272 340 399
#     4  11  24  40  68 103 131 178 231 275 339 408
#     4  11  20  38  66  96 135 174 218 278 343 394
#     4  10  22  47  67  91 137 179 218 285 342 402
#     4  10  21  40  63  95 141 172 223 284 338 400
#     4  10  22  42  67  96 131 184 224 277 348 397
#
# _framework density 21.548628999999998
#
# number of rings (size 3 to 8) (size 9 to 14) (size 15 to 20)
#    0.000    1.429    5.714    1.286    2.000    1.714 
#   12.857    0.714    0.000    0.000    0.000    0.000 
#    0.000    0.000    0.000    0.000    0.000    0.000 
#
# Total GULP energy -78254.456597 kJ/mol
# GULP energy per Si atom -5589.604043 kJ/mol
# Density = 2.149958 g / cm^3
# Si number density = 21.548629 Si / 1000 Ang^3
#
#
#
# Elastic Constant Matrix: (Units=GPa)
#
#
# Indices 1 2 3 4 5 6 
#
# 1 114.3945 34.7546 38.5077 0.0000 -15.1467 0.0000
# 2 34.7546 91.0092 9.8959 0.0000 -5.2441 0.0000
# 3 38.5077 9.8959 77.7053 0.0000 -14.9860 0.0000
# 4 0.0000 0.0000 0.0000 7.9504 0.0000 -116.6391
# 5 -15.1467 -5.2441 -14.9860 0.0000 42.9366 0.0000
# 6 0.0000 0.0000 0.0000 -116.6391 0.0000 601.7067
#
#
#
# Elastic Compliance Matrix: (Units=1/GPa)
#
#
# Indices 1 2 3 4 5 6 
#
# 1 0.011864 -0.003873 -0.005007 0.000000 0.001965 0.000000
# 2 -0.003873 0.012441 0.000391 0.000000 0.000290 0.000000
# 3 -0.005007 0.000391 0.016050 0.000000 0.003883 0.000000
# 4 0.000000 0.000000 0.000000 -0.068214 0.000000 -0.013223
# 5 0.001965 0.000290 0.003883 0.000000 0.025374 0.000000
# 6 0.000000 0.000000 0.000000 -0.013223 0.000000 -0.000901
#
#
# Mechanical properties :
#
#
# Convention : Reuss Voigt Hill
#
# Bulk Modulus (GPa) = 42.77915 49.93616 46.35765
# Shear Modulus (GPa) = 233.81871 143.84881 188.83376
#
# Velocity S-wave (km/s) = 10.42799 8.17926 9.37132
# Velocity P-wave (km/s) = 12.84080 10.60304 11.77520
#
# Compressibility (1/GPa) = 0.02337587
#
# Stress axis : x y z
#
# Youngs Moduli (GPa) = 84.28850 80.37867 62.30670
#
# Poissons Ratio (x) = 0.31130 0.31198
# Poissons Ratio (y) = 0.32645 -0.02435
# Poissons Ratio (z) = 0.42205 -0.03141
#
# Static dielectric constant tensor:
#      x y z
#    x 1.121810 0.000000 0.610260 
#    y 0.000000 1.772760 0.000000 
#    z 0.610260 0.000000 1.264490 
# 
# From -- ./inp_files/5938.got.cif
#   From: 2010.05.17/outbox.cif.g08.bks.cpg/sg3_3_cif.got.tgz:5938.got - 2010.06.03 18:33:08.
