data_PCOD9113570
_publ_section_title
;
Structure prediction by ZEFSAII (Michael W. Deem and Ramdas Pophale) SiO2 
 PCOD9113570
Probable space group: P 2
;
_chemical_formula_sum "Si O2"
_cell_formula_units_Z 13
_cell_length_a 8.655048
_cell_length_b 5.081179
_cell_length_c 14.253684
_cell_angle_alpha 90.000000
_cell_angle_beta 53.535503
_cell_angle_gamma 90.000000
_cell_volume 504.125685
_symmetry_space_group_name_H-M "P 2"
_symmetry_group_IT_number 3
_symmetry_cell_setting 'monoclinic'
loop_
_space_group_symop_operation_xyz
x,y,z
-x,y,-z
loop_
_atom_site_type_symbol
_atom_site_label
_atom_site_fract_x
_atom_site_fract_y
_atom_site_fract_z
Si Si1 0.251978 0.984020 0.728833
Si Si2 0.448081 0.245892 0.826256
Si Si3 0.500000 0.237479 0.500000
Si Si4 0.000000 0.532051 0.500000
Si Si5 0.881842 0.154933 0.697827
Si Si6 0.500000 0.969453 0.000000
Si Si7 0.585110 0.620459 0.640588
Si Si8 0.107267 0.669154 0.192555
O O1 0.454864 0.839661 0.644849
O O2 0.076152 0.776421 0.800843
O O3 0.283794 0.141940 0.814859
O O4 0.286051 0.142119 0.619196
O O5 0.666063 0.141950 0.732645
O O6 0.487372 0.543160 0.776093
O O7 0.427097 0.156219 0.940790
O O8 0.562306 0.392364 0.571768
O O9 0.001541 0.329090 0.414441
O O10 0.195406 0.689027 0.430616
O O11 0.878081 0.358459 0.790165
O O12 0.934460 0.858443 0.703091
O O13 0.315231 0.783309 0.086964
#
# Coordination Sequence:
#
# PCOD9113570 Si02
#       8
#     2   2   1   1   2   1   2   2
#     4  11  24  41  69 105 144 186 237 301 352 443
#     4   9  23  44  68  95 138 175 244 294 355 417
#     4  10  22  40  64  98 148 186 226 278 374 420
#     4  10  22  38  66  96 144 182 234 270 364 412
#     4  10  24  44  67 106 136 189 232 296 345 445
#     4  10  24  50  74  94 134 192 238 306 366 410
#     4  10  22  40  64 101 141 186 230 292 344 441
#     4  11  26  44  73 100 142 180 251 289 364 420
#
# _framework density 25.787219
#
# number of rings (size 3 to 8) (size 9 to 14) (size 15 to 20)
#    0.000    1.846    0.000    1.385   17.231    3.692 
#    0.000    0.000    3.385    0.000    0.000    0.000 
#    0.000    0.000    0.000    0.000    0.000    0.000 
#
# Total GULP energy -72402.694834 kJ/mol
# GULP energy per Si atom -5569.438064 kJ/mol
# Density = 2.572853 g / cm^3
# Si number density = 25.787219 Si / 1000 Ang^3
#
#
#
# Elastic Constant Matrix: (Units=GPa)
#
#
# Indices 1 2 3 4 5 6 
#
# 1 132.6770 14.4713 29.4627 0.0000 -15.3665 0.0000
# 2 14.4713 69.3977 21.0839 0.0000 0.3858 0.0000
# 3 29.4627 21.0839 108.3470 0.0000 6.4164 0.0000
# 4 0.0000 0.0000 0.0000 12.0067 0.0000 -3.3050
# 5 -15.3665 0.3858 6.4164 0.0000 47.2446 0.0000
# 6 0.0000 0.0000 0.0000 -3.3050 0.0000 31.5935
#
#
#
# Elastic Compliance Matrix: (Units=1/GPa)
#
#
# Indices 1 2 3 4 5 6 
#
# 1 0.008523 -0.001100 -0.002287 0.000000 0.003092 0.000000
# 2 -0.001100 0.015461 -0.002703 0.000000 -0.000117 0.000000
# 3 -0.002287 -0.002703 0.010505 0.000000 -0.002148 0.000000
# 4 0.000000 0.000000 0.000000 0.085756 0.000000 0.008971
# 5 0.003092 -0.000117 -0.002148 0.000000 0.022465 0.000000
# 6 0.000000 0.000000 0.000000 0.008971 0.000000 0.032591
#
#
# Mechanical properties :
#
#
# Convention : Reuss Voigt Hill
#
# Bulk Modulus (GPa) = 44.82270 48.93972 46.88121
# Shear Modulus (GPa) = 25.65228 34.52922 30.09075
#
# Velocity S-wave (km/s) = 3.15741 3.66321 3.41968
# Velocity P-wave (km/s) = 5.54183 6.07550 5.81479
#
# Compressibility (1/GPa) = 0.02231012
#
# Stress axis : x y z
#
# Youngs Moduli (GPa) = 117.33072 64.67989 95.19654
#
# Poissons Ratio (x) = 0.07113 0.21769
# Poissons Ratio (y) = 0.12903 0.25728
# Poissons Ratio (z) = 0.26830 0.17481
#
# Static dielectric constant tensor:
#      x y z
#    x 2.197520 0.000000 0.074190 
#    y 0.000000 2.165360 0.000000 
#    z 0.074190 0.000000 2.157720 
# 
# From -- ./inp_files/6577.got.cif
#   From: 2010.05.17/outbox.cif.g08.bks.cpg/sg3_4_cif.got.tgz:6577.got - 2010.06.03 18:33:08.
