data_PCOD9113663
_publ_section_title
;
Structure prediction by ZEFSAII (Michael W. Deem and Ramdas Pophale) SiO2 
 PCOD9113663
Probable space group: P 2
;
_chemical_formula_sum "Si O2"
_cell_formula_units_Z 14
_cell_length_a 7.787183
_cell_length_b 6.146504
_cell_length_c 13.042652
_cell_angle_alpha 90.000000
_cell_angle_beta 100.236287
_cell_angle_gamma 90.000000
_cell_volume 614.336472
_symmetry_space_group_name_H-M "P 2"
_symmetry_group_IT_number 3
_symmetry_cell_setting 'monoclinic'
loop_
_space_group_symop_operation_xyz
x,y,z
-x,y,-z
loop_
_atom_site_type_symbol
_atom_site_label
_atom_site_fract_x
_atom_site_fract_y
_atom_site_fract_z
Si Si1 0.091803 0.522590 0.607090
Si Si2 0.081592 0.528043 0.822975
Si Si3 0.183076 0.269837 0.309455
Si Si4 0.602326 0.217442 0.105876
Si Si5 0.177535 0.875971 0.996777
Si Si6 0.485930 0.571052 0.613214
Si Si7 0.371812 0.921341 0.220614
O O1 0.081405 0.652900 0.713509
O O2 0.031993 0.315705 0.377162
O O3 0.292147 0.475138 0.604318
O O4 0.000000 0.630897 0.500000
O O5 0.247353 0.369146 0.835321
O O6 0.111016 0.676099 0.922773
O O7 0.904826 0.387871 0.798897
O O8 0.357794 0.397284 0.360041
O O9 0.233917 0.028586 0.283777
O O10 0.480715 0.120149 0.181626
O O11 0.693278 0.013583 0.059558
O O12 0.500000 0.329844 0.000000
O O13 0.000000 0.009540 0.000000
O O14 0.273231 0.820156 0.112534
O O15 0.500000 0.667736 0.500000
O O16 0.515807 0.749506 0.704712
#
# Coordination Sequence:
#
# PCOD9113663 Si02
#       7
#     2   2   2   2   2   2   2
#     4  10  22  44  71 101 137 185 234 292 350 429
#     4  10  22  41  66  93 131 188 228 278 359 421
#     4  10  24  44  70 101 143 185 237 291 364 422
#     4  10  23  40  61  94 137 177 230 288 354 421
#     4  11  23  39  65  95 137 179 232 290 353 421
#     4  12  23  45  74 101 143 187 241 295 363 427
#     4  11  25  43  67 107 140 184 243 303 351 431
#
# _framework density 22.788816000000001
#
# number of rings (size 3 to 8) (size 9 to 14) (size 15 to 20)
#    0.857    0.571    1.429    3.429    0.000    8.571 
#    2.571    0.000    0.000    0.000    0.000    0.000 
#    0.000    0.000    0.000    0.000    0.000    0.000 
#
# Total GULP energy -78164.755741 kJ/mol
# GULP energy per Si atom -5583.196839 kJ/mol
# Density = 2.273695 g / cm^3
# Si number density = 22.788816 Si / 1000 Ang^3
#
#
#
# Elastic Constant Matrix: (Units=GPa)
#
#
# Indices 1 2 3 4 5 6 
#
# 1 160.4524 26.0700 44.9503 0.0000 9.0742 0.0000
# 2 26.0700 28.5402 35.8229 0.0000 7.5597 0.0000
# 3 44.9503 35.8229 158.2873 0.0000 21.3843 0.0000
# 4 0.0000 0.0000 0.0000 31.9865 0.0000 -0.6809
# 5 9.0742 7.5597 21.3843 0.0000 45.4699 0.0000
# 6 0.0000 0.0000 0.0000 -0.6809 0.0000 27.3176
#
#
#
# Elastic Compliance Matrix: (Units=1/GPa)
#
#
# Indices 1 2 3 4 5 6 
#
# 1 0.007391 -0.005730 -0.000781 0.000000 -0.000155 0.000000
# 2 -0.005730 0.053802 -0.010139 0.000000 -0.003033 0.000000
# 3 -0.000781 -0.010139 0.009168 0.000000 -0.002470 0.000000
# 4 0.000000 0.000000 0.000000 0.031280 0.000000 0.000780
# 5 -0.000155 -0.003033 -0.002470 0.000000 0.023689 0.000000
# 6 0.000000 0.000000 0.000000 0.000780 0.000000 0.036626
#
#
# Mechanical properties :
#
#
# Convention : Reuss Voigt Hill
#
# Bulk Modulus (GPa) = 26.98293 62.32960 44.65627
# Shear Modulus (GPa) = 24.08360 36.98391 30.53375
#
# Velocity S-wave (km/s) = 3.25440 4.03289 3.66438
# Velocity P-wave (km/s) = 5.09780 7.00685 6.12713
#
# Compressibility (1/GPa) = 0.03706047
#
# Stress axis : x y z
#
# Youngs Moduli (GPa) = 135.30076 18.58658 109.07640
#
# Poissons Ratio (x) = 0.10649 0.08521
# Poissons Ratio (y) = 0.77522 1.10597
# Poissons Ratio (z) = 0.10570 0.18846
#
# Static dielectric constant tensor:
#      x y z
#    x 1.875610 0.000000 0.018480 
#    y 0.000000 1.810300 0.000000 
#    z 0.018480 0.000000 1.841290 
# 
# From -- ./inp_files/10268.got.cif
#   From: 2010.05.17/outbox.cif.g08.bks.cpg/sg3_6_cif.got.tgz:10268.got - 2010.06.03 18:33:08.
