data_PCOD9113640
_publ_section_title
;
Structure prediction by ZEFSAII (Michael W. Deem and Ramdas Pophale) SiO2 
 PCOD9113640
Probable space group: P 2
;
_chemical_formula_sum "Si O2"
_cell_formula_units_Z 13
_cell_length_a 15.261474
_cell_length_b 5.772669
_cell_length_c 14.214428
_cell_angle_alpha 90.000000
_cell_angle_beta 153.260300
_cell_angle_gamma 90.000000
_cell_volume 563.449640
_symmetry_space_group_name_H-M "P 2"
_symmetry_group_IT_number 3
_symmetry_cell_setting 'monoclinic'
loop_
_space_group_symop_operation_xyz
x,y,z
-x,y,-z
loop_
_atom_site_type_symbol
_atom_site_label
_atom_site_fract_x
_atom_site_fract_y
_atom_site_fract_z
Si Si1 0.732647 0.981660 0.876143
Si Si2 0.671841 0.682044 0.242889
Si Si3 0.989111 0.599033 0.827366
Si Si4 0.679888 0.913118 0.445022
Si Si5 0.000000 0.248837 0.000000
Si Si6 0.031667 0.227432 0.729021
Si Si7 0.265064 0.180745 0.760213
O O1 0.506849 0.003431 0.679574
O O2 0.822537 0.100209 0.870603
O O3 0.811727 0.719694 0.949856
O O4 0.837868 0.095237 0.067700
O O5 0.613769 0.744825 0.294966
O O6 0.767179 0.425857 0.326343
O O7 0.783398 0.919662 0.321774
O O8 0.500000 0.669862 0.000000
O O9 0.817221 0.779796 0.649649
O O10 0.934374 0.406558 0.850183
O O11 0.020883 0.488606 0.755615
O O12 0.818722 0.112021 0.535123
O O13 0.145395 0.206904 0.741305
O O14 0.500000 0.172524 0.000000
#
# Coordination Sequence:
#
# PCOD9113640 Si02
#       7
#     2   2   2   2   1   2   2
#     4  10  22  45  75  98 144 187 233 302 368 453
#     4  10  23  41  68 103 145 197 254 295 359 432
#     4  10  24  44  72 102 139 182 236 302 365 452
#     4  11  25  44  70 107 142 192 244 300 371 435
#     4  10  22  48  72 106 140 182 236 296 384 448
#     4  10  24  43  66 101 143 186 244 299 367 424
#     4  10  22  40  68  99 141 198 247 304 355 425
#
# _framework density 23.072158000000002
#
# number of rings (size 3 to 8) (size 9 to 14) (size 15 to 20)
#    0.000    1.846    0.000    2.308   10.769    3.077 
#    0.000   18.462    0.000    0.000    0.000    0.000 
#    0.000    0.000    0.000    0.000    0.000    0.000 
#
# Total GULP energy -72615.374484 kJ/mol
# GULP energy per Si atom -5585.798037 kJ/mol
# Density = 2.301964 g / cm^3
# Si number density = 23.072158 Si / 1000 Ang^3
#
#
#
# Elastic Constant Matrix: (Units=GPa)
#
#
# Indices 1 2 3 4 5 6 
#
# 1 164.0025 63.2635 42.0985 0.0000 35.9574 0.0000
# 2 63.2635 139.6916 23.9943 0.0000 18.5205 0.0000
# 3 42.0985 23.9943 83.0557 0.0000 38.2048 0.0000
# 4 0.0000 0.0000 0.0000 -285.3189 0.0000 77.3052
# 5 35.9574 18.5205 38.2048 0.0000 44.7051 0.0000
# 6 0.0000 0.0000 0.0000 77.3052 0.0000 12.6171
#
#
#
# Elastic Compliance Matrix: (Units=1/GPa)
#
#
# Indices 1 2 3 4 5 6 
#
# 1 0.008624 -0.003070 -0.001448 0.000000 -0.004427 0.000000
# 2 -0.003070 0.008744 -0.000724 0.000000 -0.000534 0.000000
# 3 -0.001448 -0.000724 0.020283 0.000000 -0.015869 0.000000
# 4 0.000000 0.000000 0.000000 -0.001318 0.000000 0.008073
# 5 -0.004427 -0.000534 -0.015869 0.000000 0.039713 0.000000
# 6 0.000000 0.000000 0.000000 0.008073 0.000000 0.029795
#
#
# Mechanical properties :
#
#
# Convention : Reuss Voigt Hill
#
# Bulk Modulus (GPa) = 36.80945 71.71804 54.26375
# Shear Modulus (GPa) = 39.87831 -28.43977 5.71927
#
# Velocity S-wave (km/s) = 4.16193 -3.51471 1.57615
# Velocity P-wave (km/s) = 6.25174 3.83155 5.18484
#
# Compressibility (1/GPa) = 0.02716694
#
# Stress axis : x y z
#
# Youngs Moduli (GPa) = 115.95468 114.36138 49.30280
#
# Poissons Ratio (x) = 0.35109 0.07138
# Poissons Ratio (y) = 0.35598 0.03571
# Poissons Ratio (z) = 0.16788 0.08283
#
# Static dielectric constant tensor:
#      x y z
#    x 1.851260 0.000000 -0.156580 
#    y 0.000000 1.941410 0.000000 
#    z -0.156580 0.000000 3.093250 
# 
# From -- ./inp_files/13840.got.cif
#   From: 2010.05.17/outbox.cif.g08.bks.cpg/sg3_7_cif.got.tgz:13840.got - 2010.06.03 18:33:08.
