data_PCOD9113894
_publ_section_title
;
Structure prediction by ZEFSAII (Michael W. Deem and Ramdas Pophale) SiO2 
 PCOD9113894
Probable space group: P 2
;
_chemical_formula_sum "Si O2"
_cell_formula_units_Z 14
_cell_length_a 8.486241
_cell_length_b 5.363999
_cell_length_c 15.129868
_cell_angle_alpha 90.000000
_cell_angle_beta 55.038675
_cell_angle_gamma 90.000000
_cell_volume 564.428360
_symmetry_space_group_name_H-M "P 2"
_symmetry_group_IT_number 3
_symmetry_cell_setting 'monoclinic'
loop_
_space_group_symop_operation_xyz
x,y,z
-x,y,-z
loop_
_atom_site_type_symbol
_atom_site_label
_atom_site_fract_x
_atom_site_fract_y
_atom_site_fract_z
Si Si1 0.404143 0.889330 0.129330
Si Si2 0.697247 0.710876 0.515324
Si Si3 0.222137 0.215743 0.434509
Si Si4 0.409977 0.197762 0.780228
Si Si5 0.285234 0.381885 0.111919
Si Si6 0.062826 0.557297 0.890787
Si Si7 0.265996 0.866778 0.678577
O O1 0.302477 0.622780 0.169549
O O2 0.551620 0.979559 0.159064
O O3 0.256271 0.118720 0.169049
O O4 0.500000 0.870963 0.000000
O O5 0.732931 0.416537 0.502263
O O6 0.467699 0.726228 0.599068
O O7 0.800362 0.853773 0.400264
O O8 0.754828 0.914724 0.571531
O O9 0.378754 0.300872 0.311047
O O10 0.000000 0.265692 0.500000
O O11 0.244188 0.387310 0.861677
O O12 0.330513 0.112073 0.709566
O O13 0.119887 0.416053 0.092519
O O14 0.500000 0.363504 0.000000
O O15 0.131202 0.732035 0.790600
O O16 0.000000 0.696350 0.000000
#
# Coordination Sequence:
#
# PCOD9113894 Si02
#       7
#     2   2   2   2   2   2   2
#     4  10  23  43  69  94 145 195 243 299 366 435
#     4  10  23  46  72 105 146 182 247 305 374 438
#     4  11  24  44  74 108 146 191 239 311 377 449
#     4  11  26  45  72 107 152 194 259 307 376 444
#     4  10  24  44  65  97 139 196 243 302 365 427
#     4  12  26  43  74 107 150 199 259 305 372 449
#     4  10  25  42  73 102 142 191 242 315 368 431
#
# _framework density 24.803857000000001
#
# number of rings (size 3 to 8) (size 9 to 14) (size 15 to 20)
#    0.000    1.429    1.429    2.143   10.000    4.000 
#    0.000    0.000    0.000    0.000    0.000    0.000 
#    0.000    0.000    0.000    0.000    0.000    0.000 
#
# Total GULP energy -77972.836989 kJ/mol
# GULP energy per Si atom -5569.488356 kJ/mol
# Density = 2.474740 g / cm^3
# Si number density = 24.803857 Si / 1000 Ang^3
#
#
#
# Elastic Constant Matrix: (Units=GPa)
#
#
# Indices 1 2 3 4 5 6 
#
# 1 59.7796 -0.9148 43.6180 0.0000 -13.4457 0.0000
# 2 -0.9148 107.8959 12.5832 0.0000 1.4940 0.0000
# 3 43.6180 12.5832 107.1089 0.0000 -9.5298 0.0000
# 4 0.0000 0.0000 0.0000 29.3650 0.0000 7.1851
# 5 -13.4457 1.4940 -9.5298 0.0000 32.6921 0.0000
# 6 0.0000 0.0000 0.0000 7.1851 0.0000 25.8896
#
#
#
# Elastic Compliance Matrix: (Units=1/GPa)
#
#
# Indices 1 2 3 4 5 6 
#
# 1 0.025717 0.001272 -0.009944 0.000000 0.007620 0.000000
# 2 0.001272 0.009479 -0.001667 0.000000 -0.000396 0.000000
# 3 -0.009944 -0.001667 0.013577 0.000000 -0.000056 0.000000
# 4 0.000000 0.000000 0.000000 0.036535 0.000000 -0.010140
# 5 0.007620 -0.000396 -0.000056 0.000000 0.033724 0.000000
# 6 0.000000 0.000000 0.000000 -0.010140 0.000000 0.041440
#
#
# Mechanical properties :
#
#
# Convention : Reuss Voigt Hill
#
# Bulk Modulus (GPa) = 35.59348 42.81747 39.20547
# Shear Modulus (GPa) = 26.24464 32.22254 29.23359
#
# Velocity S-wave (km/s) = 3.25635 3.60820 3.43678
# Velocity P-wave (km/s) = 5.34037 5.88717 5.62042
#
# Compressibility (1/GPa) = 0.02809503
#
# Stress axis : x y z
#
# Youngs Moduli (GPa) = 38.88412 105.49795 73.65512
#
# Poissons Ratio (x) = -0.13422 0.73246
# Poissons Ratio (y) = -0.04947 0.12278
# Poissons Ratio (z) = 0.38668 0.17586
#
# Static dielectric constant tensor:
#      x y z
#    x 2.204770 0.000000 0.098770 
#    y 0.000000 2.046450 0.000000 
#    z 0.098770 0.000000 1.954780 
# 
# From -- ./inp_files/6628.got.cif
#   From: 2010.05.17/outbox.cif.g08.bks.cpg/sg3_4_cif.got.tgz:6628.got - 2010.06.03 18:33:08.
