data_PCOD9113294
_publ_section_title
;
Structure prediction by ZEFSAII (Michael W. Deem and Ramdas Pophale) SiO2 
 PCOD9113294
Probable space group: P 2
;
_chemical_formula_sum "Si O2"
_cell_formula_units_Z 16
_cell_length_a 9.435044
_cell_length_b 10.335573
_cell_length_c 8.749206
_cell_angle_alpha 90.000000
_cell_angle_beta 66.977384
_cell_angle_gamma 90.000000
_cell_volume 785.236371
_symmetry_space_group_name_H-M "P 2"
_symmetry_group_IT_number 3
_symmetry_cell_setting 'monoclinic'
loop_
_space_group_symop_operation_xyz
x,y,z
-x,y,-z
loop_
_atom_site_type_symbol
_atom_site_label
_atom_site_fract_x
_atom_site_fract_y
_atom_site_fract_z
Si Si1 0.926276 0.913170 0.859875
Si Si2 0.838761 0.275745 0.156447
Si Si3 0.363955 0.087562 0.945383
Si Si4 0.877795 0.100398 0.428920
Si Si5 0.873762 0.664427 0.678530
Si Si6 0.913071 0.563762 0.188142
Si Si7 0.658790 0.676871 0.503947
Si Si8 0.577223 0.971151 0.618688
O O1 0.863634 0.782627 0.803804
O O2 0.053944 0.979110 0.696553
O O3 0.000000 0.899679 0.000000
O O4 0.783825 0.012802 0.927214
O O5 0.702985 0.208569 0.119540
O O6 0.842514 0.208074 0.318964
O O7 0.832574 0.429269 0.180853
O O8 0.000000 0.248486 0.000000
O O9 0.450241 0.983377 0.801250
O O10 0.500000 0.129709 0.000000
O O11 0.000000 0.146351 0.500000
O O12 0.729186 0.052714 0.583248
O O13 0.728166 0.625413 0.635849
O O14 0.000000 0.708304 0.500000
O O15 0.953144 0.549241 0.740475
O O16 0.788627 0.657964 0.318665
O O17 0.000000 0.610406 0.000000
O O18 0.500000 0.622971 0.500000
O O19 0.626567 0.825936 0.558717
O O20 0.500000 0.028162 0.500000
#
# Coordination Sequence:
#
# PCOD9113294 Si02
#       8
#     2   2   2   2   2   2   2   2
#     4  12  21  39  66  96 131 168 210 258 325 386
#     4  11  23  45  63  91 126 169 224 269 304 376
#     4  12  23  39  62  96 138 170 202 259 329 389
#     4  12  21  36  61  92 123 165 215 258 310 371
#     4  10  21  38  64  98 125 165 217 262 319 383
#     4  10  23  44  68  86 122 173 224 267 312 367
#     4  10  22  42  63  93 137 163 203 272 323 380
#     4  11  22  38  59  94 134 165 196 258 324 392
#
# _framework density 20.376028999999999
#
# number of rings (size 3 to 8) (size 9 to 14) (size 15 to 20)
#    0.000    1.000    3.750    4.500    0.000    5.500 
#    2.250    4.375    0.000    0.000    0.000    0.000 
#    0.000    0.000    0.000    0.000    0.000    0.000 
#
# Total GULP energy -89297.270925 kJ/mol
# GULP energy per Si atom -5581.079433 kJ/mol
# Density = 2.032965 g / cm^3
# Si number density = 20.376029 Si / 1000 Ang^3
#
#
#
# Elastic Constant Matrix: (Units=GPa)
#
#
# Indices 1 2 3 4 5 6 
#
# 1 163.8469 25.1007 37.4408 0.0000 27.4489 0.0000
# 2 25.1007 74.4283 20.9042 0.0000 3.8121 0.0000
# 3 37.4408 20.9042 83.2211 0.0000 10.2650 0.0000
# 4 0.0000 0.0000 0.0000 12.2109 0.0000 0.1334
# 5 27.4489 3.8121 10.2650 0.0000 39.4428 0.0000
# 6 0.0000 0.0000 0.0000 0.1334 0.0000 -7.9375
#
#
#
# Elastic Compliance Matrix: (Units=1/GPa)
#
#
# Indices 1 2 3 4 5 6 
#
# 1 0.007686 -0.001663 -0.002480 0.000000 -0.004542 0.000000
# 2 -0.001663 0.014824 -0.003039 0.000000 0.000515 0.000000
# 3 -0.002480 -0.003039 0.014099 0.000000 -0.001650 0.000000
# 4 0.000000 0.000000 0.000000 0.081879 0.000000 0.001376
# 5 -0.004542 0.000515 -0.001650 0.000000 0.028894 0.000000
# 6 0.000000 0.000000 0.000000 0.001376 0.000000 -0.125961
#
#
# Mechanical properties :
#
#
# Convention : Reuss Voigt Hill
#
# Bulk Modulus (GPa) = 44.95434 54.26532 49.60983
# Shear Modulus (GPa) = 115.74676 24.61329 70.18002
#
# Velocity S-wave (km/s) = 7.54511 3.47933 5.87514
# Velocity P-wave (km/s) = 9.90026 6.54452 8.39184
#
# Compressibility (1/GPa) = 0.02224479
#
# Stress axis : x y z
#
# Youngs Moduli (GPa) = 130.11274 67.45960 70.92869
#
# Poissons Ratio (x) = 0.11217 0.17589
# Poissons Ratio (y) = 0.21636 0.21555
# Poissons Ratio (z) = 0.32265 0.20501
#
# Static dielectric constant tensor:
#      x y z
#    x 1.799320 0.000000 0.007570 
#    y 0.000000 1.724600 0.000000 
#    z 0.007570 0.000000 1.745900 
# 
# From -- ./inp_files/6007.got.cif
#   From: 2010.05.17/outbox.cif.g08.bks.cpg/sg3_4_cif.got.tgz:6007.got - 2010.06.03 18:33:08.
