data_PCOD9113088
_publ_section_title
;
Structure prediction by ZEFSAII (Michael W. Deem and Ramdas Pophale) SiO2 
 PCOD9113088
Probable space group: P 2
;
_chemical_formula_sum "Si O2"
_cell_formula_units_Z 10
_cell_length_a 13.400042
_cell_length_b 7.488531
_cell_length_c 8.339269
_cell_angle_alpha 90.000000
_cell_angle_beta 28.707781
_cell_angle_gamma 90.000000
_cell_volume 401.959124
_symmetry_space_group_name_H-M "P 2"
_symmetry_group_IT_number 3
_symmetry_cell_setting 'monoclinic'
loop_
_space_group_symop_operation_xyz
x,y,z
-x,y,-z
loop_
_atom_site_type_symbol
_atom_site_label
_atom_site_fract_x
_atom_site_fract_y
_atom_site_fract_z
Si Si1 0.225045 0.318200 0.745091
Si Si2 0.591644 0.815236 0.190285
Si Si3 0.814014 0.705870 0.352954
Si Si4 0.685657 0.201731 0.024022
Si Si5 0.278062 0.520697 0.219186
O O1 0.234558 0.528206 0.684979
O O2 0.433847 0.231766 0.377080
O O3 0.241811 0.282336 0.909362
O O4 0.000000 0.256328 0.000000
O O5 0.500000 0.810676 0.500000
O O6 0.388253 0.825997 0.363173
O O7 0.724952 0.991606 0.973918
O O8 0.698851 0.636724 0.974221
O O9 0.864504 0.626756 0.455344
O O10 0.000000 0.800175 0.000000
O O11 0.774766 0.319779 0.754122
O O12 0.500000 0.516163 0.000000
#
# Coordination Sequence:
#
# PCOD9113088 Si02
#       5
#     2   2   2   2   2
#     4  10  20  39  65  98 128 173 222 265 329 392
#     4  11  21  37  63  95 125 174 217 257 331 396
#     4  10  22  42  66  95 131 176 219 280 331 387
#     4  11  21  40  68  94 130 179 216 270 334 389
#     4  10  21  38  66  96 128 173 221 265 330 395
#
# _framework density 24.878150999999999
#
# number of rings (size 3 to 8) (size 9 to 14) (size 15 to 20)
#    0.000    1.600    6.000    1.200    0.000    3.200 
#    0.000    9.000    0.000    4.800    0.000    0.000 
#    0.000    0.000    0.000    0.000    0.000    0.000 
#
# Total GULP energy -55924.234482 kJ/mol
# GULP energy per Si atom -5592.423448 kJ/mol
# Density = 2.482153 g / cm^3
# Si number density = 24.878151 Si / 1000 Ang^3
#
#
#
# Elastic Constant Matrix: (Units=GPa)
#
#
# Indices 1 2 3 4 5 6 
#
# 1 104.4402 43.5959 35.7291 0.0000 -1.4943 0.0000
# 2 43.5959 118.9124 -3.5418 0.0000 25.7965 0.0000
# 3 35.7291 -3.5418 71.7818 0.0000 9.6991 0.0000
# 4 0.0000 0.0000 0.0000 4.0581 0.0000 -1.5177
# 5 -1.4943 25.7965 9.6991 0.0000 51.6179 0.0000
# 6 0.0000 0.0000 0.0000 -1.5177 0.0000 15.7510
#
#
#
# Elastic Compliance Matrix: (Units=1/GPa)
#
#
# Indices 1 2 3 4 5 6 
#
# 1 0.015794 -0.007319 -0.009007 0.000000 0.005807 0.000000
# 2 -0.007319 0.012914 0.005316 0.000000 -0.007664 0.000000
# 3 -0.009007 0.005316 0.019568 0.000000 -0.006594 0.000000
# 4 0.000000 0.000000 0.000000 0.255634 0.000000 0.024632
# 5 0.005807 -0.007664 -0.006594 0.000000 0.024611 0.000000
# 6 0.000000 0.000000 0.000000 0.024632 0.000000 0.065862
#
#
# Mechanical properties :
#
#
# Convention : Reuss Voigt Hill
#
# Bulk Modulus (GPa) = 38.08786 49.63342 43.86064
# Shear Modulus (GPa) = 11.76042 28.90881 20.33461
#
# Velocity S-wave (km/s) = 2.17657 3.41253 2.86207
# Velocity P-wave (km/s) = 4.65399 5.95996 5.34700
#
# Compressibility (1/GPa) = 0.02625509
#
# Stress axis : x y z
#
# Youngs Moduli (GPa) = 63.31373 77.43670 51.10446
#
# Poissons Ratio (x) = 0.56673 0.46032
# Poissons Ratio (y) = 0.46337 -0.27165
# Poissons Ratio (z) = 0.57029 -0.41162
#
# Static dielectric constant tensor:
#      x y z
#    x 1.965480 0.000000 -0.028640 
#    y 0.000000 1.938090 0.000000 
#    z -0.028640 0.000000 2.061470 
# 
# From -- ./inp_files/8460.got.cif
#   From: 2010.05.17/outbox.cif.g08.bks.cpg/sg3_5_cif.got.tgz:8460.got - 2010.06.03 18:33:08.
