data_PCOD9113724
_publ_section_title
;
Structure prediction by ZEFSAII (Michael W. Deem and Ramdas Pophale) SiO2 
 PCOD9113724
Probable space group: P 2
;
_chemical_formula_sum "Si O2"
_cell_formula_units_Z 11
_cell_length_a 15.749221
_cell_length_b 5.433006
_cell_length_c 14.526781
_cell_angle_alpha 90.000000
_cell_angle_beta 18.535288
_cell_angle_gamma 90.000000
_cell_volume 395.133352
_symmetry_space_group_name_H-M "P 2"
_symmetry_group_IT_number 3
_symmetry_cell_setting 'monoclinic'
loop_
_space_group_symop_operation_xyz
x,y,z
-x,y,-z
loop_
_atom_site_type_symbol
_atom_site_label
_atom_site_fract_x
_atom_site_fract_y
_atom_site_fract_z
Si Si1 0.610723 0.513010 0.783324
Si Si2 0.893745 0.942095 0.295201
Si Si3 0.574867 0.555895 0.514980
Si Si4 0.353245 0.247831 0.886825
Si Si5 0.000000 0.176831 0.000000
Si Si6 0.773809 0.011103 0.660703
O O1 0.390652 0.412762 0.939263
O O2 0.729571 0.781020 0.637421
O O3 0.815763 0.285789 0.579572
O O4 0.500000 0.548721 0.000000
O O5 0.639006 0.117704 0.576174
O O6 0.244800 0.348590 0.718599
O O7 0.132041 0.033549 0.117786
O O8 0.037872 0.010955 0.050348
O O9 0.500000 0.711895 0.500000
O O10 0.331746 0.438453 0.823567
O O11 0.246679 0.687769 0.590257
O O12 0.000000 0.940688 0.500000
O O13 0.500000 0.040834 0.000000
#
# Coordination Sequence:
#
# PCOD9113724 Si02
#       6
#     2   2   2   2   1   2
#     4  10  24  48  75 109 148 201 245 314 381 455
#     4  11  26  42  71 105 145 197 247 314 375 455
#     4  11  24  44  75 102 149 202 251 316 390 458
#     4  11  27  46  67 111 150 187 262 309 377 460
#     4  10  22  44  64 102 142 188 248 300 380 452
#     4  10  22  42  72 104 136 187 245 297 368 445
#
# _framework density 27.838702000000001
#
# number of rings (size 3 to 8) (size 9 to 14) (size 15 to 20)
#    0.000    1.455    1.818    1.091    7.636    5.818 
#    0.000    0.000    0.000    0.000    0.000    0.000 
#    0.000    0.000    0.000    0.000    0.000    0.000 
#
# Total GULP energy -61529.674595 kJ/mol
# GULP energy per Si atom -5593.606781 kJ/mol
# Density = 2.777534 g / cm^3
# Si number density = 27.838702 Si / 1000 Ang^3
#
#
#
# Elastic Constant Matrix: (Units=GPa)
#
#
# Indices 1 2 3 4 5 6 
#
# 1 115.2249 14.3769 17.0975 0.0000 -8.5569 0.0000
# 2 14.3769 159.5657 29.1501 0.0000 -5.9180 0.0000
# 3 17.0975 29.1501 137.0833 0.0000 -11.7556 0.0000
# 4 0.0000 0.0000 0.0000 51.7576 0.0000 -4.9625
# 5 -8.5569 -5.9180 -11.7556 0.0000 40.9447 0.0000
# 6 0.0000 0.0000 0.0000 -4.9625 0.0000 34.5933
#
#
#
# Elastic Compliance Matrix: (Units=1/GPa)
#
#
# Indices 1 2 3 4 5 6 
#
# 1 0.008996 -0.000596 -0.000863 0.000000 0.001546 0.000000
# 2 -0.000596 0.006572 -0.001284 0.000000 0.000457 0.000000
# 3 -0.000863 -0.001284 0.007837 0.000000 0.001884 0.000000
# 4 0.000000 0.000000 0.000000 0.019590 0.000000 0.002810
# 5 0.001546 0.000457 0.001884 0.000000 0.025353 0.000000
# 6 0.000000 0.000000 0.000000 0.002810 0.000000 0.029311
#
#
# Mechanical properties :
#
#
# Convention : Reuss Voigt Hill
#
# Bulk Modulus (GPa) = 55.80268 59.23587 57.51927
# Shear Modulus (GPa) = 45.82218 48.87573 47.34895
#
# Velocity S-wave (km/s) = 4.06148 4.19462 4.12859
# Velocity P-wave (km/s) = 6.48712 6.69210 6.59041
#
# Compressibility (1/GPa) = 0.01792029
#
# Stress axis : x y z
#
# Youngs Moduli (GPa) = 111.16252 152.15611 127.59859
#
# Poissons Ratio (x) = 0.09062 0.11009
# Poissons Ratio (y) = 0.06620 0.16385
# Poissons Ratio (z) = 0.09591 0.19538
#
# Static dielectric constant tensor:
#      x y z
#    x 2.350230 0.000000 -0.029670 
#    y 0.000000 2.237190 0.000000 
#    z -0.029670 0.000000 2.115510 
# 
# From -- ./inp_files/15403.got.cif
#   From: 2010.05.17/outbox.cif.g08.bks.cpg/sg3_8_cif.got.tgz:15403.got - 2010.06.03 18:33:08.
