data_PCOD9113855
_publ_section_title
;
Structure prediction by ZEFSAII (Michael W. Deem and Ramdas Pophale) SiO2 
 PCOD9113855
Probable space group: P 2
;
_chemical_formula_sum "Si O2"
_cell_formula_units_Z 15
_cell_length_a 16.680013
_cell_length_b 5.138883
_cell_length_c 8.229179
_cell_angle_alpha 90.000000
_cell_angle_beta 67.036866
_cell_angle_gamma 90.000000
_cell_volume 649.480648
_symmetry_space_group_name_H-M "P 2"
_symmetry_group_IT_number 3
_symmetry_cell_setting 'monoclinic'
loop_
_space_group_symop_operation_xyz
x,y,z
-x,y,-z
loop_
_atom_site_type_symbol
_atom_site_label
_atom_site_fract_x
_atom_site_fract_y
_atom_site_fract_z
Si Si1 0.869584 0.805500 0.976945
Si Si2 0.695768 0.829757 0.900615
Si Si3 0.232061 0.679424 0.504135
Si Si4 0.956013 0.911769 0.361839
Si Si5 0.500000 0.231775 0.500000
Si Si6 0.691953 0.163056 0.397288
Si Si7 0.094810 0.312968 0.855756
Si Si8 0.624585 0.334108 0.124279
O O1 0.789863 0.806647 0.915150
O O2 0.964607 0.798864 0.811475
O O3 0.000000 0.350407 0.000000
O O4 0.868212 0.079368 0.066996
O O5 0.717593 0.779819 0.696226
O O6 0.639909 0.594841 0.016181
O O7 0.643676 0.092414 0.988648
O O8 0.128264 0.723044 0.557083
O O9 0.265394 0.389245 0.524434
O O10 0.262642 0.890109 0.612126
O O11 0.000000 0.962976 0.500000
O O12 0.919836 0.177324 0.307912
O O13 0.588488 0.101212 0.495352
O O14 0.537627 0.361102 0.304622
O O15 0.693092 0.280325 0.215381
O O16 0.137963 0.579814 0.881582
#
# Coordination Sequence:
#
# PCOD9113855 Si02
#       8
#     2   2   2   2   1   2   2   2
#     4  11  24  45  64  95 136 187 239 282 339 399
#     4  12  24  43  68 107 144 182 223 295 349 399
#     4  12  26  45  69 108 144 189 230 289 351 414
#     4  11  25  49  67 100 145 196 235 297 341 406
#     4   8  24  48  78 106 132 180 232 282 358 426
#     4  10  25  47  75 102 139 177 240 281 350 429
#     4  10  23  40  63  88 121 173 247 286 331 390
#     4  10  24  45  76  98 139 177 226 281 350 426
#
# _framework density 23.095376000000002
#
# number of rings (size 3 to 8) (size 9 to 14) (size 15 to 20)
#    0.800    0.533    1.333    3.600    5.600    4.267 
#    2.400   10.667    0.000    0.000    0.000    0.000 
#    0.000    0.000    0.000    0.000    0.000    0.000 
#
# Total GULP energy -83663.167363 kJ/mol
# GULP energy per Si atom -5577.544491 kJ/mol
# Density = 2.304281 g / cm^3
# Si number density = 23.095376 Si / 1000 Ang^3
#
#
#
# Elastic Constant Matrix: (Units=GPa)
#
#
# Indices 1 2 3 4 5 6 
#
# 1 91.0432 33.3093 26.9470 0.0000 -29.7908 0.0000
# 2 33.3093 141.7474 26.4014 0.0000 -5.8480 0.0000
# 3 26.9470 26.4014 111.5960 0.0000 -15.1497 0.0000
# 4 0.0000 0.0000 0.0000 24.2850 0.0000 -8.2520
# 5 -29.7908 -5.8480 -15.1497 0.0000 52.8908 0.0000
# 6 0.0000 0.0000 0.0000 -8.2520 0.0000 12.8775
#
#
#
# Elastic Compliance Matrix: (Units=1/GPa)
#
#
# Indices 1 2 3 4 5 6 
#
# 1 0.015106 -0.002875 -0.001931 0.000000 0.007638 0.000000
# 2 -0.002875 0.007933 -0.001335 0.000000 -0.001125 0.000000
# 3 -0.001931 -0.001335 0.009963 0.000000 0.001619 0.000000
# 4 0.000000 0.000000 0.000000 0.052640 0.000000 0.033732
# 5 0.007638 -0.001125 0.001619 0.000000 0.023548 0.000000
# 6 0.000000 0.000000 0.000000 0.033732 0.000000 0.099270
#
#
# Mechanical properties :
#
#
# Convention : Reuss Voigt Hill
#
# Bulk Modulus (GPa) = 48.26292 57.52242 52.89267
# Shear Modulus (GPa) = 21.96367 35.19258 28.57812
#
# Velocity S-wave (km/s) = 3.08717 3.90781 3.52148
# Velocity P-wave (km/s) = 5.80087 6.73215 6.28379
#
# Compressibility (1/GPa) = 0.02071984
#
# Stress axis : x y z
#
# Youngs Moduli (GPa) = 66.19742 126.06025 100.37447
#
# Poissons Ratio (x) = 0.36244 0.19379
# Poissons Ratio (y) = 0.19033 0.13402
# Poissons Ratio (z) = 0.12780 0.16831
#
# Static dielectric constant tensor:
#      x y z
#    x 1.971770 0.000000 -0.115000 
#    y 0.000000 1.868580 0.000000 
#    z -0.115000 0.000000 1.994980 
# 
# From -- ./inp_files/8304.got.cif
#   From: 2010.05.17/outbox.cif.g08.bks.cpg/sg3_5_cif.got.tgz:8304.got - 2010.06.03 18:33:08.
