data_PCOD9113387
_publ_section_title
;
Structure prediction by ZEFSAII (Michael W. Deem and Ramdas Pophale) SiO2 
 PCOD9113387
Probable space group: P 2
;
_chemical_formula_sum "Si O2"
_cell_formula_units_Z 15
_cell_length_a 8.277485
_cell_length_b 4.970545
_cell_length_c 17.217559
_cell_angle_alpha 90.000000
_cell_angle_beta 128.037608
_cell_angle_gamma 90.000000
_cell_volume 557.934568
_symmetry_space_group_name_H-M "P 2"
_symmetry_group_IT_number 3
_symmetry_cell_setting 'monoclinic'
loop_
_space_group_symop_operation_xyz
x,y,z
-x,y,-z
loop_
_atom_site_type_symbol
_atom_site_label
_atom_site_fract_x
_atom_site_fract_y
_atom_site_fract_z
Si Si1 0.000000 0.308550 0.500000
Si Si2 0.831605 0.348221 0.291596
Si Si3 0.797274 0.751345 0.633373
Si Si4 0.056210 0.921880 0.170639
Si Si5 0.882839 0.456559 0.043701
Si Si6 0.477063 0.751650 0.228007
Si Si7 0.627178 0.709587 0.428542
Si Si8 0.519014 0.125327 0.093651
O O1 0.925727 0.189246 0.394167
O O2 0.804059 0.493749 0.464454
O O3 0.618889 0.491030 0.257204
O O4 0.746500 0.216277 0.187136
O O5 0.006802 0.564257 0.323527
O O6 0.868965 0.960047 0.719375
O O7 0.712964 0.868718 0.527901
O O8 0.596519 0.601910 0.610501
O O9 0.244285 0.757893 0.186693
O O10 0.879994 0.701072 0.103801
O O11 0.002344 0.195855 0.112081
O O12 0.654873 0.355970 0.955751
O O13 0.000000 0.538358 0.000000
O O14 0.584885 0.873034 0.337657
O O15 0.475887 0.914714 0.148544
O O16 0.500000 0.028733 0.000000
#
# Coordination Sequence:
#
# PCOD9113387 Si02
#       8
#     1   2   2   2   2   2   2   2
#     4   8  16  36  66  98 128 176 224 292 348 436
#     4  10  21  40  65  93 132 178 231 291 360 421
#     4   9  18  37  68 101 135 179 227 291 353 423
#     4  11  24  43  71  99 140 185 237 297 354 425
#     4  12  25  44  68 100 136 189 243 292 355 421
#     4  10  22  41  65  94 132 181 230 288 359 423
#     4   8  16  35  68 100 134 175 229 283 358 421
#     4  12  27  41  62  97 138 183 238 295 357 425
#
# _framework density 26.884869999999999
#
# number of rings (size 3 to 8) (size 9 to 14) (size 15 to 20)
#    0.000    1.867    1.333    2.000    3.733    0.533 
#    0.000    4.000    5.867    3.200    0.000    0.000 
#    0.000    0.000    0.000    0.000    0.000    0.000 
#
# Total GULP energy -83817.246877 kJ/mol
# GULP energy per Si atom -5587.816458 kJ/mol
# Density = 2.682368 g / cm^3
# Si number density = 26.884870 Si / 1000 Ang^3
#
#
#
# Elastic Constant Matrix: (Units=GPa)
#
#
# Indices 1 2 3 4 5 6 
#
# 1 100.4528 7.2780 46.0956 0.0000 23.0766 0.0000
# 2 7.2780 59.8019 51.4518 0.0000 6.2261 0.0000
# 3 46.0956 51.4518 308.0632 0.0000 -35.4733 0.0000
# 4 0.0000 0.0000 0.0000 -39.2148 0.0000 14.4403
# 5 23.0766 6.2261 -35.4733 0.0000 64.1125 0.0000
# 6 0.0000 0.0000 0.0000 14.4403 0.0000 15.9815
#
#
#
# Elastic Compliance Matrix: (Units=1/GPa)
#
#
# Indices 1 2 3 4 5 6 
#
# 1 0.012602 0.001594 -0.002875 0.000000 -0.006282 0.000000
# 2 0.001594 0.020715 -0.004268 0.000000 -0.004947 0.000000
# 3 -0.002875 -0.004268 0.004866 0.000000 0.004142 0.000000
# 4 0.000000 0.000000 0.000000 -0.019134 0.000000 0.017289
# 5 -0.006282 -0.004947 0.004142 0.000000 0.020631 0.000000
# 6 0.000000 0.000000 0.000000 0.017289 0.000000 0.046951
#
#
# Mechanical properties :
#
#
# Convention : Reuss Voigt Hill
#
# Bulk Modulus (GPa) = 36.92126 75.32983 56.12554
# Shear Modulus (GPa) = 46.83579 32.40867 39.62223
#
# Velocity S-wave (km/s) = 4.17836 3.47574 3.84314
# Velocity P-wave (km/s) = 6.08615 6.64740 6.37296
#
# Compressibility (1/GPa) = 0.02708467
#
# Stress axis : x y z
#
# Youngs Moduli (GPa) = 79.35367 48.27456 205.50686
#
# Poissons Ratio (x) = -0.07695 0.59086
# Poissons Ratio (y) = -0.12649 0.87708
# Poissons Ratio (z) = 0.22815 0.20603
#
# Static dielectric constant tensor:
#      x y z
#    x 2.279720 0.000000 0.005560 
#    y 0.000000 2.076010 0.000000 
#    z 0.005560 0.000000 2.125890 
# 
# From -- ./inp_files/14878.got.cif
#   From: 2010.05.17/outbox.cif.g08.bks.cpg/sg3_8_cif.got.tgz:14878.got - 2010.06.03 18:33:08.
