data_PCOD9113237
_publ_section_title
;
Structure prediction by ZEFSAII (Michael W. Deem and Ramdas Pophale) SiO2 
 PCOD9113237
Probable space group: P 2
;
_chemical_formula_sum "Si O2"
_cell_formula_units_Z 9
_cell_length_a 8.773604
_cell_length_b 8.651486
_cell_length_c 13.924474
_cell_angle_alpha 90.000000
_cell_angle_beta 150.381979
_cell_angle_gamma 90.000000
_cell_volume 522.352576
_symmetry_space_group_name_H-M "P 2"
_symmetry_group_IT_number 3
_symmetry_cell_setting 'monoclinic'
loop_
_space_group_symop_operation_xyz
x,y,z
-x,y,-z
loop_
_atom_site_type_symbol
_atom_site_label
_atom_site_fract_x
_atom_site_fract_y
_atom_site_fract_z
Si Si1 0.789832 0.774400 0.096608
Si Si2 0.324768 0.558583 0.138415
Si Si3 0.265713 0.558578 0.452060
Si Si4 0.793940 0.330175 0.293939
Si Si5 0.500000 0.074922 0.000000
O O1 0.094081 0.705410 0.311704
O O2 0.740519 0.957520 0.080173
O O3 0.500000 0.711237 0.000000
O O4 0.753033 0.705417 0.970661
O O5 0.543154 0.598875 0.347720
O O6 0.510254 0.434597 0.176438
O O7 0.000000 0.496293 0.000000
O O8 0.500000 0.496280 0.500000
O O9 0.008802 0.434596 0.342619
O O10 0.668988 0.183092 0.168991
O O11 0.000000 0.289727 0.500000
#
# Coordination Sequence:
#
# PCOD9113237 Si02
#       5
#     2   2   2   2   1
#     4  10  21  38  59  85 113 161 188 239 287 343
#     4  11  21  36  64  89 114 148 203 248 281 332
#     4  11  21  36  64  89 114 148 203 248 281 332
#     4  10  21  37  59  89 113 156 192 240 288 344
#     4  10  22  38  62  76 126 158 186 224 308 348
#
# _framework density 17.229741000000001
#
# number of rings (size 3 to 8) (size 9 to 14) (size 15 to 20)
#    0.667    0.889    4.444    1.333    0.000    1.778 
#    0.000    2.222    0.000    0.000    0.000    0.000 
#    0.000    0.000    0.000    0.000    0.000    0.000 
#
# Total GULP energy -50165.205981 kJ/mol
# GULP energy per Si atom -5573.911776 kJ/mol
# Density = 1.719053 g / cm^3
# Si number density = 17.229741 Si / 1000 Ang^3
#
#
#
# Elastic Constant Matrix: (Units=GPa)
#
#
# Indices 1 2 3 4 5 6 
#
# 1 119.9120 60.1380 54.0846 0.0000 10.3418 0.0000
# 2 60.1380 126.3109 82.5874 0.0000 -16.7523 0.0000
# 3 54.0846 82.5874 115.4181 0.0000 -7.0043 0.0000
# 4 0.0000 0.0000 0.0000 21.2418 0.0000 -7.8352
# 5 10.3418 -16.7523 -7.0043 0.0000 38.9242 0.0000
# 6 0.0000 0.0000 0.0000 -7.8352 0.0000 10.7395
#
#
#
# Elastic Compliance Matrix: (Units=1/GPa)
#
#
# Indices 1 2 3 4 5 6 
#
# 1 0.012586 -0.005062 -0.002640 0.000000 -0.005997 0.000000
# 2 -0.005062 0.017750 -0.009892 0.000000 0.007204 0.000000
# 3 -0.002640 -0.009892 0.016949 0.000000 -0.000506 0.000000
# 4 0.000000 0.000000 0.000000 0.064410 0.000000 0.046991
# 5 -0.005997 0.007204 -0.000506 0.000000 0.030294 0.000000
# 6 0.000000 0.000000 0.000000 0.046991 0.000000 0.127397
#
#
# Mechanical properties :
#
#
# Convention : Reuss Voigt Hill
#
# Bulk Modulus (GPa) = 82.66032 83.91789 83.28911
# Shear Modulus (GPa) = 16.20191 25.16984 20.68587
#
# Velocity S-wave (km/s) = 3.06983 3.82624 3.46871
# Velocity P-wave (km/s) = 7.78747 8.26626 8.03043
#
# Compressibility (1/GPa) = 0.01209770
#
# Stress axis : x y z
#
# Youngs Moduli (GPa) = 79.45417 56.33723 59.00160
#
# Poissons Ratio (x) = 0.28516 0.15575
# Poissons Ratio (y) = 0.40217 0.58365
# Poissons Ratio (z) = 0.20974 0.55729
#
# Static dielectric constant tensor:
#      x y z
#    x 1.604590 0.000000 0.007550 
#    y 0.000000 1.544160 0.000000 
#    z 0.007550 0.000000 1.594480 
# 
# From -- ./inp_files/4930.got.cif
#   From: 2010.05.17/outbox.cif.g08.bks.cpg/sg3_3_cif.got.tgz:4930.got - 2010.06.03 18:33:08.
