data_PCOD9113264
_publ_section_title
;
Structure prediction by ZEFSAII (Michael W. Deem and Ramdas Pophale) SiO2 
 PCOD9113264
Probable space group: P 2
;
_chemical_formula_sum "Si O2"
_cell_formula_units_Z 14
_cell_length_a 17.854628
_cell_length_b 7.109734
_cell_length_c 8.812411
_cell_angle_alpha 90.000000
_cell_angle_beta 142.784364
_cell_angle_gamma 90.000000
_cell_volume 676.585223
_symmetry_space_group_name_H-M "P 2"
_symmetry_group_IT_number 3
_symmetry_cell_setting 'monoclinic'
loop_
_space_group_symop_operation_xyz
x,y,z
-x,y,-z
loop_
_atom_site_type_symbol
_atom_site_label
_atom_site_fract_x
_atom_site_fract_y
_atom_site_fract_z
Si Si1 0.315559 0.565160 0.309060
Si Si2 0.250084 0.777203 0.684519
Si Si3 0.585604 0.518633 0.865260
Si Si4 0.263144 0.167016 0.877817
Si Si5 0.140002 0.846586 0.188781
Si Si6 0.843698 0.229026 0.959029
Si Si7 0.064596 0.450477 0.441621
O O1 0.447747 0.582584 0.603013
O O2 0.334823 0.569122 0.158251
O O3 0.213072 0.714900 0.189748
O O4 0.265341 0.361260 0.275973
O O5 0.228056 0.845407 0.478461
O O6 0.127394 0.650396 0.513868
O O7 0.268582 0.958913 0.820022
O O8 0.359850 0.632827 0.904780
O O9 0.611380 0.293713 0.919310
O O10 0.171087 0.293471 0.627801
O O11 0.201946 0.164007 0.946866
O O12 0.129219 0.052038 0.099754
O O13 0.000000 0.781672 0.000000
O O14 0.962077 0.365126 0.165692
O O15 0.000000 0.463866 0.500000
#
# Coordination Sequence:
#
# PCOD9113264 Si02
#       7
#     2   2   2   2   2   2   2
#     4  10  22  43  65  88 121 163 209 258 306 356
#     4  11  22  37  60  90 125 159 199 251 311 368
#     4   9  21  42  68  91 114 156 216 265 302 352
#     4   9  19  37  62  89 115 155 209 261 304 352
#     4  12  26  38  57  92 130 168 201 242 309 382
#     4  10  21  38  59  86 122 163 209 255 303 359
#     4   9  19  35  59  87 116 158 210 258 300 354
#
# _framework density 20.692145
#
# number of rings (size 3 to 8) (size 9 to 14) (size 15 to 20)
#    0.000    2.000    0.000    3.429    0.000    8.571 
#    0.000    2.857    0.000    0.000    0.000    0.000 
#    0.000    0.000    0.000    0.000    0.000    0.000 
#
# Total GULP energy -78143.773410 kJ/mol
# GULP energy per Si atom -5581.698101 kJ/mol
# Density = 2.064505 g / cm^3
# Si number density = 20.692145 Si / 1000 Ang^3
#
#
#
# Elastic Constant Matrix: (Units=GPa)
#
#
# Indices 1 2 3 4 5 6 
#
# 1 42.7081 38.2686 24.3121 0.0000 13.2770 0.0000
# 2 38.2686 126.5819 26.8993 0.0000 -3.5149 0.0000
# 3 24.3121 26.8993 87.5321 0.0000 -4.5106 0.0000
# 4 0.0000 0.0000 0.0000 22.2040 0.0000 -4.7185
# 5 13.2770 -3.5149 -4.5106 0.0000 22.3995 0.0000
# 6 0.0000 0.0000 0.0000 -4.7185 0.0000 19.1512
#
#
#
# Elastic Compliance Matrix: (Units=1/GPa)
#
#
# Indices 1 2 3 4 5 6 
#
# 1 0.056634 -0.015436 -0.012976 0.000000 -0.038604 0.000000
# 2 -0.015436 0.012674 0.000977 0.000000 0.011335 0.000000
# 3 -0.012976 0.000977 0.015291 0.000000 0.010924 0.000000
# 4 0.000000 0.000000 0.000000 0.047525 0.000000 0.011709
# 5 -0.038604 0.011335 0.010924 0.000000 0.071505 0.000000
# 6 0.000000 0.000000 0.000000 0.011709 0.000000 0.055101
#
#
# Mechanical properties :
#
#
# Convention : Reuss Voigt Hill
#
# Bulk Modulus (GPa) = 33.63762 48.42024 41.02893
# Shear Modulus (GPa) = 15.45543 23.90708 19.68125
#
# Velocity S-wave (km/s) = 2.73595 3.40276 3.08741
# Velocity P-wave (km/s) = 5.12563 6.23614 5.70796
#
# Compressibility (1/GPa) = 0.02972862
#
# Stress axis : x y z
#
# Youngs Moduli (GPa) = 17.65711 78.90171 65.39730
#
# Poissons Ratio (x) = 1.21796 0.84858
# Poissons Ratio (y) = 0.27256 -0.06388
# Poissons Ratio (z) = 0.22912 -0.07707
#
# Static dielectric constant tensor:
#      x y z
#    x 1.756520 0.000000 -0.006750 
#    y 0.000000 1.719840 0.000000 
#    z -0.006750 0.000000 1.759140 
# 
# From -- ./inp_files/8966.got.cif
#   From: 2010.05.17/outbox.cif.g08.bks.cpg/sg3_5_cif.got.tgz:8966.got - 2010.06.03 18:33:08.
