data_PCOD9113992
_publ_section_title
;
Structure prediction by ZEFSAII (Michael W. Deem and Ramdas Pophale) SiO2 
 PCOD9113992
Probable space group: P 2
;
_chemical_formula_sum "Si O2"
_cell_formula_units_Z 14
_cell_length_a 11.433420
_cell_length_b 7.150845
_cell_length_c 8.646324
_cell_angle_alpha 90.000000
_cell_angle_beta 107.210077
_cell_angle_gamma 90.000000
_cell_volume 675.260454
_symmetry_space_group_name_H-M "P 2"
_symmetry_group_IT_number 3
_symmetry_cell_setting 'monoclinic'
loop_
_space_group_symop_operation_xyz
x,y,z
-x,y,-z
loop_
_atom_site_type_symbol
_atom_site_label
_atom_site_fract_x
_atom_site_fract_y
_atom_site_fract_z
Si Si1 0.813041 0.119880 0.593145
Si Si2 0.945310 0.006573 0.141428
Si Si3 0.307555 0.447397 0.259717
Si Si4 0.632644 0.773825 0.478961
Si Si5 0.802714 0.297995 0.263568
Si Si6 0.445959 0.507767 0.812030
Si Si7 0.113035 0.577079 0.936628
O O1 0.752959 0.260173 0.695521
O O2 0.836425 0.239837 0.448876
O O3 0.719271 0.952950 0.517451
O O4 0.939811 0.030489 0.699578
O O5 0.902119 0.795376 0.101452
O O6 0.834386 0.128805 0.161424
O O7 0.000000 0.073992 0.000000
O O8 0.311057 0.607061 0.393486
O O9 0.446475 0.425226 0.254304
O O10 0.231168 0.525810 0.084641
O O11 0.500000 0.820037 0.500000
O O12 0.609447 0.684965 0.301350
O O13 0.662069 0.359448 0.208313
O O14 0.880291 0.467333 0.221255
O O15 0.500000 0.558348 0.000000
O O16 0.000000 0.518945 0.000000
#
# Coordination Sequence:
#
# PCOD9113992 Si02
#       7
#     2   2   2   2   2   2   2
#     4  12  26  44  73 107 139 183 235 290 346 424
#     4  11  26  47  68 103 135 180 241 284 355 415
#     4  11  23  45  73 101 141 187 228 286 355 418
#     4  10  24  43  70 102 141 183 233 285 354 417
#     4  12  25  43  70 101 141 182 230 290 347 417
#     4  11  24  46  70 102 139 185 233 286 353 416
#     4  11  24  46  73  95 141 182 230 292 349 419
#
# _framework density 20.73274
#
# number of rings (size 3 to 8) (size 9 to 14) (size 15 to 20)
#    0.000    0.857    2.857    4.286    4.000    0.000 
#    2.571    2.143    0.000    0.000    0.000    0.000 
#    0.000    0.000    0.000    0.000    0.000    0.000 
#
# Total GULP energy -78326.196200 kJ/mol
# GULP energy per Si atom -5594.728300 kJ/mol
# Density = 2.068555 g / cm^3
# Si number density = 20.732740 Si / 1000 Ang^3
#
#
#
# Elastic Constant Matrix: (Units=GPa)
#
#
# Indices 1 2 3 4 5 6 
#
# 1 128.8810 76.6400 42.7837 0.0000 -5.4246 0.0000
# 2 76.6400 125.0283 55.0144 0.0000 -5.6208 0.0000
# 3 42.7837 55.0144 133.8720 0.0000 0.5219 0.0000
# 4 0.0000 0.0000 0.0000 -70.1574 0.0000 30.6567
# 5 -5.4246 -5.6208 0.5219 0.0000 36.0398 0.0000
# 6 0.0000 0.0000 0.0000 30.6567 0.0000 22.7473
#
#
#
# Elastic Compliance Matrix: (Units=1/GPa)
#
#
# Indices 1 2 3 4 5 6 
#
# 1 0.012343 -0.007074 -0.001041 0.000000 0.000770 0.000000
# 2 -0.007074 0.013908 -0.003459 0.000000 0.001155 0.000000
# 3 -0.001041 -0.003459 0.009227 0.000000 -0.000830 0.000000
# 4 0.000000 0.000000 0.000000 -0.008971 0.000000 0.012090
# 5 0.000770 0.001155 -0.000830 0.000000 0.028055 0.000000
# 6 0.000000 0.000000 0.000000 0.012090 0.000000 0.027668
#
#
# Mechanical properties :
#
#
# Convention : Reuss Voigt Hill
#
# Bulk Modulus (GPa) = 81.09568 81.85081 81.47325
# Shear Modulus (GPa) = 45.66652 11.94884 28.80768
#
# Velocity S-wave (km/s) = 4.69831 2.40329 3.73161
# Velocity P-wave (km/s) = 8.28443 6.87501 7.61241
#
# Compressibility (1/GPa) = 0.01233111
#
# Stress axis : x y z
#
# Youngs Moduli (GPa) = 81.01468 71.89932 108.37334
#
# Poissons Ratio (x) = 0.50859 0.11280
# Poissons Ratio (y) = 0.57307 0.37491
# Poissons Ratio (z) = 0.08433 0.24873
#
# Static dielectric constant tensor:
#      x y z
#    x 1.747640 0.000000 -0.004190 
#    y 0.000000 1.718850 0.000000 
#    z -0.004190 0.000000 1.753950 
# 
# From -- ./inp_files/6704.got.cif
#   From: 2010.05.17/outbox.cif.g08.bks.cpg/sg3_4_cif.got.tgz:6704.got - 2010.06.03 18:33:08.
