data_PCOD9113801
_publ_section_title
;
Structure prediction by ZEFSAII (Michael W. Deem and Ramdas Pophale) SiO2 
 PCOD9113801
Probable space group: P 2
;
_chemical_formula_sum "Si O2"
_cell_formula_units_Z 16
_cell_length_a 13.936680
_cell_length_b 7.114923
_cell_length_c 22.048941
_cell_angle_alpha 90.000000
_cell_angle_beta 18.898260
_cell_angle_gamma 90.000000
_cell_volume 708.130086
_symmetry_space_group_name_H-M "P 2"
_symmetry_group_IT_number 3
_symmetry_cell_setting 'monoclinic'
loop_
_space_group_symop_operation_xyz
x,y,z
-x,y,-z
loop_
_atom_site_type_symbol
_atom_site_label
_atom_site_fract_x
_atom_site_fract_y
_atom_site_fract_z
Si Si1 0.541065 0.918740 0.144556
Si Si2 0.991992 0.441463 0.325783
Si Si3 0.200118 0.816038 0.614105
Si Si4 0.266525 0.130783 0.089593
Si Si5 0.258379 0.521392 0.296257
Si Si6 0.832597 0.739380 0.228044
Si Si7 0.322249 0.351377 0.742584
Si Si8 0.685870 0.262950 0.112481
O O1 0.329296 0.746070 0.253790
O O2 0.487567 0.072479 0.228822
O O3 0.852898 0.824111 0.975103
O O4 0.601883 0.060665 0.052331
O O5 0.938170 0.662414 0.347507
O O6 0.669186 0.340754 0.517691
O O7 0.180396 0.342955 0.159586
O O8 0.154579 0.435590 0.293866
O O9 0.535961 0.860007 0.394846
O O10 0.177966 0.712776 0.692865
O O11 0.021508 0.004594 0.728511
O O12 0.500000 0.068803 0.000000
O O13 0.545803 0.413793 0.150314
O O14 0.000000 0.490353 0.500000
O O15 0.776358 0.551938 0.224669
O O16 0.326672 0.343923 0.812510
O O17 0.039286 0.226543 0.889735
#
# Coordination Sequence:
#
# PCOD9113801 Si02
#       8
#     2   2   2   2   2   2   2   2
#     4  11  25  43  71 104 139 191 234 295 361 427
#     4  11  24  42  71 102 135 182 231 292 354 421
#     4   9  21  40  64  99 136 174 224 286 346 424
#     4  11  24  41  64 103 139 177 229 288 354 434
#     4  12  25  48  71 102 146 195 241 299 351 434
#     4   9  19  41  67  96 136 178 227 285 352 418
#     4  10  22  45  68  99 137 183 236 291 353 422
#     4  11  24  45  68 101 142 182 240 296 355 424
#
# _framework density 22.594716999999999
#
# number of rings (size 3 to 8) (size 9 to 14) (size 15 to 20)
#    0.000    1.500    2.500    1.500    3.500    3.000 
#    9.000    0.000    0.000    0.000    0.000    0.000 
#    0.000    0.000    0.000    0.000    0.000    0.000 
#
# Total GULP energy -89251.008253 kJ/mol
# GULP energy per Si atom -5578.188016 kJ/mol
# Density = 2.254329 g / cm^3
# Si number density = 22.594717 Si / 1000 Ang^3
#
#
#
# Elastic Constant Matrix: (Units=GPa)
#
#
# Indices 1 2 3 4 5 6 
#
# 1 86.7885 41.3724 23.6883 0.0000 -28.3588 0.0000
# 2 41.3724 71.0139 16.6758 0.0000 -0.7938 0.0000
# 3 23.6883 16.6758 51.8132 0.0000 -1.5971 0.0000
# 4 0.0000 0.0000 0.0000 0.2013 0.0000 -45.7312
# 5 -28.3588 -0.7938 -1.5971 0.0000 20.3444 0.0000
# 6 0.0000 0.0000 0.0000 -45.7312 0.0000 -36.3664
#
#
#
# Elastic Compliance Matrix: (Units=1/GPa)
#
#
# Indices 1 2 3 4 5 6 
#
# 1 0.046761 -0.023770 -0.011776 0.000000 0.063331 0.000000
# 2 -0.023770 0.027316 0.001090 0.000000 -0.031982 0.000000
# 3 -0.011776 0.001090 0.023887 0.000000 -0.014498 0.000000
# 4 0.000000 0.000000 0.000000 0.017328 0.000000 -0.021791
# 5 0.063331 -0.031982 -0.014498 0.000000 0.135047 0.000000
# 6 0.000000 0.000000 0.000000 -0.021791 0.000000 -0.000096
#
#
# Mechanical properties :
#
#
# Convention : Reuss Voigt Hill
#
# Bulk Modulus (GPa) = 34.42155 41.45430 37.93793
# Shear Modulus (GPa) = 15.20494 5.36113 10.28304
#
# Velocity S-wave (km/s) = 2.59693 1.54204 2.13564
# Velocity P-wave (km/s) = 4.92539 4.64298 4.78627
#
# Compressibility (1/GPa) = 0.02905156
#
# Stress axis : x y z
#
# Youngs Moduli (GPa) = 21.38513 36.60794 41.86459
#
# Poissons Ratio (x) = 0.87016 0.49302
# Poissons Ratio (y) = 0.50832 -0.04562
# Poissons Ratio (z) = 0.25184 -0.03989
#
# Static dielectric constant tensor:
#      x y z
#    x 1.834500 0.000000 -0.024810 
#    y 0.000000 1.849080 0.000000 
#    z -0.024810 0.000000 1.894500 
# 
# From -- ./inp_files/16330.got.cif
#   From: 2010.05.17/outbox.cif.g08.bks.cpg/sg3_9_cif.got.tgz:16330.got - 2010.06.03 18:33:08.
