data_PCOD9113401
_publ_section_title
;
Structure prediction by ZEFSAII (Michael W. Deem and Ramdas Pophale) SiO2 
 PCOD9113401
Probable space group: P 2
;
_chemical_formula_sum "Si O2"
_cell_formula_units_Z 13
_cell_length_a 5.232310
_cell_length_b 17.931094
_cell_length_c 5.217549
_cell_angle_alpha 90.000000
_cell_angle_beta 94.494262
_cell_angle_gamma 90.000000
_cell_volume 488.010716
_symmetry_space_group_name_H-M "P 2"
_symmetry_group_IT_number 3
_symmetry_cell_setting 'monoclinic'
loop_
_space_group_symop_operation_xyz
x,y,z
-x,y,-z
loop_
_atom_site_type_symbol
_atom_site_label
_atom_site_fract_x
_atom_site_fract_y
_atom_site_fract_z
Si Si1 0.233745 0.425470 0.344758
Si Si2 0.162771 0.114669 0.275230
Si Si3 0.824025 0.800078 0.734670
Si Si4 0.272857 0.267654 0.160245
Si Si5 0.500000 0.518611 0.000000
Si Si6 0.813950 0.633806 0.735209
Si Si7 0.272540 0.959982 0.166057
O O1 0.500000 0.445619 0.500000
O O2 0.227468 0.335717 0.346994
O O3 0.273051 0.459419 0.061132
O O4 0.000000 0.453967 0.500000
O O5 0.351731 0.183737 0.245621
O O6 0.000000 0.142707 0.500000
O O7 0.247549 0.030666 0.350516
O O8 0.000000 0.105698 0.000000
O O9 0.703918 0.718142 0.716567
O O10 0.664946 0.876437 0.737661
O O11 0.000000 0.808100 0.500000
O O12 0.000000 0.797472 0.000000
O O13 0.500000 0.295330 0.000000
O O14 0.000000 0.259469 0.000000
O O15 0.420318 0.578374 0.217030
O O16 0.000000 0.623254 0.500000
O O17 0.000000 0.626684 0.000000
O O18 0.500000 0.984052 0.000000
O O19 0.000000 0.952485 0.000000
#
# Coordination Sequence:
#
# PCOD9113401 Si02
#       7
#     2   2   2   2   1   2   2
#     4  12  28  47  74 105 139 187 241 296 364 431
#     4  10  22  42  67 102 139 185 232 289 344 413
#     4   9  19  40  65  97 135 182 228 284 342 416
#     4  11  23  45  71 102 140 183 235 289 353 422
#     4  12  28  42  72  98 144 180 240 300 360 432
#     4  10  24  44  70 100 141 184 237 291 359 426
#     4  10  21  40  67  99 140 183 232 285 344 410
#
# _framework density 26.638757999999999
#
# number of rings (size 3 to 8) (size 9 to 14) (size 15 to 20)
#    0.000    1.538    0.769    2.769    5.385    1.231 
#    0.000   18.462    0.000    0.000    0.000    0.000 
#    0.000    0.000    0.000    0.000    0.000    0.000 
#
# Total GULP energy -72570.481537 kJ/mol
# GULP energy per Si atom -5582.344734 kJ/mol
# Density = 2.657813 g / cm^3
# Si number density = 26.638758 Si / 1000 Ang^3
#
#
#
# Elastic Constant Matrix: (Units=GPa)
#
#
# Indices 1 2 3 4 5 6 
#
# 1 134.5929 5.7063 54.1960 0.0000 -12.9924 0.0000
# 2 5.7063 241.3605 9.6533 0.0000 -20.1586 0.0000
# 3 54.1960 9.6533 156.3237 0.0000 -18.7722 0.0000
# 4 0.0000 0.0000 0.0000 55.7315 0.0000 -28.4014
# 5 -12.9924 -20.1586 -18.7722 0.0000 70.5987 0.0000
# 6 0.0000 0.0000 0.0000 -28.4014 0.0000 20.7154
#
#
#
# Elastic Compliance Matrix: (Units=1/GPa)
#
#
# Indices 1 2 3 4 5 6 
#
# 1 0.008682 -0.000021 -0.002910 0.000000 0.000818 0.000000
# 2 -0.000021 0.004247 -0.000114 0.000000 0.001179 0.000000
# 3 -0.002910 -0.000114 0.007587 0.000000 0.001449 0.000000
# 4 0.000000 0.000000 0.000000 0.059551 0.000000 0.081646
# 5 0.000818 0.001179 0.001449 0.000000 0.015037 0.000000
# 6 0.000000 0.000000 0.000000 0.081646 0.000000 0.160212
#
#
# Mechanical properties :
#
#
# Convention : Reuss Voigt Hill
#
# Bulk Modulus (GPa) = 69.31772 74.59870 71.95821
# Shear Modulus (GPa) = 18.78195 60.25723 39.51959
#
# Velocity S-wave (km/s) = 2.65818 4.76122 3.85585
# Velocity P-wave (km/s) = 5.95811 7.63481 6.84797
#
# Compressibility (1/GPa) = 0.01442633
#
# Stress axis : x y z
#
# Youngs Moduli (GPa) = 115.18716 235.47997 131.80408
#
# Poissons Ratio (x) = 0.00484 0.38359
# Poissons Ratio (y) = 0.00237 0.01497
# Poissons Ratio (z) = 0.33523 0.02675
#
# Static dielectric constant tensor:
#      x y z
#    x 2.062670 0.000000 0.108110 
#    y 0.000000 2.121460 0.000000 
#    z 0.108110 0.000000 2.056810 
# 
# From -- ./inp_files/597.got.cif
#   From: 2010.05.17/outbox.cif.g08.bks.cpg/sg3_1_cif.got.tgz:597.got - 2010.06.03 18:33:08.
