data_PCOD9113474
_publ_section_title
;
Structure prediction by ZEFSAII (Michael W. Deem and Ramdas Pophale) SiO2 
 PCOD9113474
Probable space group: P 2
;
_chemical_formula_sum "Si O2"
_cell_formula_units_Z 14
_cell_length_a 17.850975
_cell_length_b 8.246836
_cell_length_c 9.246569
_cell_angle_alpha 90.000000
_cell_angle_beta 150.053993
_cell_angle_gamma 90.000000
_cell_volume 679.501294
_symmetry_space_group_name_H-M "P 2"
_symmetry_group_IT_number 3
_symmetry_cell_setting 'monoclinic'
loop_
_space_group_symop_operation_xyz
x,y,z
-x,y,-z
loop_
_atom_site_type_symbol
_atom_site_label
_atom_site_fract_x
_atom_site_fract_y
_atom_site_fract_z
Si Si1 0.823343 0.038480 0.703282
Si Si2 0.716345 0.578371 0.244385
Si Si3 0.128942 0.373111 0.125738
Si Si4 0.729643 0.950938 0.239414
Si Si5 0.608868 0.585139 0.397105
Si Si6 0.927419 0.272282 0.533292
Si Si7 0.441448 0.936840 0.564036
O O1 0.823427 0.231927 0.683708
O O2 0.733589 0.960607 0.420320
O O3 0.720750 0.012245 0.671924
O O4 0.000000 0.986473 0.000000
O O5 0.762848 0.758922 0.264450
O O6 0.679894 0.600555 0.354417
O O7 0.827676 0.431344 0.400698
O O8 0.559135 0.525170 0.909366
O O9 0.272415 0.473942 0.323202
O O10 0.000000 0.468882 0.000000
O O11 0.056827 0.281722 0.870327
O O12 0.843565 0.097519 0.392020
O O13 0.572356 0.987741 0.896438
O O14 0.588663 0.749437 0.450660
O O15 0.000000 0.295123 0.500000
O O16 0.500000 0.963486 0.500000
#
# Coordination Sequence:
#
# PCOD9113474 Si02
#       7
#     2   2   2   2   2   2   2
#     4  11  22  42  69 102 132 181 238 279 342 425
#     4  10  22  43  69 103 128 184 232 277 340 418
#     4  11  22  42  66 102 133 173 239 284 340 426
#     4  11  23  45  70  97 141 183 237 278 343 428
#     4  10  21  42  70  96 136 173 234 282 338 417
#     4  12  27  45  66 102 143 181 225 292 359 406
#     4  11  26  42  68 107 137 178 233 295 354 404
#
# _framework density 20.603346999999999
#
# number of rings (size 3 to 8) (size 9 to 14) (size 15 to 20)
#    0.000    1.143    5.714    0.429    4.000    4.571 
#    0.000    0.714    0.000    0.000    0.000    0.000 
#    0.000    0.000    0.000    0.000    0.000    0.000 
#
# Total GULP energy -78019.077187 kJ/mol
# GULP energy per Si atom -5572.791228 kJ/mol
# Density = 2.055645 g / cm^3
# Si number density = 20.603347 Si / 1000 Ang^3
#
#
#
# Elastic Constant Matrix: (Units=GPa)
#
#
# Indices 1 2 3 4 5 6 
#
# 1 129.2093 37.7776 49.4723 0.0000 9.5174 0.0000
# 2 37.7776 95.2483 65.3401 0.0000 20.4429 0.0000
# 3 49.4723 65.3401 134.9488 0.0000 16.1348 0.0000
# 4 0.0000 0.0000 0.0000 54.5397 0.0000 22.1800
# 5 9.5174 20.4429 16.1348 0.0000 15.9227 0.0000
# 6 0.0000 0.0000 0.0000 22.1800 0.0000 35.8747
#
#
#
# Elastic Compliance Matrix: (Units=1/GPa)
#
#
# Indices 1 2 3 4 5 6 
#
# 1 0.009259 -0.001875 -0.002404 0.000000 -0.000691 0.000000
# 2 -0.001875 0.019533 -0.006720 0.000000 -0.017148 0.000000
# 3 -0.002404 -0.006720 0.011768 0.000000 -0.001860 0.000000
# 4 0.000000 0.000000 0.000000 0.024494 0.000000 -0.015144
# 5 -0.000691 -0.017148 -0.001860 0.000000 0.087117 0.000000
# 6 0.000000 0.000000 0.000000 -0.015144 0.000000 0.037238
#
#
# Mechanical properties :
#
#
# Convention : Reuss Voigt Hill
#
# Bulk Modulus (GPa) = 53.87405 73.84293 63.85849
# Shear Modulus (GPa) = 22.97882 35.05519 29.01700
#
# Velocity S-wave (km/s) = 3.34323 4.12932 3.75689
# Velocity P-wave (km/s) = 6.41154 7.65853 7.06261
#
# Compressibility (1/GPa) = 0.01856181
#
# Stress axis : x y z
#
# Youngs Moduli (GPa) = 108.00448 51.19635 84.97978
#
# Poissons Ratio (x) = 0.09599 0.20428
# Poissons Ratio (y) = 0.20249 0.57105
# Poissons Ratio (z) = 0.25963 0.34403
#
# Static dielectric constant tensor:
#      x y z
#    x 1.790900 0.000000 -0.002510 
#    y 0.000000 1.770520 0.000000 
#    z -0.002510 0.000000 1.765470 
# 
# From -- ./inp_files/9107.got.cif
#   From: 2010.05.17/outbox.cif.g08.bks.cpg/sg3_5_cif.got.tgz:9107.got - 2010.06.03 18:33:08.
