data_PCOD9113034
_publ_section_title
;
Structure prediction by ZEFSAII (Michael W. Deem and Ramdas Pophale) SiO2 
 PCOD9113034
Probable space group: P 2
;
_chemical_formula_sum "Si O2"
_cell_formula_units_Z 13
_cell_length_a 9.324823
_cell_length_b 4.836885
_cell_length_c 10.998848
_cell_angle_alpha 90.000000
_cell_angle_beta 88.352197
_cell_angle_gamma 90.000000
_cell_volume 495.876959
_symmetry_space_group_name_H-M "P 2"
_symmetry_group_IT_number 3
_symmetry_cell_setting 'monoclinic'
loop_
_space_group_symop_operation_xyz
x,y,z
-x,y,-z
loop_
_atom_site_type_symbol
_atom_site_label
_atom_site_fract_x
_atom_site_fract_y
_atom_site_fract_z
Si Si1 0.261093 0.829190 0.651055
Si Si2 0.436679 0.366474 0.692917
Si Si3 0.308118 0.702611 0.201557
Si Si4 0.000000 0.039539 0.500000
Si Si5 0.133311 0.229595 0.255536
Si Si6 0.898472 0.941484 0.100144
Si Si7 0.351519 0.320748 0.971464
O O1 0.336184 0.548793 0.610313
O O2 0.192322 0.807193 0.788760
O O3 0.128734 0.886399 0.566486
O O4 0.390949 0.056010 0.656436
O O5 0.583925 0.540778 0.708914
O O6 0.376908 0.389710 0.831447
O O7 0.273022 0.025567 0.226203
O O8 0.159871 0.549818 0.231728
O O9 0.342152 0.580221 0.064907
O O10 0.918115 0.202645 0.606552
O O11 0.006188 0.134152 0.172105
O O12 0.787258 0.129092 0.026358
O O13 0.000000 0.784297 0.000000
O O14 0.500000 0.164757 0.000000
#
# Coordination Sequence:
#
# PCOD9113034 Si02
#       7
#     2   2   2   1   2   2   2
#     4  10  23  42  66  93 127 175 216 266 323 384
#     4  10  22  41  66  97 133 171 211 261 328 395
#     4  11  23  42  65  99 132 168 216 264 326 391
#     4  10  26  48  66  90 130 174 220 276 332 370
#     4  11  25  42  66  95 128 170 219 274 317 385
#     4  10  20  38  62  97 127 165 215 267 316 383
#     4   9  20  38  64  95 139 175 206 261 331 396
#
# _framework density 26.216180999999999
#
# number of rings (size 3 to 8) (size 9 to 14) (size 15 to 20)
#    0.000    1.846    1.538    0.923    2.154    9.846 
#    0.000    9.231    0.000    0.000    0.000    0.000 
#    0.000    0.000    0.000    0.000    0.000    0.000 
#
# Total GULP energy -72575.840996 kJ/mol
# GULP energy per Si atom -5582.757000 kJ/mol
# Density = 2.615651 g / cm^3
# Si number density = 26.216181 Si / 1000 Ang^3
#
#
#
# Elastic Constant Matrix: (Units=GPa)
#
#
# Indices 1 2 3 4 5 6 
#
# 1 86.4856 31.1821 14.1984 0.0000 20.8224 0.0000
# 2 31.1821 81.4160 18.2172 0.0000 11.4396 0.0000
# 3 14.1984 18.2172 106.1265 0.0000 4.7466 0.0000
# 4 0.0000 0.0000 0.0000 -2.2855 0.0000 3.6777
# 5 20.8224 11.4396 4.7466 0.0000 38.7615 0.0000
# 6 0.0000 0.0000 0.0000 3.6777 0.0000 16.2544
#
#
#
# Elastic Compliance Matrix: (Units=1/GPa)
#
#
# Indices 1 2 3 4 5 6 
#
# 1 0.014951 -0.004599 -0.000917 0.000000 -0.006562 0.000000
# 2 -0.004599 0.014684 -0.001832 0.000000 -0.001639 0.000000
# 3 -0.000917 -0.001832 0.009868 0.000000 -0.000175 0.000000
# 4 0.000000 0.000000 0.000000 -0.320762 0.000000 0.072576
# 5 -0.006562 -0.001639 -0.000175 0.000000 0.029829 0.000000
# 6 0.000000 0.000000 0.000000 0.072576 0.000000 0.045101
#
#
# Mechanical properties :
#
#
# Convention : Reuss Voigt Hill
#
# Bulk Modulus (GPa) = 40.31213 44.58039 42.44626
# Shear Modulus (GPa) = -27.26823 24.57479 -1.34672
#
# Velocity S-wave (km/s) = -3.22860 3.06500 -0.71750
# Velocity P-wave (km/s) = 1.22951 5.43760 3.94203
#
# Compressibility (1/GPa) = 0.02480643
#
# Stress axis : x y z
#
# Youngs Moduli (GPa) = 66.88389 68.10036 101.34026
#
# Poissons Ratio (x) = 0.31319 0.09296
# Poissons Ratio (y) = 0.30760 0.18566
# Poissons Ratio (z) = 0.06136 0.12476
#
# Static dielectric constant tensor:
#      x y z
#    x 2.129780 0.000000 -0.015480 
#    y 0.000000 2.020480 0.000000 
#    z -0.015480 0.000000 2.072380 
# 
# From -- ./inp_files/10265.got.cif
#   From: 2010.05.17/outbox.cif.g08.bks.cpg/sg3_6_cif.got.tgz:10265.got - 2010.06.03 18:33:08.
