data_PCOD9113553
_publ_section_title
;
Structure prediction by ZEFSAII (Michael W. Deem and Ramdas Pophale) SiO2 
 PCOD9113553
Probable space group: P 2
;
_chemical_formula_sum "Si O2"
_cell_formula_units_Z 14
_cell_length_a 13.307899
_cell_length_b 5.610828
_cell_length_c 13.018009
_cell_angle_alpha 90.000000
_cell_angle_beta 133.965662
_cell_angle_gamma 90.000000
_cell_volume 699.626588
_symmetry_space_group_name_H-M "P 2"
_symmetry_group_IT_number 3
_symmetry_cell_setting 'monoclinic'
loop_
_space_group_symop_operation_xyz
x,y,z
-x,y,-z
loop_
_atom_site_type_symbol
_atom_site_label
_atom_site_fract_x
_atom_site_fract_y
_atom_site_fract_z
Si Si1 0.511023 0.373030 0.701864
Si Si2 0.000000 0.392286 0.000000
Si Si3 0.799412 0.425314 0.494365
Si Si4 0.383633 0.880978 0.285711
Si Si5 0.000000 0.728662 0.500000
Si Si6 0.030970 0.038203 0.716586
Si Si7 0.232721 0.162543 0.022135
Si Si8 0.153904 0.725293 0.272119
O O1 0.358360 0.357303 0.642650
O O2 0.537017 0.628026 0.665070
O O3 0.638054 0.342502 0.872451
O O4 0.529927 0.129136 0.648289
O O5 0.890481 0.242258 0.988407
O O6 0.911438 0.551866 0.858821
O O7 0.876302 0.573398 0.460711
O O8 0.787923 0.578862 0.590397
O O9 0.906445 0.215385 0.597667
O O10 0.274837 0.871407 0.301851
O O11 0.295652 0.921043 0.117066
O O12 0.941589 0.885103 0.364978
O O13 0.167485 0.153751 0.863278
O O14 0.968419 0.880588 0.764720
#
# Coordination Sequence:
#
# PCOD9113553 Si02
#       8
#     2   1   2   2   1   2   2   2
#     4  10  25  42  66  97 148 182 221 280 345 422
#     4  12  18  40  58 108 142 190 222 276 330 418
#     4  11  25  46  66 101 134 183 234 299 352 413
#     4  10  22  42  60 101 146 190 218 264 338 420
#     4  10  26  44  76  92 132 168 248 312 356 400
#     4  11  23  42  69 102 124 185 236 295 348 402
#     4  10  22  37  68  97 144 180 226 279 335 418
#     4  11  22  35  65  97 147 183 234 267 335 419
#
# _framework density 20.010674000000002
#
# number of rings (size 3 to 8) (size 9 to 14) (size 15 to 20)
#    0.857    0.571    2.857    2.143    6.000    0.571 
#    0.000    0.000    0.000   12.857    0.000    0.000 
#    0.000    0.000    0.000    0.000    0.000    0.000 
#
# Total GULP energy -78112.538113 kJ/mol
# GULP energy per Si atom -5579.467008 kJ/mol
# Density = 1.996513 g / cm^3
# Si number density = 20.010674 Si / 1000 Ang^3
#
#
#
# Elastic Constant Matrix: (Units=GPa)
#
#
# Indices 1 2 3 4 5 6 
#
# 1 94.3488 34.3125 57.1805 0.0000 -7.9890 0.0000
# 2 34.3125 96.1236 29.1891 0.0000 -4.6238 0.0000
# 3 57.1805 29.1891 94.4709 0.0000 11.3905 0.0000
# 4 0.0000 0.0000 0.0000 14.8220 0.0000 -31.7282
# 5 -7.9890 -4.6238 11.3905 0.0000 22.5985 0.0000
# 6 0.0000 0.0000 0.0000 -31.7282 0.0000 -51.4185
#
#
#
# Elastic Compliance Matrix: (Units=1/GPa)
#
#
# Indices 1 2 3 4 5 6 
#
# 1 0.020886 -0.002720 -0.013441 0.000000 0.013602 0.000000
# 2 -0.002720 0.012262 -0.002480 0.000000 0.002797 0.000000
# 3 -0.013441 -0.002480 0.021423 0.000000 -0.016057 0.000000
# 4 0.000000 0.000000 0.000000 0.029070 0.000000 -0.017938
# 5 0.013602 0.002797 -0.016057 0.000000 0.057725 0.000000
# 6 0.000000 0.000000 0.000000 -0.017938 0.000000 -0.008380
#
#
# Mechanical properties :
#
#
# Convention : Reuss Voigt Hill
#
# Bulk Modulus (GPa) = 57.83904 58.47861 58.15882
# Shear Modulus (GPa) = 28.40420 8.15116 18.27768
#
# Velocity S-wave (km/s) = 3.77165 2.02046 3.02552
# Velocity P-wave (km/s) = 6.92344 5.89323 6.42900
#
# Compressibility (1/GPa) = 0.01728936
#
# Stress axis : x y z
#
# Youngs Moduli (GPa) = 47.87894 81.55540 46.67844
#
# Poissons Ratio (x) = 0.22180 0.62742
# Poissons Ratio (y) = 0.13021 0.11575
# Poissons Ratio (z) = 0.64356 0.20223
#
# Static dielectric constant tensor:
#      x y z
#    x 1.666640 0.000000 0.026940 
#    y 0.000000 1.784030 0.000000 
#    z 0.026940 0.000000 1.758320 
# 
# From -- ./inp_files/13631.got.cif
#   From: 2010.05.17/outbox.cif.g08.bks.cpg/sg3_7_cif.got.tgz:13631.got - 2010.06.03 18:33:08.
