data_PCOD9113527
_publ_section_title
;
Structure prediction by ZEFSAII (Michael W. Deem and Ramdas Pophale) SiO2 
 PCOD9113527
Probable space group: P 2
;
_chemical_formula_sum "Si O2"
_cell_formula_units_Z 10
_cell_length_a 10.003558
_cell_length_b 7.307900
_cell_length_c 7.115098
_cell_angle_alpha 90.000000
_cell_angle_beta 43.169894
_cell_angle_gamma 90.000000
_cell_volume 355.867379
_symmetry_space_group_name_H-M "P 2"
_symmetry_group_IT_number 3
_symmetry_cell_setting 'monoclinic'
loop_
_space_group_symop_operation_xyz
x,y,z
-x,y,-z
loop_
_atom_site_type_symbol
_atom_site_label
_atom_site_fract_x
_atom_site_fract_y
_atom_site_fract_z
Si Si1 0.514813 0.765760 0.708617
Si Si2 0.914816 0.901267 0.271945
Si Si3 0.818405 0.290878 0.402697
Si Si4 0.276774 0.092327 0.103738
Si Si5 0.263758 0.424547 0.894474
O O1 0.500000 0.802263 0.500000
O O2 0.744689 0.774855 0.528013
O O3 0.370206 0.594110 0.881962
O O4 0.425020 0.930541 0.915050
O O5 0.823696 0.093205 0.292259
O O6 0.000000 0.804488 0.000000
O O7 0.079742 0.985265 0.237846
O O8 0.245744 0.215647 0.325215
O O9 0.717119 0.422627 0.352009
O O10 0.035907 0.384504 0.186253
O O11 0.358314 0.243018 0.877725
#
# Coordination Sequence:
#
# PCOD9113527 Si02
#       5
#     2   2   2   2   2
#     4  12  26  44  79 124 165 218 285 359 435 518
#     4  11  20  44  78 114 155 223 287 344 429 520
#     4  10  21  47  86 117 161 234 284 348 447 529
#     4  11  24  50  81 113 167 223 284 356 433 526
#     4  10  22  46  76 120 164 218 280 355 431 523
#
# _framework density 28.100355
#
# number of rings (size 3 to 8) (size 9 to 14) (size 15 to 20)
#    0.000    1.200    6.000    2.400    0.000    6.400 
#    0.000   18.000    0.000    0.000    0.000    0.000 
#    0.000    0.000    0.000    0.000    0.000    0.000 
#
# Total GULP energy -55848.126089 kJ/mol
# GULP energy per Si atom -5584.812609 kJ/mol
# Density = 2.803640 g / cm^3
# Si number density = 28.100355 Si / 1000 Ang^3
#
#
#
# Elastic Constant Matrix: (Units=GPa)
#
#
# Indices 1 2 3 4 5 6 
#
# 1 138.0590 59.2785 66.3240 0.0000 12.0210 0.0000
# 2 59.2785 188.7208 76.3120 0.0000 -7.1017 0.0000
# 3 66.3240 76.3120 156.6819 0.0000 2.4521 0.0000
# 4 0.0000 0.0000 0.0000 59.8407 0.0000 -5.8660
# 5 12.0210 -7.1017 2.4521 0.0000 54.7089 0.0000
# 6 0.0000 0.0000 0.0000 -5.8660 0.0000 -10.3073
#
#
#
# Elastic Compliance Matrix: (Units=1/GPa)
#
#
# Indices 1 2 3 4 5 6 
#
# 1 0.009773 -0.001863 -0.003195 0.000000 -0.002246 0.000000
# 2 -0.001863 0.007009 -0.002648 0.000000 0.001438 0.000000
# 3 -0.003195 -0.002648 0.009025 0.000000 -0.000046 0.000000
# 4 0.000000 0.000000 0.000000 0.015828 0.000000 -0.009008
# 5 -0.002246 0.001438 -0.000046 0.000000 0.018961 0.000000
# 6 0.000000 0.000000 0.000000 -0.009008 0.000000 -0.091892
#
#
# Mechanical properties :
#
#
# Convention : Reuss Voigt Hill
#
# Bulk Modulus (GPa) = 96.18148 98.58785 97.38467
# Shear Modulus (GPa) = -402.54937 39.61827 -181.46555
#
# Velocity S-wave (km/s) = -11.98187 3.75892 -8.04474
# Velocity P-wave (km/s) = 12.53468 7.34844 7.18048
#
# Compressibility (1/GPa) = 0.01039701
#
# Stress axis : x y z
#
# Youngs Moduli (GPa) = 102.31892 142.68245 110.80372
#
# Poissons Ratio (x) = 0.26575 0.35400
# Poissons Ratio (y) = 0.19057 0.29336
# Poissons Ratio (z) = 0.32689 0.37777
#
# Static dielectric constant tensor:
#      x y z
#    x 2.289240 0.000000 -0.071310 
#    y 0.000000 2.110800 0.000000 
#    z -0.071310 0.000000 2.404700 
# 
# From -- ./inp_files/14094.got.cif
#   From: 2010.05.17/outbox.cif.g08.bks.cpg/sg3_8_cif.got.tgz:14094.got - 2010.06.03 18:33:08.
