data_PCOD9113948
_publ_section_title
;
Structure prediction by ZEFSAII (Michael W. Deem and Ramdas Pophale) SiO2 
 PCOD9113948
Probable space group: P 2
;
_chemical_formula_sum "Si O2"
_cell_formula_units_Z 14
_cell_length_a 8.557724
_cell_length_b 5.199124
_cell_length_c 20.965088
_cell_angle_alpha 90.000000
_cell_angle_beta 37.018409
_cell_angle_gamma 90.000000
_cell_volume 561.607989
_symmetry_space_group_name_H-M "P 2"
_symmetry_group_IT_number 3
_symmetry_cell_setting 'monoclinic'
loop_
_space_group_symop_operation_xyz
x,y,z
-x,y,-z
loop_
_atom_site_type_symbol
_atom_site_label
_atom_site_fract_x
_atom_site_fract_y
_atom_site_fract_z
Si Si1 0.810372 0.668070 0.436433
Si Si2 0.968180 0.454021 0.260654
Si Si3 0.478814 0.727417 0.933029
Si Si4 0.788951 0.031062 0.744720
Si Si5 0.254771 0.153277 0.460307
Si Si6 0.894002 0.601301 0.137602
Si Si7 0.416954 0.128112 0.768008
O O1 0.788364 0.423928 0.489715
O O2 0.765232 0.575431 0.378025
O O3 0.694142 0.923481 0.506324
O O4 0.099261 0.782355 0.328226
O O5 0.274973 0.542508 0.161497
O O6 0.001738 0.163554 0.277087
O O7 0.897197 0.542694 0.213013
O O8 0.542918 0.965028 0.867528
O O9 0.500000 0.803859 0.000000
O O10 0.187662 0.637131 0.019062
O O11 0.675316 0.191299 0.724071
O O12 0.494426 0.162071 0.333875
O O13 0.000000 0.091450 0.500000
O O14 0.783980 0.341139 0.145109
O O15 0.711826 0.846990 0.183802
#
# Coordination Sequence:
#
# PCOD9113948 Si02
#       7
#     2   2   2   2   2   2   2
#     4  11  22  40  72 104 128 179 252 294 330 412
#     4  10  23  46  76 103 137 193 248 287 342 443
#     4   9  23  44  75 104 135 193 239 282 348 436
#     4  11  24  44  78 107 142 183 253 290 349 438
#     4  12  23  41  71  99 141 188 237 291 356 432
#     4  11  28  48  69 105 155 185 230 304 373 415
#     4  12  28  46  68 110 148 187 232 305 373 415
#
# _framework density 24.928422000000001
#
# number of rings (size 3 to 8) (size 9 to 14) (size 15 to 20)
#    0.000    1.143    2.857    1.286   14.000    1.143 
#    0.000    4.286    0.000    0.000    0.000    0.000 
#    0.000    0.000    0.000    0.000    0.000    0.000 
#
# Total GULP energy -78164.239885 kJ/mol
# GULP energy per Si atom -5583.159992 kJ/mol
# Density = 2.487168 g / cm^3
# Si number density = 24.928422 Si / 1000 Ang^3
#
#
#
# Elastic Constant Matrix: (Units=GPa)
#
#
# Indices 1 2 3 4 5 6 
#
# 1 56.4513 39.4900 2.1433 0.0000 -9.5309 0.0000
# 2 39.4900 135.4763 32.8394 0.0000 8.9763 0.0000
# 3 2.1433 32.8394 107.7658 0.0000 15.7127 0.0000
# 4 0.0000 0.0000 0.0000 31.0951 0.0000 -17.5430
# 5 -9.5309 8.9763 15.7127 0.0000 33.1850 0.0000
# 6 0.0000 0.0000 0.0000 -17.5430 0.0000 16.8405
#
#
#
# Elastic Compliance Matrix: (Units=1/GPa)
#
#
# Indices 1 2 3 4 5 6 
#
# 1 0.024782 -0.007970 0.000627 0.000000 0.008976 0.000000
# 2 -0.007970 0.010570 -0.002483 0.000000 -0.003972 0.000000
# 3 0.000627 -0.002483 0.010634 0.000000 -0.004183 0.000000
# 4 0.000000 0.000000 0.000000 0.078000 0.000000 0.081254
# 5 0.008976 -0.003972 -0.004183 0.000000 0.035767 0.000000
# 6 0.000000 0.000000 0.000000 0.081254 0.000000 0.144024
#
#
# Mechanical properties :
#
#
# Convention : Reuss Voigt Hill
#
# Bulk Modulus (GPa) = 37.97647 49.84875 43.91261
# Shear Modulus (GPa) = 15.05087 31.23885 23.14486
#
# Velocity S-wave (km/s) = 2.45983 3.54381 3.05036
# Velocity P-wave (km/s) = 4.83062 6.06506 5.48270
#
# Compressibility (1/GPa) = 0.02633209
#
# Stress axis : x y z
#
# Youngs Moduli (GPa) = 40.35231 94.60923 94.04222
#
# Poissons Ratio (x) = 0.75407 -0.05898
# Poissons Ratio (y) = 0.32162 0.23353
# Poissons Ratio (z) = -0.02531 0.23493
#
# Static dielectric constant tensor:
#      x y z
#    x 2.075870 0.000000 -0.006550 
#    y 0.000000 2.021990 0.000000 
#    z -0.006550 0.000000 1.927850 
# 
# From -- ./inp_files/15702.got.cif
#   From: 2010.05.17/outbox.cif.g08.bks.cpg/sg3_8_cif.got.tgz:15702.got - 2010.06.03 18:33:08.
