data_PCOD9113157
_publ_section_title
;
Structure prediction by ZEFSAII (Michael W. Deem and Ramdas Pophale) SiO2 
 PCOD9113157
Probable space group: P 2
;
_chemical_formula_sum "Si O2"
_cell_formula_units_Z 13
_cell_length_a 11.340482
_cell_length_b 5.555244
_cell_length_c 14.274399
_cell_angle_alpha 90.000000
_cell_angle_beta 138.930603
_cell_angle_gamma 90.000000
_cell_volume 590.799037
_symmetry_space_group_name_H-M "P 2"
_symmetry_group_IT_number 3
_symmetry_cell_setting 'monoclinic'
loop_
_space_group_symop_operation_xyz
x,y,z
-x,y,-z
loop_
_atom_site_type_symbol
_atom_site_label
_atom_site_fract_x
_atom_site_fract_y
_atom_site_fract_z
Si Si1 0.360061 0.282870 0.035841
Si Si2 0.968264 0.507016 0.087488
Si Si3 0.177448 0.999856 0.433492
Si Si4 0.719343 0.491669 0.219198
Si Si5 0.302122 0.487392 0.422416
Si Si6 0.000000 0.183091 0.500000
Si Si7 0.194404 0.879588 0.863272
O O1 0.190658 0.308175 0.003223
O O2 0.310096 0.380332 0.902129
O O3 0.366674 0.003300 0.013405
O O4 0.540453 0.422369 0.169295
O O5 0.877255 0.704100 0.099365
O O6 0.155844 0.454278 0.251470
O O7 0.000000 0.578936 0.000000
O O8 0.291121 0.236890 0.473913
O O9 0.130564 0.022174 0.514658
O O10 0.249726 0.735202 0.446793
O O11 0.984943 0.031176 0.266195
O O12 0.758844 0.761227 0.209003
O O13 0.884647 0.361694 0.366106
O O14 0.500000 0.518687 0.500000
#
# Coordination Sequence:
#
# PCOD9113157 Si02
#       7
#     2   2   2   2   2   1   2
#     4  10  20  42  62  93 128 179 217 270 345 413
#     4  10  22  40  62  95 127 168 226 287 331 396
#     4  11  23  43  70  97 138 181 221 281 347 411
#     4  10  23  38  67  95 134 176 225 275 341 409
#     4  11  24  46  69  95 132 186 230 279 348 409
#     4  12  22  44  64 110 138 174 228 292 340 420
#     4  10  20  43  65  92 133 182 220 273 350 415
#
# _framework density 22.004100000000001
#
# number of rings (size 3 to 8) (size 9 to 14) (size 15 to 20)
#    0.000    1.538    3.077    2.308    0.000    9.231 
#    2.769    0.000    0.000    0.000    0.000    0.000 
#    0.000    0.000    0.000    0.000    0.000    0.000 
#
# Total GULP energy -72432.257166 kJ/mol
# GULP energy per Si atom -5571.712090 kJ/mol
# Density = 2.195402 g / cm^3
# Si number density = 22.004100 Si / 1000 Ang^3
#
#
#
# Elastic Constant Matrix: (Units=GPa)
#
#
# Indices 1 2 3 4 5 6 
#
# 1 146.5689 56.4626 49.3214 0.0000 13.7101 0.0000
# 2 56.4626 94.9355 24.3398 0.0000 12.1064 0.0000
# 3 49.3214 24.3398 54.1933 0.0000 9.4413 0.0000
# 4 0.0000 0.0000 0.0000 13.9185 0.0000 6.3624
# 5 13.7101 12.1064 9.4413 0.0000 40.3645 0.0000
# 6 0.0000 0.0000 0.0000 6.3624 0.0000 23.6504
#
#
#
# Elastic Compliance Matrix: (Units=1/GPa)
#
#
# Indices 1 2 3 4 5 6 
#
# 1 0.011419 -0.004610 -0.008222 0.000000 -0.000573 0.000000
# 2 -0.004610 0.013997 -0.001701 0.000000 -0.002234 0.000000
# 3 -0.008222 -0.001701 0.027234 0.000000 -0.003067 0.000000
# 4 0.000000 0.000000 0.000000 0.081921 0.000000 -0.022038
# 5 -0.000573 -0.002234 -0.003067 0.000000 0.026356 0.000000
# 6 0.000000 0.000000 0.000000 -0.022038 0.000000 0.048211
#
#
# Mechanical properties :
#
#
# Convention : Reuss Voigt Hill
#
# Bulk Modulus (GPa) = 42.40492 61.77170 52.08831
# Shear Modulus (GPa) = 20.31974 26.62495 23.47234
#
# Velocity S-wave (km/s) = 3.04213 3.48228 3.26962
# Velocity P-wave (km/s) = 5.62607 6.65598 6.16258
#
# Compressibility (1/GPa) = 0.02358217
#
# Stress axis : x y z
#
# Youngs Moduli (GPa) = 87.57173 71.44613 36.71903
#
# Poissons Ratio (x) = 0.32940 0.30191
# Poissons Ratio (y) = 0.40375 0.06246
# Poissons Ratio (z) = 0.72003 0.12153
#
# Static dielectric constant tensor:
#      x y z
#    x 1.812410 0.000000 0.039620 
#    y 0.000000 2.109220 0.000000 
#    z 0.039620 0.000000 1.829360 
# 
# From -- ./inp_files/13682.got.cif
#   From: 2010.05.17/outbox.cif.g08.bks.cpg/sg3_7_cif.got.tgz:13682.got - 2010.06.03 18:33:08.
