data_PCOD9113822
_publ_section_title
;
Structure prediction by ZEFSAII (Michael W. Deem and Ramdas Pophale) SiO2 
 PCOD9113822
Probable space group: P 2
;
_chemical_formula_sum "Si O2"
_cell_formula_units_Z 14
_cell_length_a 18.247438
_cell_length_b 6.624641
_cell_length_c 9.004147
_cell_angle_alpha 90.000000
_cell_angle_beta 38.000836
_cell_angle_gamma 90.000000
_cell_volume 670.126683
_symmetry_space_group_name_H-M "P 2"
_symmetry_group_IT_number 3
_symmetry_cell_setting 'monoclinic'
loop_
_space_group_symop_operation_xyz
x,y,z
-x,y,-z
loop_
_atom_site_type_symbol
_atom_site_label
_atom_site_fract_x
_atom_site_fract_y
_atom_site_fract_z
Si Si1 0.500000 0.924300 0.000000
Si Si2 0.316885 0.022990 0.767781
Si Si3 0.607596 0.709859 0.112633
Si Si4 0.041308 0.041973 0.280525
Si Si5 0.917379 0.333247 0.254241
Si Si6 0.728461 0.010406 0.491014
Si Si7 0.844216 0.712804 0.547739
Si Si8 0.500000 0.378930 0.500000
O O1 0.537460 0.786475 0.079558
O O2 0.391461 0.058736 0.228836
O O3 0.301514 0.936446 0.626206
O O4 0.388886 0.232490 0.638552
O O5 0.387168 0.882913 0.770577
O O6 0.183006 0.034708 0.045630
O O7 0.546696 0.518470 0.289525
O O8 0.743922 0.690617 0.835249
O O9 0.000000 0.143164 0.500000
O O10 0.997039 0.169622 0.211817
O O11 0.964092 0.834406 0.399666
O O12 0.810915 0.206595 0.351740
O O13 0.872261 0.493414 0.442879
O O14 0.000000 0.437320 0.000000
O O15 0.789890 0.841952 0.496730
#
# Coordination Sequence:
#
# PCOD9113822 Si02
#       8
#     1   2   2   2   2   2   2   1
#     4  10  22  46  72  90 132 178 222 274 334 398
#     4  12  25  45  69 100 137 177 224 276 336 402
#     4  11  25  47  66 101 134 174 229 272 336 404
#     4  11  24  45  69  97 139 180 221 277 337 394
#     4  11  24  41  65 105 134 173 227 270 333 398
#     4  10  23  43  66  97 133 178 218 278 329 392
#     4  10  25  42  70  98 137 181 222 277 330 395
#     4  12  28  42  70 102 136 174 224 282 334 398
#
# _framework density 20.891570000000002
#
# number of rings (size 3 to 8) (size 9 to 14) (size 15 to 20)
#    0.000    1.143    2.857    2.143    4.000    6.286 
#    0.000    1.429    0.000    0.000    0.000    0.000 
#    0.000    0.000    0.000    0.000    0.000    0.000 
#
# Total GULP energy -78188.746658 kJ/mol
# GULP energy per Si atom -5584.910476 kJ/mol
# Density = 2.084402 g / cm^3
# Si number density = 20.891570 Si / 1000 Ang^3
#
#
#
# Elastic Constant Matrix: (Units=GPa)
#
#
# Indices 1 2 3 4 5 6 
#
# 1 115.4278 26.9130 46.3941 0.0000 4.7672 0.0000
# 2 26.9130 76.2322 52.6596 0.0000 -3.2012 0.0000
# 3 46.3941 52.6596 179.2809 0.0000 -5.3130 0.0000
# 4 0.0000 0.0000 0.0000 30.4335 0.0000 4.8155
# 5 4.7672 -3.2012 -5.3130 0.0000 38.2450 0.0000
# 6 0.0000 0.0000 0.0000 4.8155 0.0000 1.6085
#
#
#
# Elastic Compliance Matrix: (Units=1/GPa)
#
#
# Indices 1 2 3 4 5 6 
#
# 1 0.010060 -0.002246 -0.001995 0.000000 -0.001719 0.000000
# 2 -0.002246 0.016978 -0.004373 0.000000 0.001093 0.000000
# 3 -0.001995 -0.004373 0.007405 0.000000 0.000911 0.000000
# 4 0.000000 0.000000 0.000000 0.062436 0.000000 -0.186923
# 5 -0.001719 0.001093 0.000911 0.000000 0.026580 0.000000
# 6 0.000000 0.000000 0.000000 -0.186923 0.000000 1.181331
#
#
# Mechanical properties :
#
#
# Convention : Reuss Voigt Hill
#
# Bulk Modulus (GPa) = 58.08682 69.20823 63.64752
# Shear Modulus (GPa) = 3.76576 30.38902 17.07739
#
# Velocity S-wave (km/s) = 1.34404 3.81807 2.86217
# Velocity P-wave (km/s) = 5.50208 7.25508 6.43852
#
# Compressibility (1/GPa) = 0.01721561
#
# Stress axis : x y z
#
# Youngs Moduli (GPa) = 99.40633 58.90147 135.03490
#
# Poissons Ratio (x) = 0.13229 0.26933
# Poissons Ratio (y) = 0.22326 0.59053
# Poissons Ratio (z) = 0.19827 0.25758
#
# Static dielectric constant tensor:
#      x y z
#    x 1.782600 0.000000 -0.016250 
#    y 0.000000 1.713660 0.000000 
#    z -0.016250 0.000000 1.765430 
# 
# From -- ./inp_files/8831.got.cif
#   From: 2010.05.17/outbox.cif.g08.bks.cpg/sg3_5_cif.got.tgz:8831.got - 2010.06.03 18:33:08.
