data_PCOD9113149
_publ_section_title
;
Structure prediction by ZEFSAII (Michael W. Deem and Ramdas Pophale) SiO2 
 PCOD9113149
Probable space group: P 2
;
_chemical_formula_sum "Si O2"
_cell_formula_units_Z 7
_cell_length_a 6.580784
_cell_length_b 4.783952
_cell_length_c 8.359905
_cell_angle_alpha 90.000000
_cell_angle_beta 92.041301
_cell_angle_gamma 90.000000
_cell_volume 263.020807
_symmetry_space_group_name_H-M "P 2"
_symmetry_group_IT_number 3
_symmetry_cell_setting 'monoclinic'
loop_
_space_group_symop_operation_xyz
x,y,z
-x,y,-z
loop_
_atom_site_type_symbol
_atom_site_label
_atom_site_fract_x
_atom_site_fract_y
_atom_site_fract_z
Si Si1 0.500000 0.310100 0.000000
Si Si2 0.127787 0.635741 0.144238
Si Si3 0.756939 0.301832 0.292952
Si Si4 0.776823 0.770672 0.512052
O O1 0.318774 0.491927 0.068196
O O2 0.609423 0.170563 0.153967
O O3 0.224205 0.799806 0.297132
O O4 0.960920 0.412617 0.208713
O O5 0.000000 0.791222 0.000000
O O6 0.657900 0.563826 0.387655
O O7 0.781069 0.066916 0.427069
O O8 0.000000 0.637951 0.500000
#
# Coordination Sequence:
#
# PCOD9113149 Si02
#       4
#     1   2   2   2
#     4  10  22  44  66 102 138 174 220 274 334 400
#     4   9  20  42  70  99 134 175 221 275 334 395
#     4  10  22  42  68  94 129 173 220 271 325 386
#     4  10  20  41  68  94 127 172 220 270 325 386
#
# _framework density 26.613862000000001
#
# number of rings (size 3 to 8) (size 9 to 14) (size 15 to 20)
#    0.000    2.286    0.000    2.571    0.000    2.286 
#    0.000   72.857    0.000    0.000    0.000    0.000 
#    0.000    0.000    0.000    0.000    0.000    0.000 
#
# Total GULP energy -39045.427707 kJ/mol
# GULP energy per Si atom -5577.918244 kJ/mol
# Density = 2.655329 g / cm^3
# Si number density = 26.613862 Si / 1000 Ang^3
#
#
#
# Elastic Constant Matrix: (Units=GPa)
#
#
# Indices 1 2 3 4 5 6 
#
# 1 119.6358 12.4548 72.0448 0.0000 2.2534 0.0000
# 2 12.4548 105.1045 80.5387 0.0000 9.9681 0.0000
# 3 72.0448 80.5387 246.4101 0.0000 35.2292 0.0000
# 4 0.0000 0.0000 0.0000 57.4826 0.0000 -0.4581
# 5 2.2534 9.9681 35.2292 0.0000 62.2028 0.0000
# 6 0.0000 0.0000 0.0000 -0.4581 0.0000 0.3047
#
#
#
# Elastic Compliance Matrix: (Units=1/GPa)
#
#
# Indices 1 2 3 4 5 6 
#
# 1 0.010437 0.001499 -0.003757 0.000000 0.001510 0.000000
# 2 0.001499 0.012916 -0.004740 0.000000 0.000560 0.000000
# 3 -0.003757 -0.004740 0.007158 0.000000 -0.003158 0.000000
# 4 0.000000 0.000000 0.000000 0.017608 0.000000 0.026472
# 5 0.001510 0.000560 -0.003158 0.000000 0.017721 0.000000
# 6 0.000000 0.000000 0.000000 0.026472 0.000000 3.322004
#
#
# Mechanical properties :
#
#
# Convention : Reuss Voigt Hill
#
# Bulk Modulus (GPa) = 60.55480 89.02520 74.79000
# Shear Modulus (GPa) = 1.46742 44.40550 22.93646
#
# Velocity S-wave (km/s) = 0.74335 4.08917 2.93887
# Velocity P-wave (km/s) = 4.85173 7.47117 6.29911
#
# Compressibility (1/GPa) = 0.01651397
#
# Stress axis : x y z
#
# Youngs Moduli (GPa) = 95.81416 77.42587 139.71206
#
# Poissons Ratio (x) = -0.11608 0.52495
# Poissons Ratio (y) = -0.14365 0.66222
# Poissons Ratio (z) = 0.36001 0.36699
#
# Static dielectric constant tensor:
#      x y z
#    x 2.283160 0.000000 0.074040 
#    y 0.000000 2.206210 0.000000 
#    z 0.074040 0.000000 2.186430 
# 
# From -- ./inp_files/4049.got.cif
#   From: 2010.05.17/outbox.cif.g08.bks.cpg/sg3_3_cif.got.tgz:4049.got - 2010.06.03 18:33:08.
