data_PCOD9113333
_publ_section_title
;
Structure prediction by ZEFSAII (Michael W. Deem and Ramdas Pophale) SiO2 
 PCOD9113333
Probable space group: P 2
;
_chemical_formula_sum "Si O2"
_cell_formula_units_Z 16
_cell_length_a 8.336029
_cell_length_b 18.519654
_cell_length_c 9.294606
_cell_angle_alpha 90.000000
_cell_angle_beta 146.808220
_cell_angle_gamma 90.000000
_cell_volume 785.528800
_symmetry_space_group_name_H-M "P 2"
_symmetry_group_IT_number 3
_symmetry_cell_setting 'monoclinic'
loop_
_space_group_symop_operation_xyz
x,y,z
-x,y,-z
loop_
_atom_site_type_symbol
_atom_site_label
_atom_site_fract_x
_atom_site_fract_y
_atom_site_fract_z
Si Si1 0.334211 0.283620 0.726677
Si Si2 0.827604 0.516470 0.019788
Si Si3 0.721216 0.673307 0.035050
Si Si4 0.333087 0.172640 0.223370
Si Si5 0.336544 0.892086 0.727949
Si Si6 0.672414 0.423165 0.480522
Si Si7 0.340934 0.752093 0.528853
Si Si8 0.333325 0.003787 0.223611
O O1 0.512979 0.221867 0.778483
O O2 0.317650 0.353722 0.612415
O O3 0.000000 0.259495 0.500000
O O4 0.500000 0.300083 0.000000
O O5 0.013216 0.455118 0.240708
O O6 0.806699 0.589383 0.094268
O O7 0.514083 0.484955 0.739804
O O8 0.000000 0.532325 0.000000
O O9 0.542770 0.692168 0.757043
O O10 0.500000 0.687777 0.000000
O O11 0.014253 0.721228 0.263491
O O12 0.500000 0.178641 0.500000
O O13 0.330944 0.088196 0.178476
O O14 0.000000 0.196196 0.000000
O O15 0.334305 0.820869 0.627901
O O16 0.510025 0.954636 0.775632
O O17 0.000000 0.913695 0.500000
O O18 0.500000 0.876793 0.000000
O O19 0.500000 0.406334 0.500000
O O20 0.500000 0.771809 0.500000
O O21 0.500000 0.997869 0.500000
O O22 0.000000 0.980173 0.000000
#
# Coordination Sequence:
#
# PCOD9113333 Si02
#       8
#     2   2   2   2   2   2   2   2
#     4  12  25  39  61  94 130 162 204 262 315 364
#     4  10  21  39  63  90 118 158 208 254 304 371
#     4  12  25  42  65  94 126 159 201 260 320 369
#     4  10  22  42  67  92 125 169 212 251 299 369
#     4  12  25  41  64  94 130 164 202 257 315 366
#     4  10  22  40  62  86 120 164 209 251 302 371
#     4  12  25  43  65  89 123 167 212 254 300 369
#     4  10  22  42  67  95 126 165 212 253 299 367
#
# _framework density 20.368445000000001
#
# number of rings (size 3 to 8) (size 9 to 14) (size 15 to 20)
#    0.000    1.000    0.000    7.125    0.000    6.000 
#    0.000    0.000    0.000    0.000    0.000    0.000 
#    0.000    0.000    0.000    0.000    0.000    0.000 
#
# Total GULP energy -89587.499765 kJ/mol
# GULP energy per Si atom -5599.218735 kJ/mol
# Density = 2.032209 g / cm^3
# Si number density = 20.368445 Si / 1000 Ang^3
#
#
#
# Elastic Constant Matrix: (Units=GPa)
#
#
# Indices 1 2 3 4 5 6 
#
# 1 138.8891 74.3100 62.3619 0.0000 13.6357 0.0000
# 2 74.3100 73.3158 14.5803 0.0000 9.2931 0.0000
# 3 62.3619 14.5803 119.3935 0.0000 21.4681 0.0000
# 4 0.0000 0.0000 0.0000 54.3436 0.0000 -22.7136
# 5 13.6357 9.2931 21.4681 0.0000 31.7371 0.0000
# 6 0.0000 0.0000 0.0000 -22.7136 0.0000 44.2925
#
#
#
# Elastic Compliance Matrix: (Units=1/GPa)
#
#
# Indices 1 2 3 4 5 6 
#
# 1 0.022933 -0.021679 -0.009905 0.000000 0.003195 0.000000
# 2 -0.021679 0.034792 0.008233 0.000000 -0.006442 0.000000
# 3 -0.009905 0.008233 0.013903 0.000000 -0.007560 0.000000
# 4 0.000000 0.000000 0.000000 0.023421 0.000000 0.012011
# 5 0.003195 -0.006442 -0.007560 0.000000 0.037136 0.000000
# 6 0.000000 0.000000 0.000000 0.012011 0.000000 0.028736
#
#
# Mechanical properties :
#
#
# Convention : Reuss Voigt Hill
#
# Bulk Modulus (GPa) = 40.11982 70.45588 55.28785
# Shear Modulus (GPa) = 23.15537 38.09771 30.62654
#
# Velocity S-wave (km/s) = 3.37534 4.32954 3.88187
# Velocity P-wave (km/s) = 5.91019 7.72392 6.87711
#
# Compressibility (1/GPa) = 0.02492533
#
# Stress axis : x y z
#
# Youngs Moduli (GPa) = 43.60587 28.74247 71.92498
#
# Poissons Ratio (x) = 0.62310 0.71245
# Poissons Ratio (y) = 0.94532 -0.59216
# Poissons Ratio (z) = 0.43193 -0.23664
#
# Static dielectric constant tensor:
#      x y z
#    x 1.699920 0.000000 0.001380 
#    y 0.000000 1.693490 0.000000 
#    z 0.001380 0.000000 1.689880 
# 
# From -- ./inp_files/6274.got.cif
#   From: 2010.05.17/outbox.cif.g08.bks.cpg/sg3_4_cif.got.tgz:6274.got - 2010.06.03 18:33:08.
