data_PCOD9113725
_publ_section_title
;
Structure prediction by ZEFSAII (Michael W. Deem and Ramdas Pophale) SiO2 
 PCOD9113725
Probable space group: P 2
;
_chemical_formula_sum "Si O2"
_cell_formula_units_Z 11
_cell_length_a 14.936004
_cell_length_b 5.602212
_cell_length_c 15.361482
_cell_angle_alpha 90.000000
_cell_angle_beta 160.551351
_cell_angle_gamma 90.000000
_cell_volume 427.978156
_symmetry_space_group_name_H-M "P 2"
_symmetry_group_IT_number 3
_symmetry_cell_setting 'monoclinic'
loop_
_space_group_symop_operation_xyz
x,y,z
-x,y,-z
loop_
_atom_site_type_symbol
_atom_site_label
_atom_site_fract_x
_atom_site_fract_y
_atom_site_fract_z
Si Si1 0.000000 0.519891 0.500000
Si Si2 0.322395 0.503420 0.474742
Si Si3 0.127043 0.772135 0.031400
Si Si4 0.598829 0.143700 0.833187
Si Si5 0.086265 0.517474 0.760710
Si Si6 0.467118 0.888993 0.876785
O O1 0.064155 0.384021 0.647784
O O2 0.243660 0.689927 0.692441
O O3 0.585012 0.650647 0.689883
O O4 0.424336 0.238549 0.591603
O O5 0.195030 0.578208 0.451492
O O6 0.088606 0.569427 0.193503
O O7 0.187533 0.957532 0.009814
O O8 0.000000 0.891692 0.000000
O O9 0.418108 0.042222 0.745929
O O10 0.756558 0.358843 0.024860
O O11 0.259017 0.749047 0.895643
O O12 0.500000 0.019269 0.000000
#
# Coordination Sequence:
#
# PCOD9113725 Si02
#       6
#     1   2   2   2   2   2
#     4  10  22  42  72 106 162 204 252 312 382 446
#     4  12  26  51  80 111 155 202 254 325 395 461
#     4  12  29  54  79 114 157 201 256 332 399 468
#     4  12  25  46  81 111 156 207 264 316 390 473
#     4  11  23  45  72 112 152 204 260 317 379 461
#     4  10  23  44  69 108 159 204 259 319 380 458
#
# _framework density 25.702247
#
# number of rings (size 3 to 8) (size 9 to 14) (size 15 to 20)
#    0.000    0.727    3.636    2.727    2.545    7.273 
#    3.273    1.818    0.000    0.000    0.000    0.000 
#    0.000    0.000    0.000    0.000    0.000    0.000 
#
# Total GULP energy -61547.786898 kJ/mol
# GULP energy per Si atom -5595.253354 kJ/mol
# Density = 2.564375 g / cm^3
# Si number density = 25.702247 Si / 1000 Ang^3
#
#
#
# Elastic Constant Matrix: (Units=GPa)
#
#
# Indices 1 2 3 4 5 6 
#
# 1 178.5106 29.5436 30.4098 0.0000 28.1173 0.0000
# 2 29.5436 48.6618 17.3686 0.0000 10.7387 0.0000
# 3 30.4098 17.3686 113.7233 0.0000 26.1498 0.0000
# 4 0.0000 0.0000 0.0000 13.8207 0.0000 18.5953
# 5 28.1173 10.7387 26.1498 0.0000 47.1929 0.0000
# 6 0.0000 0.0000 0.0000 18.5953 0.0000 23.3031
#
#
#
# Elastic Compliance Matrix: (Units=1/GPa)
#
#
# Indices 1 2 3 4 5 6 
#
# 1 0.006698 -0.003198 -0.000633 0.000000 -0.002912 0.000000
# 2 -0.003198 0.023796 -0.002260 0.000000 -0.002257 0.000000
# 3 -0.000633 -0.002260 0.010432 0.000000 -0.004889 0.000000
# 4 0.000000 0.000000 0.000000 -0.982381 0.000000 0.783916
# 5 -0.002912 -0.002257 -0.004889 0.000000 0.026147 0.000000
# 6 0.000000 0.000000 0.000000 0.783916 0.000000 -0.582633
#
#
# Mechanical properties :
#
#
# Convention : Reuss Voigt Hill
#
# Bulk Modulus (GPa) = 34.78987 55.05996 44.92491
# Shear Modulus (GPa) = -3.38713 34.43492 15.52389
#
# Velocity S-wave (km/s) = -1.14921 3.66425 2.46029
# Velocity P-wave (km/s) = 3.43572 6.27463 5.05842
#
# Compressibility (1/GPa) = 0.02874400
#
# Stress axis : x y z
#
# Youngs Moduli (GPa) = 149.30631 42.02337 95.85984
#
# Poissons Ratio (x) = 0.13438 0.06068
# Poissons Ratio (y) = 0.47744 0.21666
# Poissons Ratio (z) = 0.09451 0.09498
#
# Static dielectric constant tensor:
#      x y z
#    x 2.017670 0.000000 -0.095060 
#    y 0.000000 2.072230 0.000000 
#    z -0.095060 0.000000 2.105340 
# 
# From -- ./inp_files/2810.got.cif
#   From: 2010.05.17/outbox.cif.g08.bks.cpg/sg3_2_cif.got.tgz:2810.got - 2010.06.03 18:33:08.
