data_PCOD9113438
_publ_section_title
;
Structure prediction by ZEFSAII (Michael W. Deem and Ramdas Pophale) SiO2 
 PCOD9113438
Probable space group: P 2
;
_chemical_formula_sum "Si O2"
_cell_formula_units_Z 15
_cell_length_a 6.099069
_cell_length_b 8.580914
_cell_length_c 14.036452
_cell_angle_alpha 90.000000
_cell_angle_beta 63.409772
_cell_angle_gamma 90.000000
_cell_volume 656.907112
_symmetry_space_group_name_H-M "P 2"
_symmetry_group_IT_number 3
_symmetry_cell_setting 'monoclinic'
loop_
_space_group_symop_operation_xyz
x,y,z
-x,y,-z
loop_
_atom_site_type_symbol
_atom_site_label
_atom_site_fract_x
_atom_site_fract_y
_atom_site_fract_z
Si Si1 0.827710 0.810660 0.384205
Si Si2 0.570418 0.712282 0.259818
Si Si3 0.243871 0.471783 0.895891
Si Si4 0.293625 0.915193 0.174385
Si Si5 0.289261 0.092349 0.462255
Si Si6 0.365493 0.226724 0.242397
Si Si7 0.917338 0.501651 0.621405
Si Si8 0.500000 0.690443 0.000000
O O1 0.627272 0.807729 0.341903
O O2 0.064536 0.880683 0.286360
O O3 0.878741 0.629577 0.393255
O O4 0.765031 0.920223 0.484128
O O5 0.784745 0.593329 0.186113
O O6 0.519476 0.837884 0.187688
O O7 0.334449 0.602624 0.324636
O O8 0.393940 0.324485 0.830140
O O9 0.411694 0.573470 0.935131
O O10 0.000000 0.432936 0.000000
O O11 0.317503 0.100217 0.169404
O O12 0.293731 0.810876 0.079426
O O13 0.500000 0.152381 0.500000
O O14 0.395157 0.136559 0.337670
O O15 0.000000 0.141520 0.500000
O O16 0.145615 0.352672 0.301116
O O17 0.000000 0.454685 0.500000
#
# Coordination Sequence:
#
# PCOD9113438 Si02
#       8
#     2   2   2   2   2   2   2   1
#     4  11  22  39  72  95 137 193 245 293 355 434
#     4   9  21  41  64  99 127 176 243 305 350 442
#     4  10  22  45  72  98 141 176 246 307 385 441
#     4  10  21  41  67  97 135 174 238 300 374 438
#     4  12  26  47  75 106 156 206 252 308 369 444
#     4  11  24  47  64 105 149 187 236 314 376 454
#     4  10  23  39  60  93 140 183 237 286 355 435
#     4  10  22  44  74 100 128 184 244 312 374 446
#
# _framework density 22.834278000000001
#
# number of rings (size 3 to 8) (size 9 to 14) (size 15 to 20)
#    0.000    1.600    1.333    3.200    5.600    0.533 
#   12.000    5.333    0.000    0.000    0.000    0.000 
#    0.000    0.000    0.000    0.000    0.000    0.000 
#
# Total GULP energy -83575.987395 kJ/mol
# GULP energy per Si atom -5571.732493 kJ/mol
# Density = 2.278231 g / cm^3
# Si number density = 22.834278 Si / 1000 Ang^3
#
#
#
# Elastic Constant Matrix: (Units=GPa)
#
#
# Indices 1 2 3 4 5 6 
#
# 1 48.2532 13.9176 18.2792 0.0000 2.9643 0.0000
# 2 13.9176 123.4271 50.9413 0.0000 -5.1540 0.0000
# 3 18.2792 50.9413 126.5731 0.0000 -25.7236 0.0000
# 4 0.0000 0.0000 0.0000 41.8131 0.0000 -9.9449
# 5 2.9643 -5.1540 -25.7236 0.0000 37.4199 0.0000
# 6 0.0000 0.0000 0.0000 -9.9449 0.0000 8.6934
#
#
#
# Elastic Compliance Matrix: (Units=1/GPa)
#
#
# Indices 1 2 3 4 5 6 
#
# 1 0.022762 -0.001222 -0.003715 0.000000 -0.004525 0.000000
# 2 -0.001222 0.009861 -0.004064 0.000000 -0.001339 0.000000
# 3 -0.003715 -0.004064 0.011646 0.000000 0.007740 0.000000
# 4 0.000000 0.000000 0.000000 0.032855 0.000000 0.037585
# 5 -0.004525 -0.001339 0.007740 0.000000 0.032219 0.000000
# 6 0.000000 0.000000 0.000000 0.037585 0.000000 0.158026
#
#
# Mechanical properties :
#
#
# Convention : Reuss Voigt Hill
#
# Bulk Modulus (GPa) = 38.07244 51.61443 44.84344
# Shear Modulus (GPa) = 16.99940 31.92629 24.46285
#
# Velocity S-wave (km/s) = 2.73146 3.74327 3.27666
# Velocity P-wave (km/s) = 5.16308 6.42929 5.83066
#
# Compressibility (1/GPa) = 0.02626572
#
# Stress axis : x y z
#
# Youngs Moduli (GPa) = 43.93319 101.40589 85.86702
#
# Poissons Ratio (x) = 0.12395 0.31899
# Poissons Ratio (y) = 0.05370 0.34900
# Poissons Ratio (z) = 0.16321 0.41216
#
# Static dielectric constant tensor:
#      x y z
#    x 1.923770 0.000000 0.004430 
#    y 0.000000 1.898690 0.000000 
#    z 0.004430 0.000000 1.902270 
# 
# From -- ./inp_files/13010.got.cif
#   From: 2010.05.17/outbox.cif.g08.bks.cpg/sg3_7_cif.got.tgz:13010.got - 2010.06.03 18:33:08.
