data_PCOD9113807
_publ_section_title
;
Structure prediction by ZEFSAII (Michael W. Deem and Ramdas Pophale) SiO2 
 PCOD9113807
Probable space group: P 2
;
_chemical_formula_sum "Si O2"
_cell_formula_units_Z 13
_cell_length_a 9.214406
_cell_length_b 5.689992
_cell_length_c 17.369377
_cell_angle_alpha 90.000000
_cell_angle_beta 37.914407
_cell_angle_gamma 90.000000
_cell_volume 559.594625
_symmetry_space_group_name_H-M "P 2"
_symmetry_group_IT_number 3
_symmetry_cell_setting 'monoclinic'
loop_
_space_group_symop_operation_xyz
x,y,z
-x,y,-z
loop_
_atom_site_type_symbol
_atom_site_label
_atom_site_fract_x
_atom_site_fract_y
_atom_site_fract_z
Si Si1 0.000000 0.125000 0.000000
Si Si2 0.076322 0.215509 0.680405
Si Si3 0.825315 0.971513 0.509539
Si Si4 0.399427 0.795279 0.781994
Si Si5 0.955866 0.480984 0.161295
Si Si6 0.805931 0.586657 0.700997
Si Si7 0.749422 0.845095 0.881843
O O1 0.003250 0.285424 0.921626
O O2 0.234726 0.961557 0.903226
O O3 0.159874 0.402561 0.708395
O O4 0.882412 0.342494 0.706579
O O5 0.225398 0.092379 0.551431
O O6 0.960021 0.027782 0.786463
O O7 0.581446 0.944766 0.655568
O O8 0.000000 0.092796 0.500000
O O9 0.968901 0.727734 0.429819
O O10 0.217421 0.664319 0.804546
O O11 0.574326 0.600953 0.745928
O O12 0.189565 0.627764 0.087943
O O13 0.735447 0.745097 0.802377
O O14 0.500000 0.964835 0.000000
#
# Coordination Sequence:
#
# PCOD9113807 Si02
#       7
#     1   2   2   2   2   2   2
#     4  12  28  46  70  98 146 190 242 274 356 412
#     4  10  22  45  72 105 136 178 237 281 354 420
#     4   9  21  45  72 100 135 177 233 294 340 406
#     4  11  25  47  70 101 145 184 232 295 340 415
#     4  11  26  45  66 102 144 185 233 286 347 417
#     4   9  22  42  70 101 131 178 233 286 344 409
#     4  10  23  43  65  95 140 179 231 288 339 406
#
# _framework density 23.231103000000001
#
# number of rings (size 3 to 8) (size 9 to 14) (size 15 to 20)
#    0.000    1.846    0.000    1.385    6.462    9.231 
#    5.538   18.462    0.000    0.000    0.000    0.000 
#    0.000    0.000    0.000    0.000    0.000    0.000 
#
# Total GULP energy -72527.308151 kJ/mol
# GULP energy per Si atom -5579.023704 kJ/mol
# Density = 2.317823 g / cm^3
# Si number density = 23.231103 Si / 1000 Ang^3
#
#
#
# Elastic Constant Matrix: (Units=GPa)
#
#
# Indices 1 2 3 4 5 6 
#
# 1 80.0150 9.8275 26.4319 0.0000 26.9789 0.0000
# 2 9.8275 31.6102 14.6337 0.0000 13.0149 0.0000
# 3 26.4319 14.6337 118.5871 0.0000 2.9643 0.0000
# 4 0.0000 0.0000 0.0000 3.5710 0.0000 22.3629
# 5 26.9789 13.0149 2.9643 0.0000 30.8936 0.0000
# 6 0.0000 0.0000 0.0000 22.3629 0.0000 40.1613
#
#
#
# Elastic Compliance Matrix: (Units=1/GPa)
#
#
# Indices 1 2 3 4 5 6 
#
# 1 0.019639 0.003380 -0.004340 0.000000 -0.018157 0.000000
# 2 0.003380 0.041211 -0.005344 0.000000 -0.019800 0.000000
# 3 -0.004340 -0.005344 0.009932 0.000000 0.005089 0.000000
# 4 0.000000 0.000000 0.000000 -0.112597 0.000000 0.062697
# 5 -0.018157 -0.019800 0.005089 0.000000 0.056079 0.000000
# 6 0.000000 0.000000 0.000000 0.062697 0.000000 -0.010012
#
#
# Mechanical properties :
#
#
# Convention : Reuss Voigt Hill
#
# Bulk Modulus (GPa) = 17.19016 36.88874 27.03945
# Shear Modulus (GPa) = 137.92214 26.87978 82.40096
#
# Velocity S-wave (km/s) = 7.71353 3.40525 5.96214
# Velocity P-wave (km/s) = 9.31381 5.60129 7.68510
#
# Compressibility (1/GPa) = 0.05817282
#
# Stress axis : x y z
#
# Youngs Moduli (GPa) = 50.92027 24.26544 100.68166
#
# Poissons Ratio (x) = -0.08201 0.43700
# Poissons Ratio (y) = -0.17210 0.53803
# Poissons Ratio (z) = 0.22102 0.12967
#
# Static dielectric constant tensor:
#      x y z
#    x 1.900450 0.000000 -0.025500 
#    y 0.000000 1.972130 0.000000 
#    z -0.025500 0.000000 1.898900 
# 
# From -- ./inp_files/14805.got.cif
#   From: 2010.05.17/outbox.cif.g08.bks.cpg/sg3_8_cif.got.tgz:14805.got - 2010.06.03 18:33:08.
