data_PCOD9113253
_publ_section_title
;
Structure prediction by ZEFSAII (Michael W. Deem and Ramdas Pophale) SiO2 
 PCOD9113253
Probable space group: P 2
;
_chemical_formula_sum "Si O2"
_cell_formula_units_Z 15
_cell_length_a 8.400515
_cell_length_b 9.905980
_cell_length_c 11.527511
_cell_angle_alpha 90.000000
_cell_angle_beta 125.715346
_cell_angle_gamma 90.000000
_cell_volume 778.853895
_symmetry_space_group_name_H-M "P 2"
_symmetry_group_IT_number 3
_symmetry_cell_setting 'monoclinic'
loop_
_space_group_symop_operation_xyz
x,y,z
-x,y,-z
loop_
_atom_site_type_symbol
_atom_site_label
_atom_site_fract_x
_atom_site_fract_y
_atom_site_fract_z
Si Si1 0.449217 0.915350 0.114641
Si Si2 0.235688 0.523627 0.460585
Si Si3 0.764491 0.185015 0.918770
Si Si4 0.226129 0.774114 0.608963
Si Si5 0.390974 0.431586 0.277514
Si Si6 0.500000 0.326479 0.000000
Si Si7 0.800144 0.644649 0.977466
Si Si8 0.197423 0.526658 0.768777
O O1 0.631164 0.889506 0.280930
O O2 0.332842 0.774815 0.062649
O O3 0.314235 0.032821 0.110435
O O4 0.500000 0.945655 0.000000
O O5 0.263894 0.681957 0.509432
O O6 0.304722 0.488796 0.361105
O O7 0.376539 0.442274 0.606467
O O8 0.009766 0.481437 0.371596
O O9 0.677657 0.281611 0.781764
O O10 0.662318 0.246878 0.992613
O O11 0.000000 0.190907 0.000000
O O12 0.246972 0.659366 0.716720
O O13 0.000000 0.818868 0.500000
O O14 0.307009 0.532476 0.145470
O O15 0.630095 0.419774 0.140311
O O16 0.845584 0.577894 0.119597
O O17 0.000000 0.683926 0.000000
#
# Coordination Sequence:
#
# PCOD9113253 Si02
#       8
#     2   2   2   2   2   1   2   2
#     4  12  24  43  66  97 131 180 229 284 336 400
#     4  10  21  37  63  98 134 173 213 275 339 407
#     4  12  26  45  66  98 136 178 227 284 341 402
#     4  10  21  38  62  96 134 170 221 276 340 407
#     4  11  21  39  66  93 135 173 221 278 340 393
#     4  12  22  38  70 100 130 178 222 286 334 400
#     4  12  21  36  66 103 131 174 224 289 338 400
#     4  11  20  35  65 104 132 166 225 281 343 392
#
# _framework density 19.259067999999999
#
# number of rings (size 3 to 8) (size 9 to 14) (size 15 to 20)
#    0.000    0.800    6.000    3.200    0.000    0.000 
#    0.000    1.333    8.800    0.000    0.000    0.000 
#    0.000    0.000    0.000    0.000    0.000    0.000 
#
# Total GULP energy -83673.664473 kJ/mol
# GULP energy per Si atom -5578.244298 kJ/mol
# Density = 1.921523 g / cm^3
# Si number density = 19.259068 Si / 1000 Ang^3
#
#
#
# Elastic Constant Matrix: (Units=GPa)
#
#
# Indices 1 2 3 4 5 6 
#
# 1 115.8976 33.1320 55.5426 0.0000 16.0009 0.0000
# 2 33.1320 67.2662 46.2213 0.0000 18.3770 0.0000
# 3 55.5426 46.2213 131.7204 0.0000 17.9424 0.0000
# 4 0.0000 0.0000 0.0000 20.3199 0.0000 8.1390
# 5 16.0009 18.3770 17.9424 0.0000 56.4088 0.0000
# 6 0.0000 0.0000 0.0000 8.1390 0.0000 24.8456
#
#
#
# Elastic Compliance Matrix: (Units=1/GPa)
#
#
# Indices 1 2 3 4 5 6 
#
# 1 0.011325 -0.002753 -0.003652 0.000000 -0.001154 0.000000
# 2 -0.002753 0.021355 -0.005740 0.000000 -0.004350 0.000000
# 3 -0.003652 -0.005740 0.011237 0.000000 -0.000668 0.000000
# 4 0.000000 0.000000 0.000000 0.056645 0.000000 -0.018556
# 5 -0.001154 -0.004350 -0.000668 0.000000 0.019685 0.000000
# 6 0.000000 0.000000 0.000000 -0.018556 0.000000 0.046327
#
#
# Mechanical properties :
#
#
# Convention : Reuss Voigt Hill
#
# Bulk Modulus (GPa) = 50.95229 64.96400 57.95814
# Shear Modulus (GPa) = 25.32832 32.31407 28.82120
#
# Velocity S-wave (km/s) = 3.63042 4.10062 3.87266
# Velocity P-wave (km/s) = 6.63980 7.49833 7.08209
#
# Compressibility (1/GPa) = 0.01962621
#
# Stress axis : x y z
#
# Youngs Moduli (GPa) = 88.30080 46.82695 88.99141
#
# Poissons Ratio (x) = 0.12893 0.32500
# Poissons Ratio (y) = 0.24313 0.51081
# Poissons Ratio (z) = 0.32248 0.26879
#
# Static dielectric constant tensor:
#      x y z
#    x 1.770810 0.000000 -0.000180 
#    y 0.000000 1.652320 0.000000 
#    z -0.000180 0.000000 1.704930 
# 
# From -- ./inp_files/10793.got.cif
#   From: 2010.05.17/outbox.cif.g08.bks.cpg/sg3_6_cif.got.tgz:10793.got - 2010.06.03 18:33:08.
