data_PCOD9113272
_publ_section_title
;
Structure prediction by ZEFSAII (Michael W. Deem and Ramdas Pophale) SiO2 
 PCOD9113272
Probable space group: P 2
;
_chemical_formula_sum "Si O2"
_cell_formula_units_Z 12
_cell_length_a 4.975820
_cell_length_b 12.814025
_cell_length_c 7.975295
_cell_angle_alpha 90.000000
_cell_angle_beta 85.721558
_cell_angle_gamma 90.000000
_cell_volume 507.089988
_symmetry_space_group_name_H-M "P 2"
_symmetry_group_IT_number 3
_symmetry_cell_setting 'monoclinic'
loop_
_space_group_symop_operation_xyz
x,y,z
-x,y,-z
loop_
_atom_site_type_symbol
_atom_site_label
_atom_site_fract_x
_atom_site_fract_y
_atom_site_fract_z
Si Si1 0.499736 0.283670 0.202201
Si Si2 0.937268 0.714207 0.700637
Si Si3 0.577833 0.055081 0.311485
Si Si4 0.579207 0.603793 0.301564
Si Si5 0.108693 0.944694 0.180271
Si Si6 0.987701 0.418351 0.199701
O O1 0.475391 0.174075 0.294999
O O2 0.799232 0.318655 0.234168
O O3 0.281950 0.377488 0.246761
O O4 0.500000 0.268761 0.000000
O O5 0.711016 0.629062 0.768264
O O6 0.000000 0.698967 0.500000
O O7 0.226078 0.695498 0.771239
O O8 0.863832 0.833185 0.731050
O O9 0.500000 0.017926 0.500000
O O10 0.889571 0.025352 0.269505
O O11 0.399799 0.994875 0.184383
O O12 0.500000 0.608675 0.500000
O O13 0.790533 0.508223 0.279108
O O14 0.000000 0.926311 0.000000
O O15 0.000000 0.439019 0.000000
#
# Coordination Sequence:
#
# PCOD9113272 Si02
#       6
#     2   2   2   2   2   2
#     4  10  21  39  62  90 125 166 212 265 321 380
#     4  10  21  39  62  90 125 166 212 265 321 380
#     4  12  25  43  67  97 131 172 218 271 330 395
#     4  10  21  38  61  89 123 164 210 264 321 377
#     4  12  25  43  67  97 131 172 218 271 330 395
#     4  10  21  38  61  89 123 164 210 264 321 377
#
# _framework density 23.664438000000001
#
# number of rings (size 3 to 8) (size 9 to 14) (size 15 to 20)
#    0.000    1.333    0.000    6.000    0.000    4.000 
#    0.000    3.333    0.000    0.000    0.000    0.000 
#    0.000    0.000    0.000    0.000    0.000    0.000 
#
# Total GULP energy -66893.745779 kJ/mol
# GULP energy per Si atom -5574.478815 kJ/mol
# Density = 2.361058 g / cm^3
# Si number density = 23.664438 Si / 1000 Ang^3
#
#
#
# Elastic Constant Matrix: (Units=GPa)
#
#
# Indices 1 2 3 4 5 6 
#
# 1 133.0329 5.2280 33.6274 0.0000 -9.2027 0.0000
# 2 5.2280 68.1049 18.8259 0.0000 -12.9347 0.0000
# 3 33.6274 18.8259 33.5538 0.0000 -9.6991 0.0000
# 4 0.0000 0.0000 0.0000 31.6018 0.0000 -19.4712
# 5 -9.2027 -12.9347 -9.6991 0.0000 20.4339 0.0000
# 6 0.0000 0.0000 0.0000 -19.4712 0.0000 54.7947
#
#
#
# Elastic Compliance Matrix: (Units=1/GPa)
#
#
# Indices 1 2 3 4 5 6 
#
# 1 0.010416 0.002571 -0.011654 0.000000 0.000787 0.000000
# 2 0.002571 0.019031 -0.010939 0.000000 0.008013 0.000000
# 3 -0.011654 -0.010939 0.051115 0.000000 0.012089 0.000000
# 4 0.000000 0.000000 0.000000 0.040514 0.000000 0.014397
# 5 0.000787 0.008013 0.012089 0.000000 0.060103 0.000000
# 6 0.000000 0.000000 0.000000 0.014397 0.000000 0.023366
#
#
# Mechanical properties :
#
#
# Convention : Reuss Voigt Hill
#
# Bulk Modulus (GPa) = 24.67982 38.89490 31.78736
# Shear Modulus (GPa) = 19.37272 33.16677 26.26975
#
# Velocity S-wave (km/s) = 2.86430 3.74778 3.33542
# Velocity P-wave (km/s) = 4.62500 5.93292 5.31931
#
# Compressibility (1/GPa) = 0.04051893
#
# Stress axis : x y z
#
# Youngs Moduli (GPa) = 96.00380 52.54459 19.56387
#
# Poissons Ratio (x) = -0.13512 0.22800
# Poissons Ratio (y) = -0.24687 0.21401
# Poissons Ratio (z) = 1.11886 0.57478
#
# Static dielectric constant tensor:
#      x y z
#    x 1.910730 0.000000 -0.000080 
#    y 0.000000 1.929170 0.000000 
#    z -0.000080 0.000000 1.868790 
# 
# From -- ./inp_files/4294.got.cif
#   From: 2010.05.17/outbox.cif.g08.bks.cpg/sg3_3_cif.got.tgz:4294.got - 2010.06.03 18:33:08.
