data_PCOD9113257
_publ_section_title
;
Structure prediction by ZEFSAII (Michael W. Deem and Ramdas Pophale) SiO2 
 PCOD9113257
Probable space group: P 2
;
_chemical_formula_sum "Si O2"
_cell_formula_units_Z 16
_cell_length_a 27.774312
_cell_length_b 5.482971
_cell_length_c 8.440667
_cell_angle_alpha 90.000000
_cell_angle_beta 146.031454
_cell_angle_gamma 90.000000
_cell_volume 718.197683
_symmetry_space_group_name_H-M "P 2"
_symmetry_group_IT_number 3
_symmetry_cell_setting 'monoclinic'
loop_
_space_group_symop_operation_xyz
x,y,z
-x,y,-z
loop_
_atom_site_type_symbol
_atom_site_label
_atom_site_fract_x
_atom_site_fract_y
_atom_site_fract_z
Si Si1 0.757728 0.764870 0.196456
Si Si2 0.418006 0.518425 0.170897
Si Si3 0.815700 0.262792 0.822243
Si Si4 0.937487 0.568088 0.677536
Si Si5 0.409962 0.764096 0.827393
Si Si6 0.242627 0.749375 0.179967
Si Si7 0.692097 0.137535 0.229566
Si Si8 0.998443 0.079846 0.187517
O O1 0.841160 0.613932 0.472914
O O2 0.761400 0.013743 0.304241
O O3 0.665514 0.663827 0.998011
O O4 0.760213 0.774354 0.015563
O O5 0.500000 0.569818 0.500000
O O6 0.432998 0.565950 0.025282
O O7 0.382622 0.245405 0.083882
O O8 0.814322 0.516953 0.916068
O O9 0.747087 0.312657 0.493231
O O10 0.784204 0.015832 0.826001
O O11 0.906187 0.173249 0.996607
O O12 0.941147 0.307890 0.600862
O O13 0.969909 0.811024 0.672731
O O14 0.000000 0.546432 0.000000
O O15 0.340378 0.689368 0.505086
O O16 0.358102 0.962942 0.787147
O O17 0.500000 0.850048 0.000000
O O18 0.000000 0.056442 0.000000
#
# Coordination Sequence:
#
# PCOD9113257 Si02
#       8
#     2   2   2   2   2   2   2   2
#     4  11  26  43  69  97 145 176 237 293 349 415
#     4  11  24  41  68 101 131 178 236 291 344 415
#     4  11  23  45  69  98 140 181 233 282 355 423
#     4  10  22  38  65 102 129 176 227 282 343 401
#     4  10  22  43  64  94 139 179 232 283 358 418
#     4  11  25  44  67 100 137 194 227 284 361 424
#     4  10  23  41  69  97 132 185 230 293 347 417
#     4  10  21  37  67  97 130 169 231 282 333 408
#
# _framework density 22.277991
#
# number of rings (size 3 to 8) (size 9 to 14) (size 15 to 20)
#    0.000    1.500    1.250    3.000    7.000    3.500 
#    2.250    3.750    0.000    0.000    0.000    0.000 
#    0.000    0.000    0.000    0.000    0.000    0.000 
#
# Total GULP energy -89257.732983 kJ/mol
# GULP energy per Si atom -5578.608311 kJ/mol
# Density = 2.222729 g / cm^3
# Si number density = 22.277991 Si / 1000 Ang^3
#
#
#
# Elastic Constant Matrix: (Units=GPa)
#
#
# Indices 1 2 3 4 5 6 
#
# 1 106.5166 15.7465 29.8173 0.0000 0.5553 0.0000
# 2 15.7465 93.1023 -4.9202 0.0000 -4.0303 0.0000
# 3 29.8173 -4.9202 79.5577 0.0000 7.3341 0.0000
# 4 0.0000 0.0000 0.0000 27.8063 0.0000 9.9265
# 5 0.5553 -4.0303 7.3341 0.0000 27.0852 0.0000
# 6 0.0000 0.0000 0.0000 9.9265 0.0000 -15.8556
#
#
#
# Elastic Compliance Matrix: (Units=1/GPa)
#
#
# Indices 1 2 3 4 5 6 
#
# 1 0.010879 -0.002038 -0.004261 0.000000 0.000628 0.000000
# 2 -0.002038 0.011214 0.001333 0.000000 0.001350 0.000000
# 3 -0.004261 0.001333 0.014587 0.000000 -0.003664 0.000000
# 4 0.000000 0.000000 0.000000 0.029394 0.000000 0.018402
# 5 0.000628 0.001350 -0.003664 0.000000 0.038101 0.000000
# 6 0.000000 0.000000 0.000000 0.018402 0.000000 -0.051548
#
#
# Mechanical properties :
#
#
# Convention : Reuss Voigt Hill
#
# Bulk Modulus (GPa) = 37.38641 40.05153 38.71897
# Shear Modulus (GPa) = 69.95474 23.70938 46.83206
#
# Velocity S-wave (km/s) = 5.60972 3.26583 4.58991
# Velocity P-wave (km/s) = 7.66661 5.67784 6.74592
#
# Compressibility (1/GPa) = 0.02674769
#
# Stress axis : x y z
#
# Youngs Moduli (GPa) = 91.91963 89.17077 68.55532
#
# Poissons Ratio (x) = 0.18173 0.29213
# Poissons Ratio (y) = 0.18733 -0.09138
# Poissons Ratio (z) = 0.39169 -0.11886
#
# Static dielectric constant tensor:
#      x y z
#    x 1.805400 0.000000 0.001600 
#    y 0.000000 1.980270 0.000000 
#    z 0.001600 0.000000 1.785390 
# 
# From -- ./inp_files/9623.got.cif
#   From: 2010.05.17/outbox.cif.g08.bks.cpg/sg3_5_cif.got.tgz:9623.got - 2010.06.03 18:33:08.
