data_PCOD9113131
_publ_section_title
;
Structure prediction by ZEFSAII (Michael W. Deem and Ramdas Pophale) SiO2 
 PCOD9113131
Probable space group: P 2
;
_chemical_formula_sum "Si O2"
_cell_formula_units_Z 16
_cell_length_a 8.639668
_cell_length_b 5.328513
_cell_length_c 19.447029
_cell_angle_alpha 90.000000
_cell_angle_beta 132.577353
_cell_angle_gamma 90.000000
_cell_volume 659.248625
_symmetry_space_group_name_H-M "P 2"
_symmetry_group_IT_number 3
_symmetry_cell_setting 'monoclinic'
loop_
_space_group_symop_operation_xyz
x,y,z
-x,y,-z
loop_
_atom_site_type_symbol
_atom_site_label
_atom_site_fract_x
_atom_site_fract_y
_atom_site_fract_z
Si Si1 0.505881 0.878620 0.190615
Si Si2 0.714835 0.280040 0.519273
Si Si3 0.886667 0.171435 0.266696
Si Si4 0.581016 0.536904 0.101339
Si Si5 0.579060 0.771264 0.444970
Si Si6 0.303549 0.552957 0.241635
Si Si7 0.201935 0.206080 0.028387
Si Si8 0.950521 0.029503 0.826459
O O1 0.570782 0.805065 0.132524
O O2 0.471201 0.652021 0.233943
O O3 0.703834 0.061901 0.262350
O O4 0.279774 0.002870 0.107404
O O5 0.500000 0.307204 0.500000
O O6 0.748664 0.549702 0.495107
O O7 0.912337 0.230208 0.626718
O O8 0.666908 0.046573 0.454389
O O9 0.788275 0.400684 0.192007
O O10 0.980891 0.010039 0.232115
O O11 0.394261 0.387099 0.081197
O O12 0.500000 0.543358 0.000000
O O13 0.500000 0.802511 0.500000
O O14 0.401546 0.657466 0.342230
O O15 0.223083 0.263103 0.220988
O O16 0.112630 0.745911 0.172791
O O17 0.000000 0.336757 0.000000
O O18 0.136833 0.106051 0.934352
#
# Coordination Sequence:
#
# PCOD9113131 Si02
#       8
#     2   2   2   2   2   2   2   2
#     4  11  28  43  68 100 157 196 239 302 383 438
#     4  10  21  41  70 105 135 172 234 306 359 421
#     4  11  26  44  72 105 147 190 247 305 370 439
#     4  11  25  44  67 101 146 194 244 294 361 438
#     4  10  20  40  70 102 135 170 234 303 361 420
#     4  12  26  47  72 108 147 190 243 309 370 441
#     4  11  23  43  64 102 139 189 243 302 348 431
#     4  12  25  42  74 106 139 192 252 297 359 427
#
# _framework density 24.270056
#
# number of rings (size 3 to 8) (size 9 to 14) (size 15 to 20)
#    0.000    1.000    2.500    4.500    8.750    0.500 
#    0.000    0.625    0.000    0.000    0.000    0.000 
#    0.000    0.000    0.000    0.000    0.000    0.000 
#
# Total GULP energy -89224.219722 kJ/mol
# GULP energy per Si atom -5576.513733 kJ/mol
# Density = 2.421482 g / cm^3
# Si number density = 24.270056 Si / 1000 Ang^3
#
#
#
# Elastic Constant Matrix: (Units=GPa)
#
#
# Indices 1 2 3 4 5 6 
#
# 1 48.4930 12.4164 15.4499 0.0000 -0.5094 0.0000
# 2 12.4164 80.7668 -12.7729 0.0000 1.8450 0.0000
# 3 15.4499 -12.7729 102.5765 0.0000 13.0662 0.0000
# 4 0.0000 0.0000 0.0000 14.7558 0.0000 -1.9425
# 5 -0.5094 1.8450 13.0662 0.0000 33.3122 0.0000
# 6 0.0000 0.0000 0.0000 -1.9425 0.0000 35.9359
#
#
#
# Elastic Compliance Matrix: (Units=1/GPa)
#
#
# Indices 1 2 3 4 5 6 
#
# 1 0.023115 -0.004286 -0.004306 0.000000 0.002280 0.000000
# 2 -0.004286 0.013486 0.002556 0.000000 -0.001815 0.000000
# 3 -0.004306 0.002556 0.011307 0.000000 -0.004642 0.000000
# 4 0.000000 0.000000 0.000000 0.068256 0.000000 0.003690
# 5 0.002280 -0.001815 -0.004642 0.000000 0.031975 0.000000
# 6 0.000000 0.000000 0.000000 0.003690 0.000000 0.028027
#
#
# Mechanical properties :
#
#
# Convention : Reuss Voigt Hill
#
# Bulk Modulus (GPa) = 27.90513 29.11368 28.50940
# Shear Modulus (GPa) = 24.97715 31.25030 28.11373
#
# Velocity S-wave (km/s) = 3.21149 3.59222 3.40718
# Velocity P-wave (km/s) = 5.02736 5.40621 5.22022
#
# Compressibility (1/GPa) = 0.03583571
#
# Stress axis : x y z
#
# Youngs Moduli (GPa) = 43.26230 74.15101 88.44106
#
# Poissons Ratio (x) = 0.31785 0.38080
# Poissons Ratio (y) = 0.18544 -0.22606
# Poissons Ratio (z) = 0.18627 -0.18954
#
# Static dielectric constant tensor:
#      x y z
#    x 1.705250 0.000000 0.141430 
#    y 0.000000 2.063270 0.000000 
#    z 0.141430 0.000000 2.236520 
# 
# From -- ./inp_files/9625.got.cif
#   From: 2010.05.17/outbox.cif.g08.bks.cpg/sg3_5_cif.got.tgz:9625.got - 2010.06.03 18:33:08.
