data_PCOD9113468
_publ_section_title
;
Structure prediction by ZEFSAII (Michael W. Deem and Ramdas Pophale) SiO2 
 PCOD9113468
Probable space group: P 2
;
_chemical_formula_sum "Si O2"
_cell_formula_units_Z 13
_cell_length_a 5.798937
_cell_length_b 7.162155
_cell_length_c 14.706937
_cell_angle_alpha 90.000000
_cell_angle_beta 109.216655
_cell_angle_gamma 90.000000
_cell_volume 576.787005
_symmetry_space_group_name_H-M "P 2"
_symmetry_group_IT_number 3
_symmetry_cell_setting 'monoclinic'
loop_
_space_group_symop_operation_xyz
x,y,z
-x,y,-z
loop_
_atom_site_type_symbol
_atom_site_label
_atom_site_fract_x
_atom_site_fract_y
_atom_site_fract_z
Si Si1 0.000000 0.037920 0.000000
Si Si2 0.817578 0.245992 0.596254
Si Si3 0.169412 0.210373 0.840415
Si Si4 0.339578 0.377737 0.617885
Si Si5 0.810730 0.614163 0.240843
Si Si6 0.544533 0.925130 0.836574
Si Si7 0.801537 0.920879 0.691046
O O1 0.123148 0.166688 0.939579
O O2 0.797690 0.913312 0.922904
O O3 0.624038 0.317848 0.648190
O O4 0.741484 0.365289 0.497912
O O5 0.113654 0.259186 0.632759
O O6 0.756619 0.024682 0.589929
O O7 0.146676 0.425840 0.810669
O O8 0.430255 0.124987 0.846391
O O9 0.979442 0.072949 0.763914
O O10 0.313875 0.555466 0.679646
O O11 0.639784 0.758505 0.164408
O O12 0.057893 0.726435 0.295408
O O13 0.581976 0.913095 0.733189
#
# Coordination Sequence:
#
# PCOD9113468 Si02
#       7
#     1   2   2   2   2   2   2
#     4  10  22  44  66  92 134 174 224 284 358 414
#     4  10  21  42  69  96 139 191 227 290 338 411
#     4  10  21  43  66  91 129 176 219 282 349 421
#     4  10  22  40  72  96 140 187 235 278 347 404
#     4  11  23  40  70 101 132 179 232 286 347 417
#     4  10  23  41  67  97 132 179 226 289 343 424
#     4  10  22  39  68  94 133 175 231 277 353 403
#
# _framework density 22.538648999999999
#
# number of rings (size 3 to 8) (size 9 to 14) (size 15 to 20)
#    0.000    1.846    1.538    1.385    4.308    2.462 
#    0.000   21.538    0.000    0.000    0.000    0.000 
#    0.000    0.000    0.000    0.000    0.000    0.000 
#
# Total GULP energy -72374.528047 kJ/mol
# GULP energy per Si atom -5567.271388 kJ/mol
# Density = 2.248735 g / cm^3
# Si number density = 22.538649 Si / 1000 Ang^3
#
#
#
# Elastic Constant Matrix: (Units=GPa)
#
#
# Indices 1 2 3 4 5 6 
#
# 1 136.8177 40.7879 20.9415 0.0000 -21.9522 0.0000
# 2 40.7879 129.4611 27.9337 0.0000 -7.4748 0.0000
# 3 20.9415 27.9337 64.7743 0.0000 -9.6875 0.0000
# 4 0.0000 0.0000 0.0000 11.9379 0.0000 -4.2729
# 5 -21.9522 -7.4748 -9.6875 0.0000 44.7582 0.0000
# 6 0.0000 0.0000 0.0000 -4.2729 0.0000 30.8191
#
#
#
# Elastic Compliance Matrix: (Units=1/GPa)
#
#
# Indices 1 2 3 4 5 6 
#
# 1 0.008770 -0.002270 -0.001312 0.000000 0.003638 0.000000
# 2 -0.002270 0.009123 -0.003244 0.000000 -0.000292 0.000000
# 3 -0.001312 -0.003244 0.017656 0.000000 0.002636 0.000000
# 4 0.000000 0.000000 0.000000 0.088140 0.000000 0.012220
# 5 0.003638 -0.000292 0.002636 0.000000 0.024649 0.000000
# 6 0.000000 0.000000 0.000000 0.012220 0.000000 0.034142
#
#
# Mechanical properties :
#
#
# Convention : Reuss Voigt Hill
#
# Bulk Modulus (GPa) = 45.67010 56.70882 51.18946
# Shear Modulus (GPa) = 24.57844 33.59572 29.08708
#
# Velocity S-wave (km/s) = 3.30586 3.86499 3.59631
# Velocity P-wave (km/s) = 5.90581 6.71810 6.32501
#
# Compressibility (1/GPa) = 0.02189617
#
# Stress axis : x y z
#
# Youngs Moduli (GPa) = 114.02046 109.61834 56.63911
#
# Poissons Ratio (x) = 0.24883 0.07433
# Poissons Ratio (y) = 0.25882 0.18373
# Poissons Ratio (z) = 0.14964 0.35559
#
# Static dielectric constant tensor:
#      x y z
#    x 1.893520 0.000000 0.046310 
#    y 0.000000 1.842400 0.000000 
#    z 0.046310 0.000000 2.020110 
# 
# From -- ./inp_files/14526.got.cif
#   From: 2010.05.17/outbox.cif.g08.bks.cpg/sg3_8_cif.got.tgz:14526.got - 2010.06.03 18:33:08.
