data_PCOD9113012
_publ_section_title
;
Structure prediction by ZEFSAII (Michael W. Deem and Ramdas Pophale) SiO2 
 PCOD9113012
Probable space group: P 2
;
_chemical_formula_sum "Si O2"
_cell_formula_units_Z 15
_cell_length_a 5.211580
_cell_length_b 5.157065
_cell_length_c 20.688542
_cell_angle_alpha 90.000000
_cell_angle_beta 74.053509
_cell_angle_gamma 90.000000
_cell_volume 534.637765
_symmetry_space_group_name_H-M "P 2"
_symmetry_group_IT_number 3
_symmetry_cell_setting 'monoclinic'
loop_
_space_group_symop_operation_xyz
x,y,z
-x,y,-z
loop_
_atom_site_type_symbol
_atom_site_label
_atom_site_fract_x
_atom_site_fract_y
_atom_site_fract_z
Si Si1 0.282101 0.053560 0.608725
Si Si2 0.165793 0.218541 0.933051
Si Si3 0.389862 0.424511 0.325787
Si Si4 0.863936 0.820496 0.871377
Si Si5 0.116316 0.559654 0.561147
Si Si6 0.882064 0.105629 0.752212
Si Si7 0.323650 0.452268 0.796432
Si Si8 0.500000 0.828923 0.000000
O O1 0.507918 0.200650 0.634211
O O2 0.223106 0.266196 0.556771
O O3 0.024007 0.043117 0.673963
O O4 0.320861 0.771253 0.575392
O O5 0.940959 0.080729 0.904188
O O6 0.372250 0.327890 0.866096
O O7 0.321806 0.003183 0.963997
O O8 0.000000 0.374051 0.000000
O O9 0.133189 0.550260 0.372907
O O10 0.353470 0.304739 0.254730
O O11 0.601127 0.617221 0.280963
O O12 0.135622 0.676534 0.839613
O O13 0.764415 0.883191 0.805375
O O14 0.673180 0.677758 0.934874
O O15 0.000000 0.631162 0.500000
O O16 0.112554 0.253432 0.774636
#
# Coordination Sequence:
#
# PCOD9113012 Si02
#       8
#     2   2   2   2   2   2   2   1
#     4  10  24  44  74 106 148 186 249 296 353 440
#     4   9  20  38  58  86 127 170 222 279 339 419
#     4  10  23  44  71 104 138 190 234 291 371 417
#     4  10  21  37  61  89 130 164 227 284 339 420
#     4  11  25  49  74 109 151 195 240 301 358 441
#     4   9  21  40  63  95 131 174 224 286 349 420
#     4  10  21  40  62  95 129 173 229 289 343 426
#     4  10  20  38  60  88 122 178 212 276 358 410
#
# _framework density 28.056380000000001
#
# number of rings (size 3 to 8) (size 9 to 14) (size 15 to 20)
#    0.000    2.133    0.000    1.200    5.600    5.333 
#    9.600    8.000    0.000    0.000    0.000    0.000 
#    0.000    0.000    0.000    0.000    0.000    0.000 
#
# Total GULP energy -83728.076640 kJ/mol
# GULP energy per Si atom -5581.871776 kJ/mol
# Density = 2.799252 g / cm^3
# Si number density = 28.056380 Si / 1000 Ang^3
#
#
#
# Elastic Constant Matrix: (Units=GPa)
#
#
# Indices 1 2 3 4 5 6 
#
# 1 93.1978 14.4641 40.2884 0.0000 3.4863 0.0000
# 2 14.4641 83.8252 30.6009 0.0000 8.9945 0.0000
# 3 40.2884 30.6009 159.5333 0.0000 -9.7296 0.0000
# 4 0.0000 0.0000 0.0000 24.5911 0.0000 28.6630
# 5 3.4863 8.9945 -9.7296 0.0000 62.3053 0.0000
# 6 0.0000 0.0000 0.0000 28.6630 0.0000 23.3163
#
#
#
# Elastic Compliance Matrix: (Units=1/GPa)
#
#
# Indices 1 2 3 4 5 6 
#
# 1 0.012191 -0.000912 -0.002966 0.000000 -0.001014 0.000000
# 2 -0.000912 0.013219 -0.002442 0.000000 -0.002239 0.000000
# 3 -0.002966 -0.002442 0.007589 0.000000 0.001704 0.000000
# 4 0.000000 0.000000 0.000000 -0.093944 0.000000 0.115486
# 5 -0.001014 -0.002239 0.001704 0.000000 0.016696 0.000000
# 6 0.000000 0.000000 0.000000 0.115486 0.000000 -0.099080
#
#
# Mechanical properties :
#
#
# Convention : Reuss Voigt Hill
#
# Bulk Modulus (GPa) = 49.11521 56.36258 52.73889
# Shear Modulus (GPa) = -40.35446 38.78940 -0.78253
#
# Velocity S-wave (km/s) = -3.79665 3.72230 -0.52870
# Velocity P-wave (km/s) = 1.29442 6.21343 4.29716
#
# Compressibility (1/GPa) = 0.02036029
#
# Stress axis : x y z
#
# Youngs Moduli (GPa) = 82.02518 75.65136 131.76153
#
# Poissons Ratio (x) = 0.06901 0.39076
# Poissons Ratio (y) = 0.07483 0.32172
# Poissons Ratio (z) = 0.24326 0.18471
#
# Static dielectric constant tensor:
#      x y z
#    x 2.405670 0.000000 -0.028660 
#    y 0.000000 2.359800 0.000000 
#    z -0.028660 0.000000 2.260320 
# 
# From -- ./inp_files/15570.got.cif
#   From: 2010.05.17/outbox.cif.g08.bks.cpg/sg3_8_cif.got.tgz:15570.got - 2010.06.03 18:33:08.
