data_PCOD9113148
_publ_section_title
;
Structure prediction by ZEFSAII (Michael W. Deem and Ramdas Pophale) SiO2 
 PCOD9113148
Probable space group: P 2
;
_chemical_formula_sum "Si O2"
_cell_formula_units_Z 12
_cell_length_a 17.119878
_cell_length_b 7.849926
_cell_length_c 8.841085
_cell_angle_alpha 90.000000
_cell_angle_beta 32.171331
_cell_angle_gamma 90.000000
_cell_volume 632.634556
_symmetry_space_group_name_H-M "P 2"
_symmetry_group_IT_number 3
_symmetry_cell_setting 'monoclinic'
loop_
_space_group_symop_operation_xyz
x,y,z
-x,y,-z
loop_
_atom_site_type_symbol
_atom_site_label
_atom_site_fract_x
_atom_site_fract_y
_atom_site_fract_z
Si Si1 0.601455 0.835990 0.195493
Si Si2 0.961821 0.191889 0.238457
Si Si3 0.081526 0.878375 0.207594
Si Si4 0.940480 0.548693 0.424166
Si Si5 0.370704 0.137194 0.092216
Si Si6 0.592386 0.524931 0.003603
O O1 0.500000 0.889318 0.500000
O O2 0.759465 0.810816 0.011473
O O3 0.544915 0.663711 0.206116
O O4 0.623555 0.985568 0.037366
O O5 0.989765 0.377982 0.261257
O O6 0.791145 0.148695 0.563795
O O7 0.066929 0.051601 0.141050
O O8 0.000000 0.193600 0.000000
O O9 0.000000 0.910953 0.500000
O O10 0.001181 0.723340 0.256343
O O11 0.765297 0.560831 0.700764
O O12 0.000000 0.540893 0.500000
O O13 0.408506 0.322800 0.958009
O O14 0.500000 0.105158 0.000000
O O15 0.500000 0.546833 0.000000
#
# Coordination Sequence:
#
# PCOD9113148 Si02
#       6
#     2   2   2   2   2   2
#     4  12  25  40  63  95 123 167 213 256 308 373
#     4  11  24  39  65  96 123 162 208 259 312 371
#     4  11  21  42  65  89 123 165 211 258 313 365
#     4  10  20  41  68  90 121 167 208 254 314 368
#     4  10  23  43  63  88 128 166 201 255 317 369
#     4  10  21  42  65  89 124 168 207 252 316 372
#
# _framework density 18.968295000000001
#
# number of rings (size 3 to 8) (size 9 to 14) (size 15 to 20)
#    0.000    1.333    5.000    1.000    4.667    1.333 
#    9.000    0.000    0.000    0.000    0.000    0.000 
#    0.000    0.000    0.000    0.000    0.000    0.000 
#
# Total GULP energy -66938.853027 kJ/mol
# GULP energy per Si atom -5578.237752 kJ/mol
# Density = 1.892512 g / cm^3
# Si number density = 18.968295 Si / 1000 Ang^3
#
#
#
# Elastic Constant Matrix: (Units=GPa)
#
#
# Indices 1 2 3 4 5 6 
#
# 1 70.5252 32.8490 20.5630 0.0000 -5.8875 0.0000
# 2 32.8490 111.4173 18.2367 0.0000 19.5289 0.0000
# 3 20.5630 18.2367 59.9211 0.0000 16.5804 0.0000
# 4 0.0000 0.0000 0.0000 50.2228 0.0000 -15.1509
# 5 -5.8875 19.5289 16.5804 0.0000 33.4237 0.0000
# 6 0.0000 0.0000 0.0000 -15.1509 0.0000 -7.0020
#
#
#
# Elastic Compliance Matrix: (Units=1/GPa)
#
#
# Indices 1 2 3 4 5 6 
#
# 1 0.020760 -0.006823 -0.008302 0.000000 0.011762 0.000000
# 2 -0.006823 0.012385 0.001051 0.000000 -0.008960 0.000000
# 3 -0.008302 0.001051 0.022941 0.000000 -0.013457 0.000000
# 4 0.000000 0.000000 0.000000 0.012047 0.000000 -0.026068
# 5 0.011762 -0.008960 -0.013457 0.000000 0.043902 0.000000
# 6 0.000000 0.000000 0.000000 -0.026068 0.000000 -0.086411
#
#
# Mechanical properties :
#
#
# Convention : Reuss Voigt Hill
#
# Bulk Modulus (GPa) = 35.79282 42.79565 39.29423
# Shear Modulus (GPa) = 79.25718 26.67657 52.96687
#
# Velocity S-wave (km/s) = 6.47107 3.75424 5.29004
# Velocity P-wave (km/s) = 8.64545 6.43452 7.62059
#
# Compressibility (1/GPa) = 0.02793856
#
# Stress axis : x y z
#
# Youngs Moduli (GPa) = 48.16948 80.74031 43.58953
#
# Poissons Ratio (x) = 0.55092 0.36189
# Poissons Ratio (y) = 0.32868 -0.04583
# Poissons Ratio (z) = 0.39991 -0.08489
#
# Static dielectric constant tensor:
#      x y z
#    x 1.570450 0.000000 -0.011930 
#    y 0.000000 1.681220 0.000000 
#    z -0.011930 0.000000 1.720050 
# 
# From -- ./inp_files/9075.got.cif
#   From: 2010.05.17/outbox.cif.g08.bks.cpg/sg3_5_cif.got.tgz:9075.got - 2010.06.03 18:33:08.
