data_PCOD9113582
_publ_section_title
;
Structure prediction by ZEFSAII (Michael W. Deem and Ramdas Pophale) SiO2 
 PCOD9113582
Probable space group: P 2
;
_chemical_formula_sum "Si O2"
_cell_formula_units_Z 16
_cell_length_a 24.326093
_cell_length_b 5.194927
_cell_length_c 16.101355
_cell_angle_alpha 90.000000
_cell_angle_beta 20.527475
_cell_angle_gamma 90.000000
_cell_volume 713.503543
_symmetry_space_group_name_H-M "P 2"
_symmetry_group_IT_number 3
_symmetry_cell_setting 'monoclinic'
loop_
_space_group_symop_operation_xyz
x,y,z
-x,y,-z
loop_
_atom_site_type_symbol
_atom_site_label
_atom_site_fract_x
_atom_site_fract_y
_atom_site_fract_z
Si Si1 0.790589 0.163210 0.535798
Si Si2 0.126202 0.333419 0.107501
Si Si3 0.584658 0.732942 0.550051
Si Si4 0.986140 0.693393 0.434248
Si Si5 0.672562 0.679748 0.614395
Si Si6 0.281136 0.035655 0.028396
Si Si7 0.639130 0.226086 0.367073
Si Si8 0.348314 0.943487 0.109385
O O1 0.737487 0.418759 0.562463
O O2 0.965876 0.175000 0.323474
O O3 0.777988 0.918454 0.494054
O O4 0.675521 0.116738 0.776529
O O5 0.057008 0.585703 0.248793
O O6 0.213649 0.318130 0.896452
O O7 0.251639 0.238220 0.998236
O O8 0.660143 0.674579 0.532649
O O9 0.406949 0.827885 0.818494
O O10 0.590405 0.473968 0.489141
O O11 0.663226 0.974600 0.390435
O O12 0.807108 0.766683 0.673257
O O13 0.000000 0.522426 0.500000
O O14 0.109397 0.916081 0.282043
O O15 0.500394 0.764023 0.891424
O O16 0.344699 0.111296 0.029319
O O17 0.500000 0.156699 0.500000
#
# Coordination Sequence:
#
# PCOD9113582 Si02
#       8
#     2   2   2   2   2   2   2   2
#     4  12  26  45  70 100 144 187 242 294 337 418
#     4  12  26  40  69 104 144 180 233 290 365 420
#     4  11  25  48  74 102 139 184 232 295 354 419
#     4  10  22  39  63 100 144 186 220 279 356 435
#     4  11  27  50  70 100 139 194 248 287 341 413
#     4  10  22  43  65 104 141 180 224 290 365 433
#     4  12  25  44  75 109 139 173 230 293 365 423
#     4  10  23  43  71 100 141 190 239 286 353 416
#
# _framework density 22.424557
#
# number of rings (size 3 to 8) (size 9 to 14) (size 15 to 20)
#    0.000    1.000    2.500    3.000    3.500    4.000 
#    4.500    3.750    0.000    0.000    0.000    0.000 
#    0.000    0.000    0.000    0.000    0.000    0.000 
#
# Total GULP energy -89447.758265 kJ/mol
# GULP energy per Si atom -5590.484892 kJ/mol
# Density = 2.237352 g / cm^3
# Si number density = 22.424557 Si / 1000 Ang^3
#
#
#
# Elastic Constant Matrix: (Units=GPa)
#
#
# Indices 1 2 3 4 5 6 
#
# 1 121.7783 62.0284 29.7963 0.0000 20.8614 0.0000
# 2 62.0284 115.2902 13.9642 0.0000 13.5645 0.0000
# 3 29.7963 13.9642 82.0620 0.0000 17.8469 0.0000
# 4 0.0000 0.0000 0.0000 31.2284 0.0000 -1.3643
# 5 20.8614 13.5645 17.8469 0.0000 37.2449 0.0000
# 6 0.0000 0.0000 0.0000 -1.3643 0.0000 44.6530
#
#
#
# Elastic Compliance Matrix: (Units=1/GPa)
#
#
# Indices 1 2 3 4 5 6 
#
# 1 0.012549 -0.006003 -0.002771 0.000000 -0.003515 0.000000
# 2 -0.006003 0.011996 0.000399 0.000000 -0.001198 0.000000
# 3 -0.002771 0.000399 0.014309 0.000000 -0.005450 0.000000
# 4 0.000000 0.000000 0.000000 0.032065 0.000000 0.000980
# 5 -0.003515 -0.001198 -0.005450 0.000000 0.031866 0.000000
# 6 0.000000 0.000000 0.000000 0.000980 0.000000 0.022425
#
#
# Mechanical properties :
#
#
# Convention : Reuss Voigt Hill
#
# Bulk Modulus (GPa) = 45.23765 58.96760 52.10263
# Shear Modulus (GPa) = 33.48344 36.84803 35.16573
#
# Velocity S-wave (km/s) = 3.86833 4.05804 3.96432
# Velocity P-wave (km/s) = 6.33791 6.95054 6.65128
#
# Compressibility (1/GPa) = 0.02210548
#
# Stress axis : x y z
#
# Youngs Moduli (GPa) = 79.68662 83.36199 69.88447
#
# Poissons Ratio (x) = 0.50038 0.19362
# Poissons Ratio (y) = 0.47832 -0.02786
# Poissons Ratio (z) = 0.22078 -0.03324
#
# Static dielectric constant tensor:
#      x y z
#    x 1.797080 0.000000 0.006510 
#    y 0.000000 1.870380 0.000000 
#    z 0.006510 0.000000 1.837010 
# 
# From -- ./inp_files/14400.got.cif
#   From: 2010.05.17/outbox.cif.g08.bks.cpg/sg3_8_cif.got.tgz:14400.got - 2010.06.03 18:33:08.
