data_PCOD9113269
_publ_section_title
;
Structure prediction by ZEFSAII (Michael W. Deem and Ramdas Pophale) SiO2 
 PCOD9113269
Probable space group: P 2
;
_chemical_formula_sum "Si O2"
_cell_formula_units_Z 13
_cell_length_a 15.771595
_cell_length_b 6.975820
_cell_length_c 16.284510
_cell_angle_alpha 90.000000
_cell_angle_beta 19.055047
_cell_angle_gamma 90.000000
_cell_volume 584.921233
_symmetry_space_group_name_H-M "P 2"
_symmetry_group_IT_number 3
_symmetry_cell_setting 'monoclinic'
loop_
_space_group_symop_operation_xyz
x,y,z
-x,y,-z
loop_
_atom_site_type_symbol
_atom_site_label
_atom_site_fract_x
_atom_site_fract_y
_atom_site_fract_z
Si Si1 0.703790 0.027120 0.242873
Si Si2 0.583471 0.777276 0.192542
Si Si3 0.780111 0.187860 0.753046
Si Si4 0.962502 0.279471 0.311921
Si Si5 0.385734 0.323326 0.796338
Si Si6 0.000000 0.568696 0.500000
Si Si7 0.009565 0.726191 0.670560
O O1 0.500000 0.972339 0.500000
O O2 0.642630 0.244565 0.269407
O O3 0.659392 0.897966 0.202795
O O4 0.000000 0.009955 0.000000
O O5 0.604733 0.551849 0.199085
O O6 0.286074 0.816845 0.439467
O O7 0.772660 0.809745 0.940908
O O8 0.772988 0.404521 0.718073
O O9 0.000000 0.085387 0.500000
O O10 0.890623 0.198640 0.743109
O O11 0.500000 0.100368 0.000000
O O12 0.657474 0.240706 0.582694
O O13 0.974339 0.507389 0.313657
O O14 0.136590 0.242252 0.073156
O O15 0.010961 0.694139 0.408242
#
# Coordination Sequence:
#
# PCOD9113269 Si02
#       7
#     2   2   2   2   2   1   2
#     4  12  26  43  65  89 115 150 195 244 310 366
#     4  10  22  39  59  90 118 154 192 242 292 352
#     4   9  16  23  43  79 122 150 192 241 278 317
#     4   9  17  31  52  83 120 149 195 236 275 344
#     4  10  21  38  60  86 114 150 192 234 294 349
#     4   8  18  24  50  84 120 158 204 240 268 340
#     4   9  18  31  55  86 122 158 199 234 288 332
#
# _framework density 22.225214999999999
#
# number of rings (size 3 to 8) (size 9 to 14) (size 15 to 20)
#    0.462    1.846    0.000    2.769    6.462    1.231 
#    0.000    0.000    0.000    0.000   20.000    0.000 
#    0.000    0.000    0.000    0.000    0.000    0.000 
#
# Total GULP energy -72555.894417 kJ/mol
# GULP energy per Si atom -5581.222647 kJ/mol
# Density = 2.217463 g / cm^3
# Si number density = 22.225215 Si / 1000 Ang^3
#
#
#
# Elastic Constant Matrix: (Units=GPa)
#
#
# Indices 1 2 3 4 5 6 
#
# 1 95.3650 22.2181 75.6563 0.0000 12.5231 0.0000
# 2 22.2181 92.0747 25.9326 0.0000 11.0830 0.0000
# 3 75.6563 25.9326 179.8651 0.0000 -3.4389 0.0000
# 4 0.0000 0.0000 0.0000 -13.2849 0.0000 2.4751
# 5 12.5231 11.0830 -3.4389 0.0000 42.8147 0.0000
# 6 0.0000 0.0000 0.0000 2.4751 0.0000 6.4645
#
#
#
# Elastic Compliance Matrix: (Units=1/GPa)
#
#
# Indices 1 2 3 4 5 6 
#
# 1 0.017149 -0.001515 -0.007094 0.000000 -0.005194 0.000000
# 2 -0.001515 0.011871 -0.001126 0.000000 -0.002720 0.000000
# 3 -0.007094 -0.001126 0.008765 0.000000 0.003071 0.000000
# 4 0.000000 0.000000 0.000000 -0.070262 0.000000 0.026901
# 5 -0.005194 -0.002720 0.003071 0.000000 0.025826 0.000000
# 6 0.000000 0.000000 0.000000 0.026901 0.000000 0.144391
#
#
# Mechanical properties :
#
#
# Convention : Reuss Voigt Hill
#
# Bulk Modulus (GPa) = 54.60328 68.32431 61.46379
# Shear Modulus (GPa) = 30.61550 23.43207 27.02378
#
# Velocity S-wave (km/s) = 3.71551 3.25052 3.49077
# Velocity P-wave (km/s) = 6.55959 6.70048 6.63041
#
# Compressibility (1/GPa) = 0.01831392
#
# Stress axis : x y z
#
# Youngs Moduli (GPa) = 58.31197 84.23916 114.09176
#
# Poissons Ratio (x) = 0.12762 0.80940
# Poissons Ratio (y) = 0.08834 0.12850
# Poissons Ratio (z) = 0.41368 0.09488
#
# Static dielectric constant tensor:
#      x y z
#    x 1.980270 0.000000 0.020220 
#    y 0.000000 1.890810 0.000000 
#    z 0.020220 0.000000 1.820480 
# 
# From -- ./inp_files/13966.got.cif
#   From: 2010.05.17/outbox.cif.g08.bks.cpg/sg3_7_cif.got.tgz:13966.got - 2010.06.03 18:33:08.
