data_PCOD9113516
_publ_section_title
;
Structure prediction by ZEFSAII (Michael W. Deem and Ramdas Pophale) SiO2 
 PCOD9113516
Probable space group: P 2
;
_chemical_formula_sum "Si O2"
_cell_formula_units_Z 15
_cell_length_a 19.747794
_cell_length_b 5.523478
_cell_length_c 10.408468
_cell_angle_alpha 90.000000
_cell_angle_beta 145.442079
_cell_angle_gamma 90.000000
_cell_volume 643.997471
_symmetry_space_group_name_H-M "P 2"
_symmetry_group_IT_number 3
_symmetry_cell_setting 'monoclinic'
loop_
_space_group_symop_operation_xyz
x,y,z
-x,y,-z
loop_
_atom_site_type_symbol
_atom_site_label
_atom_site_fract_x
_atom_site_fract_y
_atom_site_fract_z
Si Si1 0.102353 0.113880 0.420309
Si Si2 0.729567 0.945032 0.535385
Si Si3 0.692455 0.297292 0.971923
Si Si4 0.500000 0.559060 0.500000
Si Si5 0.121259 0.615806 0.606786
Si Si6 0.825415 0.154519 0.948188
Si Si7 0.683800 0.541830 0.595320
Si Si8 0.507803 0.201872 0.156402
O O1 0.189726 0.087757 0.436303
O O2 0.114035 0.376514 0.504514
O O3 0.130096 0.876802 0.551902
O O4 0.964245 0.099796 0.163453
O O5 0.762839 0.013387 0.734120
O O6 0.590419 0.964157 0.279804
O O7 0.752095 0.661737 0.582744
O O8 0.589360 0.386788 0.716259
O O9 0.775904 0.124828 0.015658
O O10 0.621493 0.181518 0.980784
O O11 0.766466 0.533018 0.131543
O O12 0.587780 0.687411 0.535732
O O13 0.000000 0.618880 0.500000
O O14 0.784087 0.425805 0.843518
O O15 0.594115 0.357796 0.383539
O O16 0.500000 0.300431 0.000000
#
# Coordination Sequence:
#
# PCOD9113516 Si02
#       8
#     2   2   2   1   2   2   2   2
#     4  12  28  47  76 110 151 197 251 309 381 453
#     4  11  25  42  68 109 140 203 249 317 375 455
#     4  10  21  45  75 103 147 193 252 313 377 448
#     4   8  18  40  68 104 134 194 240 318 360 454
#     4  12  27  50  76 111 149 198 253 312 378 451
#     4  10  23  45  69 103 144 191 251 316 376 448
#     4   9  21  40  67  99 145 185 256 306 385 442
#     4  10  22  42  66 100 146 196 247 314 379 456
#
# _framework density 23.292017999999999
#
# number of rings (size 3 to 8) (size 9 to 14) (size 15 to 20)
#    0.000    1.600    1.333    2.400    7.467    1.600 
#    7.200    0.000    0.000    0.000    0.000    0.000 
#    0.000    0.000    0.000    0.000    0.000    0.000 
#
# Total GULP energy -83600.569970 kJ/mol
# GULP energy per Si atom -5573.371331 kJ/mol
# Density = 2.323900 g / cm^3
# Si number density = 23.292018 Si / 1000 Ang^3
#
#
#
# Elastic Constant Matrix: (Units=GPa)
#
#
# Indices 1 2 3 4 5 6 
#
# 1 103.1342 41.3403 6.7941 0.0000 4.1669 0.0000
# 2 41.3403 59.4838 16.3654 0.0000 3.6134 0.0000
# 3 6.7941 16.3654 112.9395 0.0000 -1.7096 0.0000
# 4 0.0000 0.0000 0.0000 20.3936 0.0000 -10.5485
# 5 4.1669 3.6134 -1.7096 0.0000 29.7450 0.0000
# 6 0.0000 0.0000 0.0000 -10.5485 0.0000 28.7443
#
#
#
# Elastic Compliance Matrix: (Units=1/GPa)
#
#
# Indices 1 2 3 4 5 6 
#
# 1 0.013490 -0.009484 0.000552 0.000000 -0.000706 0.000000
# 2 -0.009484 0.024333 -0.002983 0.000000 -0.001799 0.000000
# 3 0.000552 -0.002983 0.009266 0.000000 0.000818 0.000000
# 4 0.000000 0.000000 0.000000 0.060523 0.000000 0.022211
# 5 -0.000706 -0.001799 0.000818 0.000000 0.033983 0.000000
# 6 0.000000 0.000000 0.000000 0.022211 0.000000 0.042940
#
#
# Mechanical properties :
#
#
# Convention : Reuss Voigt Hill
#
# Bulk Modulus (GPa) = 42.99475 44.95076 43.97276
# Shear Modulus (GPa) = 23.13552 29.84710 26.49131
#
# Velocity S-wave (km/s) = 3.15506 3.58359 3.37613
# Velocity P-wave (km/s) = 5.63663 6.03850 5.84102
#
# Compressibility (1/GPa) = 0.02325865
#
# Stress axis : x y z
#
# Youngs Moduli (GPa) = 74.12932 41.09715 107.92561
#
# Poissons Ratio (x) = 0.38978 -0.05959
# Poissons Ratio (y) = 0.70307 0.32189
# Poissons Ratio (z) = -0.04093 0.12257
#
# Static dielectric constant tensor:
#      x y z
#    x 2.039120 0.000000 0.009230 
#    y 0.000000 2.080530 0.000000 
#    z 0.009230 0.000000 1.861240 
# 
# From -- ./inp_files/12633.got.cif
#   From: 2010.05.17/outbox.cif.g08.bks.cpg/sg3_7_cif.got.tgz:12633.got - 2010.06.03 18:33:08.
