data_PCOD9113392
_publ_section_title
;
Structure prediction by ZEFSAII (Michael W. Deem and Ramdas Pophale) SiO2 
 PCOD9113392
Probable space group: P 2
;
_chemical_formula_sum "Si O2"
_cell_formula_units_Z 13
_cell_length_a 12.333055
_cell_length_b 8.789989
_cell_length_c 8.422393
_cell_angle_alpha 90.000000
_cell_angle_beta 41.677506
_cell_angle_gamma 90.000000
_cell_volume 607.120808
_symmetry_space_group_name_H-M "P 2"
_symmetry_group_IT_number 3
_symmetry_cell_setting 'monoclinic'
loop_
_space_group_symop_operation_xyz
x,y,z
-x,y,-z
loop_
_atom_site_type_symbol
_atom_site_label
_atom_site_fract_x
_atom_site_fract_y
_atom_site_fract_z
Si Si1 0.627043 0.701780 0.739195
Si Si2 0.375038 0.632587 0.743747
Si Si3 0.183290 0.859541 0.728471
Si Si4 0.677591 0.193477 0.384829
Si Si5 0.095612 0.411933 0.054251
Si Si6 0.326120 0.345127 0.265528
Si Si7 0.000000 0.316333 0.500000
O O1 0.493891 0.681078 0.748759
O O2 0.779152 0.784657 0.486266
O O3 0.681838 0.532053 0.735487
O O4 0.500000 0.781417 0.000000
O O5 0.500000 0.534201 0.500000
O O6 0.297841 0.767971 0.726666
O O7 0.226992 0.534516 0.961221
O O8 0.246955 0.030943 0.652203
O O9 0.000000 0.851871 0.000000
O O10 0.500000 0.177066 0.500000
O O11 0.674618 0.293415 0.549595
O O12 0.804073 0.268353 0.121761
O O13 0.998999 0.385094 0.321525
O O14 0.000000 0.466574 0.000000
O O15 0.186837 0.260203 0.312241
O O16 0.500000 0.305775 0.000000
#
# Coordination Sequence:
#
# PCOD9113392 Si02
#       7
#     2   2   2   2   2   2   1
#     4  10  21  43  66  96 134 175 229 279 344 406
#     4  10  21  40  66  94 128 175 227 277 338 418
#     4  11  25  41  64  98 136 174 231 280 341 420
#     4  12  23  43  70  94 132 187 233 276 349 418
#     4  12  23  40  68  99 134 176 224 285 350 395
#     4  11  24  44  69 106 139 177 232 295 344 420
#     4  12  26  40  68 104 144 166 236 282 348 406
#
# _framework density 21.412544
#
# number of rings (size 3 to 8) (size 9 to 14) (size 15 to 20)
#    0.000    0.923    1.538    8.308    2.154    0.615 
#    0.000    1.538    0.000    0.000    0.000    0.000 
#    0.000    0.000    0.000    0.000    0.000    0.000 
#
# Total GULP energy -72382.203942 kJ/mol
# GULP energy per Si atom -5567.861842 kJ/mol
# Density = 2.136381 g / cm^3
# Si number density = 21.412544 Si / 1000 Ang^3
#
#
#
# Elastic Constant Matrix: (Units=GPa)
#
#
# Indices 1 2 3 4 5 6 
#
# 1 106.2032 -5.5782 40.5968 0.0000 -12.8929 0.0000
# 2 -5.5782 63.0564 19.5447 0.0000 1.2893 0.0000
# 3 40.5968 19.5447 138.5228 0.0000 3.5633 0.0000
# 4 0.0000 0.0000 0.0000 45.2352 0.0000 15.5494
# 5 -12.8929 1.2893 3.5633 0.0000 49.7051 0.0000
# 6 0.0000 0.0000 0.0000 15.5494 0.0000 37.4413
#
#
#
# Elastic Compliance Matrix: (Units=1/GPa)
#
#
# Indices 1 2 3 4 5 6 
#
# 1 0.011318 0.002081 -0.003692 0.000000 0.003147 0.000000
# 2 0.002081 0.016970 -0.003012 0.000000 0.000316 0.000000
# 3 -0.003692 -0.003012 0.008765 0.000000 -0.001508 0.000000
# 4 0.000000 0.000000 0.000000 0.025788 0.000000 -0.010710
# 5 0.003147 0.000316 -0.001508 0.000000 0.021035 0.000000
# 6 0.000000 0.000000 0.000000 -0.010710 0.000000 0.031156
#
#
# Mechanical properties :
#
#
# Convention : Reuss Voigt Hill
#
# Bulk Modulus (GPa) = 35.96153 46.32324 41.14239
# Shear Modulus (GPa) = 37.43986 43.35758 40.39872
#
# Velocity S-wave (km/s) = 4.18604 4.50474 4.34831
# Velocity P-wave (km/s) = 6.33996 6.98123 6.66830
#
# Compressibility (1/GPa) = 0.02780749
#
# Stress axis : x y z
#
# Youngs Moduli (GPa) = 88.35202 58.92679 114.09327
#
# Poissons Ratio (x) = -0.12264 0.42119
# Poissons Ratio (y) = -0.18388 0.34370
# Poissons Ratio (z) = 0.32616 0.17751
#
# Static dielectric constant tensor:
#      x y z
#    x 1.664180 0.000000 -0.072860 
#    y 0.000000 1.789530 0.000000 
#    z -0.072860 0.000000 1.819420 
# 
# From -- ./inp_files/7313.got.cif
#   From: 2010.05.17/outbox.cif.g08.bks.cpg/sg3_4_cif.got.tgz:7313.got - 2010.06.03 18:33:08.
