data_PCOD9113085
_publ_section_title
;
Structure prediction by ZEFSAII (Michael W. Deem and Ramdas Pophale) SiO2 
 PCOD9113085
Probable space group: P 2
;
_chemical_formula_sum "Si O2"
_cell_formula_units_Z 16
_cell_length_a 13.062243
_cell_length_b 7.440057
_cell_length_c 8.974541
_cell_angle_alpha 90.000000
_cell_angle_beta 61.050489
_cell_angle_gamma 90.000000
_cell_volume 763.198380
_symmetry_space_group_name_H-M "P 2"
_symmetry_group_IT_number 3
_symmetry_cell_setting 'monoclinic'
loop_
_space_group_symop_operation_xyz
x,y,z
-x,y,-z
loop_
_atom_site_type_symbol
_atom_site_label
_atom_site_fract_x
_atom_site_fract_y
_atom_site_fract_z
Si Si1 0.388087 0.669330 0.473644
Si Si2 0.249505 0.366510 0.997538
Si Si3 0.030449 0.538183 0.305915
Si Si4 0.319421 0.974278 0.032176
Si Si5 0.162830 0.489797 0.778835
Si Si6 0.087538 0.817416 0.048880
Si Si7 0.428668 0.997271 0.271464
Si Si8 0.506023 0.409245 0.818578
O O1 0.500000 0.637364 0.500000
O O2 0.273844 0.577066 0.620795
O O3 0.412789 0.564165 0.302410
O O4 0.381738 0.881978 0.442852
O O5 0.158873 0.463961 0.171724
O O6 0.292614 0.184906 0.040308
O O7 0.191732 0.334839 0.876811
O O8 0.372250 0.461423 0.872051
O O9 0.023920 0.738983 0.241000
O O10 0.000000 0.529567 0.500000
O O11 0.933980 0.436647 0.273375
O O12 0.347669 0.946972 0.186503
O O13 0.208621 0.890041 0.028014
O O14 0.439592 0.932202 0.861011
O O15 0.119711 0.647109 0.921343
O O16 0.000000 0.925245 0.000000
O O17 0.447427 0.213834 0.272472
O O18 0.500000 0.398835 0.000000
#
# Coordination Sequence:
#
# PCOD9113085 Si02
#       8
#     2   2   2   2   2   2   2   2
#     4  12  25  39  67  99 132 174 213 259 337 395
#     4  10  20  41  65  84 127 166 210 269 315 393
#     4  10  23  38  63  91 123 166 216 280 318 373
#     4  10  20  39  65  90 123 169 215 261 331 384
#     4  10  22  41  58  97 126 164 220 258 324 394
#     4   9  20  39  62  85 124 166 215 264 316 389
#     4  10  23  40  60 100 133 162 213 271 321 386
#     4  11  23  41  64  96 128 168 217 265 325 387
#
# _framework density 20.964406
#
# number of rings (size 3 to 8) (size 9 to 14) (size 15 to 20)
#    0.000    1.750    3.750    1.875    7.000    1.500 
#    2.250    0.625    0.000    0.000    0.000    0.000 
#    0.000    0.000    0.000    0.000    0.000    0.000 
#
# Total GULP energy -89158.451271 kJ/mol
# GULP energy per Si atom -5572.403204 kJ/mol
# Density = 2.091669 g / cm^3
# Si number density = 20.964406 Si / 1000 Ang^3
#
#
#
# Elastic Constant Matrix: (Units=GPa)
#
#
# Indices 1 2 3 4 5 6 
#
# 1 136.6926 14.0439 30.4292 0.0000 4.6804 0.0000
# 2 14.0439 43.3189 28.4796 0.0000 -0.5399 0.0000
# 3 30.4292 28.4796 104.0400 0.0000 -0.1894 0.0000
# 4 0.0000 0.0000 0.0000 17.9678 0.0000 4.4302
# 5 4.6804 -0.5399 -0.1894 0.0000 24.0021 0.0000
# 6 0.0000 0.0000 0.0000 4.4302 0.0000 25.3411
#
#
#
# Elastic Compliance Matrix: (Units=1/GPa)
#
#
# Indices 1 2 3 4 5 6 
#
# 1 0.007942 -0.001300 -0.001970 0.000000 -0.001594 0.000000
# 2 -0.001300 0.028371 -0.007385 0.000000 0.000833 0.000000
# 3 -0.001970 -0.007385 0.012210 0.000000 0.000314 0.000000
# 4 0.000000 0.000000 0.000000 0.058162 0.000000 -0.010168
# 5 -0.001594 0.000833 0.000314 0.000000 0.041995 0.000000
# 6 0.000000 0.000000 0.000000 -0.010168 0.000000 0.041239
#
#
# Mechanical properties :
#
#
# Convention : Reuss Voigt Hill
#
# Bulk Modulus (GPa) = 36.74454 47.77300 42.25877
# Shear Modulus (GPa) = 22.69630 27.53545 25.11587
#
# Velocity S-wave (km/s) = 3.29388 3.62807 3.46500
# Velocity P-wave (km/s) = 5.65962 6.35513 6.01743
#
# Compressibility (1/GPa) = 0.02721493
#
# Stress axis : x y z
#
# Youngs Moduli (GPa) = 125.90771 35.24689 81.90051
#
# Poissons Ratio (x) = 0.04580 0.16135
# Poissons Ratio (y) = 0.16362 0.60481
# Poissons Ratio (z) = 0.24805 0.26029
#
# Static dielectric constant tensor:
#      x y z
#    x 1.914020 0.000000 -0.008760 
#    y 0.000000 1.807310 0.000000 
#    z -0.008760 0.000000 1.769220 
# 
# From -- ./inp_files/7425.got.cif
#   From: 2010.05.17/outbox.cif.g08.bks.cpg/sg3_4_cif.got.tgz:7425.got - 2010.06.03 18:33:08.
