data_PCOD9113588
_publ_section_title
;
Structure prediction by ZEFSAII (Michael W. Deem and Ramdas Pophale) SiO2 
 PCOD9113588
Probable space group: P 2
;
_chemical_formula_sum "Si O2"
_cell_formula_units_Z 12
_cell_length_a 13.809425
_cell_length_b 7.650403
_cell_length_c 8.567842
_cell_angle_alpha 90.000000
_cell_angle_beta 39.813718
_cell_angle_gamma 90.000000
_cell_volume 579.576192
_symmetry_space_group_name_H-M "P 2"
_symmetry_group_IT_number 3
_symmetry_cell_setting 'monoclinic'
loop_
_space_group_symop_operation_xyz
x,y,z
-x,y,-z
loop_
_atom_site_type_symbol
_atom_site_label
_atom_site_fract_x
_atom_site_fract_y
_atom_site_fract_z
Si Si1 0.863016 0.722550 0.767071
Si Si2 0.249681 0.182821 0.896708
Si Si3 0.030839 0.996858 0.779715
Si Si4 0.604812 0.984641 0.018146
Si Si5 0.320170 0.560118 0.727849
Si Si6 0.683349 0.895399 0.443701
O O1 0.000000 0.635266 0.500000
O O2 0.957295 0.854734 0.759825
O O3 0.741937 0.845666 0.825767
O O4 0.762962 0.605075 0.006115
O O5 0.292020 0.354319 0.748666
O O6 0.326330 0.148925 0.969898
O O7 0.302828 0.017219 0.726335
O O8 0.067386 0.168403 0.135107
O O9 0.210284 0.988736 0.559220
O O10 0.000000 0.956928 0.000000
O O11 0.484784 0.893010 0.283155
O O12 0.500000 0.029073 0.000000
O O13 0.500000 0.585535 0.500000
O O14 0.263883 0.700364 0.669146
#
# Coordination Sequence:
#
# PCOD9113588 Si02
#       6
#     2   2   2   2   2   2
#     4  11  22  39  60  94 127 168 211 265 329 387
#     4  10  22  39  65  95 129 168 220 269 323 388
#     4   9  18  38  60  90 124 157 209 262 315 381
#     4  11  21  39  67  92 130 175 216 270 332 386
#     4  12  21  39  71  93 127 176 220 267 322 383
#     4  11  19  41  66  96 121 171 225 263 317 395
#
# _framework density 20.704784
#
# number of rings (size 3 to 8) (size 9 to 14) (size 15 to 20)
#    0.000    1.333    6.667    2.500    0.000    0.000 
#    9.000    5.833    0.000    0.000    0.000    0.000 
#    0.000    0.000    0.000    0.000    0.000    0.000 
#
# Total GULP energy -66809.559566 kJ/mol
# GULP energy per Si atom -5567.463297 kJ/mol
# Density = 2.065766 g / cm^3
# Si number density = 20.704784 Si / 1000 Ang^3
#
#
#
# Elastic Constant Matrix: (Units=GPa)
#
#
# Indices 1 2 3 4 5 6 
#
# 1 138.4332 20.5841 20.7879 0.0000 -17.4980 0.0000
# 2 20.5841 65.1739 12.1883 0.0000 -3.7395 0.0000
# 3 20.7879 12.1883 121.5977 0.0000 -25.3248 0.0000
# 4 0.0000 0.0000 0.0000 19.6805 0.0000 -3.9176
# 5 -17.4980 -3.7395 -25.3248 0.0000 33.0345 0.0000
# 6 0.0000 0.0000 0.0000 -3.9176 0.0000 9.5388
#
#
#
# Elastic Compliance Matrix: (Units=1/GPa)
#
#
# Indices 1 2 3 4 5 6 
#
# 1 0.008091 -0.002270 -0.000377 0.000000 0.003740 0.000000
# 2 -0.002270 0.016286 -0.001322 0.000000 -0.000372 0.000000
# 3 -0.000377 -0.001322 0.009934 0.000000 0.007266 0.000000
# 4 0.000000 0.000000 0.000000 0.055336 0.000000 0.022726
# 5 0.003740 -0.000372 0.007266 0.000000 0.037781 0.000000
# 6 0.000000 0.000000 0.000000 0.022726 0.000000 0.114168
#
#
# Mechanical properties :
#
#
# Convention : Reuss Voigt Hill
#
# Bulk Modulus (GPa) = 37.91697 48.03614 42.97656
# Shear Modulus (GPa) = 19.35552 30.56040 24.95796
#
# Velocity S-wave (km/s) = 3.06082 3.84605 3.47568
# Velocity P-wave (km/s) = 5.55377 6.55543 6.07528
#
# Compressibility (1/GPa) = 0.02637341
#
# Stress axis : x y z
#
# Youngs Moduli (GPa) = 123.60120 61.40079 100.66322
#
# Poissons Ratio (x) = 0.13939 0.03792
# Poissons Ratio (y) = 0.28060 0.13306
# Poissons Ratio (z) = 0.04656 0.08116
#
# Static dielectric constant tensor:
#      x y z
#    x 1.791590 0.000000 -0.029240 
#    y 0.000000 1.741770 0.000000 
#    z -0.029240 0.000000 1.858080 
# 
# From -- ./inp_files/8474.got.cif
#   From: 2010.05.17/outbox.cif.g08.bks.cpg/sg3_5_cif.got.tgz:8474.got - 2010.06.03 18:33:08.
