data_PCOD9113727
_publ_section_title
;
Structure prediction by ZEFSAII (Michael W. Deem and Ramdas Pophale) SiO2 
 PCOD9113727
Probable space group: P 2
;
_chemical_formula_sum "Si O2"
_cell_formula_units_Z 16
_cell_length_a 23.452991
_cell_length_b 5.448610
_cell_length_c 7.169755
_cell_angle_alpha 90.000000
_cell_angle_beta 131.661688
_cell_angle_gamma 90.000000
_cell_volume 684.474123
_symmetry_space_group_name_H-M "P 2"
_symmetry_group_IT_number 3
_symmetry_cell_setting 'monoclinic'
loop_
_space_group_symop_operation_xyz
x,y,z
-x,y,-z
loop_
_atom_site_type_symbol
_atom_site_label
_atom_site_fract_x
_atom_site_fract_y
_atom_site_fract_z
Si Si1 0.282244 0.492860 0.636972
Si Si2 0.073942 0.964596 0.526861
Si Si3 0.426410 0.898812 0.469501
Si Si4 0.425249 0.393868 0.711472
Si Si5 0.805543 0.768951 0.842345
Si Si6 0.090670 0.459685 0.702465
Si Si7 0.276234 0.839522 0.940913
Si Si8 0.158631 0.104134 0.397047
O O1 0.352598 0.356714 0.692848
O O2 0.263156 0.700005 0.443500
O O3 0.298831 0.592908 0.878102
O O4 0.200273 0.361167 0.469395
O O5 0.121084 0.189780 0.724171
O O6 0.077995 0.067925 0.326191
O O7 0.000000 0.939973 0.500000
O O8 0.102175 0.682778 0.581106
O O9 0.500000 0.867846 0.500000
O O10 0.415401 0.640267 0.560417
O O11 0.434147 0.139878 0.616597
O O12 0.355340 0.956573 0.177182
O O13 0.500000 0.435915 0.000000
O O14 0.845058 0.985293 0.814017
O O15 0.870936 0.568831 0.030249
O O16 0.766794 0.806615 0.957376
O O17 0.000000 0.425043 0.500000
O O18 0.220580 0.973001 0.672048
#
# Coordination Sequence:
#
# PCOD9113727 Si02
#       8
#     2   2   2   2   2   2   2   2
#     4  11  26  42  72 106 141 189 243 301 361 423
#     4  10  22  43  70  96 137 185 229 285 359 424
#     4  12  27  46  73 104 143 197 243 294 367 422
#     4  12  27  47  71 104 152 188 245 306 357 430
#     4  11  23  44  70 105 139 182 243 294 360 427
#     4  10  22  42  72  95 137 186 227 286 356 424
#     4  11  24  44  71 100 142 184 240 295 358 430
#     4  11  25  40  74 103 140 184 240 300 358 427
#
# _framework density 23.375613000000001
#
# number of rings (size 3 to 8) (size 9 to 14) (size 15 to 20)
#    0.000    1.000    2.500    3.000    8.750    2.000 
#    0.000    2.500    0.000    0.000    0.000    0.000 
#    0.000    0.000    0.000    0.000    0.000    0.000 
#
# Total GULP energy -89106.400225 kJ/mol
# GULP energy per Si atom -5569.150014 kJ/mol
# Density = 2.332241 g / cm^3
# Si number density = 23.375613 Si / 1000 Ang^3
#
#
#
# Elastic Constant Matrix: (Units=GPa)
#
#
# Indices 1 2 3 4 5 6 
#
# 1 152.2829 24.0000 35.8683 0.0000 -28.3262 0.0000
# 2 24.0000 117.1284 27.1611 0.0000 -24.0115 0.0000
# 3 35.8683 27.1611 107.5504 0.0000 -20.0476 0.0000
# 4 0.0000 0.0000 0.0000 42.5769 0.0000 -6.7021
# 5 -28.3262 -24.0115 -20.0476 0.0000 45.9012 0.0000
# 6 0.0000 0.0000 0.0000 -6.7021 0.0000 21.8987
#
#
#
# Elastic Compliance Matrix: (Units=1/GPa)
#
#
# Indices 1 2 3 4 5 6 
#
# 1 0.007755 -0.000398 -0.001777 0.000000 0.003802 0.000000
# 2 -0.000398 0.009848 -0.001568 0.000000 0.004222 0.000000
# 3 -0.001777 -0.001568 0.010809 0.000000 0.002804 0.000000
# 4 0.000000 0.000000 0.000000 0.024676 0.000000 0.007552
# 5 0.003802 0.004222 0.002804 0.000000 0.027565 0.000000
# 6 0.000000 0.000000 0.000000 0.007552 0.000000 0.047976
#
#
# Mechanical properties :
#
#
# Convention : Reuss Voigt Hill
#
# Bulk Modulus (GPa) = 47.78388 61.22451 54.50419
# Shear Modulus (GPa) = 34.94300 41.40417 38.17359
#
# Velocity S-wave (km/s) = 3.87052 4.21319 4.04549
# Velocity P-wave (km/s) = 6.36087 7.06516 6.72225
#
# Compressibility (1/GPa) = 0.02092756
#
# Stress axis : x y z
#
# Youngs Moduli (GPa) = 128.94677 101.54298 92.51303
#
# Poissons Ratio (x) = 0.04037 0.16443
# Poissons Ratio (y) = 0.05127 0.14502
# Poissons Ratio (z) = 0.22918 0.15917
#
# Static dielectric constant tensor:
#      x y z
#    x 2.133990 0.000000 0.009020 
#    y 0.000000 1.993230 0.000000 
#    z 0.009020 0.000000 1.916790 
# 
# From -- ./inp_files/3984.got.cif
#   From: 2010.05.17/outbox.cif.g08.bks.cpg/sg3_2_cif.got.tgz:3984.got - 2010.06.03 18:33:08.
