data_PCOD9113114
_publ_section_title
;
Structure prediction by ZEFSAII (Michael W. Deem and Ramdas Pophale) SiO2 
 PCOD9113114
Probable space group: P 2
;
_chemical_formula_sum "Si O2"
_cell_formula_units_Z 14
_cell_length_a 19.242444
_cell_length_b 5.316591
_cell_length_c 7.863013
_cell_angle_alpha 90.000000
_cell_angle_beta 137.052703
_cell_angle_gamma 90.000000
_cell_volume 548.071249
_symmetry_space_group_name_H-M "P 2"
_symmetry_group_IT_number 3
_symmetry_cell_setting 'monoclinic'
loop_
_space_group_symop_operation_xyz
x,y,z
-x,y,-z
loop_
_atom_site_type_symbol
_atom_site_label
_atom_site_fract_x
_atom_site_fract_y
_atom_site_fract_z
Si Si1 0.477691 0.674740 0.767662
Si Si2 0.094786 0.684924 0.541250
Si Si3 0.021460 0.186797 0.337361
Si Si4 0.391975 0.075808 0.336120
Si Si5 0.309206 0.696177 0.929335
Si Si6 0.265412 0.543896 0.474741
Si Si7 0.802342 0.065354 0.797678
O O1 0.383019 0.493723 0.630493
O O2 0.432797 0.866864 0.547030
O O3 0.500000 0.784277 0.000000
O O4 0.582577 0.553521 0.888041
O O5 0.202316 0.627183 0.827660
O O6 0.000000 0.715708 0.500000
O O7 0.063208 0.458865 0.361232
O O8 0.099697 0.957483 0.463240
O O9 0.000000 0.221871 0.500000
O O10 0.916436 0.105352 0.065415
O O11 0.500000 0.216669 0.500000
O O12 0.284388 0.159671 0.223647
O O13 0.350822 0.951134 0.087166
O O14 0.272434 0.670925 0.671252
O O15 0.213746 0.273059 0.377383
O O16 0.217536 0.771314 0.277634
#
# Coordination Sequence:
#
# PCOD9113114 Si02
#       7
#     2   2   2   2   2   2   2
#     4   8  17  37  62  94 132 168 208 260 326 393
#     4  10  21  38  60  90 121 160 208 267 321 368
#     4  10  21  38  61  87 117 159 209 261 315 375
#     4   9  18  36  67 101 129 168 219 270 324 394
#     4  10  20  40  65  94 129 169 219 269 320 387
#     4  10  23  42  64  93 129 173 210 260 331 401
#     4  11  22  43  65  91 131 171 211 269 335 388
#
# _framework density 25.544124
#
# number of rings (size 3 to 8) (size 9 to 14) (size 15 to 20)
#    0.000    2.286    0.000    2.571    0.000    4.571 
#    0.000   41.429    0.000    0.000    0.000    0.000 
#    0.000    0.000    0.000    0.000    0.000    0.000 
#
# Total GULP energy -77993.378395 kJ/mol
# GULP energy per Si atom -5570.955600 kJ/mol
# Density = 2.548598 g / cm^3
# Si number density = 25.544124 Si / 1000 Ang^3
#
#
#
# Elastic Constant Matrix: (Units=GPa)
#
#
# Indices 1 2 3 4 5 6 
#
# 1 79.1929 6.1638 11.4743 0.0000 21.2592 0.0000
# 2 6.1638 102.0614 28.9965 0.0000 1.3982 0.0000
# 3 11.4743 28.9965 118.4324 0.0000 18.4029 0.0000
# 4 0.0000 0.0000 0.0000 22.8417 0.0000 -6.0071
# 5 21.2592 1.3982 18.4029 0.0000 35.9635 0.0000
# 6 0.0000 0.0000 0.0000 -6.0071 0.0000 4.3252
#
#
#
# Elastic Compliance Matrix: (Units=1/GPa)
#
#
# Indices 1 2 3 4 5 6 
#
# 1 0.015074 -0.000825 0.000132 0.000000 -0.008946 0.000000
# 2 -0.000825 0.010608 -0.002747 0.000000 0.001481 0.000000
# 3 0.000132 -0.002747 0.009885 0.000000 -0.005029 0.000000
# 4 0.000000 0.000000 0.000000 0.068972 0.000000 0.095792
# 5 -0.008946 0.001481 -0.005029 0.000000 0.035610 0.000000
# 6 0.000000 0.000000 0.000000 0.095792 0.000000 0.364241
#
#
# Mechanical properties :
#
#
# Convention : Reuss Voigt Hill
#
# Bulk Modulus (GPa) = 34.86109 43.66179 39.26144
# Shear Modulus (GPa) = 9.59997 29.49621 19.54809
#
# Velocity S-wave (km/s) = 1.94071 3.40180 2.76935
# Velocity P-wave (km/s) = 4.32421 5.70609 5.06252
#
# Compressibility (1/GPa) = 0.02868528
#
# Stress axis : x y z
#
# Youngs Moduli (GPa) = 66.33888 94.26709 101.16289
#
# Poissons Ratio (x) = 0.07779 -0.01332
# Poissons Ratio (y) = 0.05475 0.27794
# Poissons Ratio (z) = -0.00874 0.25900
#
# Static dielectric constant tensor:
#      x y z
#    x 2.150970 0.000000 0.011400 
#    y 0.000000 2.067390 0.000000 
#    z 0.011400 0.000000 1.961320 
# 
# From -- ./inp_files/9276.got.cif
#   From: 2010.05.17/outbox.cif.g08.bks.cpg/sg3_5_cif.got.tgz:9276.got - 2010.06.03 18:33:08.
