data_PCOD9113334
_publ_section_title
;
Structure prediction by ZEFSAII (Michael W. Deem and Ramdas Pophale) SiO2 
 PCOD9113334
Probable space group: P 2
;
_chemical_formula_sum "Si O2"
_cell_formula_units_Z 15
_cell_length_a 7.723834
_cell_length_b 16.415481
_cell_length_c 5.361354
_cell_angle_alpha 90.000000
_cell_angle_beta 105.848831
_cell_angle_gamma 90.000000
_cell_volume 653.927490
_symmetry_space_group_name_H-M "P 2"
_symmetry_group_IT_number 3
_symmetry_cell_setting 'monoclinic'
loop_
_space_group_symop_operation_xyz
x,y,z
-x,y,-z
loop_
_atom_site_type_symbol
_atom_site_label
_atom_site_fract_x
_atom_site_fract_y
_atom_site_fract_z
Si Si1 0.284910 0.028630 0.401805
Si Si2 0.788588 0.769229 0.372841
Si Si3 0.686564 0.527905 0.700104
Si Si4 0.500000 0.410281 0.000000
Si Si5 0.791925 0.365607 0.487049
Si Si6 0.717683 0.944605 0.103842
Si Si7 0.794379 0.702450 0.881074
Si Si8 0.879600 0.202562 0.706812
O O1 0.500000 0.018192 0.500000
O O2 0.238886 0.121560 0.326455
O O3 0.218352 0.005545 0.652705
O O4 0.217625 0.970964 0.147016
O O5 0.768638 0.857073 0.237343
O O6 0.711448 0.755031 0.620896
O O7 0.000000 0.751444 0.500000
O O8 0.712469 0.710643 0.125795
O O9 0.500000 0.554706 0.500000
O O10 0.632395 0.472409 0.911706
O O11 0.775953 0.458915 0.567296
O O12 0.794424 0.608680 0.799478
O O13 0.368635 0.358423 0.774718
O O14 0.770125 0.287858 0.658510
O O15 0.000000 0.358301 0.500000
O O16 0.500000 0.946159 0.000000
O O17 0.000000 0.730707 0.000000
O O18 0.000000 0.195774 0.500000
O O19 0.000000 0.205041 0.000000
#
# Coordination Sequence:
#
# PCOD9113334 Si02
#       8
#     2   2   2   1   2   2   2   2
#     4  10  22  41  64  94 127 169 210 264 325 394
#     4  10  22  39  58  92 123 163 212 265 324 392
#     4  10  24  41  63  95 129 172 225 273 330 407
#     4  10  24  44  64 100 132 176 242 266 350 402
#     4  10  25  43  69  97 134 180 225 285 336 406
#     4  10  21  39  63  90 125 166 214 257 327 392
#     4  10  23  38  62  89 125 166 214 265 329 384
#     4  11  25  44  66 100 133 167 224 270 330 399
#
# _framework density 22.938323
#
# number of rings (size 3 to 8) (size 9 to 14) (size 15 to 20)
#    0.000    1.867    0.000    1.600    9.333    4.800 
#    3.600    0.000    0.000    0.000    0.000    0.000 
#    0.000    0.000    0.000    0.000    0.000    0.000 
#
# Total GULP energy -83696.018575 kJ/mol
# GULP energy per Si atom -5579.734572 kJ/mol
# Density = 2.288611 g / cm^3
# Si number density = 22.938323 Si / 1000 Ang^3
#
#
#
# Elastic Constant Matrix: (Units=GPa)
#
#
# Indices 1 2 3 4 5 6 
#
# 1 32.0585 8.2108 26.9310 0.0000 6.6078 0.0000
# 2 8.2108 104.7059 76.4059 0.0000 31.1290 0.0000
# 3 26.9310 76.4059 199.6176 0.0000 -0.5747 0.0000
# 4 0.0000 0.0000 0.0000 67.0974 0.0000 -1.3761
# 5 6.6078 31.1290 -0.5747 0.0000 8.9510 0.0000
# 6 0.0000 0.0000 0.0000 -1.3761 0.0000 71.2273
#
#
#
# Elastic Compliance Matrix: (Units=1/GPa)
#
#
# Indices 1 2 3 4 5 6 
#
# 1 0.023594 -0.017525 0.003651 0.000000 0.043763 0.000000
# 2 -0.017525 -0.016093 0.008724 0.000000 0.069465 0.000000
# 3 0.003651 0.008724 0.001083 0.000000 -0.032965 0.000000
# 4 0.000000 0.000000 0.000000 0.014910 0.000000 0.000288
# 5 0.043763 0.069465 -0.032965 0.000000 -0.164281 0.000000
# 6 0.000000 0.000000 0.000000 0.000288 0.000000 0.014045
#
#
# Mechanical properties :
#
#
# Convention : Reuss Voigt Hill
#
# Bulk Modulus (GPa) = -582.79691 62.16416 -260.31638
# Shear Modulus (GPa) = -42.72982 44.44411 0.85714
#
# Velocity S-wave (km/s) = -4.32071 4.40653 0.61195
# Velocity P-wave (km/s) = 16.71868 7.28351 10.64107
#
# Compressibility (1/GPa) = -0.00171586
#
# Stress axis : x y z
#
# Youngs Moduli (GPa) = 42.38284 -62.13830 923.45790
#
# Poissons Ratio (x) = -1.08896 -3.37119
# Poissons Ratio (y) = 0.74275 -8.05638
# Poissons Ratio (z) = -0.15472 0.54210
#
# Static dielectric constant tensor:
#      x y z
#    x 1.580250 0.000000 0.011650 
#    y 0.000000 1.823870 0.000000 
#    z 0.011650 0.000000 1.853690 
# 
# From -- ./inp_files/1606.got.cif
#   From: 2010.05.17/outbox.cif.g08.bks.cpg/sg3_1_cif.got.tgz:1606.got - 2010.06.03 18:33:08.
