data_PCOD9113078
_publ_section_title
;
Structure prediction by ZEFSAII (Michael W. Deem and Ramdas Pophale) SiO2 
 PCOD9113078
Probable space group: P 2
;
_chemical_formula_sum "Si O2"
_cell_formula_units_Z 16
_cell_length_a 9.101375
_cell_length_b 17.625446
_cell_length_c 8.690793
_cell_angle_alpha 90.000000
_cell_angle_beta 31.321160
_cell_angle_gamma 90.000000
_cell_volume 724.722499
_symmetry_space_group_name_H-M "P 2"
_symmetry_group_IT_number 3
_symmetry_cell_setting 'monoclinic'
loop_
_space_group_symop_operation_xyz
x,y,z
-x,y,-z
loop_
_atom_site_type_symbol
_atom_site_label
_atom_site_fract_x
_atom_site_fract_y
_atom_site_fract_z
Si Si1 0.702799 0.912990 0.185426
Si Si2 0.558666 0.750158 0.622509
Si Si3 0.111915 0.125168 0.733796
Si Si4 0.210168 0.514286 0.174628
Si Si5 0.732222 0.352183 0.931460
Si Si6 0.101327 0.677867 0.232275
Si Si7 0.404922 0.054455 0.911183
Si Si8 0.671957 0.292097 0.488911
O O1 0.500000 0.944872 0.500000
O O2 0.548615 0.836273 0.268712
O O3 0.726253 0.975537 0.032718
O O4 0.000000 0.895092 0.000000
O O5 0.500000 0.724451 0.500000
O O6 0.889438 0.736331 0.342336
O O7 0.403879 0.703161 0.895848
O O8 0.353123 0.080027 0.425562
O O9 0.220277 0.210317 0.659719
O O10 0.000000 0.095430 0.000000
O O11 0.836149 0.118208 0.875890
O O12 0.270032 0.441045 0.017565
O O13 0.078922 0.588360 0.213560
O O14 0.000000 0.487913 0.500000
O O15 0.500000 0.539041 0.000000
O O16 0.065946 0.331521 0.653968
O O17 0.500000 0.355805 0.000000
O O18 0.583239 0.288021 0.164552
O O19 0.000000 0.681283 0.500000
O O20 0.500000 0.044595 0.000000
O O21 0.500000 0.330623 0.500000
#
# Coordination Sequence:
#
# PCOD9113078 Si02
#       8
#     2   2   2   2   2   2   2   2
#     4  11  23  43  67  89 126 180 218 253 324 413
#     4  11  23  41  62  93 130 166 212 264 319 386
#     4  12  25  45  68  91 131 183 219 256 331 419
#     4  10  20  39  63  92 127 169 219 266 324 402
#     4  11  23  41  66  93 126 172 220 271 330 396
#     4  11  22  39  65  93 125 168 215 265 320 384
#     4  12  26  42  67 102 132 160 219 290 329 372
#     4  12  25  42  64  95 131 168 217 273 328 394
#
# _framework density 22.077414999999998
#
# number of rings (size 3 to 8) (size 9 to 14) (size 15 to 20)
#    0.000    0.750    0.000   10.875    0.000    4.000 
#    0.000    3.750    0.000    0.000    0.000    0.000 
#    0.000    0.000    0.000    0.000    0.000    0.000 
#
# Total GULP energy -89161.840683 kJ/mol
# GULP energy per Si atom -5572.615043 kJ/mol
# Density = 2.202717 g / cm^3
# Si number density = 22.077415 Si / 1000 Ang^3
#
#
#
# Elastic Constant Matrix: (Units=GPa)
#
#
# Indices 1 2 3 4 5 6 
#
# 1 81.4568 44.0972 15.9316 0.0000 -21.8929 0.0000
# 2 44.0972 94.0478 25.5261 0.0000 -5.0611 0.0000
# 3 15.9316 25.5261 105.6102 0.0000 -19.6363 0.0000
# 4 0.0000 0.0000 0.0000 32.5065 0.0000 3.0003
# 5 -21.8929 -5.0611 -19.6363 0.0000 39.8664 0.0000
# 6 0.0000 0.0000 0.0000 3.0003 0.0000 22.6625
#
#
#
# Elastic Compliance Matrix: (Units=1/GPa)
#
#
# Indices 1 2 3 4 5 6 
#
# 1 0.019656 -0.008965 0.001098 0.000000 0.010197 0.000000
# 2 -0.008965 0.015469 -0.003233 0.000000 -0.004552 0.000000
# 3 0.001098 -0.003233 0.011141 0.000000 0.005680 0.000000
# 4 0.000000 0.000000 0.000000 0.031144 0.000000 -0.004123
# 5 0.010197 -0.004552 0.005680 0.000000 0.032903 0.000000
# 6 0.000000 0.000000 0.000000 -0.004123 0.000000 0.044672
#
#
# Mechanical properties :
#
#
# Convention : Reuss Voigt Hill
#
# Bulk Modulus (GPa) = 41.55511 50.24719 45.90115
# Shear Modulus (GPa) = 26.99695 32.04441 29.52068
#
# Velocity S-wave (km/s) = 3.50069 3.81393 3.66066
# Velocity P-wave (km/s) = 5.93322 6.49644 6.22121
#
# Compressibility (1/GPa) = 0.02406443
#
# Stress axis : x y z
#
# Youngs Moduli (GPa) = 50.87570 64.64505 89.76174
#
# Poissons Ratio (x) = 0.57957 -0.09853
# Poissons Ratio (y) = 0.45612 0.29018
# Poissons Ratio (z) = -0.05585 0.20898
#
# Static dielectric constant tensor:
#      x y z
#    x 1.866260 0.000000 -0.005950 
#    y 0.000000 1.793590 0.000000 
#    z -0.005950 0.000000 1.825150 
# 
# From -- ./inp_files/6224.got.cif
#   From: 2010.05.17/outbox.cif.g08.bks.cpg/sg3_4_cif.got.tgz:6224.got - 2010.06.03 18:33:08.
