data_PCOD9113562
_publ_section_title
;
Structure prediction by ZEFSAII (Michael W. Deem and Ramdas Pophale) SiO2 
 PCOD9113562
Probable space group: P 2
;
_chemical_formula_sum "Si O2"
_cell_formula_units_Z 10
_cell_length_a 17.821918
_cell_length_b 6.225303
_cell_length_c 13.198391
_cell_angle_alpha 90.000000
_cell_angle_beta 20.168902
_cell_angle_gamma 90.000000
_cell_volume 504.881011
_symmetry_space_group_name_H-M "P 2"
_symmetry_group_IT_number 3
_symmetry_cell_setting 'monoclinic'
loop_
_space_group_symop_operation_xyz
x,y,z
-x,y,-z
loop_
_atom_site_type_symbol
_atom_site_label
_atom_site_fract_x
_atom_site_fract_y
_atom_site_fract_z
Si Si1 0.801938 0.866750 0.180143
Si Si2 0.080207 0.559736 0.685458
Si Si3 0.247267 0.190902 0.936676
Si Si4 0.905801 0.814188 0.730288
Si Si5 0.484030 0.564538 0.318820
O O1 0.614097 0.750433 0.483278
O O2 0.733437 0.050554 0.189343
O O3 0.000000 0.947681 0.000000
O O4 0.912059 0.678994 0.974024
O O5 0.302616 0.528714 0.463596
O O6 0.083212 0.713851 0.583386
O O7 0.967002 0.337337 0.802414
O O8 0.447865 0.349938 0.706808
O O9 0.196019 0.029180 0.093214
O O10 0.000000 0.843642 0.500000
O O11 0.706016 0.646969 0.987212
#
# Coordination Sequence:
#
# PCOD9113562 Si02
#       5
#     2   2   2   2   2
#     4   9  20  38  59  88 124 155 188 237 295 355
#     4   9  21  40  60  87 120 152 191 241 295 352
#     4  10  22  38  61  88 119 155 197 241 290 348
#     4  10  23  41  59  84 119 156 199 248 292 340
#     4  10  22  40  63  88 118 158 196 237 293 350
#
# _framework density 19.806649
#
# number of rings (size 3 to 8) (size 9 to 14) (size 15 to 20)
#    0.000    2.400    0.000    0.000    0.000   21.600 
#    0.000    4.000    0.000    0.000    0.000    0.000 
#    0.000    0.000    0.000    0.000    0.000    0.000 
#
# Total GULP energy -55867.850591 kJ/mol
# GULP energy per Si atom -5586.785059 kJ/mol
# Density = 1.976157 g / cm^3
# Si number density = 19.806649 Si / 1000 Ang^3
#
#
#
# Elastic Constant Matrix: (Units=GPa)
#
#
# Indices 1 2 3 4 5 6 
#
# 1 145.6799 61.9141 73.9837 0.0000 -6.8494 0.0000
# 2 61.9141 93.1036 47.4107 0.0000 -14.0998 0.0000
# 3 73.9837 47.4107 93.2429 0.0000 10.3043 0.0000
# 4 0.0000 0.0000 0.0000 14.7342 0.0000 -4.2659
# 5 -6.8494 -14.0998 10.3043 0.0000 35.6870 0.0000
# 6 0.0000 0.0000 0.0000 -4.2659 0.0000 24.5087
#
#
#
# Elastic Compliance Matrix: (Units=1/GPa)
#
#
# Indices 1 2 3 4 5 6 
#
# 1 0.013140 -0.003588 -0.009011 0.000000 0.003706 0.000000
# 2 -0.003588 0.018170 -0.007344 0.000000 0.008611 0.000000
# 3 -0.009011 -0.007344 0.022849 0.000000 -0.011228 0.000000
# 4 0.000000 0.000000 0.000000 0.071471 0.000000 0.012440
# 5 0.003706 0.008611 -0.011228 0.000000 0.035377 0.000000
# 6 0.000000 0.000000 0.000000 0.012440 0.000000 0.042967
#
#
# Mechanical properties :
#
#
# Convention : Reuss Voigt Hill
#
# Bulk Modulus (GPa) = 70.05669 77.62705 73.84187
# Shear Modulus (GPa) = 20.11123 24.90051 22.50587
#
# Velocity S-wave (km/s) = 3.18996 3.54952 3.37453
# Velocity P-wave (km/s) = 7.00106 7.48841 7.24883
#
# Compressibility (1/GPa) = 0.01427415
#
# Stress axis : x y z
#
# Youngs Moduli (GPa) = 76.10487 55.03453 43.76529
#
# Poissons Ratio (x) = 0.19747 0.39436
# Poissons Ratio (y) = 0.27308 0.32139
# Poissons Ratio (z) = 0.68577 0.40415
#
# Static dielectric constant tensor:
#      x y z
#    x 1.732870 0.000000 -0.025200 
#    y 0.000000 1.699150 0.000000 
#    z -0.025200 0.000000 1.676200 
# 
# From -- ./inp_files/12410.got.cif
#   From: 2010.05.17/outbox.cif.g08.bks.cpg/sg3_7_cif.got.tgz:12410.got - 2010.06.03 18:33:08.
