data_PCOD9113064
_publ_section_title
;
Structure prediction by ZEFSAII (Michael W. Deem and Ramdas Pophale) SiO2 
 PCOD9113064
Probable space group: P 2
;
_chemical_formula_sum "Si O2"
_cell_formula_units_Z 15
_cell_length_a 14.624243
_cell_length_b 8.505606
_cell_length_c 7.459383
_cell_angle_alpha 90.000000
_cell_angle_beta 35.777848
_cell_angle_gamma 90.000000
_cell_volume 542.466720
_symmetry_space_group_name_H-M "P 2"
_symmetry_group_IT_number 3
_symmetry_cell_setting 'monoclinic'
loop_
_space_group_symop_operation_xyz
x,y,z
-x,y,-z
loop_
_atom_site_type_symbol
_atom_site_label
_atom_site_fract_x
_atom_site_fract_y
_atom_site_fract_z
Si Si1 0.706701 0.299040 0.014111
Si Si2 0.567008 0.872267 0.192115
Si Si3 0.606108 0.198982 0.573199
Si Si4 0.074961 0.511188 0.684811
Si Si5 0.296077 0.675978 0.536061
Si Si6 0.816421 0.640451 0.893132
Si Si7 0.000000 0.910665 0.000000
Si Si8 0.880903 0.166935 0.430705
O O1 0.679414 0.231995 0.258523
O O2 0.535113 0.323208 0.198572
O O3 0.789056 0.467851 0.852813
O O4 0.805190 0.169457 0.746620
O O5 0.500000 0.869416 0.500000
O O6 0.464247 0.748157 0.248246
O O7 0.739715 0.795458 0.928951
O O8 0.499858 0.040798 0.238909
O O9 0.741217 0.188310 0.505736
O O10 0.251102 0.552115 0.455814
O O11 0.030818 0.333330 0.713960
O O12 0.000000 0.535752 0.000000
O O13 0.994841 0.638557 0.682776
O O14 0.278866 0.613945 0.766282
O O15 0.162514 0.814303 0.741426
O O16 0.015011 0.024700 0.803754
#
# Coordination Sequence:
#
# PCOD9113064 Si02
#       8
#     2   2   2   2   2   2   1   2
#     4  11  26  44  71 109 144 188 255 304 376 448
#     4  10  20  38  70 100 138 191 244 293 381 438
#     4  11  23  46  72 103 148 194 235 318 377 440
#     4  10  20  41  66  99 143 189 244 300 368 437
#     4  10  20  39  71 103 138 196 245 298 378 448
#     4  10  22  39  67 103 139 191 244 306 360 443
#     4  12  22  42  74 104 144 198 240 310 380 444
#     4  12  26  44  74 108 147 196 247 305 377 458
#
# _framework density 27.651465999999999
#
# number of rings (size 3 to 8) (size 9 to 14) (size 15 to 20)
#    0.000    1.333    5.333    2.000    7.467    0.533 
#    0.000    1.333    2.933    0.000    0.000    0.000 
#    0.000    0.000    0.000    0.000    0.000    0.000 
#
# Total GULP energy -83873.769638 kJ/mol
# GULP energy per Si atom -5591.584643 kJ/mol
# Density = 2.758853 g / cm^3
# Si number density = 27.651466 Si / 1000 Ang^3
#
#
#
# Elastic Constant Matrix: (Units=GPa)
#
#
# Indices 1 2 3 4 5 6 
#
# 1 74.3249 11.6028 8.9734 0.0000 -3.1531 0.0000
# 2 11.6028 119.5932 23.3899 0.0000 -10.6266 0.0000
# 3 8.9734 23.3899 60.1212 0.0000 -13.7171 0.0000
# 4 0.0000 0.0000 0.0000 44.6435 0.0000 -9.6594
# 5 -3.1531 -10.6266 -13.7171 0.0000 61.9038 0.0000
# 6 0.0000 0.0000 0.0000 -9.6594 0.0000 31.3325
#
#
#
# Elastic Compliance Matrix: (Units=1/GPa)
#
#
# Indices 1 2 3 4 5 6 
#
# 1 0.013816 -0.001006 -0.001632 0.000000 0.000169 0.000000
# 2 -0.001006 0.009163 -0.003231 0.000000 0.000806 0.000000
# 3 -0.001632 -0.003231 0.018946 0.000000 0.003560 0.000000
# 4 0.000000 0.000000 0.000000 0.024001 0.000000 0.007399
# 5 0.000169 0.000806 0.003560 0.000000 0.017090 0.000000
# 6 0.000000 0.000000 0.000000 0.007399 0.000000 0.034197
#
#
# Mechanical properties :
#
#
# Convention : Reuss Voigt Hill
#
# Bulk Modulus (GPa) = 33.12724 37.99685 35.56205
# Shear Modulus (GPa) = 35.96821 41.58085 38.77453
#
# Velocity S-wave (km/s) = 3.61053 3.88203 3.74874
# Velocity P-wave (km/s) = 5.42103 5.81934 5.62371
#
# Compressibility (1/GPa) = 0.03018664
#
# Stress axis : x y z
#
# Youngs Moduli (GPa) = 72.38130 109.13743 52.78191
#
# Poissons Ratio (x) = 0.10981 0.08614
# Poissons Ratio (y) = 0.07283 0.17052
# Poissons Ratio (z) = 0.11813 0.35259
#
# Static dielectric constant tensor:
#      x y z
#    x 2.295930 0.000000 0.039210 
#    y 0.000000 2.163260 0.000000 
#    z 0.039210 0.000000 2.228710 
# 
# From -- ./inp_files/12484.got.cif
#   From: 2010.05.17/outbox.cif.g08.bks.cpg/sg3_7_cif.got.tgz:12484.got - 2010.06.03 18:33:08.
