data_PCOD9113883
_publ_section_title
;
Structure prediction by ZEFSAII (Michael W. Deem and Ramdas Pophale) SiO2 
 PCOD9113883
Probable space group: P 2
;
_chemical_formula_sum "Si O2"
_cell_formula_units_Z 12
_cell_length_a 9.566819
_cell_length_b 4.951485
_cell_length_c 17.212120
_cell_angle_alpha 90.000000
_cell_angle_beta 140.141397
_cell_angle_gamma 90.000000
_cell_volume 522.545839
_symmetry_space_group_name_H-M "P 2"
_symmetry_group_IT_number 3
_symmetry_cell_setting 'monoclinic'
loop_
_space_group_symop_operation_xyz
x,y,z
-x,y,-z
loop_
_atom_site_type_symbol
_atom_site_label
_atom_site_fract_x
_atom_site_fract_y
_atom_site_fract_z
Si Si1 0.648791 0.735920 0.371686
Si Si2 0.940269 0.616040 0.357027
Si Si3 0.934254 0.971245 0.103065
Si Si4 0.775576 0.468309 0.794034
Si Si5 0.586576 0.166814 0.841909
Si Si6 0.790416 0.135344 0.206367
O O1 0.844992 0.760722 0.516679
O O2 0.452956 0.586848 0.332807
O O3 0.775799 0.562767 0.359191
O O4 0.548184 0.992429 0.280999
O O5 0.966291 0.347950 0.316443
O O6 0.828148 0.840143 0.257005
O O7 0.800390 0.080659 0.119766
O O8 0.141407 0.172299 0.191195
O O9 0.784665 0.000477 0.963754
O O10 0.033827 0.673207 0.146570
O O11 0.703244 0.424681 0.852994
O O12 0.430742 0.236506 0.847564
#
# Coordination Sequence:
#
# PCOD9113883 Si02
#       6
#     2   2   2   2   2   2
#     4  10  23  42  70 105 126 178 235 295 329 400
#     4  10  23  42  73  95 137 171 241 285 337 401
#     4  12  28  42  68 101 148 176 225 286 352 420
#     4  12  25  43  66 105 134 181 229 286 348 403
#     4  11  25  44  74  99 139 185 238 281 347 416
#     4  11  24  47  66 103 134 189 222 283 349 420
#
# _framework density 22.964492
#
# number of rings (size 3 to 8) (size 9 to 14) (size 15 to 20)
#    0.000    1.000    3.333    2.000    7.000    1.333 
#    0.000    8.333    0.000    0.000    0.000    0.000 
#    0.000    0.000    0.000    0.000    0.000    0.000 
#
# Total GULP energy -66925.579960 kJ/mol
# GULP energy per Si atom -5577.131663 kJ/mol
# Density = 2.291222 g / cm^3
# Si number density = 22.964492 Si / 1000 Ang^3
#
#
#
# Elastic Constant Matrix: (Units=GPa)
#
#
# Indices 1 2 3 4 5 6 
#
# 1 82.3322 10.2969 11.8468 0.0000 -2.8131 0.0000
# 2 10.2969 86.0230 -6.3836 0.0000 -13.2171 0.0000
# 3 11.8468 -6.3836 49.7074 0.0000 -2.8204 0.0000
# 4 0.0000 0.0000 0.0000 18.9666 0.0000 2.9849
# 5 -2.8131 -13.2171 -2.8204 0.0000 16.7348 0.0000
# 6 0.0000 0.0000 0.0000 2.9849 0.0000 35.1635
#
#
#
# Elastic Compliance Matrix: (Units=1/GPa)
#
#
# Indices 1 2 3 4 5 6 
#
# 1 0.012843 -0.001745 -0.003272 0.000000 0.000229 0.000000
# 2 -0.001745 0.013736 0.002806 0.000000 0.011028 0.000000
# 3 -0.003272 0.002806 0.021558 0.000000 0.005299 0.000000
# 4 0.000000 0.000000 0.000000 0.053438 0.000000 -0.004536
# 5 0.000229 0.011028 0.005299 0.000000 0.069398 0.000000
# 6 0.000000 0.000000 0.000000 -0.004536 0.000000 0.028824
#
#
# Mechanical properties :
#
#
# Convention : Reuss Voigt Hill
#
# Bulk Modulus (GPa) = 22.87520 27.73143 25.30332
# Shear Modulus (GPa) = 22.85287 27.65981 25.25634
#
# Velocity S-wave (km/s) = 3.15801 3.47430 3.31992
# Velocity P-wave (km/s) = 4.82494 5.31002 5.07328
#
# Compressibility (1/GPa) = 0.04371546
#
# Stress axis : x y z
#
# Youngs Moduli (GPa) = 77.86489 72.79966 46.38546
#
# Poissons Ratio (x) = 0.12702 0.15177
# Poissons Ratio (y) = 0.13586 -0.13014
# Poissons Ratio (z) = 0.25476 -0.20425
#
# Static dielectric constant tensor:
#      x y z
#    x 1.951190 0.000000 0.042440 
#    y 0.000000 1.870340 0.000000 
#    z 0.042440 0.000000 1.921370 
# 
# From -- ./inp_files/12383.got.cif
#   From: 2010.05.17/outbox.cif.g08.bks.cpg/sg3_7_cif.got.tgz:12383.got - 2010.06.03 18:33:08.
