data_PCOD9113638
_publ_section_title
;
Structure prediction by ZEFSAII (Michael W. Deem and Ramdas Pophale) SiO2 
 PCOD9113638
Probable space group: P 2
;
_chemical_formula_sum "Si O2"
_cell_formula_units_Z 12
_cell_length_a 15.049110
_cell_length_b 5.501478
_cell_length_c 20.189589
_cell_angle_alpha 90.000000
_cell_angle_beta 19.244269
_cell_angle_gamma 90.000000
_cell_volume 550.934395
_symmetry_space_group_name_H-M "P 2"
_symmetry_group_IT_number 3
_symmetry_cell_setting 'monoclinic'
loop_
_space_group_symop_operation_xyz
x,y,z
-x,y,-z
loop_
_atom_site_type_symbol
_atom_site_label
_atom_site_fract_x
_atom_site_fract_y
_atom_site_fract_z
Si Si1 0.482613 0.196970 0.226301
Si Si2 0.525101 0.818499 0.560338
Si Si3 0.000000 0.929704 0.500000
Si Si4 0.316679 0.306981 0.768767
Si Si5 0.576789 0.562659 0.836603
Si Si6 0.147009 0.928349 0.144063
Si Si7 0.500000 0.195549 0.000000
O O1 0.562213 0.224842 0.245696
O O2 0.433028 0.461724 0.230278
O O3 0.201725 0.067925 0.406712
O O4 0.711903 0.062722 0.019057
O O5 0.500000 0.769526 0.500000
O O6 0.446296 0.562761 0.651860
O O7 0.830596 0.900569 0.361497
O O8 0.354317 0.062754 0.697831
O O9 0.797588 0.768802 0.685866
O O10 0.000000 0.355908 0.000000
O O11 0.279762 0.663550 0.056862
O O12 0.636168 0.356517 0.847272
O O13 0.268038 0.057270 0.123535
#
# Coordination Sequence:
#
# PCOD9113638 Si02
#       7
#     2   2   1   2   2   2   1
#     4  10  24  44  70 104 148 190 243 297 361 430
#     4  12  29  50  80 110 144 191 245 309 369 440
#     4  10  22  42  64 104 142 196 228 298 350 434
#     4  12  29  50  80 110 144 191 245 309 369 440
#     4  10  22  40  68  94 150 190 240 290 352 434
#     4  10  24  44  70 104 148 190 243 297 361 430
#     4  10  22  42  64 104 142 196 228 298 350 434
#
# _framework density 21.781178000000001
#
# number of rings (size 3 to 8) (size 9 to 14) (size 15 to 20)
#    0.000    1.333    0.000    3.000   11.667    6.667 
#    3.000    0.000    0.000    0.000    0.000    0.000 
#    0.000    0.000    0.000    0.000    0.000    0.000 
#
# Total GULP energy -67033.357785 kJ/mol
# GULP energy per Si atom -5586.113149 kJ/mol
# Density = 2.173160 g / cm^3
# Si number density = 21.781178 Si / 1000 Ang^3
#
#
#
# Elastic Constant Matrix: (Units=GPa)
#
#
# Indices 1 2 3 4 5 6 
#
# 1 153.8306 43.7619 40.0894 0.0000 -5.2069 0.0000
# 2 43.7619 109.6713 42.4883 0.0000 -1.6925 0.0000
# 3 40.0894 42.4883 130.5070 0.0000 -24.0880 0.0000
# 4 0.0000 0.0000 0.0000 14.8720 0.0000 2.5240
# 5 -5.2069 -1.6925 -24.0880 0.0000 31.1158 0.0000
# 6 0.0000 0.0000 0.0000 2.5240 0.0000 12.9971
#
#
#
# Elastic Compliance Matrix: (Units=1/GPa)
#
#
# Indices 1 2 3 4 5 6 
#
# 1 0.007595 -0.002429 -0.001554 0.000000 -0.000064 0.000000
# 2 -0.002429 0.011368 -0.003402 0.000000 -0.002422 0.000000
# 3 -0.001554 -0.003402 0.010693 0.000000 0.007833 0.000000
# 4 0.000000 0.000000 0.000000 0.069532 0.000000 -0.013503
# 5 -0.000064 -0.002422 0.007833 0.000000 0.038059 0.000000
# 6 0.000000 0.000000 0.000000 -0.013503 0.000000 0.079563
#
#
# Mechanical properties :
#
#
# Convention : Reuss Voigt Hill
#
# Bulk Modulus (GPa) = 67.17902 71.85424 69.51663
# Shear Modulus (GPa) = 21.13797 29.64160 25.38979
#
# Velocity S-wave (km/s) = 3.11862 3.69302 3.41790
# Velocity P-wave (km/s) = 6.62400 7.15858 6.89647
#
# Compressibility (1/GPa) = 0.01488560
#
# Stress axis : x y z
#
# Youngs Moduli (GPa) = 131.67324 87.96568 93.51998
#
# Poissons Ratio (x) = 0.21371 0.14531
# Poissons Ratio (y) = 0.31989 0.31813
# Poissons Ratio (z) = 0.20459 0.29923
#
# Static dielectric constant tensor:
#      x y z
#    x 1.804840 0.000000 0.029720 
#    y 0.000000 1.849320 0.000000 
#    z 0.029720 0.000000 1.828290 
# 
# From -- ./inp_files/10186.got.cif
#   From: 2010.05.17/outbox.cif.g08.bks.cpg/sg3_6_cif.got.tgz:10186.got - 2010.06.03 18:33:08.
