data_PCOD9113112
_publ_section_title
;
Structure prediction by ZEFSAII (Michael W. Deem and Ramdas Pophale) SiO2 
 PCOD9113112
Probable space group: P 2
;
_chemical_formula_sum "Si O2"
_cell_formula_units_Z 16
_cell_length_a 9.313594
_cell_length_b 9.167364
_cell_length_c 21.291746
_cell_angle_alpha 90.000000
_cell_angle_beta 28.240848
_cell_angle_gamma 90.000000
_cell_volume 860.198092
_symmetry_space_group_name_H-M "P 2"
_symmetry_group_IT_number 3
_symmetry_cell_setting 'monoclinic'
loop_
_space_group_symop_operation_xyz
x,y,z
-x,y,-z
loop_
_atom_site_type_symbol
_atom_site_label
_atom_site_fract_x
_atom_site_fract_y
_atom_site_fract_z
Si Si1 0.747937 0.511410 0.754520
Si Si2 0.845472 0.255203 0.344539
Si Si3 0.899681 0.884993 0.111257
Si Si4 0.527266 0.757297 0.062666
Si Si5 0.784765 0.008020 0.732696
Si Si6 0.208062 0.771378 0.361216
Si Si7 0.170293 0.147199 0.095404
Si Si8 0.321923 0.260731 0.906813
O O1 0.626688 0.607287 0.858651
O O2 0.818066 0.633440 0.675268
O O3 0.491735 0.407760 0.824163
O O4 0.990584 0.397098 0.688718
O O5 0.500000 0.267040 0.500000
O O6 0.974114 0.108791 0.326826
O O7 0.953411 0.225044 0.230603
O O8 0.555691 0.823110 0.242407
O O9 0.991407 0.017767 0.124905
O O10 0.000000 0.916595 0.000000
O O11 0.127417 0.759244 0.046974
O O12 0.365709 0.889924 0.162597
O O13 0.500000 0.780564 0.000000
O O14 0.527425 0.121610 0.809843
O O15 0.920663 0.913546 0.624713
O O16 0.000000 0.739633 0.500000
O O17 0.500000 0.104819 0.000000
O O18 0.277942 0.254746 0.998714
O O19 0.000000 0.251742 0.000000
#
# Coordination Sequence:
#
# PCOD9113112 Si02
#       8
#     2   2   2   2   2   2   2   2
#     4  10  24  44  62  90 134 170 214 268 322 382
#     4  11  25  44  64  91 133 173 214 265 322 392
#     4  12  21  39  70 102 126 164 217 275 321 375
#     4  11  22  38  67  96 129 163 215 273 325 379
#     4  10  20  40  64  94 122 162 210 274 320 362
#     4  11  25  44  64  91 133 173 214 265 322 392
#     4  12  21  39  70 102 126 164 217 275 321 375
#     4  11  22  38  67  96 129 163 215 273 325 379
#
# _framework density 18.600368
#
# number of rings (size 3 to 8) (size 9 to 14) (size 15 to 20)
#    0.000    1.000    6.250    2.250    5.250    0.000 
#    4.500    2.500    0.000    0.000    0.000    0.000 
#    0.000    0.000    0.000    0.000    0.000    0.000 
#
# Total GULP energy -89158.354423 kJ/mol
# GULP energy per Si atom -5572.397151 kJ/mol
# Density = 1.855803 g / cm^3
# Si number density = 18.600368 Si / 1000 Ang^3
#
#
#
# Elastic Constant Matrix: (Units=GPa)
#
#
# Indices 1 2 3 4 5 6 
#
# 1 82.5753 29.0141 20.0021 0.0000 10.9021 0.0000
# 2 29.0141 113.5091 34.1866 0.0000 4.6183 0.0000
# 3 20.0021 34.1866 75.4550 0.0000 10.5922 0.0000
# 4 0.0000 0.0000 0.0000 3.3736 0.0000 7.9392
# 5 10.9021 4.6183 10.5922 0.0000 29.2623 0.0000
# 6 0.0000 0.0000 0.0000 7.9392 0.0000 10.7953
#
#
#
# Elastic Compliance Matrix: (Units=1/GPa)
#
#
# Indices 1 2 3 4 5 6 
#
# 1 0.014118 -0.002881 -0.001857 0.000000 -0.004133 0.000000
# 2 -0.002881 0.010790 -0.004253 0.000000 0.000910 0.000000
# 3 -0.001857 -0.004253 0.016309 0.000000 -0.004541 0.000000
# 4 0.000000 0.000000 0.000000 -0.405661 0.000000 0.298336
# 5 -0.004133 0.000910 -0.004541 0.000000 0.037213 0.000000
# 6 0.000000 0.000000 0.000000 0.298336 0.000000 -0.126772
#
#
# Mechanical properties :
#
#
# Convention : Reuss Voigt Hill
#
# Bulk Modulus (GPa) = 43.03701 48.66055 45.84878
# Shear Modulus (GPa) = -11.67473 21.24200 4.78364
#
# Velocity S-wave (km/s) = -2.50803 3.38305 1.60542
# Velocity P-wave (km/s) = 3.84720 6.44033 5.30466
#
# Compressibility (1/GPa) = 0.02323581
#
# Stress axis : x y z
#
# Youngs Moduli (GPa) = 70.83158 92.67703 61.31460
#
# Poissons Ratio (x) = 0.26703 0.11385
# Poissons Ratio (y) = 0.20409 0.26075
# Poissons Ratio (z) = 0.13152 0.39412
#
# Static dielectric constant tensor:
#      x y z
#    x 1.697660 0.000000 0.002340 
#    y 0.000000 1.652970 0.000000 
#    z 0.002340 0.000000 1.654620 
# 
# From -- ./inp_files/15779.got.cif
#   From: 2010.05.17/outbox.cif.g08.bks.cpg/sg3_8_cif.got.tgz:15779.got - 2010.06.03 18:33:08.
