data_PCOD9113592
_publ_section_title
;
Structure prediction by ZEFSAII (Michael W. Deem and Ramdas Pophale) SiO2 
 PCOD9113592
Probable space group: P 2
;
_chemical_formula_sum "Si O2"
_cell_formula_units_Z 11
_cell_length_a 15.492405
_cell_length_b 5.215696
_cell_length_c 15.884263
_cell_angle_alpha 90.000000
_cell_angle_beta 18.581467
_cell_angle_gamma 90.000000
_cell_volume 408.992947
_symmetry_space_group_name_H-M "P 2"
_symmetry_group_IT_number 3
_symmetry_cell_setting 'monoclinic'
loop_
_space_group_symop_operation_xyz
x,y,z
-x,y,-z
loop_
_atom_site_type_symbol
_atom_site_label
_atom_site_fract_x
_atom_site_fract_y
_atom_site_fract_z
Si Si1 0.446397 0.091880 0.458345
Si Si2 0.802070 0.141096 0.867381
Si Si3 0.847365 0.744290 0.564371
Si Si4 0.500000 0.136807 0.000000
Si Si5 0.072551 0.375864 0.083272
Si Si6 0.511543 0.768413 0.727588
O O1 0.500000 0.975700 0.500000
O O2 0.227142 0.319848 0.673768
O O3 0.331743 0.882245 0.497763
O O4 0.722544 0.200648 0.161911
O O5 0.958791 0.912280 0.675603
O O6 0.965902 0.302625 0.782508
O O7 0.668343 0.291037 0.913447
O O8 0.583646 0.012184 0.130510
O O9 0.661423 0.612018 0.664192
O O10 0.000000 0.598417 0.500000
O O11 0.681103 0.949689 0.774793
O O12 0.250698 0.631017 0.929013
#
# Coordination Sequence:
#
# PCOD9113592 Si02
#       6
#     2   2   2   1   2   2
#     4  11  25  46  68 100 140 178 233 301 358 424
#     4   9  18  36  58  90 134 176 228 282 346 409
#     4   9  16  33  61  92 133 179 231 282 347 419
#     4   8  16  30  56  88 124 184 218 278 340 410
#     4  11  24  41  70  99 135 181 234 288 356 427
#     4  10  22  39  67  96 135 185 231 283 361 426
#
# _framework density 26.895327000000002
#
# number of rings (size 3 to 8) (size 9 to 14) (size 15 to 20)
#    0.000    2.182    1.818    0.545    2.545    0.727 
#    0.000    9.091    0.000    9.818    0.000    0.000 
#    0.000    0.000    0.000    0.000    0.000    0.000 
#
# Total GULP energy -61362.185273 kJ/mol
# GULP energy per Si atom -5578.380479 kJ/mol
# Density = 2.683411 g / cm^3
# Si number density = 26.895327 Si / 1000 Ang^3
#
#
#
# Elastic Constant Matrix: (Units=GPa)
#
#
# Indices 1 2 3 4 5 6 
#
# 1 180.3580 28.7960 49.8743 0.0000 32.2974 0.0000
# 2 28.7960 55.5642 17.9899 0.0000 12.9406 0.0000
# 3 49.8743 17.9899 116.1916 0.0000 18.2532 0.0000
# 4 0.0000 0.0000 0.0000 35.1959 0.0000 21.9855
# 5 32.2974 12.9406 18.2532 0.0000 37.8533 0.0000
# 6 0.0000 0.0000 0.0000 21.9855 0.0000 4.4518
#
#
#
# Elastic Compliance Matrix: (Units=1/GPa)
#
#
# Indices 1 2 3 4 5 6 
#
# 1 0.007251 -0.002036 -0.002093 0.000000 -0.004481 0.000000
# 2 -0.002036 0.020630 -0.001607 0.000000 -0.004540 0.000000
# 3 -0.002093 -0.001607 0.010156 0.000000 -0.002562 0.000000
# 4 0.000000 0.000000 0.000000 -0.013627 0.000000 0.067300
# 5 -0.004481 -0.004540 -0.002562 0.000000 0.033029 0.000000
# 6 0.000000 0.000000 0.000000 0.067300 0.000000 -0.107739
#
#
# Mechanical properties :
#
#
# Convention : Reuss Voigt Hill
#
# Bulk Modulus (GPa) = 37.64395 60.60380 49.12388
# Shear Modulus (GPa) = -166.81659 32.53044 -67.14307
#
# Velocity S-wave (km/s) = -7.88410 3.48159 -5.00188
# Velocity P-wave (km/s) = 8.29770 6.22447 3.87993
#
# Compressibility (1/GPa) = 0.02656469
#
# Stress axis : x y z
#
# Youngs Moduli (GPa) = 137.91314 48.47255 98.46181
#
# Poissons Ratio (x) = 0.09871 0.20609
# Poissons Ratio (y) = 0.28085 0.15821
# Poissons Ratio (z) = 0.28867 0.07788
#
# Static dielectric constant tensor:
#      x y z
#    x 2.294190 0.000000 -0.281920 
#    y 0.000000 2.211150 0.000000 
#    z -0.281920 0.000000 2.241260 
# 
# From -- ./inp_files/2725.got.cif
#   From: 2010.05.17/outbox.cif.g08.bks.cpg/sg3_2_cif.got.tgz:2725.got - 2010.06.03 18:33:08.
