data_PCOD9113773
_publ_section_title
;
Structure prediction by ZEFSAII (Michael W. Deem and Ramdas Pophale) SiO2 
 PCOD9113773
Probable space group: P 2
;
_chemical_formula_sum "Si O2"
_cell_formula_units_Z 13
_cell_length_a 13.925658
_cell_length_b 6.932176
_cell_length_c 12.522801
_cell_angle_alpha 90.000000
_cell_angle_beta 150.536930
_cell_angle_gamma 90.000000
_cell_volume 594.607621
_symmetry_space_group_name_H-M "P 2"
_symmetry_group_IT_number 3
_symmetry_cell_setting 'monoclinic'
loop_
_space_group_symop_operation_xyz
x,y,z
-x,y,-z
loop_
_atom_site_type_symbol
_atom_site_label
_atom_site_fract_x
_atom_site_fract_y
_atom_site_fract_z
Si Si1 0.649659 0.990130 0.483747
Si Si2 0.178434 0.799343 0.798035
Si Si3 0.146037 0.146393 0.512078
Si Si4 0.961044 0.713047 0.789979
Si Si5 0.500000 0.008726 0.000000
Si Si6 0.766217 0.039766 0.843550
Si Si7 0.000000 0.397260 0.000000
Si Si8 0.000000 0.489505 0.500000
O O1 0.762268 0.140533 0.517293
O O2 0.699729 0.999705 0.657896
O O3 0.418925 0.018000 0.258448
O O4 0.751093 0.790123 0.546651
O O5 0.110551 0.684881 0.837479
O O6 0.389406 0.890878 0.986051
O O7 0.016614 0.974581 0.636534
O O8 0.166155 0.641390 0.692228
O O9 0.323599 0.115144 0.767796
O O10 0.050210 0.346922 0.452185
O O11 0.072955 0.888510 0.960135
O O12 0.924490 0.539049 0.834858
O O13 0.850720 0.254378 0.915224
#
# Coordination Sequence:
#
# PCOD9113773 Si02
#       8
#     2   2   2   2   1   2   1   1
#     4  10  22  44  67  89 132 174 210 261 329 386
#     4  11  25  43  68  96 133 170 220 268 328 380
#     4  11  24  44  68  94 130 175 213 271 331 382
#     4  11  23  45  67  94 132 177 210 267 326 387
#     4  12  20  48  64  92 132 174 216 272 314 392
#     4  11  22  44  64  98 134 168 215 266 320 396
#     4  12  22  42  66 102 130 164 220 270 316 390
#     4  12  22  46  64  98 132 166 220 276 320 382
#
# _framework density 21.863154999999999
#
# number of rings (size 3 to 8) (size 9 to 14) (size 15 to 20)
#    0.000    0.923    6.154    0.923    2.154    0.615 
#   11.077    0.000    0.000    0.000    0.000    0.000 
#    0.000    0.000    0.000    0.000    0.000    0.000 
#
# Total GULP energy -72474.899111 kJ/mol
# GULP energy per Si atom -5574.992239 kJ/mol
# Density = 2.181339 g / cm^3
# Si number density = 21.863155 Si / 1000 Ang^3
#
#
#
# Elastic Constant Matrix: (Units=GPa)
#
#
# Indices 1 2 3 4 5 6 
#
# 1 126.0129 22.0403 21.1454 0.0000 24.7787 0.0000
# 2 22.0403 101.4837 32.0951 0.0000 16.2655 0.0000
# 3 21.1454 32.0951 71.2141 0.0000 28.7791 0.0000
# 4 0.0000 0.0000 0.0000 1.1492 0.0000 5.6234
# 5 24.7787 16.2655 28.7791 0.0000 43.7198 0.0000
# 6 0.0000 0.0000 0.0000 5.6234 0.0000 20.9387
#
#
#
# Elastic Compliance Matrix: (Units=1/GPa)
#
#
# Indices 1 2 3 4 5 6 
#
# 1 0.009077 -0.001136 -0.000375 0.000000 -0.004475 0.000000
# 2 -0.001136 0.011679 -0.004674 0.000000 -0.000625 0.000000
# 3 -0.000375 -0.004674 0.021079 0.000000 -0.011924 0.000000
# 4 0.000000 0.000000 0.000000 -2.769875 0.000000 0.743895
# 5 -0.004475 -0.000625 -0.011924 0.000000 0.033491 0.000000
# 6 0.000000 0.000000 0.000000 0.743895 0.000000 -0.152027
#
#
# Mechanical properties :
#
#
# Convention : Reuss Voigt Hill
#
# Bulk Modulus (GPa) = 33.93728 49.91915 41.92822
# Shear Modulus (GPa) = -1.77030 28.05689 13.14330
#
# Velocity S-wave (km/s) = -0.90082 3.58620 2.45452
# Velocity P-wave (km/s) = 3.80451 6.32692 5.22035
#
# Compressibility (1/GPa) = 0.02946612
#
# Stress axis : x y z
#
# Youngs Moduli (GPa) = 110.16568 85.62620 47.44155
#
# Poissons Ratio (x) = 0.09723 0.01779
# Poissons Ratio (y) = 0.12510 0.22173
# Poissons Ratio (z) = 0.04130 0.40019
#
# Static dielectric constant tensor:
#      x y z
#    x 1.873220 0.000000 -0.022000 
#    y 0.000000 1.778960 0.000000 
#    z -0.022000 0.000000 1.875300 
# 
# From -- ./inp_files/13867.got.cif
#   From: 2010.05.17/outbox.cif.g08.bks.cpg/sg3_7_cif.got.tgz:13867.got - 2010.06.03 18:33:08.
