data_PCOD9113301
_publ_section_title
;
Structure prediction by ZEFSAII (Michael W. Deem and Ramdas Pophale) SiO2 
 PCOD9113301
Probable space group: P 2
;
_chemical_formula_sum "Si O2"
_cell_formula_units_Z 13
_cell_length_a 10.141494
_cell_length_b 7.683787
_cell_length_c 8.369267
_cell_angle_alpha 90.000000
_cell_angle_beta 118.866200
_cell_angle_gamma 90.000000
_cell_volume 571.142612
_symmetry_space_group_name_H-M "P 2"
_symmetry_group_IT_number 3
_symmetry_cell_setting 'monoclinic'
loop_
_space_group_symop_operation_xyz
x,y,z
-x,y,-z
loop_
_atom_site_type_symbol
_atom_site_label
_atom_site_fract_x
_atom_site_fract_y
_atom_site_fract_z
Si Si1 0.826219 0.652900 0.252121
Si Si2 0.872957 0.804766 0.632186
Si Si3 0.555312 0.078926 0.784707
Si Si4 0.335527 0.384239 0.979854
Si Si5 0.672630 0.526046 0.664672
Si Si6 0.500000 0.796181 0.000000
Si Si7 0.729060 0.164785 0.563645
O O1 0.843721 0.713200 0.443708
O O2 0.660750 0.707347 0.102810
O O3 0.957240 0.746106 0.229600
O O4 0.806691 0.447194 0.207352
O O5 0.755942 0.706815 0.679325
O O6 0.849639 0.012318 0.602445
O O7 0.656406 0.180413 0.972722
O O8 0.644557 0.088208 0.671832
O O9 0.395780 0.169877 0.649536
O O10 0.510893 0.901025 0.840142
O O11 0.328784 0.474111 0.150730
O O12 0.500000 0.414827 0.000000
O O13 0.500000 0.529350 0.500000
O O14 0.759674 0.365541 0.626477
#
# Coordination Sequence:
#
# PCOD9113301 Si02
#       7
#     2   2   2   2   2   1   2
#     4  11  26  43  64 101 133 180 229 279 349 407
#     4  11  26  46  66  96 143 181 224 289 346 410
#     4  10  21  38  66  98 129 166 227 280 332 397
#     4  11  21  40  65  96 135 168 228 286 326 407
#     4  11  23  39  71  99 130 183 227 277 345 407
#     4  12  22  38  66  98 126 172 226 282 340 406
#     4  10  21  43  65  99 130 175 229 274 335 413
#
# _framework density 22.761391
#
# number of rings (size 3 to 8) (size 9 to 14) (size 15 to 20)
#    0.000    1.231    6.154    0.923    4.308    0.615 
#    2.769    1.538    0.000    0.000    0.000    0.000 
#    0.000    0.000    0.000    0.000    0.000    0.000 
#
# Total GULP energy -72518.803363 kJ/mol
# GULP energy per Si atom -5578.369489 kJ/mol
# Density = 2.270959 g / cm^3
# Si number density = 22.761391 Si / 1000 Ang^3
#
#
#
# Elastic Constant Matrix: (Units=GPa)
#
#
# Indices 1 2 3 4 5 6 
#
# 1 59.6638 19.7803 9.3795 0.0000 12.0131 0.0000
# 2 19.7803 83.1261 5.5799 0.0000 19.4440 0.0000
# 3 9.3795 5.5799 43.1907 0.0000 3.0594 0.0000
# 4 0.0000 0.0000 0.0000 34.6331 0.0000 -5.0166
# 5 12.0131 19.4440 3.0594 0.0000 30.9018 0.0000
# 6 0.0000 0.0000 0.0000 -5.0166 0.0000 21.0735
#
#
#
# Elastic Compliance Matrix: (Units=1/GPa)
#
#
# Indices 1 2 3 4 5 6 
#
# 1 0.019399 -0.003167 -0.003435 0.000000 -0.005209 0.000000
# 2 -0.003167 0.014685 -0.000647 0.000000 -0.007945 0.000000
# 3 -0.003435 -0.000647 0.024028 0.000000 -0.000637 0.000000
# 4 0.000000 0.000000 0.000000 0.029905 0.000000 0.007119
# 5 -0.005209 -0.007945 -0.000637 0.000000 0.039448 0.000000
# 6 0.000000 0.000000 0.000000 0.007119 0.000000 0.049148
#
#
# Mechanical properties :
#
#
# Convention : Reuss Voigt Hill
#
# Bulk Modulus (GPa) = 22.92782 28.38444 25.65613
# Shear Modulus (GPa) = 24.31333 27.40441 25.85887
#
# Velocity S-wave (km/s) = 3.27185 3.47362 3.37424
# Velocity P-wave (km/s) = 4.93643 5.34654 5.14557
#
# Compressibility (1/GPa) = 0.04361514
#
# Stress axis : x y z
#
# Youngs Moduli (GPa) = 51.54818 68.09479 41.61873
#
# Poissons Ratio (x) = 0.21568 0.14295
# Poissons Ratio (y) = 0.16327 0.02691
# Poissons Ratio (z) = 0.17705 0.04403
#
# Static dielectric constant tensor:
#      x y z
#    x 1.863010 0.000000 -0.024800 
#    y 0.000000 2.022420 0.000000 
#    z -0.024800 0.000000 1.886860 
# 
# From -- ./inp_files/5632.got.cif
#   From: 2010.05.17/outbox.cif.g08.bks.cpg/sg3_3_cif.got.tgz:5632.got - 2010.06.03 18:33:08.
