data_PCOD9113873
_publ_section_title
;
Structure prediction by ZEFSAII (Michael W. Deem and Ramdas Pophale) SiO2 
 PCOD9113873
Probable space group: P 2
;
_chemical_formula_sum "Si O2"
_cell_formula_units_Z 13
_cell_length_a 10.513315
_cell_length_b 10.034444
_cell_length_c 7.605521
_cell_angle_alpha 90.000000
_cell_angle_beta 48.728761
_cell_angle_gamma 90.000000
_cell_volume 603.039890
_symmetry_space_group_name_H-M "P 2"
_symmetry_group_IT_number 3
_symmetry_cell_setting 'monoclinic'
loop_
_space_group_symop_operation_xyz
x,y,z
-x,y,-z
loop_
_atom_site_type_symbol
_atom_site_label
_atom_site_fract_x
_atom_site_fract_y
_atom_site_fract_z
Si Si1 0.261650 0.564940 0.556683
Si Si2 0.500000 0.168079 0.500000
Si Si3 0.065732 0.013465 0.634107
Si Si4 0.396567 0.664484 0.810958
Si Si5 0.950166 0.746907 0.746498
Si Si6 0.850421 0.290756 0.261934
Si Si7 0.545238 0.948971 0.750774
O O1 0.329714 0.595578 0.692624
O O2 0.430049 0.593350 0.289247
O O3 0.101983 0.661978 0.687126
O O4 0.195711 0.417190 0.577546
O O5 0.670246 0.254207 0.340628
O O6 0.495318 0.075514 0.677873
O O7 0.083618 0.152653 0.716778
O O8 0.000000 0.045981 0.500000
O O9 0.947124 0.898126 0.825022
O O10 0.251484 0.947131 0.451244
O O11 0.460372 0.818172 0.743705
O O12 0.228901 0.674447 0.079978
O O13 0.000000 0.765904 0.500000
O O14 0.000000 0.339106 0.000000
O O15 0.500000 0.957065 0.000000
#
# Coordination Sequence:
#
# PCOD9113873 Si02
#       7
#     2   1   2   2   2   2   2
#     4  11  24  44  63  97 132 181 233 278 336 418
#     4  10  24  42  64 102 136 184 230 276 350 418
#     4  10  23  42  64 103 136 170 227 285 343 417
#     4  11  23  39  70  91 136 175 219 286 341 393
#     4  11  23  40  68 101 133 170 224 283 351 409
#     4  11  25  42  68  93 136 185 231 276 344 412
#     4  11  22  40  69 104 140 172 226 291 350 408
#
# _framework density 21.557445999999999
#
# number of rings (size 3 to 8) (size 9 to 14) (size 15 to 20)
#    0.000    1.231    1.538    5.077    6.462    0.615 
#    0.000    0.000   13.538    0.000    0.000    0.000 
#    0.000    0.000    0.000    0.000    0.000    0.000 
#
# Total GULP energy -72555.551628 kJ/mol
# GULP energy per Si atom -5581.196279 kJ/mol
# Density = 2.150838 g / cm^3
# Si number density = 21.557446 Si / 1000 Ang^3
#
#
#
# Elastic Constant Matrix: (Units=GPa)
#
#
# Indices 1 2 3 4 5 6 
#
# 1 70.6544 25.2131 14.0174 0.0000 -19.0807 0.0000
# 2 25.2131 106.7305 31.1024 0.0000 -17.8126 0.0000
# 3 14.0174 31.1024 97.6811 0.0000 -25.8248 0.0000
# 4 0.0000 0.0000 0.0000 4.5688 0.0000 26.3834
# 5 -19.0807 -17.8126 -25.8248 0.0000 39.1044 0.0000
# 6 0.0000 0.0000 0.0000 26.3834 0.0000 -79.8046
#
#
#
# Elastic Compliance Matrix: (Units=1/GPa)
#
#
# Indices 1 2 3 4 5 6 
#
# 1 0.017084 -0.002942 0.000405 0.000000 0.007264 0.000000
# 2 -0.002942 0.011147 -0.002622 0.000000 0.001911 0.000000
# 3 0.000405 -0.002622 0.013025 0.000000 0.007605 0.000000
# 4 0.000000 0.000000 0.000000 0.075238 0.000000 0.024874
# 5 0.007264 0.001911 0.007605 0.000000 0.035010 0.000000
# 6 0.000000 0.000000 0.000000 0.024874 0.000000 -0.004307
#
#
# Mechanical properties :
#
#
# Convention : Reuss Voigt Hill
#
# Bulk Modulus (GPa) = 32.32086 46.19242 39.25664
# Shear Modulus (GPa) = 29.79258 6.42259 18.10759
#
# Velocity S-wave (km/s) = 3.72157 1.72794 2.90137
# Velocity P-wave (km/s) = 5.78725 5.04531 5.42897
#
# Compressibility (1/GPa) = 0.03093977
#
# Stress axis : x y z
#
# Youngs Moduli (GPa) = 58.53291 89.70777 76.77703
#
# Poissons Ratio (x) = 0.26389 -0.03113
# Poissons Ratio (y) = 0.17219 0.20132
# Poissons Ratio (z) = -0.02373 0.23522
#
# Static dielectric constant tensor:
#      x y z
#    x 1.815500 0.000000 -0.009000 
#    y 0.000000 1.797400 0.000000 
#    z -0.009000 0.000000 1.778130 
# 
# From -- ./inp_files/7302.got.cif
#   From: 2010.05.17/outbox.cif.g08.bks.cpg/sg3_4_cif.got.tgz:7302.got - 2010.06.03 18:33:08.
