data_PCOD9113232
_publ_section_title
;
Structure prediction by ZEFSAII (Michael W. Deem and Ramdas Pophale) SiO2 
 PCOD9113232
Probable space group: P 2
;
_chemical_formula_sum "Si O2"
_cell_formula_units_Z 16
_cell_length_a 8.937568
_cell_length_b 18.122252
_cell_length_c 8.546358
_cell_angle_alpha 90.000000
_cell_angle_beta 33.041660
_cell_angle_gamma 90.000000
_cell_volume 754.757153
_symmetry_space_group_name_H-M "P 2"
_symmetry_group_IT_number 3
_symmetry_cell_setting 'monoclinic'
loop_
_space_group_symop_operation_xyz
x,y,z
-x,y,-z
loop_
_atom_site_type_symbol
_atom_site_label
_atom_site_fract_x
_atom_site_fract_y
_atom_site_fract_z
Si Si1 0.602753 0.625000 0.230076
Si Si2 0.085958 0.256875 0.106726
Si Si3 0.057037 0.556119 0.626702
Si Si4 0.915554 0.020473 0.391991
Si Si5 0.582470 0.931816 0.110801
Si Si6 0.412046 0.168696 0.395446
Si Si7 0.799309 0.396966 0.809963
Si Si8 0.705228 0.786650 0.179129
O O1 0.500000 0.624655 0.500000
O O2 0.380664 0.569108 0.353757
O O3 0.596271 0.711716 0.193605
O O4 0.895774 0.598446 0.906452
O O5 0.208004 0.334736 0.051639
O O6 0.807154 0.234038 0.436804
O O7 0.311383 0.192424 0.935283
O O8 0.000000 0.259454 0.000000
O O9 0.000000 0.583353 0.500000
O O10 0.947963 0.472489 0.731591
O O11 0.751574 0.094431 0.497577
O O12 0.000000 0.024255 0.500000
O O13 0.697505 0.954673 0.558868
O O14 0.194499 0.997164 0.061262
O O15 0.706243 0.855674 0.062658
O O16 0.500000 0.926885 0.000000
O O17 0.500000 0.165153 0.500000
O O18 0.000000 0.366448 0.500000
O O19 0.500000 0.411856 0.000000
O O20 0.500000 0.804783 0.500000
O O21 0.000000 0.771333 0.000000
#
# Coordination Sequence:
#
# PCOD9113232 Si02
#       8
#     2   2   2   2   2   2   2   2
#     4  11  23  41  63  91 125 162 206 257 311 373
#     4  10  22  39  59  86 118 153 197 246 298 358
#     4  11  23  41  63  91 125 162 206 257 311 373
#     4  10  21  37  57  84 117 152 195 245 295 355
#     4  10  22  39  59  86 118 153 197 246 298 358
#     4  10  21  37  57  84 117 152 195 245 295 355
#     4  11  23  41  62  89 122 157 201 254 305 366
#     4  11  23  41  62  89 122 157 201 254 305 366
#
# _framework density 21.198872999999999
#
# number of rings (size 3 to 8) (size 9 to 14) (size 15 to 20)
#    0.000    1.500    0.000    6.000    0.000    5.000 
#    0.000    2.500    0.000    0.000    0.000    0.000 
#    0.000    0.000    0.000    0.000    0.000    0.000 
#
# Total GULP energy -89262.194438 kJ/mol
# GULP energy per Si atom -5578.887152 kJ/mol
# Density = 2.115062 g / cm^3
# Si number density = 21.198873 Si / 1000 Ang^3
#
#
#
# Elastic Constant Matrix: (Units=GPa)
#
#
# Indices 1 2 3 4 5 6 
#
# 1 40.7443 48.3357 19.8287 0.0000 -26.4480 0.0000
# 2 48.3357 114.0640 11.3633 0.0000 -17.3484 0.0000
# 3 19.8287 11.3633 105.1478 0.0000 -21.2379 0.0000
# 4 0.0000 0.0000 0.0000 26.8511 0.0000 -2.2241
# 5 -26.4480 -17.3484 -21.2379 0.0000 33.9617 0.0000
# 6 0.0000 0.0000 0.0000 -2.2241 0.0000 29.7474
#
#
#
# Elastic Compliance Matrix: (Units=1/GPa)
#
#
# Indices 1 2 3 4 5 6 
#
# 1 0.117463 -0.038865 -0.003988 0.000000 0.069128 0.000000
# 2 -0.038865 0.022365 0.001266 0.000000 -0.018050 0.000000
# 3 -0.003988 0.001266 0.011021 0.000000 0.004433 0.000000
# 4 0.000000 0.000000 0.000000 0.037475 0.000000 0.002802
# 5 0.069128 -0.018050 0.004433 0.000000 0.076831 0.000000
# 6 0.000000 0.000000 0.000000 0.002802 0.000000 0.033826
#
#
# Mechanical properties :
#
#
# Convention : Reuss Voigt Hill
#
# Bulk Modulus (GPa) = 14.77638 46.55682 30.66660
# Shear Modulus (GPa) = 12.35444 30.14059 21.24752
#
# Velocity S-wave (km/s) = 2.41672 3.77477 3.16934
# Velocity P-wave (km/s) = 3.84355 6.40376 5.28114
#
# Compressibility (1/GPa) = 0.06767559
#
# Stress axis : x y z
#
# Youngs Moduli (GPa) = 8.51331 44.71290 90.73540
#
# Poissons Ratio (x) = 1.73776 0.36188
# Poissons Ratio (y) = 0.33087 -0.11491
# Poissons Ratio (z) = 0.03395 -0.05662
#
# Static dielectric constant tensor:
#      x y z
#    x 1.773790 0.000000 0.003660 
#    y 0.000000 1.760320 0.000000 
#    z 0.003660 0.000000 1.751610 
# 
# From -- ./inp_files/6194.got.cif
#   From: 2010.05.17/outbox.cif.g08.bks.cpg/sg3_4_cif.got.tgz:6194.got - 2010.06.03 18:33:08.
