data_PCOD9113262
_publ_section_title
;
Structure prediction by ZEFSAII (Michael W. Deem and Ramdas Pophale) SiO2 
 PCOD9113262
Probable space group: P 2
;
_chemical_formula_sum "Si O2"
_cell_formula_units_Z 16
_cell_length_a 8.231507
_cell_length_b 12.773121
_cell_length_c 9.032240
_cell_angle_alpha 90.000000
_cell_angle_beta 59.991101
_cell_angle_gamma 90.000000
_cell_volume 822.362935
_symmetry_space_group_name_H-M "P 2"
_symmetry_group_IT_number 3
_symmetry_cell_setting 'monoclinic'
loop_
_space_group_symop_operation_xyz
x,y,z
-x,y,-z
loop_
_atom_site_type_symbol
_atom_site_label
_atom_site_fract_x
_atom_site_fract_y
_atom_site_fract_z
Si Si1 0.035020 0.025860 0.811912
Si Si2 0.698861 0.875232 0.486257
Si Si3 0.803252 0.636851 0.499861
Si Si4 0.949505 0.486380 0.196793
Si Si5 0.343516 0.488538 0.195754
Si Si6 0.790628 0.049121 0.663837
Si Si7 0.339983 0.255934 0.195532
Si Si8 0.052610 0.255714 0.803044
O O1 0.135585 0.139664 0.739470
O O2 0.836949 0.032246 0.815353
O O3 0.150980 0.931477 0.689265
O O4 0.000000 0.012610 0.000000
O O5 0.500000 0.879991 0.500000
O O6 0.749086 0.756252 0.498542
O O7 0.702950 0.947734 0.629973
O O8 0.663963 0.573066 0.671003
O O9 0.000000 0.635386 0.500000
O O10 0.828848 0.575051 0.333413
O O11 0.146083 0.487214 0.197364
O O12 0.858453 0.370348 0.260454
O O13 0.000000 0.501704 0.000000
O O14 0.370425 0.371063 0.247800
O O15 0.500000 0.507463 0.000000
O O16 0.671827 0.154383 0.696325
O O17 0.000000 0.063057 0.500000
O O18 0.136983 0.258057 0.208113
O O19 0.500000 0.241195 0.000000
O O20 0.000000 0.255290 0.000000
#
# Coordination Sequence:
#
# PCOD9113262 Si02
#       8
#     2   2   2   2   2   2   2   2
#     4   9  18  35  59  81 107 142 176 213 261 323
#     4  11  24  39  53  75 107 139 182 233 272 310
#     4  10  21  38  57  75 103 145 186 222 266 320
#     4   9  18  33  57  84 109 139 176 215 260 321
#     4   9  19  35  55  81 111 140 173 217 268 319
#     4   9  19  35  55  78 110 144 175 213 263 321
#     4   9  17  30  53  83 110 135 169 214 263 316
#     4   8  15  29  51  81 112 138 167 207 259 320
#
# _framework density 19.456129000000001
#
# number of rings (size 3 to 8) (size 9 to 14) (size 15 to 20)
#    0.000    2.750    0.000    1.125    0.000    9.000 
#    0.000    3.125    0.000    1.500    0.000    0.000 
#    0.000    0.000    0.000    0.000    0.000    0.000 
#
# Total GULP energy -89143.834709 kJ/mol
# GULP energy per Si atom -5571.489669 kJ/mol
# Density = 1.941185 g / cm^3
# Si number density = 19.456129 Si / 1000 Ang^3
#
#
#
# Elastic Constant Matrix: (Units=GPa)
#
#
# Indices 1 2 3 4 5 6 
#
# 1 23.1297 33.3284 20.4286 0.0000 9.7352 0.0000
# 2 33.3284 227.3159 86.0180 0.0000 5.6021 0.0000
# 3 20.4286 86.0180 81.3069 0.0000 19.3981 0.0000
# 4 0.0000 0.0000 0.0000 -0.3422 0.0000 30.1138
# 5 9.7352 5.6021 19.3981 0.0000 27.9026 0.0000
# 6 0.0000 0.0000 0.0000 30.1138 0.0000 -0.4412
#
#
#
# Elastic Compliance Matrix: (Units=1/GPa)
#
#
# Indices 1 2 3 4 5 6 
#
# 1 0.065592 -0.007676 -0.003917 0.000000 -0.018621 0.000000
# 2 -0.007676 0.008788 -0.009095 0.000000 0.007237 0.000000
# 3 -0.003917 -0.009095 0.026546 0.000000 -0.015263 0.000000
# 4 0.000000 0.000000 0.000000 0.000487 0.000000 0.033213
# 5 -0.018621 0.007237 -0.015263 0.000000 0.051493 0.000000
# 6 0.000000 0.000000 0.000000 0.033213 0.000000 0.000377
#
#
# Mechanical properties :
#
#
# Convention : Reuss Voigt Hill
#
# Bulk Modulus (GPa) = 16.79248 67.92251 42.35749
# Shear Modulus (GPa) = 23.30900 18.22234 20.76567
#
# Velocity S-wave (km/s) = 3.46501 3.06369 3.27051
# Velocity P-wave (km/s) = 4.96569 6.89212 6.00664
#
# Compressibility (1/GPa) = 0.05955046
#
# Stress axis : x y z
#
# Youngs Moduli (GPa) = 15.24579 113.79420 37.66977
#
# Poissons Ratio (x) = 0.87345 0.14756
# Poissons Ratio (y) = 0.11702 0.34260
# Poissons Ratio (z) = 0.05972 1.03495
#
# Static dielectric constant tensor:
#      x y z
#    x 1.699180 0.000000 0.002990 
#    y 0.000000 1.715980 0.000000 
#    z 0.002990 0.000000 1.693920 
# 
# From -- ./inp_files/6017.got.cif
#   From: 2010.05.17/outbox.cif.g08.bks.cpg/sg3_4_cif.got.tgz:6017.got - 2010.06.03 18:33:08.
