data_PCOD9113836
_publ_section_title
;
Structure prediction by ZEFSAII (Michael W. Deem and Ramdas Pophale) SiO2 
 PCOD9113836
Probable space group: P 2
;
_chemical_formula_sum "Si O2"
_cell_formula_units_Z 14
_cell_length_a 9.124984
_cell_length_b 5.204973
_cell_length_c 18.110139
_cell_angle_alpha 90.000000
_cell_angle_beta 40.437458
_cell_angle_gamma 90.000000
_cell_volume 557.906120
_symmetry_space_group_name_H-M "P 2"
_symmetry_group_IT_number 3
_symmetry_cell_setting 'monoclinic'
loop_
_space_group_symop_operation_xyz
x,y,z
-x,y,-z
loop_
_atom_site_type_symbol
_atom_site_label
_atom_site_fract_x
_atom_site_fract_y
_atom_site_fract_z
Si Si1 0.409149 0.261690 0.115024
Si Si2 0.418531 0.784431 0.369584
Si Si3 0.926132 0.930147 0.178865
Si Si4 0.825584 0.007622 0.666774
Si Si5 0.500000 0.644393 0.500000
Si Si6 0.000000 0.406438 0.500000
Si Si7 0.890447 0.445943 0.962470
Si Si8 0.014527 0.628750 0.700023
O O1 0.193674 0.452686 0.194169
O O2 0.335280 0.052863 0.202514
O O3 0.500000 0.175525 0.000000
O O4 0.626087 0.392725 0.067190
O O5 0.683420 0.811514 0.248157
O O6 0.310082 0.990830 0.357143
O O7 0.435916 0.803797 0.451401
O O8 0.242951 0.555325 0.415685
O O9 0.092247 0.732456 0.075363
O O10 0.958334 0.868303 0.253109
O O11 0.982838 0.221445 0.134129
O O12 0.957871 0.756254 0.642637
O O13 0.986263 0.239092 0.581451
O O14 0.735859 0.500107 0.392373
O O15 0.000000 0.431678 0.000000
#
# Coordination Sequence:
#
# PCOD9113836 Si02
#       8
#     2   2   2   2   1   1   2   2
#     4  12  26  46  77 116 157 213 268 334 405 490
#     4  11  25  47  75 110 156 206 267 336 405 488
#     4  11  27  49  75 110 159 210 268 329 408 480
#     4  12  26  45  80 113 156 210 272 341 410 489
#     4  10  22  48  72 106 154 204 266 330 412 486
#     4  12  26  48  76 118 156 206 280 340 414 490
#     4  12  27  48  75 113 155 211 265 339 399 486
#     4  11  25  47  74 111 157 210 266 335 405 482
#
# _framework density 25.093824999999999
#
# number of rings (size 3 to 8) (size 9 to 14) (size 15 to 20)
#    0.000    0.571    1.429    6.000    8.000    0.571 
#    0.000    1.429    0.000    0.000    0.000    0.000 
#    0.000    0.000    0.000    0.000    0.000    0.000 
#
# Total GULP energy -78163.197117 kJ/mol
# GULP energy per Si atom -5583.085508 kJ/mol
# Density = 2.503671 g / cm^3
# Si number density = 25.093825 Si / 1000 Ang^3
#
#
#
# Elastic Constant Matrix: (Units=GPa)
#
#
# Indices 1 2 3 4 5 6 
#
# 1 179.0275 27.0582 45.2657 0.0000 -0.0025 0.0000
# 2 27.0582 65.0031 28.9469 0.0000 13.0357 0.0000
# 3 45.2657 28.9469 129.1469 0.0000 -21.7533 0.0000
# 4 0.0000 0.0000 0.0000 33.6947 0.0000 6.1624
# 5 -0.0025 13.0357 -21.7533 0.0000 48.4193 0.0000
# 6 0.0000 0.0000 0.0000 6.1624 0.0000 30.2422
#
#
#
# Elastic Compliance Matrix: (Units=1/GPa)
#
#
# Indices 1 2 3 4 5 6 
#
# 1 0.006324 -0.001707 -0.001900 0.000000 -0.000394 0.000000
# 2 -0.001707 0.019936 -0.005165 0.000000 -0.007688 0.000000
# 3 -0.001900 -0.005165 0.010603 0.000000 0.006154 0.000000
# 4 0.000000 0.000000 0.000000 0.030827 0.000000 -0.006282
# 5 -0.000394 -0.007688 0.006154 0.000000 0.025488 0.000000
# 6 0.000000 0.000000 0.000000 -0.006282 0.000000 0.034346
#
#
# Mechanical properties :
#
#
# Convention : Reuss Voigt Hill
#
# Bulk Modulus (GPa) = 51.76312 63.96877 57.86595
# Shear Modulus (GPa) = 33.00107 40.59836 36.79972
#
# Velocity S-wave (km/s) = 3.63038 4.02663 3.83363
# Velocity P-wave (km/s) = 6.18429 6.86772 6.53494
#
# Compressibility (1/GPa) = 0.01931877
#
# Stress axis : x y z
#
# Youngs Moduli (GPa) = 158.12163 50.15941 94.30865
#
# Poissons Ratio (x) = 0.08564 0.17921
# Poissons Ratio (y) = 0.26997 0.48711
# Poissons Ratio (z) = 0.30047 0.25908
#
# Static dielectric constant tensor:
#      x y z
#    x 1.974050 0.000000 -0.006410 
#    y 0.000000 2.192900 0.000000 
#    z -0.006410 0.000000 2.109080 
# 
# From -- ./inp_files/14824.got.cif
#   From: 2010.05.17/outbox.cif.g08.bks.cpg/sg3_8_cif.got.tgz:14824.got - 2010.06.03 18:33:08.
