data_PCOD9113345
_publ_section_title
;
Structure prediction by ZEFSAII (Michael W. Deem and Ramdas Pophale) SiO2 
 PCOD9113345
Probable space group: P 2
;
_chemical_formula_sum "Si O2"
_cell_formula_units_Z 10
_cell_length_a 15.720622
_cell_length_b 5.091112
_cell_length_c 10.284250
_cell_angle_alpha 90.000000
_cell_angle_beta 147.270458
_cell_angle_gamma 90.000000
_cell_volume 445.031341
_symmetry_space_group_name_H-M "P 2"
_symmetry_group_IT_number 3
_symmetry_cell_setting 'monoclinic'
loop_
_space_group_symop_operation_xyz
x,y,z
-x,y,-z
loop_
_atom_site_type_symbol
_atom_site_label
_atom_site_fract_x
_atom_site_fract_y
_atom_site_fract_z
Si Si1 0.223357 0.071050 0.310917
Si Si2 0.884487 0.260628 0.101967
Si Si3 0.527188 0.367407 0.678250
Si Si4 0.045135 0.754208 0.412207
Si Si5 0.726769 0.570044 0.478665
O O1 0.408200 0.119712 0.518260
O O2 0.203032 0.282686 0.400824
O O3 0.197909 0.778748 0.324636
O O4 0.131550 0.156935 0.065665
O O5 0.947964 0.554992 0.195974
O O6 0.985901 0.048583 0.311573
O O7 0.705195 0.281521 0.923773
O O8 0.500000 0.497371 0.500000
O O9 0.452713 0.534742 0.701693
O O10 0.000000 0.681449 0.500000
O O11 0.223690 0.686961 0.596605
#
# Coordination Sequence:
#
# PCOD9113345 Si02
#       5
#     2   2   2   2   2
#     4   9  20  36  65  98 125 147 198 261 334 372
#     4  11  23  40  68  93 125 164 212 258 322 378
#     4   8  20  38  64  98 127 150 195 262 332 382
#     4  12  27  43  60  87 132 177 219 255 297 366
#     4  10  21  39  64  90 137 155 198 259 326 373
#
# _framework density 22.470329
#
# number of rings (size 3 to 8) (size 9 to 14) (size 15 to 20)
#    1.200    0.800    0.000    3.000    2.800    5.600 
#    0.000    1.000    0.000    0.000    0.000    0.000 
#    0.000    0.000    0.000    0.000    0.000    0.000 
#
# Total GULP energy -55731.354231 kJ/mol
# GULP energy per Si atom -5573.135423 kJ/mol
# Density = 2.241919 g / cm^3
# Si number density = 22.470329 Si / 1000 Ang^3
#
#
#
# Elastic Constant Matrix: (Units=GPa)
#
#
# Indices 1 2 3 4 5 6 
#
# 1 187.3229 19.5754 21.4915 0.0000 6.0670 0.0000
# 2 19.5754 87.0129 7.1812 0.0000 8.3227 0.0000
# 3 21.4915 7.1812 7.6524 0.0000 8.1470 0.0000
# 4 0.0000 0.0000 0.0000 13.6845 0.0000 -1.8956
# 5 6.0670 8.3227 8.1470 0.0000 29.9999 0.0000
# 6 0.0000 0.0000 0.0000 -1.8956 0.0000 32.0732
#
#
#
# Elastic Compliance Matrix: (Units=1/GPa)
#
#
# Indices 1 2 3 4 5 6 
#
# 1 0.008794 0.000006 -0.032086 0.000000 0.006933 0.000000
# 2 0.000006 0.012461 -0.011296 0.000000 -0.000391 0.000000
# 3 -0.032086 -0.011296 0.311089 0.000000 -0.074859 0.000000
# 4 0.000000 0.000000 0.000000 0.073678 0.000000 0.004355
# 5 0.006933 -0.000391 -0.074859 0.000000 0.052369 0.000000
# 6 0.000000 0.000000 0.000000 0.004355 0.000000 0.031436
#
#
# Mechanical properties :
#
#
# Convention : Reuss Voigt Hill
#
# Bulk Modulus (GPa) = 4.07177 42.05383 23.06280
# Shear Modulus (GPa) = 7.59367 30.73421 19.16394
#
# Velocity S-wave (km/s) = 1.84031 3.70235 2.92354
# Velocity P-wave (km/s) = 2.51628 6.08543 4.65640
#
# Compressibility (1/GPa) = 0.24559365
#
# Stress axis : x y z
#
# Youngs Moduli (GPa) = 113.70863 80.25235 3.21451
#
# Poissons Ratio (x) = -0.00052 0.10314
# Poissons Ratio (y) = -0.00073 0.03631
# Poissons Ratio (z) = 3.64849 0.90649
#
# Static dielectric constant tensor:
#      x y z
#    x 2.006760 0.000000 0.058850 
#    y 0.000000 1.773820 0.000000 
#    z 0.058850 0.000000 1.804250 
# 
# From -- ./inp_files/4891.got.cif
#   From: 2010.05.17/outbox.cif.g08.bks.cpg/sg3_3_cif.got.tgz:4891.got - 2010.06.03 18:33:08.
