data_PCOD9113913
_publ_section_title
;
Structure prediction by ZEFSAII (Michael W. Deem and Ramdas Pophale) SiO2 
 PCOD9113913
Probable space group: P 2
;
_chemical_formula_sum "Si O2"
_cell_formula_units_Z 14
_cell_length_a 4.991629
_cell_length_b 4.935408
_cell_length_c 18.422889
_cell_angle_alpha 90.000000
_cell_angle_beta 95.014027
_cell_angle_gamma 90.000000
_cell_volume 452.124463
_symmetry_space_group_name_H-M "P 2"
_symmetry_group_IT_number 3
_symmetry_cell_setting 'monoclinic'
loop_
_space_group_symop_operation_xyz
x,y,z
-x,y,-z
loop_
_atom_site_type_symbol
_atom_site_label
_atom_site_fract_x
_atom_site_fract_y
_atom_site_fract_z
Si Si1 0.117999 0.190960 0.581306
Si Si2 0.245109 0.403348 0.889122
Si Si3 0.589193 0.703237 0.422086
Si Si4 0.000000 0.641515 0.000000
Si Si5 0.998889 0.396369 0.262300
Si Si6 0.500000 0.130041 0.000000
Si Si7 0.319620 0.861547 0.114706
Si Si8 0.519751 0.746640 0.734381
O O1 0.386215 0.381872 0.585217
O O2 0.020584 0.261036 0.659772
O O3 0.000000 0.276126 0.500000
O O4 0.132973 0.867033 0.578439
O O5 0.106168 0.273406 0.816344
O O6 0.234474 0.381404 0.980812
O O7 0.458976 0.629057 0.878781
O O8 0.968647 0.651260 0.903727
O O9 0.500000 0.776005 0.500000
O O10 0.442245 0.827615 0.348631
O O11 0.252941 0.885248 0.017711
O O12 0.791535 0.657501 0.263595
O O13 0.302801 0.477935 0.257390
O O14 0.481747 0.136740 0.908554
O O15 0.335220 0.926710 0.201563
#
# Coordination Sequence:
#
# PCOD9113913 Si02
#       8
#     2   2   2   1   2   1   2   2
#     4  11  24  45  76 111 152 196 246 302 370 444
#     4  11  23  41  62  92 138 179 234 293 358 421
#     4  11  24  45  76 111 152 196 246 302 370 444
#     4  12  18  42  64  86 130 188 226 298 350 428
#     4  10  23  44  71 101 142 191 239 298 365 435
#     4  12  22  38  64  94 134 180 242 294 360 424
#     4  11  23  41  62  92 138 179 234 293 358 421
#     4  10  23  44  71 101 142 191 239 298 365 435
#
# _framework density 30.964924
#
# number of rings (size 3 to 8) (size 9 to 14) (size 15 to 20)
#    0.000    1.143    4.286    1.714    2.000    2.857 
#    0.000    0.000    6.286    0.000    0.000    0.000 
#    0.000    0.000    0.000    0.000    0.000    0.000 
#
# Total GULP energy -78133.212389 kJ/mol
# GULP energy per Si atom -5580.943742 kJ/mol
# Density = 3.089445 g / cm^3
# Si number density = 30.964924 Si / 1000 Ang^3
#
#
#
# Elastic Constant Matrix: (Units=GPa)
#
#
# Indices 1 2 3 4 5 6 
#
# 1 167.8078 43.5866 48.2006 0.0000 17.0206 0.0000
# 2 43.5866 192.5565 57.1863 0.0000 14.1130 0.0000
# 3 48.2006 57.1863 317.7854 0.0000 54.6240 0.0000
# 4 0.0000 0.0000 0.0000 8.3641 0.0000 24.1804
# 5 17.0206 14.1130 54.6240 0.0000 50.3801 0.0000
# 6 0.0000 0.0000 0.0000 24.1804 0.0000 57.6412
#
#
#
# Elastic Compliance Matrix: (Units=1/GPa)
#
#
# Indices 1 2 3 4 5 6 
#
# 1 0.006567 -0.001228 -0.000557 0.000000 -0.001271 0.000000
# 2 -0.001228 0.005730 -0.000787 0.000000 -0.000337 0.000000
# 3 -0.000557 -0.000787 0.004059 0.000000 -0.003993 0.000000
# 4 0.000000 0.000000 0.000000 -0.561919 0.000000 0.235725
# 5 -0.001271 -0.000337 -0.003993 0.000000 0.024702 0.000000
# 6 0.000000 0.000000 0.000000 0.235725 0.000000 -0.081538
#
#
# Mechanical properties :
#
#
# Convention : Reuss Voigt Hill
#
# Bulk Modulus (GPa) = 89.18423 108.45522 98.81972
# Shear Modulus (GPa) = -8.42433 58.55547 25.06557
#
# Velocity S-wave (km/s) = -1.65121 4.35331 2.84823
# Velocity P-wave (km/s) = 5.02284 7.76979 6.54211
#
# Compressibility (1/GPa) = 0.01121275
#
# Stress axis : x y z
#
# Youngs Moduli (GPa) = 152.27736 174.53100 246.36160
#
# Poissons Ratio (x) = 0.21433 0.13712
# Poissons Ratio (y) = 0.18700 0.19386
# Poissons Ratio (z) = 0.08475 0.13733
#
# Static dielectric constant tensor:
#      x y z
#    x 2.767840 0.000000 -0.095150 
#    y 0.000000 2.623930 0.000000 
#    z -0.095150 0.000000 2.519380 
# 
# From -- ./inp_files/3459.got.cif
#   From: 2010.05.17/outbox.cif.g08.bks.cpg/sg3_2_cif.got.tgz:3459.got - 2010.06.03 18:33:08.
