data_PCOD9113212
_publ_section_title
;
Structure prediction by ZEFSAII (Michael W. Deem and Ramdas Pophale) SiO2 
 PCOD9113212
Probable space group: P 2
;
_chemical_formula_sum "Si O2"
_cell_formula_units_Z 15
_cell_length_a 14.027289
_cell_length_b 5.757414
_cell_length_c 20.680236
_cell_angle_alpha 90.000000
_cell_angle_beta 159.854767
_cell_angle_gamma 90.000000
_cell_volume 575.202891
_symmetry_space_group_name_H-M "P 2"
_symmetry_group_IT_number 3
_symmetry_cell_setting 'monoclinic'
loop_
_space_group_symop_operation_xyz
x,y,z
-x,y,-z
loop_
_atom_site_type_symbol
_atom_site_label
_atom_site_fract_x
_atom_site_fract_y
_atom_site_fract_z
Si Si1 0.000000 0.282260 0.000000
Si Si2 0.887209 0.376477 0.322366
Si Si3 0.232809 0.396918 0.410668
Si Si4 0.087113 0.874437 0.448624
Si Si5 0.334321 0.316545 0.025234
Si Si6 0.969398 0.954931 0.102499
Si Si7 0.619299 0.603021 0.820935
Si Si8 0.285064 0.895562 0.434158
O O1 0.714641 0.423359 0.827867
O O2 0.024801 0.136196 0.081224
O O3 0.063139 0.395550 0.369176
O O4 0.558921 0.338220 0.112409
O O5 0.932633 0.642704 0.376663
O O6 0.002669 0.126715 0.422904
O O7 0.401006 0.635372 0.513057
O O8 0.975814 0.389846 0.194724
O O9 0.399517 0.156673 0.513564
O O10 0.405952 0.800069 0.663774
O O11 0.066254 0.893255 0.356091
O O12 0.459326 0.462621 0.164657
O O13 0.295860 0.056491 0.027430
O O14 0.901714 0.724504 0.021421
O O15 0.174078 0.905899 0.290737
#
# Coordination Sequence:
#
# PCOD9113212 Si02
#       8
#     1   2   2   2   2   2   2   2
#     4  10  24  42  70  98 118 164 224 288 342 386
#     4  10  22  38  58  93 134 181 213 257 307 384
#     4   9  17  34  58  89 127 166 223 260 300 359
#     4  10  24  40  62  92 136 175 208 254 328 384
#     4  10  21  35  59  95 128 175 220 263 306 378
#     4  10  21  40  67  92 125 163 222 275 325 379
#     4  11  23  42  64  94 126 170 213 276 329 393
#     4   9  18  37  62  91 122 169 207 261 317 379
#
# _framework density 26.077753000000001
#
# number of rings (size 3 to 8) (size 9 to 14) (size 15 to 20)
#    0.000    2.133    1.333    0.800    5.600    0.533 
#    0.000    4.000    0.000    4.800    0.000    0.000 
#    0.000    0.000    0.000    0.000    0.000    0.000 
#
# Total GULP energy -83640.673078 kJ/mol
# GULP energy per Si atom -5576.044872 kJ/mol
# Density = 2.601840 g / cm^3
# Si number density = 26.077753 Si / 1000 Ang^3
#
#
#
# Elastic Constant Matrix: (Units=GPa)
#
#
# Indices 1 2 3 4 5 6 
#
# 1 108.1256 30.8445 35.3432 0.0000 1.0780 0.0000
# 2 30.8445 227.2929 35.7236 0.0000 -3.5903 0.0000
# 3 35.3432 35.7236 89.5875 0.0000 0.5380 0.0000
# 4 0.0000 0.0000 0.0000 7.6385 0.0000 -2.9184
# 5 1.0780 -3.5903 0.5380 0.0000 32.3326 0.0000
# 6 0.0000 0.0000 0.0000 -2.9184 0.0000 20.2862
#
#
#
# Elastic Compliance Matrix: (Units=1/GPa)
#
#
# Indices 1 2 3 4 5 6 
#
# 1 0.010773 -0.000854 -0.003907 0.000000 -0.000389 0.000000
# 2 -0.000854 0.004771 -0.001569 0.000000 0.000584 0.000000
# 3 -0.003907 -0.001569 0.013331 0.000000 -0.000266 0.000000
# 4 0.000000 0.000000 0.000000 0.138530 0.000000 0.019929
# 5 -0.000389 0.000584 -0.000266 0.000000 0.031011 0.000000
# 6 0.000000 0.000000 0.000000 0.019929 0.000000 0.052162
#
#
# Mechanical properties :
#
#
# Convention : Reuss Voigt Hill
#
# Bulk Modulus (GPa) = 61.67259 69.86983 65.77121
# Shear Modulus (GPa) = 18.61197 33.59109 26.10153
#
# Velocity S-wave (km/s) = 2.67443 3.59292 3.16715
# Velocity P-wave (km/s) = 5.76521 6.63801 6.21695
#
# Compressibility (1/GPa) = 0.01621466
#
# Stress axis : x y z
#
# Youngs Moduli (GPa) = 92.82316 209.58368 75.01278
#
# Poissons Ratio (x) = 0.17898 0.29309
# Poissons Ratio (y) = 0.07927 0.11771
# Poissons Ratio (z) = 0.36268 0.32888
#
# Static dielectric constant tensor:
#      x y z
#    x 2.026710 0.000000 -0.023910 
#    y 0.000000 2.082580 0.000000 
#    z -0.023910 0.000000 2.073820 
# 
# From -- ./inp_files/14416.got.cif
#   From: 2010.05.17/outbox.cif.g08.bks.cpg/sg3_8_cif.got.tgz:14416.got - 2010.06.03 18:33:08.
