data_PCOD9113929
_publ_section_title
;
Structure prediction by ZEFSAII (Michael W. Deem and Ramdas Pophale) SiO2 
 PCOD9113929
Probable space group: P 2
;
_chemical_formula_sum "Si O2"
_cell_formula_units_Z 15
_cell_length_a 8.591587
_cell_length_b 6.494738
_cell_length_c 20.189977
_cell_angle_alpha 90.000000
_cell_angle_beta 35.623626
_cell_angle_gamma 90.000000
_cell_volume 656.199083
_symmetry_space_group_name_H-M "P 2"
_symmetry_group_IT_number 3
_symmetry_cell_setting 'monoclinic'
loop_
_space_group_symop_operation_xyz
x,y,z
-x,y,-z
loop_
_atom_site_type_symbol
_atom_site_label
_atom_site_fract_x
_atom_site_fract_y
_atom_site_fract_z
Si Si1 0.585901 0.298230 0.075474
Si Si2 0.913704 0.180834 0.842886
Si Si3 0.404332 0.381215 0.687137
Si Si4 0.554146 0.060874 0.746795
Si Si5 0.918042 0.297259 0.431708
Si Si6 0.500000 0.017492 0.500000
Si Si7 0.851531 0.777598 0.273633
Si Si8 0.724773 0.650728 0.758426
O O1 0.332326 0.217654 0.120757
O O2 0.584021 0.152974 0.139590
O O3 0.517831 0.525749 0.124108
O O4 0.831656 0.283849 0.940562
O O5 0.171209 0.287955 0.721245
O O6 0.989189 0.944599 0.824419
O O7 0.407171 0.198666 0.741092
O O8 0.704054 0.387360 0.557017
O O9 0.286924 0.612717 0.727713
O O10 0.856817 0.134079 0.626861
O O11 0.605972 0.822891 0.749916
O O12 0.730293 0.164110 0.448526
O O13 0.094042 0.483925 0.342649
O O14 0.616543 0.875779 0.400407
O O15 0.077273 0.719705 0.250556
#
# Coordination Sequence:
#
# PCOD9113929 Si02
#       8
#     2   2   2   2   2   1   2   2
#     4  10  23  45  68 101 140 193 247 318 364 445
#     4  11  23  43  70 103 145 184 252 319 359 438
#     4  12  26  42  66 109 149 191 247 310 370 451
#     4  11  25  45  67 101 147 198 242 302 381 450
#     4  11  23  41  66 103 150 189 245 312 358 450
#     4  12  20  40  72 106 152 192 252 316 364 446
#     4  12  22  40  71 111 139 195 247 305 379 440
#     4  11  21  43  74 102 140 200 247 296 388 444
#
# _framework density 22.858917999999999
#
# number of rings (size 3 to 8) (size 9 to 14) (size 15 to 20)
#    0.000    0.800    5.333    2.800    0.000    3.733 
#    0.000    2.667    0.000    4.800    0.000    0.000 
#    0.000    0.000    0.000    0.000    0.000    0.000 
#
# Total GULP energy -83556.975231 kJ/mol
# GULP energy per Si atom -5570.465015 kJ/mol
# Density = 2.280689 g / cm^3
# Si number density = 22.858918 Si / 1000 Ang^3
#
#
#
# Elastic Constant Matrix: (Units=GPa)
#
#
# Indices 1 2 3 4 5 6 
#
# 1 76.5386 50.2699 16.7890 0.0000 -3.8470 0.0000
# 2 50.2699 163.8491 46.0817 0.0000 2.5845 0.0000
# 3 16.7890 46.0817 80.8500 0.0000 0.8902 0.0000
# 4 0.0000 0.0000 0.0000 17.5960 0.0000 -16.5498
# 5 -3.8470 2.5845 0.8902 0.0000 25.8142 0.0000
# 6 0.0000 0.0000 0.0000 -16.5498 0.0000 33.3169
#
#
#
# Elastic Compliance Matrix: (Units=1/GPa)
#
#
# Indices 1 2 3 4 5 6 
#
# 1 0.016618 -0.004961 -0.000656 0.000000 0.002996 0.000000
# 2 -0.004961 0.008758 -0.003945 0.000000 -0.001480 0.000000
# 3 -0.000656 -0.003945 0.014756 0.000000 -0.000212 0.000000
# 4 0.000000 0.000000 0.000000 0.106665 0.000000 0.052985
# 5 0.002996 -0.001480 -0.000212 0.000000 0.039340 0.000000
# 6 0.000000 0.000000 0.000000 0.052985 0.000000 0.056334
#
#
# Mechanical properties :
#
#
# Convention : Reuss Voigt Hill
#
# Bulk Modulus (GPa) = 47.60339 60.83545 54.21942
# Shear Modulus (GPa) = 18.61503 29.21857 23.91680
#
# Velocity S-wave (km/s) = 2.85677 3.57909 3.23813
# Velocity P-wave (km/s) = 5.63485 6.61446 6.14421
#
# Compressibility (1/GPa) = 0.02100691
#
# Stress axis : x y z
#
# Youngs Moduli (GPa) = 60.17434 114.17720 67.76960
#
# Poissons Ratio (x) = 0.56647 0.04446
# Poissons Ratio (y) = 0.29855 0.26738
# Poissons Ratio (z) = 0.03948 0.45047
#
# Static dielectric constant tensor:
#      x y z
#    x 1.974980 0.000000 0.028570 
#    y 0.000000 1.965980 0.000000 
#    z 0.028570 0.000000 1.831770 
# 
# From -- ./inp_files/15718.got.cif
#   From: 2010.05.17/outbox.cif.g08.bks.cpg/sg3_8_cif.got.tgz:15718.got - 2010.06.03 18:33:08.
