data_PCOD9113892
_publ_section_title
;
Structure prediction by ZEFSAII (Michael W. Deem and Ramdas Pophale) SiO2 
 PCOD9113892
Probable space group: P 2
;
_chemical_formula_sum "Si O2"
_cell_formula_units_Z 14
_cell_length_a 12.364305
_cell_length_b 5.080508
_cell_length_c 10.437030
_cell_angle_alpha 90.000000
_cell_angle_beta 69.021864
_cell_angle_gamma 90.000000
_cell_volume 612.165850
_symmetry_space_group_name_H-M "P 2"
_symmetry_group_IT_number 3
_symmetry_cell_setting 'monoclinic'
loop_
_space_group_symop_operation_xyz
x,y,z
-x,y,-z
loop_
_atom_site_type_symbol
_atom_site_label
_atom_site_fract_x
_atom_site_fract_y
_atom_site_fract_z
Si Si1 0.932404 0.333000 0.406704
Si Si2 0.802607 0.723390 0.269535
Si Si3 0.360665 0.253803 0.054001
Si Si4 0.246858 0.762281 0.988400
Si Si5 0.700406 0.178690 0.631634
Si Si6 0.391871 0.706171 0.461981
Si Si7 0.017247 0.082670 0.132438
O O1 0.863831 0.522799 0.339736
O O2 0.831404 0.150561 0.515851
O O3 0.000000 0.452386 0.500000
O O4 0.027634 0.223692 0.265156
O O5 0.692986 0.817381 0.392773
O O6 0.893707 0.947781 0.202475
O O7 0.761450 0.632155 0.148464
O O8 0.304093 0.535894 0.048080
O O9 0.305544 0.173411 0.213288
O O10 0.322364 0.028562 0.969072
O O11 0.500000 0.272190 0.000000
O O12 0.117925 0.865308 0.077971
O O13 0.656930 0.459185 0.595993
O O14 0.607962 0.955458 0.630553
O O15 0.500000 0.620468 0.500000
O O16 0.000000 0.225259 0.000000
#
# Coordination Sequence:
#
# PCOD9113892 Si02
#       7
#     2   2   2   2   2   2   2
#     4  11  24  43  72 103 149 188 237 302 368 434
#     4  10  25  43  69 104 140 189 242 294 366 434
#     4  12  28  48  74 106 147 193 247 303 367 432
#     4  11  27  45  76 104 147 191 240 300 364 435
#     4  11  25  45  67 107 139 184 245 295 362 440
#     4  11  24  43  72  98 141 183 241 303 364 422
#     4  10  23  43  69 105 143 191 245 296 359 439
#
# _framework density 22.869619
#
# number of rings (size 3 to 8) (size 9 to 14) (size 15 to 20)
#    0.000    1.143    1.429    2.571   12.000    1.143 
#    0.000    0.000    0.000    0.000    0.000    0.000 
#    0.000    0.000    0.000    0.000    0.000    0.000 
#
# Total GULP energy -78091.599265 kJ/mol
# GULP energy per Si atom -5577.971376 kJ/mol
# Density = 2.281757 g / cm^3
# Si number density = 22.869619 Si / 1000 Ang^3
#
#
#
# Elastic Constant Matrix: (Units=GPa)
#
#
# Indices 1 2 3 4 5 6 
#
# 1 75.9004 2.2221 45.2983 0.0000 9.2545 0.0000
# 2 2.2221 69.5990 18.1613 0.0000 10.9754 0.0000
# 3 45.2983 18.1613 120.2763 0.0000 20.7240 0.0000
# 4 0.0000 0.0000 0.0000 22.0474 0.0000 -10.4904
# 5 9.2545 10.9754 20.7240 0.0000 24.9670 0.0000
# 6 0.0000 0.0000 0.0000 -10.4904 0.0000 153.4508
#
#
#
# Elastic Compliance Matrix: (Units=1/GPa)
#
#
# Indices 1 2 3 4 5 6 
#
# 1 0.017145 0.001380 -0.006378 0.000000 -0.001667 0.000000
# 2 0.001380 0.015741 -0.001886 0.000000 -0.005866 0.000000
# 3 -0.006378 -0.001886 0.012195 0.000000 -0.006929 0.000000
# 4 0.000000 0.000000 0.000000 0.046882 0.000000 0.003205
# 5 -0.001667 -0.005866 -0.006929 0.000000 0.049001 0.000000
# 6 0.000000 0.000000 0.000000 0.003205 0.000000 0.006736
#
#
# Mechanical properties :
#
#
# Convention : Reuss Voigt Hill
#
# Bulk Modulus (GPa) = 31.93597 44.12656 38.03127
# Shear Modulus (GPa) = 29.08580 53.43263 41.25921
#
# Velocity S-wave (km/s) = 3.57011 4.83888 4.25208
# Velocity P-wave (km/s) = 5.56677 7.11030 6.38535
#
# Compressibility (1/GPa) = 0.03131265
#
# Stress axis : x y z
#
# Youngs Moduli (GPa) = 58.32758 63.52805 82.00098
#
# Poissons Ratio (x) = -0.08766 0.52300
# Poissons Ratio (y) = -0.08048 0.15464
# Poissons Ratio (z) = 0.37201 0.11980
#
# Static dielectric constant tensor:
#      x y z
#    x 1.702880 0.000000 -0.329770 
#    y 0.000000 1.884670 0.000000 
#    z -0.329770 0.000000 1.335480 
# 
# From -- ./inp_files/6630.got.cif
#   From: 2010.05.17/outbox.cif.g08.bks.cpg/sg3_4_cif.got.tgz:6630.got - 2010.06.03 18:33:08.
