data_PCOD9113512
_publ_section_title
;
Structure prediction by ZEFSAII (Michael W. Deem and Ramdas Pophale) SiO2 
 PCOD9113512
Probable space group: P 2
;
_chemical_formula_sum "Si O2"
_cell_formula_units_Z 15
_cell_length_a 13.663482
_cell_length_b 6.714953
_cell_length_c 7.198189
_cell_angle_alpha 90.000000
_cell_angle_beta 112.158499
_cell_angle_gamma 90.000000
_cell_volume 611.654451
_symmetry_space_group_name_H-M "P 2"
_symmetry_group_IT_number 3
_symmetry_cell_setting 'monoclinic'
loop_
_space_group_symop_operation_xyz
x,y,z
-x,y,-z
loop_
_atom_site_type_symbol
_atom_site_label
_atom_site_fract_x
_atom_site_fract_y
_atom_site_fract_z
Si Si1 0.363314 0.715730 0.817205
Si Si2 0.777869 0.389682 0.194846
Si Si3 0.323111 0.596204 0.408533
Si Si4 0.500000 0.263983 0.500000
Si Si5 0.862060 0.386630 0.650359
Si Si6 0.576038 0.900714 0.802657
Si Si7 0.961800 0.656951 0.182413
Si Si8 0.039915 0.113604 0.743750
O O1 0.337375 0.500580 0.896943
O O2 0.292826 0.701219 0.582307
O O3 0.475716 0.767071 0.798893
O O4 0.353143 0.891699 0.960350
O O5 0.792236 0.326656 0.421894
O O6 0.853731 0.568134 0.181446
O O7 0.844600 0.211740 0.145945
O O8 0.407966 0.417944 0.491984
O O9 0.219211 0.483330 0.264024
O O10 0.366652 0.769587 0.310946
O O11 0.539680 0.111056 0.690764
O O12 0.942383 0.555780 0.638219
O O13 0.940964 0.218162 0.775657
O O14 0.956731 0.888437 0.201223
O O15 0.000000 0.610104 0.000000
O O16 0.000000 0.136353 0.500000
#
# Coordination Sequence:
#
# PCOD9113512 Si02
#       8
#     2   2   2   1   2   2   2   2
#     4  10  21  45  66  90 131 175 212 268 336 395
#     4   9  20  40  63  86 115 163 214 254 311 381
#     4  11  22  45  67  96 130 175 221 270 338 394
#     4  12  22  44  68 100 138 168 226 290 324 396
#     4   9  21  39  66  83 119 168 206 259 312 377
#     4  11  23  43  66  94 135 170 220 275 331 392
#     4  11  22  36  58  89 128 160 200 258 321 378
#     4   9  18  38  59  89 117 156 211 258 306 374
#
# _framework density 24.523651000000001
#
# number of rings (size 3 to 8) (size 9 to 14) (size 15 to 20)
#    0.000    1.867    2.667    2.000    1.867    3.200 
#   12.000    0.000    0.000    0.000    0.000    0.000 
#    0.000    0.000    0.000    0.000    0.000    0.000 
#
# Total GULP energy -83566.040642 kJ/mol
# GULP energy per Si atom -5571.069376 kJ/mol
# Density = 2.446783 g / cm^3
# Si number density = 24.523651 Si / 1000 Ang^3
#
#
#
# Elastic Constant Matrix: (Units=GPa)
#
#
# Indices 1 2 3 4 5 6 
#
# 1 95.0320 29.1825 6.1122 0.0000 -2.7692 0.0000
# 2 29.1825 124.8244 16.7035 0.0000 -1.9451 0.0000
# 3 6.1122 16.7035 101.7358 0.0000 -16.6405 0.0000
# 4 0.0000 0.0000 0.0000 13.1568 0.0000 -13.8832
# 5 -2.7692 -1.9451 -16.6405 0.0000 25.2633 0.0000
# 6 0.0000 0.0000 0.0000 -13.8832 0.0000 0.4136
#
#
#
# Elastic Compliance Matrix: (Units=1/GPa)
#
#
# Indices 1 2 3 4 5 6 
#
# 1 0.011365 -0.002630 -0.000090 0.000000 0.000984 0.000000
# 2 -0.002630 0.008801 -0.001371 0.000000 -0.000514 0.000000
# 3 -0.000090 -0.001371 0.011253 0.000000 0.007297 0.000000
# 4 0.000000 0.000000 0.000000 -0.002208 0.000000 -0.074122
# 5 0.000984 -0.000514 0.007297 0.000000 0.044458 0.000000
# 6 0.000000 0.000000 0.000000 -0.074122 0.000000 -0.070243
#
#
# Mechanical properties :
#
#
# Convention : Reuss Voigt Hill
#
# Bulk Modulus (GPa) = 43.03278 47.28763 45.16021
# Shear Modulus (GPa) = 258.34812 25.73966 142.04389
#
# Velocity S-wave (km/s) = 10.27498 3.24324 7.61885
# Velocity P-wave (km/s) = 12.58382 5.77487 9.79034
#
# Compressibility (1/GPa) = 0.02323810
#
# Stress axis : x y z
#
# Youngs Moduli (GPa) = 87.99158 113.61719 88.86154
#
# Poissons Ratio (x) = 0.29876 0.00801
# Poissons Ratio (y) = 0.23138 0.12184
# Poissons Ratio (z) = 0.00793 0.15578
#
# Static dielectric constant tensor:
#      x y z
#    x 2.000820 0.000000 0.030900 
#    y 0.000000 1.898360 0.000000 
#    z 0.030900 0.000000 2.155230 
# 
# From -- ./inp_files/8343.got.cif
#   From: 2010.05.17/outbox.cif.g08.bks.cpg/sg3_5_cif.got.tgz:8343.got - 2010.06.03 18:33:08.
