data_PCOD9113627
_publ_section_title
;
Structure prediction by ZEFSAII (Michael W. Deem and Ramdas Pophale) SiO2 
 PCOD9113627
Probable space group: P 2
;
_chemical_formula_sum "Si O2"
_cell_formula_units_Z 12
_cell_length_a 9.655800
_cell_length_b 11.050725
_cell_length_c 4.991207
_cell_angle_alpha 90.000000
_cell_angle_beta 102.845346
_cell_angle_gamma 90.000000
_cell_volume 519.251212
_symmetry_space_group_name_H-M "P 2"
_symmetry_group_IT_number 3
_symmetry_cell_setting 'monoclinic'
loop_
_space_group_symop_operation_xyz
x,y,z
-x,y,-z
loop_
_atom_site_type_symbol
_atom_site_label
_atom_site_fract_x
_atom_site_fract_y
_atom_site_fract_z
Si Si1 0.639947 0.386400 0.881492
Si Si2 0.604025 0.838532 0.798457
Si Si3 0.135118 0.233200 0.252065
Si Si4 0.866105 0.710468 0.745133
Si Si5 0.862594 0.970967 0.747934
Si Si6 0.219128 0.470641 0.554585
O O1 0.740524 0.464079 0.120593
O O2 0.500000 0.370302 0.000000
O O3 0.721773 0.260274 0.858424
O O4 0.648522 0.451556 0.595968
O O5 0.500000 0.839013 0.500000
O O6 0.716272 0.727851 0.836580
O O7 0.714002 0.951387 0.841408
O O8 0.500000 0.834648 0.000000
O O9 0.141726 0.101477 0.390542
O O10 0.134988 0.348408 0.445221
O O11 0.000000 0.237330 0.000000
O O12 0.854556 0.594528 0.555832
O O13 0.869645 0.842204 0.597259
O O14 0.000000 0.701760 0.000000
O O15 0.000000 0.971642 0.000000
#
# Coordination Sequence:
#
# PCOD9113627 Si02
#       6
#     2   2   2   2   2   2
#     4  10  23  41  62  94 126 167 207 262 315 378
#     4  10  22  41  63  93 130 164 206 261 319 382
#     4   9  20  40  65  93 124 168 211 264 311 378
#     4   9  20  42  65  95 124 169 211 264 312 379
#     4   8  18  43  66  92 130 167 215 259 318 377
#     4  10  22  40  66  89 125 161 215 255 315 369
#
# _framework density 23.110202000000001
#
# number of rings (size 3 to 8) (size 9 to 14) (size 15 to 20)
#    2.000    0.667    0.000    1.000    0.000    4.667 
#    6.000    5.000    0.000    0.000    0.000    0.000 
#    0.000    0.000    0.000    0.000    0.000    0.000 
#
# Total GULP energy -66818.289276 kJ/mol
# GULP energy per Si atom -5568.190773 kJ/mol
# Density = 2.305760 g / cm^3
# Si number density = 23.110202 Si / 1000 Ang^3
#
#
#
# Elastic Constant Matrix: (Units=GPa)
#
#
# Indices 1 2 3 4 5 6 
#
# 1 173.1962 16.3526 31.1721 0.0000 -8.6749 0.0000
# 2 16.3526 194.4858 16.6467 0.0000 10.8791 0.0000
# 3 31.1721 16.6467 78.1010 0.0000 -1.1712 0.0000
# 4 0.0000 0.0000 0.0000 -161.6889 0.0000 21.9832
# 5 -8.6749 10.8791 -1.1712 0.0000 41.9718 0.0000
# 6 0.0000 0.0000 0.0000 21.9832 0.0000 -8.0687
#
#
#
# Elastic Compliance Matrix: (Units=1/GPa)
#
#
# Indices 1 2 3 4 5 6 
#
# 1 0.006313 -0.000399 -0.002415 0.000000 0.001341 0.000000
# 2 -0.000399 0.005345 -0.001002 0.000000 -0.001496 0.000000
# 3 -0.002415 -0.001002 0.013984 0.000000 0.000151 0.000000
# 4 0.000000 0.000000 0.000000 -0.009824 0.000000 -0.026764
# 5 0.001341 -0.001496 0.000151 0.000000 0.024495 0.000000
# 6 0.000000 0.000000 0.000000 -0.026764 0.000000 -0.196855
#
#
# Mechanical properties :
#
#
# Convention : Reuss Voigt Hill
#
# Bulk Modulus (GPa) = 55.52643 63.79177 59.65910
# Shear Modulus (GPa) = -34.98768 -0.11637 -17.55203
#
# Velocity S-wave (km/s) = -3.89517 -0.22464 -2.75888
# Velocity P-wave (km/s) = 1.96192 5.25318 3.96517
#
# Compressibility (1/GPa) = 0.01800944
#
# Stress axis : x y z
#
# Youngs Moduli (GPa) = 158.39753 187.09806 71.51259
#
# Poissons Ratio (x) = 0.07468 0.17267
# Poissons Ratio (y) = 0.06323 0.07168
# Poissons Ratio (z) = 0.38246 0.18753
#
# Static dielectric constant tensor:
#      x y z
#    x 1.962480 0.000000 -0.021520 
#    y 0.000000 1.883800 0.000000 
#    z -0.021520 0.000000 1.806790 
# 
# From -- ./inp_files/2342.got.cif
#   From: 2010.05.17/outbox.cif.g08.bks.cpg/sg3_2_cif.got.tgz:2342.got - 2010.06.03 18:33:08.
