data_PCOD9113563
_publ_section_title
;
Structure prediction by ZEFSAII (Michael W. Deem and Ramdas Pophale) SiO2 
 PCOD9113563
Probable space group: P 2
;
_chemical_formula_sum "Si O2"
_cell_formula_units_Z 15
_cell_length_a 23.206865
_cell_length_b 4.966570
_cell_length_c 8.154817
_cell_angle_alpha 90.000000
_cell_angle_beta 38.073756
_cell_angle_gamma 90.000000
_cell_volume 579.620653
_symmetry_space_group_name_H-M "P 2"
_symmetry_group_IT_number 3
_symmetry_cell_setting 'monoclinic'
loop_
_space_group_symop_operation_xyz
x,y,z
-x,y,-z
loop_
_atom_site_type_symbol
_atom_site_label
_atom_site_fract_x
_atom_site_fract_y
_atom_site_fract_z
Si Si1 0.386681 0.161520 0.983213
Si Si2 0.658438 0.854495 0.465056
Si Si3 0.825989 0.263266 0.511062
Si Si4 0.150857 0.775877 0.745527
Si Si5 0.189874 0.065429 0.087713
Si Si6 0.482490 0.608943 0.713961
Si Si7 0.088536 0.543745 0.197056
Si Si8 0.500000 0.203521 0.000000
O O1 0.416968 0.363115 0.775080
O O2 0.419672 0.860016 0.929788
O O3 0.282638 0.193297 0.268913
O O4 0.452161 0.357279 0.957053
O O5 0.749448 0.782578 0.374950
O O6 0.588637 0.623393 0.558770
O O7 0.704907 0.994551 0.200795
O O8 0.586741 0.043859 0.726256
O O9 0.841038 0.565844 0.421128
O O10 0.875367 0.059384 0.275673
O O11 0.835112 0.194347 0.681778
O O12 0.076265 0.666822 0.044400
O O13 0.135963 0.785434 0.191676
O O14 0.154541 0.284712 0.036265
O O15 0.500000 0.764464 0.500000
O O16 0.000000 0.458012 0.500000
#
# Coordination Sequence:
#
# PCOD9113563 Si02
#       8
#     2   2   2   2   2   2   2   1
#     4  11  24  36  60  84 131 172 227 282 330 380
#     4  10  23  42  67  94 133 185 242 283 340 401
#     4  12  24  43  65 102 141 182 225 282 355 409
#     4  11  24  42  70  99 134 182 226 283 342 425
#     4  11  25  45  73 103 142 183 225 290 357 424
#     4  11  24  39  57  88 126 176 232 291 335 380
#     4  11  25  49  77 107 137 176 229 284 350 435
#     4  10  22  38  62  92 126 174 242 282 318 378
#
# _framework density 25.878996000000001
#
# number of rings (size 3 to 8) (size 9 to 14) (size 15 to 20)
#    0.000    1.067    1.333    4.800    3.733    6.933 
#    0.000    4.000    0.000    0.000    0.000    0.000 
#    0.000    0.000    0.000    0.000    0.000    0.000 
#
# Total GULP energy -83688.841117 kJ/mol
# GULP energy per Si atom -5579.256074 kJ/mol
# Density = 2.582009 g / cm^3
# Si number density = 25.878996 Si / 1000 Ang^3
#
#
#
# Elastic Constant Matrix: (Units=GPa)
#
#
# Indices 1 2 3 4 5 6 
#
# 1 55.8036 19.5304 18.6502 0.0000 8.9052 0.0000
# 2 19.5304 140.6867 1.8675 0.0000 -6.4005 0.0000
# 3 18.6502 1.8675 65.1668 0.0000 15.3017 0.0000
# 4 0.0000 0.0000 0.0000 26.2022 0.0000 35.2994
# 5 8.9052 -6.4005 15.3017 0.0000 27.0081 0.0000
# 6 0.0000 0.0000 0.0000 35.2994 0.0000 0.1990
#
#
#
# Elastic Compliance Matrix: (Units=1/GPa)
#
#
# Indices 1 2 3 4 5 6 
#
# 1 0.021453 -0.003144 -0.004860 0.000000 -0.005065 0.000000
# 2 -0.003144 0.007674 0.000011 0.000000 0.002849 0.000000
# 3 -0.004860 0.000011 0.018869 0.000000 -0.009085 0.000000
# 4 0.000000 0.000000 0.000000 -0.000160 0.000000 0.028448
# 5 -0.005065 0.002849 -0.009085 0.000000 0.044519 0.000000
# 6 0.000000 0.000000 0.000000 0.028448 0.000000 -0.021117
#
#
# Mechanical properties :
#
#
# Convention : Reuss Voigt Hill
#
# Bulk Modulus (GPa) = 31.24092 37.97257 34.60674
# Shear Modulus (GPa) = 51.07546 25.45579 38.26562
#
# Velocity S-wave (km/s) = 4.44737 3.13972 3.84948
# Velocity P-wave (km/s) = 6.20244 5.27719 5.75843
#
# Compressibility (1/GPa) = 0.03200930
#
# Stress axis : x y z
#
# Youngs Moduli (GPa) = 46.61353 130.31127 52.99634
#
# Poissons Ratio (x) = 0.40971 0.25758
# Poissons Ratio (y) = 0.14656 -0.00058
# Poissons Ratio (z) = 0.22655 -0.00142
#
# Static dielectric constant tensor:
#      x y z
#    x 2.214770 0.000000 0.003380 
#    y 0.000000 2.054640 0.000000 
#    z 0.003380 0.000000 2.223060 
# 
# From -- ./inp_files/9608.got.cif
#   From: 2010.05.17/outbox.cif.g08.bks.cpg/sg3_5_cif.got.tgz:9608.got - 2010.06.03 18:33:08.
