data_PCOD9113707
_publ_section_title
;
Structure prediction by ZEFSAII (Michael W. Deem and Ramdas Pophale) SiO2 
 PCOD9113707
Probable space group: P 2
;
_chemical_formula_sum "Si O2"
_cell_formula_units_Z 10
_cell_length_a 9.042212
_cell_length_b 10.989886
_cell_length_c 7.827730
_cell_angle_alpha 90.000000
_cell_angle_beta 32.563648
_cell_angle_gamma 90.000000
_cell_volume 418.674578
_symmetry_space_group_name_H-M "P 2"
_symmetry_group_IT_number 3
_symmetry_cell_setting 'monoclinic'
loop_
_space_group_symop_operation_xyz
x,y,z
-x,y,-z
loop_
_atom_site_type_symbol
_atom_site_label
_atom_site_fract_x
_atom_site_fract_y
_atom_site_fract_z
Si Si1 0.483917 0.756700 0.311003
Si Si2 0.230740 0.153502 0.147596
Si Si3 0.853100 0.518611 0.464225
Si Si4 0.637582 0.385341 0.180943
Si Si5 0.987792 0.907223 0.805186
O O1 0.500000 0.746973 0.500000
O O2 0.326344 0.637398 0.404870
O O3 0.291175 0.870808 0.452705
O O4 0.787601 0.793129 0.957207
O O5 0.000000 0.203826 0.500000
O O6 0.122848 0.027552 0.174411
O O7 0.500000 0.135735 0.000000
O O8 0.272494 0.249960 0.955226
O O9 0.614634 0.417781 0.698320
O O10 0.000000 0.534459 0.500000
O O11 0.101506 0.475066 0.098143
O O12 0.500000 0.396944 0.500000
O O13 0.000000 0.921110 0.000000
#
# Coordination Sequence:
#
# PCOD9113707 Si02
#       5
#     2   2   2   2   2
#     4  10  22  42  68  98 135 177 225 274 329 402
#     4  12  26  45  70 101 140 177 224 287 346 401
#     4  12  25  44  70 103 139 176 225 285 345 401
#     4  12  27  46  70  98 135 183 232 278 337 411
#     4  10  23  43  68  98 133 177 225 274 330 401
#
# _framework density 23.884899000000001
#
# number of rings (size 3 to 8) (size 9 to 14) (size 15 to 20)
#    0.000    0.800    0.000    7.200    0.000   11.200 
#    0.000    0.000    0.000    0.000    0.000    0.000 
#    0.000    0.000    0.000    0.000    0.000    0.000 
#
# Total GULP energy -56024.378840 kJ/mol
# GULP energy per Si atom -5602.437884 kJ/mol
# Density = 2.383054 g / cm^3
# Si number density = 23.884899 Si / 1000 Ang^3
#
#
#
# Elastic Constant Matrix: (Units=GPa)
#
#
# Indices 1 2 3 4 5 6 
#
# 1 112.5951 50.0449 37.0819 0.0000 -19.5727 0.0000
# 2 50.0449 109.9190 6.5211 0.0000 -2.4682 0.0000
# 3 37.0819 6.5211 101.0985 0.0000 -3.5466 0.0000
# 4 0.0000 0.0000 0.0000 58.4331 0.0000 -30.4816
# 5 -19.5727 -2.4682 -3.5466 0.0000 42.9608 0.0000
# 6 0.0000 0.0000 0.0000 -30.4816 0.0000 50.8534
#
#
#
# Elastic Compliance Matrix: (Units=1/GPa)
#
#
# Indices 1 2 3 4 5 6 
#
# 1 0.014032 -0.005991 -0.004562 0.000000 0.005672 0.000000
# 2 -0.005991 0.011700 0.001375 0.000000 -0.001944 0.000000
# 3 -0.004562 0.001375 0.011439 0.000000 -0.001055 0.000000
# 4 0.000000 0.000000 0.000000 0.024899 0.000000 0.014924
# 5 0.005672 -0.001944 -0.001055 0.000000 0.025663 0.000000
# 6 0.000000 0.000000 0.000000 0.014924 0.000000 0.028610
#
#
# Mechanical properties :
#
#
# Convention : Reuss Voigt Hill
#
# Bulk Modulus (GPa) = 53.14769 56.76762 54.95766
# Shear Modulus (GPa) = 35.46847 45.78046 40.62446
#
# Velocity S-wave (km/s) = 3.85772 4.38278 4.12860
# Velocity P-wave (km/s) = 6.49173 7.03067 6.76657
#
# Compressibility (1/GPa) = 0.01881549
#
# Stress axis : x y z
#
# Youngs Moduli (GPa) = 71.26355 85.47038 87.42175
#
# Poissons Ratio (x) = 0.51204 0.39878
# Poissons Ratio (y) = 0.42693 -0.12016
# Poissons Ratio (z) = 0.32507 -0.11748
#
# Static dielectric constant tensor:
#      x y z
#    x 1.865240 0.000000 0.003440 
#    y 0.000000 1.906940 0.000000 
#    z 0.003440 0.000000 1.864380 
# 
# From -- ./inp_files/5687.got.cif
#   From: 2010.05.17/outbox.cif.g08.bks.cpg/sg3_3_cif.got.tgz:5687.got - 2010.06.03 18:33:08.
