data_PCOD9113886
_publ_section_title
;
Structure prediction by ZEFSAII (Michael W. Deem and Ramdas Pophale) SiO2 
 PCOD9113886
Probable space group: P 2
;
_chemical_formula_sum "Si O2"
_cell_formula_units_Z 14
_cell_length_a 17.356113
_cell_length_b 7.126031
_cell_length_c 5.581607
_cell_angle_alpha 90.000000
_cell_angle_beta 79.939271
_cell_angle_gamma 90.000000
_cell_volume 679.719097
_symmetry_space_group_name_H-M "P 2"
_symmetry_group_IT_number 3
_symmetry_cell_setting 'monoclinic'
loop_
_space_group_symop_operation_xyz
x,y,z
-x,y,-z
loop_
_atom_site_type_symbol
_atom_site_label
_atom_site_fract_x
_atom_site_fract_y
_atom_site_fract_z
Si Si1 0.821813 0.232220 0.999638
Si Si2 0.077443 0.953329 0.310834
Si Si3 0.500000 0.400775 0.000000
Si Si4 0.915022 0.601193 0.015785
Si Si5 0.645589 0.905159 0.406408
Si Si6 0.652764 0.137790 0.904128
Si Si7 0.500000 0.629773 0.500000
Si Si8 0.187208 0.887704 0.644082
O O1 0.848931 0.444563 0.023937
O O2 0.739803 0.225439 0.897858
O O3 0.900639 0.132081 0.857745
O O4 0.807921 0.091226 0.231058
O O5 0.066521 0.750097 0.202859
O O6 0.161230 0.928159 0.392714
O O7 0.000000 0.997294 0.500000
O O8 0.579833 0.279911 0.946543
O O9 0.497132 0.514355 0.750471
O O10 0.880412 0.749836 0.225931
O O11 0.000000 0.508911 0.000000
O O12 0.575110 0.763094 0.468536
O O13 0.728762 0.798949 0.363810
O O14 0.648898 0.033744 0.646569
O O15 0.640189 0.009524 0.151084
#
# Coordination Sequence:
#
# PCOD9113886 Si02
#       8
#     2   2   1   2   2   2   1   2
#     4  10  25  40  65  92 127 173 221 267 336 393
#     4  11  22  41  61  91 128 170 219 277 326 392
#     4  12  26  42  68 106 140 164 218 278 330 394
#     4  11  24  39  60  94 128 172 218 277 333 392
#     4  11  23  45  71  94 132 180 224 261 338 400
#     4  11  23  46  68  97 133 178 219 271 330 401
#     4  12  26  42  70 106 132 174 214 274 334 398
#     4  10  23  43  63  89 129 170 220 272 326 392
#
# _framework density 20.596744999999999
#
# number of rings (size 3 to 8) (size 9 to 14) (size 15 to 20)
#    0.000    1.143    2.857    2.571    4.000    2.857 
#    0.000    0.000    0.000    0.000    0.000    0.000 
#    0.000    0.000    0.000    0.000    0.000    0.000 
#
# Total GULP energy -77940.302081 kJ/mol
# GULP energy per Si atom -5567.164434 kJ/mol
# Density = 2.054987 g / cm^3
# Si number density = 20.596745 Si / 1000 Ang^3
#
#
#
# Elastic Constant Matrix: (Units=GPa)
#
#
# Indices 1 2 3 4 5 6 
#
# 1 141.4757 45.0571 19.0381 0.0000 -14.1531 0.0000
# 2 45.0571 77.3748 27.0643 0.0000 0.6334 0.0000
# 3 19.0381 27.0643 83.1452 0.0000 -2.9151 0.0000
# 4 0.0000 0.0000 0.0000 -14.1044 0.0000 11.1978
# 5 -14.1531 0.6334 -2.9151 0.0000 27.8072 0.0000
# 6 0.0000 0.0000 0.0000 11.1978 0.0000 41.3829
#
#
#
# Elastic Compliance Matrix: (Units=1/GPa)
#
#
# Indices 1 2 3 4 5 6 
#
# 1 0.009292 -0.005378 -0.000208 0.000000 0.004830 0.000000
# 2 -0.005378 0.017716 -0.004663 0.000000 -0.003630 0.000000
# 3 -0.000208 -0.004663 0.013643 0.000000 0.001431 0.000000
# 4 0.000000 0.000000 0.000000 -0.058362 0.000000 0.015792
# 5 0.004830 -0.003630 0.001431 0.000000 0.038653 0.000000
# 6 0.000000 0.000000 0.000000 0.015792 0.000000 0.019891
#
#
# Mechanical properties :
#
#
# Convention : Reuss Voigt Hill
#
# Bulk Modulus (GPa) = 49.61663 53.81274 51.71468
# Shear Modulus (GPa) = 73.47671 25.07288 49.27480
#
# Velocity S-wave (km/s) = 5.97925 3.49280 4.89648
# Velocity P-wave (km/s) = 8.47410 6.51535 7.55844
#
# Compressibility (1/GPa) = 0.02015453
#
# Stress axis : x y z
#
# Youngs Moduli (GPa) = 107.61587 56.44473 73.29975
#
# Poissons Ratio (x) = 0.30356 0.01523
# Poissons Ratio (y) = 0.57876 0.34177
# Poissons Ratio (z) = 0.02236 0.26318
#
# Static dielectric constant tensor:
#      x y z
#    x 1.753330 0.000000 0.016860 
#    y 0.000000 1.843530 0.000000 
#    z 0.016860 0.000000 1.863960 
# 
# From -- ./inp_files/3490.got.cif
#   From: 2010.05.17/outbox.cif.g08.bks.cpg/sg3_2_cif.got.tgz:3490.got - 2010.06.03 18:33:08.
