data_PCOD9113380
_publ_section_title
;
Structure prediction by ZEFSAII (Michael W. Deem and Ramdas Pophale) SiO2 
 PCOD9113380
Probable space group: P 2
;
_chemical_formula_sum "Si O2"
_cell_formula_units_Z 14
_cell_length_a 13.215966
_cell_length_b 6.085946
_cell_length_c 10.913377
_cell_angle_alpha 90.000000
_cell_angle_beta 135.124134
_cell_angle_gamma 90.000000
_cell_volume 619.338683
_symmetry_space_group_name_H-M "P 2"
_symmetry_group_IT_number 3
_symmetry_cell_setting 'monoclinic'
loop_
_space_group_symop_operation_xyz
x,y,z
-x,y,-z
loop_
_atom_site_type_symbol
_atom_site_label
_atom_site_fract_x
_atom_site_fract_y
_atom_site_fract_z
Si Si1 0.259071 0.787490 0.360864
Si Si2 0.370489 0.191719 0.974434
Si Si3 0.853836 0.846158 0.311357
Si Si4 0.174146 0.472426 0.511647
Si Si5 0.500000 0.487301 0.500000
Si Si6 0.000000 0.673366 0.000000
Si Si7 0.417837 0.163722 0.641938
Si Si8 0.884948 0.493795 0.149662
O O1 0.212512 0.632566 0.432535
O O2 0.364615 0.644076 0.369284
O O3 0.118645 0.828744 0.162566
O O4 0.343337 0.986226 0.492130
O O5 0.261166 0.366995 0.941704
O O6 0.273447 0.017548 0.817071
O O7 0.500000 0.284377 0.000000
O O8 0.459632 0.079233 0.161964
O O9 0.819172 0.630671 0.365046
O O10 0.881877 0.740580 0.202513
O O11 0.000000 0.934665 0.500000
O O12 0.291365 0.283275 0.608798
O O13 0.015984 0.386107 0.340659
O O14 0.483808 0.341211 0.606212
O O15 0.929476 0.521121 0.046067
#
# Coordination Sequence:
#
# PCOD9113380 Si02
#       8
#     2   2   2   2   1   1   2   2
#     4  10  21  40  64  91 130 175 222 274 330 392
#     4  12  26  40  66 102 133 172 220 269 333 406
#     4  10  23  43  66  95 131 169 215 275 333 393
#     4   9  21  42  65  91 129 171 220 279 333 389
#     4  10  22  40  62  92 134 176 220 274 326 390
#     4  10  22  44  70  98 132 176 228 282 328 384
#     4  11  23  40  65  96 131 177 218 268 337 398
#     4  10  23  43  68  97 131 175 222 275 331 390
#
# _framework density 22.604755999999998
#
# number of rings (size 3 to 8) (size 9 to 14) (size 15 to 20)
#    0.000    1.714    0.000    3.000    0.000   12.571 
#    0.000    7.143    0.000    0.000    0.000    0.000 
#    0.000    0.000    0.000    0.000    0.000    0.000 
#
# Total GULP energy -78223.338837 kJ/mol
# GULP energy per Si atom -5587.381346 kJ/mol
# Density = 2.255331 g / cm^3
# Si number density = 22.604756 Si / 1000 Ang^3
#
#
#
# Elastic Constant Matrix: (Units=GPa)
#
#
# Indices 1 2 3 4 5 6 
#
# 1 144.7220 45.6387 66.2462 0.0000 12.1396 0.0000
# 2 45.6387 72.8585 72.4001 0.0000 9.0272 0.0000
# 3 66.2462 72.4001 193.5942 0.0000 13.3806 0.0000
# 4 0.0000 0.0000 0.0000 27.8683 0.0000 5.5261
# 5 12.1396 9.0272 13.3806 0.0000 31.7333 0.0000
# 6 0.0000 0.0000 0.0000 5.5261 0.0000 12.9201
#
#
#
# Elastic Compliance Matrix: (Units=1/GPa)
#
#
# Indices 1 2 3 4 5 6 
#
# 1 0.008971 -0.003940 -0.001480 0.000000 -0.001687 0.000000
# 2 -0.003940 0.023827 -0.007414 0.000000 -0.002144 0.000000
# 3 -0.001480 -0.007414 0.008508 0.000000 -0.000912 0.000000
# 4 0.000000 0.000000 0.000000 0.039208 0.000000 -0.016770
# 5 -0.001687 -0.002144 -0.000912 0.000000 0.033153 0.000000
# 6 0.000000 0.000000 0.000000 -0.016770 0.000000 0.084572
#
#
# Mechanical properties :
#
#
# Convention : Reuss Voigt Hill
#
# Bulk Modulus (GPa) = 63.94952 86.63831 75.29391
# Shear Modulus (GPa) = 21.82274 29.63030 25.72652
#
# Velocity S-wave (km/s) = 3.11047 3.62442 3.37724
# Velocity P-wave (km/s) = 6.42275 7.47836 6.97057
#
# Compressibility (1/GPa) = 0.01563734
#
# Stress axis : x y z
#
# Youngs Moduli (GPa) = 111.46781 41.97007 117.54260
#
# Poissons Ratio (x) = 0.16537 0.17393
# Poissons Ratio (y) = 0.43920 0.87147
# Poissons Ratio (z) = 0.16494 0.31117
#
# Static dielectric constant tensor:
#      x y z
#    x 1.903740 0.000000 0.010260 
#    y 0.000000 1.809960 0.000000 
#    z 0.010260 0.000000 1.885810 
# 
# From -- ./inp_files/12107.got.cif
#   From: 2010.05.17/outbox.cif.g08.bks.cpg/sg3_7_cif.got.tgz:12107.got - 2010.06.03 18:33:08.
