data_PCOD9113286
_publ_section_title
;
Structure prediction by ZEFSAII (Michael W. Deem and Ramdas Pophale) SiO2 
 PCOD9113286
Probable space group: P 2
;
_chemical_formula_sum "Si O2"
_cell_formula_units_Z 10
_cell_length_a 9.796989
_cell_length_b 11.794832
_cell_length_c 8.917124
_cell_angle_alpha 90.000000
_cell_angle_beta 149.359811
_cell_angle_gamma 90.000000
_cell_volume 525.142284
_symmetry_space_group_name_H-M "P 2"
_symmetry_group_IT_number 3
_symmetry_cell_setting 'monoclinic'
loop_
_space_group_symop_operation_xyz
x,y,z
-x,y,-z
loop_
_atom_site_type_symbol
_atom_site_label
_atom_site_fract_x
_atom_site_fract_y
_atom_site_fract_z
Si Si1 0.488223 0.600760 0.308942
Si Si2 0.981435 0.483945 0.308995
Si Si3 0.782157 0.236002 0.181153
Si Si4 0.261592 0.085790 0.152385
Si Si5 0.266303 0.829081 0.160040
O O1 0.500000 0.598764 0.500000
O O2 0.768322 0.548176 0.525414
O O3 0.386943 0.728569 0.172949
O O4 0.271626 0.523068 0.024733
O O5 0.000000 0.519024 0.500000
O O6 0.945205 0.348030 0.281576
O O7 0.000000 0.178861 0.500000
O O8 0.500000 0.263703 0.000000
O O9 0.708847 0.163021 0.965896
O O10 0.500000 0.093597 0.500000
O O11 0.218243 0.955468 0.054294
O O12 0.000000 0.118021 0.000000
O O13 0.500000 0.847798 0.500000
O O14 0.000000 0.791331 0.000000
#
# Coordination Sequence:
#
# PCOD9113286 Si02
#       5
#     2   2   2   2   2
#     4  11  21  37  61  86 112 149 198 240 281 344
#     4  11  23  39  56  81 119 157 189 235 297 344
#     4  11  23  41  59  82 122 161 192 237 300 352
#     4  10  21  38  63  90 116 151 198 244 287 348
#     4   9  18  35  58  87 120 150 184 240 304 342
#
# _framework density 19.042459000000001
#
# number of rings (size 3 to 8) (size 9 to 14) (size 15 to 20)
#    0.000    1.600    0.000    7.200    0.000    2.400 
#    0.000    3.000    0.000    0.000    0.000    0.000 
#    0.000    0.000    0.000    0.000    0.000    0.000 
#
# Total GULP energy -55671.673222 kJ/mol
# GULP energy per Si atom -5567.167322 kJ/mol
# Density = 1.899912 g / cm^3
# Si number density = 19.042459 Si / 1000 Ang^3
#
#
#
# Elastic Constant Matrix: (Units=GPa)
#
#
# Indices 1 2 3 4 5 6 
#
# 1 113.3192 71.2550 52.4319 0.0000 16.1175 0.0000
# 2 71.2550 100.2965 28.2903 0.0000 6.0549 0.0000
# 3 52.4319 28.2903 150.3739 0.0000 18.4231 0.0000
# 4 0.0000 0.0000 0.0000 27.9301 0.0000 2.8157
# 5 16.1175 6.0549 18.4231 0.0000 50.7468 0.0000
# 6 0.0000 0.0000 0.0000 2.8157 0.0000 5.8975
#
#
#
# Elastic Compliance Matrix: (Units=1/GPa)
#
#
# Indices 1 2 3 4 5 6 
#
# 1 0.018510 -0.011881 -0.003843 0.000000 -0.003066 0.000000
# 2 -0.011881 0.018171 0.000552 0.000000 0.001405 0.000000
# 3 -0.003843 0.000552 0.008105 0.000000 -0.001788 0.000000
# 4 0.000000 0.000000 0.000000 0.037614 0.000000 -0.017958
# 5 -0.003066 0.001405 -0.001788 0.000000 0.021161 0.000000
# 6 0.000000 0.000000 0.000000 -0.017958 0.000000 0.178137
#
#
# Mechanical properties :
#
#
# Convention : Reuss Voigt Hill
#
# Bulk Modulus (GPa) = 69.24488 74.21600 71.73044
# Shear Modulus (GPa) = 15.78008 31.04903 23.41456
#
# Velocity S-wave (km/s) = 2.88180 4.04235 3.51037
# Velocity P-wave (km/s) = 6.89314 7.80038 7.36075
#
# Compressibility (1/GPa) = 0.01444150
#
# Stress axis : x y z
#
# Youngs Moduli (GPa) = 54.02617 55.03382 123.37670
#
# Poissons Ratio (x) = 0.65385 0.47414
# Poissons Ratio (y) = 0.64188 -0.06810
# Poissons Ratio (z) = 0.20762 -0.03038
#
# Static dielectric constant tensor:
#      x y z
#    x 1.624260 0.000000 0.021470 
#    y 0.000000 1.740310 0.000000 
#    z 0.021470 0.000000 1.663130 
# 
# From -- ./inp_files/5685.got.cif
#   From: 2010.05.17/outbox.cif.g08.bks.cpg/sg3_3_cif.got.tgz:5685.got - 2010.06.03 18:33:08.
