data_PCOD9113884
_publ_section_title
;
Structure prediction by ZEFSAII (Michael W. Deem and Ramdas Pophale) SiO2 
 PCOD9113884
Probable space group: P 2
;
_chemical_formula_sum "Si O2"
_cell_formula_units_Z 15
_cell_length_a 8.785482
_cell_length_b 10.710525
_cell_length_c 8.509256
_cell_angle_alpha 90.000000
_cell_angle_beta 51.897550
_cell_angle_gamma 90.000000
_cell_volume 630.075008
_symmetry_space_group_name_H-M "P 2"
_symmetry_group_IT_number 3
_symmetry_cell_setting 'monoclinic'
loop_
_space_group_symop_operation_xyz
x,y,z
-x,y,-z
loop_
_atom_site_type_symbol
_atom_site_label
_atom_site_fract_x
_atom_site_fract_y
_atom_site_fract_z
Si Si1 0.143229 0.939900 0.790056
Si Si2 0.653543 0.308022 0.539203
Si Si3 0.655867 0.145981 0.115032
Si Si4 0.500000 0.774912 0.500000
Si Si5 0.632230 0.774416 0.758996
Si Si6 0.849664 0.024134 0.709679
Si Si7 0.706144 0.510290 0.777828
Si Si8 0.046665 0.365803 0.133879
O O1 0.306495 0.853338 0.622457
O O2 0.001703 0.982470 0.745151
O O3 0.251279 0.050083 0.818338
O O4 0.000000 0.870456 0.000000
O O5 0.500000 0.339530 0.500000
O O6 0.556055 0.189145 0.690319
O O7 0.676594 0.419909 0.648057
O O8 0.860671 0.295031 0.323739
O O9 0.789053 0.268223 0.021654
O O10 0.691319 0.091804 0.918478
O O11 0.511569 0.733050 0.678078
O O12 0.749546 0.905595 0.687050
O O13 0.760768 0.651817 0.703057
O O14 0.500000 0.786717 0.000000
O O15 0.000000 0.096677 0.500000
O O16 0.866030 0.452210 0.788842
O O17 0.500000 0.510947 0.000000
O O18 0.000000 0.434692 0.000000
#
# Coordination Sequence:
#
# PCOD9113884 Si02
#       8
#     2   2   2   1   2   2   2   2
#     4  10  23  42  72 105 149 196 252 297 372 463
#     4  12  26  46  77 108 151 202 255 321 395 464
#     4  11  25  46  73 108 156 199 253 313 382 468
#     4  12  24  48  78 106 156 202 248 316 394 450
#     4  11  26  50  78 114 155 202 266 328 387 471
#     4  11  23  46  71 110 157 200 251 312 381 466
#     4  11  25  51  77 108 152 201 265 334 388 461
#     4  12  24  49  74 112 152 200 259 320 392 468
#
# _framework density 23.806688000000001
#
# number of rings (size 3 to 8) (size 9 to 14) (size 15 to 20)
#    0.000    0.800    4.000    3.200    1.867    2.133 
#    9.600    2.000    0.000    0.000    0.000    0.000 
#    0.000    0.000    0.000    0.000    0.000    0.000 
#
# Total GULP energy -83769.966875 kJ/mol
# GULP energy per Si atom -5584.664458 kJ/mol
# Density = 2.375250 g / cm^3
# Si number density = 23.806688 Si / 1000 Ang^3
#
#
#
# Elastic Constant Matrix: (Units=GPa)
#
#
# Indices 1 2 3 4 5 6 
#
# 1 129.5998 23.8054 51.8907 0.0000 15.7764 0.0000
# 2 23.8054 61.0766 12.0834 0.0000 12.1112 0.0000
# 3 51.8907 12.0834 138.4739 0.0000 3.4686 0.0000
# 4 0.0000 0.0000 0.0000 -0.6652 0.0000 0.4114
# 5 15.7764 12.1112 3.4686 0.0000 59.3940 0.0000
# 6 0.0000 0.0000 0.0000 0.4114 0.0000 47.8909
#
#
#
# Elastic Compliance Matrix: (Units=1/GPa)
#
#
# Indices 1 2 3 4 5 6 
#
# 1 0.009808 -0.002788 -0.003386 0.000000 -0.001839 0.000000
# 2 -0.002788 0.018132 -0.000464 0.000000 -0.002930 0.000000
# 3 -0.003386 -0.000464 0.008518 0.000000 0.000497 0.000000
# 4 0.000000 0.000000 0.000000 -1.495426 0.000000 0.012847
# 5 -0.001839 -0.002930 0.000497 0.000000 0.017894 0.000000
# 6 0.000000 0.000000 0.000000 0.012847 0.000000 0.020770
#
#
# Mechanical properties :
#
#
# Convention : Reuss Voigt Hill
#
# Bulk Modulus (GPa) = 43.13643 56.07880 49.60761
# Shear Modulus (GPa) = -3.57322 37.41534 16.92106
#
# Velocity S-wave (km/s) = -1.22645 3.96868 2.66892
# Velocity P-wave (km/s) = 4.01911 6.67889 5.51184
#
# Compressibility (1/GPa) = 0.02318226
#
# Stress axis : x y z
#
# Youngs Moduli (GPa) = 101.96019 55.15004 117.39229
#
# Poissons Ratio (x) = 0.15377 0.39748
# Poissons Ratio (y) = 0.28428 0.05447
# Poissons Ratio (z) = 0.34523 0.02559
#
# Static dielectric constant tensor:
#      x y z
#    x 1.973110 0.000000 0.097900 
#    y 0.000000 1.908810 0.000000 
#    z 0.097900 0.000000 2.021100 
# 
# From -- ./inp_files/5945.got.cif
#   From: 2010.05.17/outbox.cif.g08.bks.cpg/sg3_3_cif.got.tgz:5945.got - 2010.06.03 18:33:08.
