data_PCOD9113108
_publ_section_title
;
Structure prediction by ZEFSAII (Michael W. Deem and Ramdas Pophale) SiO2 
 PCOD9113108
Probable space group: P 2
;
_chemical_formula_sum "Si O2"
_cell_formula_units_Z 16
_cell_length_a 18.774670
_cell_length_b 5.277760
_cell_length_c 8.654722
_cell_angle_alpha 90.000000
_cell_angle_beta 120.363475
_cell_angle_gamma 90.000000
_cell_volume 739.951695
_symmetry_space_group_name_H-M "P 2"
_symmetry_group_IT_number 3
_symmetry_cell_setting 'monoclinic'
loop_
_space_group_symop_operation_xyz
x,y,z
-x,y,-z
loop_
_atom_site_type_symbol
_atom_site_label
_atom_site_fract_x
_atom_site_fract_y
_atom_site_fract_z
Si Si1 0.591373 0.753760 0.595231
Si Si2 0.407696 0.140422 0.896266
Si Si3 0.061089 0.473848 0.711599
Si Si4 0.758219 0.017693 0.906934
Si Si5 0.229246 0.706106 0.786656
Si Si6 0.348748 0.391898 0.115940
Si Si7 0.938877 0.968374 0.077476
Si Si8 0.651140 0.639958 0.318226
O O1 0.500000 0.880159 0.500000
O O2 0.674140 0.891712 0.750840
O O3 0.583643 0.515056 0.702690
O O4 0.620780 0.670616 0.459087
O O5 0.359259 0.344193 0.738256
O O6 0.402578 0.857364 0.827562
O O7 0.500000 0.237774 0.000000
O O8 0.379932 0.164443 0.043450
O O9 0.150777 0.533294 0.735034
O O10 0.057498 0.221116 0.811933
O O11 0.000000 0.453527 0.500000
O O12 0.042644 0.718957 0.799241
O O13 0.730900 0.309238 0.872302
O O14 0.779636 0.947975 0.110538
O O15 0.843009 0.951438 0.916619
O O16 0.256618 0.726139 0.638501
O O17 0.310856 0.581868 0.950700
O O18 0.000000 0.986130 0.000000
#
# Coordination Sequence:
#
# PCOD9113108 Si02
#       8
#     2   2   2   2   2   2   2   2
#     4  11  26  40  61  96 141 174 228 290 347 387
#     4  11  23  39  65  87 121 164 227 264 327 395
#     4  11  23  42  70 103 138 172 219 285 346 398
#     4  10  21  41  67  88 129 185 220 268 336 415
#     4   9  20  41  64  90 127 170 226 262 326 407
#     4  10  20  40  63  86 120 182 213 268 326 404
#     4  11  24  45  70 104 139 181 229 273 337 428
#     4  11  24  40  59  96 123 167 215 287 322 386
#
# _framework density 21.623031999999998
#
# number of rings (size 3 to 8) (size 9 to 14) (size 15 to 20)
#    0.000    1.500    2.500    1.875    3.500    1.500 
#    2.250    0.000    0.000    0.000    0.000    0.000 
#    0.000    0.000    0.000    0.000    0.000    0.000 
#
# Total GULP energy -89093.197662 kJ/mol
# GULP energy per Si atom -5568.324854 kJ/mol
# Density = 2.157382 g / cm^3
# Si number density = 21.623032 Si / 1000 Ang^3
#
#
#
# Elastic Constant Matrix: (Units=GPa)
#
#
# Indices 1 2 3 4 5 6 
#
# 1 152.2335 20.7015 58.5584 0.0000 -9.8342 0.0000
# 2 20.7015 92.0891 36.3952 0.0000 -0.8987 0.0000
# 3 58.5584 36.3952 95.0484 0.0000 1.4831 0.0000
# 4 0.0000 0.0000 0.0000 8.0122 0.0000 2.1674
# 5 -9.8342 -0.8987 1.4831 0.0000 30.7292 0.0000
# 6 0.0000 0.0000 0.0000 2.1674 0.0000 23.7615
#
#
#
# Elastic Compliance Matrix: (Units=1/GPa)
#
#
# Indices 1 2 3 4 5 6 
#
# 1 0.008902 0.000255 -0.005631 0.000000 0.003128 0.000000
# 2 0.000255 0.012814 -0.005075 0.000000 0.000701 0.000000
# 3 -0.005631 -0.005075 0.015976 0.000000 -0.002722 0.000000
# 4 0.000000 0.000000 0.000000 0.127967 0.000000 -0.011672
# 5 0.003128 0.000701 -0.002722 0.000000 0.033695 0.000000
# 6 0.000000 0.000000 0.000000 -0.011672 0.000000 0.043149
#
#
# Mechanical properties :
#
#
# Convention : Reuss Voigt Hill
#
# Bulk Modulus (GPa) = 59.55721 63.40903 61.48312
# Shear Modulus (GPa) = 18.58717 27.41498 23.00107
#
# Velocity S-wave (km/s) = 2.93508 3.56456 3.26503
# Velocity P-wave (km/s) = 6.25215 6.80661 6.53526
#
# Compressibility (1/GPa) = 0.01679058
#
# Stress axis : x y z
#
# Youngs Moduli (GPa) = 112.33019 78.03848 62.59477
#
# Poissons Ratio (x) = -0.01988 0.35247
# Poissons Ratio (y) = -0.02862 0.31764
# Poissons Ratio (z) = 0.63253 0.39602
#
# Static dielectric constant tensor:
#      x y z
#    x 1.920690 0.000000 -0.041950 
#    y 0.000000 1.879510 0.000000 
#    z -0.041950 0.000000 1.831520 
# 
# From -- ./inp_files/8921.got.cif
#   From: 2010.05.17/outbox.cif.g08.bks.cpg/sg3_5_cif.got.tgz:8921.got - 2010.06.03 18:33:08.
