data_PCOD9113451
_publ_section_title
;
Structure prediction by ZEFSAII (Michael W. Deem and Ramdas Pophale) SiO2 
 PCOD9113451
Probable space group: P 2
;
_chemical_formula_sum "Si O2"
_cell_formula_units_Z 13
_cell_length_a 10.673488
_cell_length_b 6.161399
_cell_length_c 9.162438
_cell_angle_alpha 90.000000
_cell_angle_beta 106.660624
_cell_angle_gamma 90.000000
_cell_volume 577.259665
_symmetry_space_group_name_H-M "P 2"
_symmetry_group_IT_number 3
_symmetry_cell_setting 'monoclinic'
loop_
_space_group_symop_operation_xyz
x,y,z
-x,y,-z
loop_
_atom_site_type_symbol
_atom_site_label
_atom_site_fract_x
_atom_site_fract_y
_atom_site_fract_z
Si Si1 0.430449 0.846220 0.740038
Si Si2 0.059581 0.236222 0.383908
Si Si3 0.705730 0.534096 0.533229
Si Si4 0.500000 0.174749 0.500000
Si Si5 0.155285 0.866607 0.216096
Si Si6 0.928593 0.511064 0.116196
Si Si7 0.696933 0.808718 0.005367
O O1 0.368252 0.652434 0.623797
O O2 0.332140 0.900609 0.842560
O O3 0.464165 0.030008 0.630283
O O4 0.561763 0.784235 0.872040
O O5 0.158202 0.424396 0.467784
O O6 0.000000 0.112563 0.500000
O O7 0.947138 0.351322 0.254980
O O8 0.134509 0.072941 0.306930
O O9 0.618591 0.340273 0.567360
O O10 0.740339 0.710190 0.668467
O O11 0.022165 0.724117 0.168677
O O12 0.208587 0.935088 0.075622
O O13 0.780674 0.587028 0.047175
O O14 0.000000 0.406727 0.000000
#
# Coordination Sequence:
#
# PCOD9113451 Si02
#       7
#     2   2   2   1   2   2   2
#     4  11  23  40  67  95 126 168 210 259 313 375
#     4  11  23  39  66  98 125 165 214 260 315 376
#     4  11  23  42  66  93 127 164 211 267 315 369
#     4  12  24  42  66  96 126 166 214 258 318 380
#     4  10  22  42  66  90 126 168 210 265 318 369
#     4   9  21  40  62  91 129 170 210 259 313 369
#     4  10  21  42  63  90 131 168 205 255 315 371
#
# _framework density 22.520194
#
# number of rings (size 3 to 8) (size 9 to 14) (size 15 to 20)
#    0.000    1.538    0.000    5.077    0.000    6.769 
#    0.000   13.846    0.000    0.000    0.000    0.000 
#    0.000    0.000    0.000    0.000    0.000    0.000 
#
# Total GULP energy -72603.965843 kJ/mol
# GULP energy per Si atom -5584.920449 kJ/mol
# Density = 2.246894 g / cm^3
# Si number density = 22.520194 Si / 1000 Ang^3
#
#
#
# Elastic Constant Matrix: (Units=GPa)
#
#
# Indices 1 2 3 4 5 6 
#
# 1 67.8805 34.4557 64.7373 0.0000 -17.7650 0.0000
# 2 34.4557 76.8012 69.5068 0.0000 -10.3776 0.0000
# 3 64.7373 69.5068 150.7563 0.0000 -31.8718 0.0000
# 4 0.0000 0.0000 0.0000 21.0429 0.0000 -1.2780
# 5 -17.7650 -10.3776 -31.8718 0.0000 56.0838 0.0000
# 6 0.0000 0.0000 0.0000 -1.2780 0.0000 7.5170
#
#
#
# Elastic Compliance Matrix: (Units=1/GPa)
#
#
# Indices 1 2 3 4 5 6 
#
# 1 0.025518 -0.002855 -0.009143 0.000000 0.002359 0.000000
# 2 -0.002855 0.022854 -0.009783 0.000000 -0.002235 0.000000
# 3 -0.009143 -0.009783 0.015997 0.000000 0.004385 0.000000
# 4 0.000000 0.000000 0.000000 0.048018 0.000000 0.008163
# 5 0.002359 -0.002235 0.004385 0.000000 0.020656 0.000000
# 6 0.000000 0.000000 0.000000 0.008163 0.000000 0.134419
#
#
# Mechanical properties :
#
#
# Convention : Reuss Voigt Hill
#
# Bulk Modulus (GPa) = 48.06310 70.31528 59.18919
# Shear Modulus (GPa) = 15.72535 25.37796 20.55166
#
# Velocity S-wave (km/s) = 2.64536 3.36057 3.02418
# Velocity P-wave (km/s) = 5.54248 6.80800 6.20758
#
# Compressibility (1/GPa) = 0.02080598
#
# Stress axis : x y z
#
# Youngs Moduli (GPa) = 39.18858 43.75684 62.51247
#
# Poissons Ratio (x) = 0.12493 0.57153
# Poissons Ratio (y) = 0.11189 0.61158
# Poissons Ratio (z) = 0.35829 0.42809
#
# Static dielectric constant tensor:
#      x y z
#    x 1.897860 0.000000 0.000380 
#    y 0.000000 1.791990 0.000000 
#    z 0.000380 0.000000 1.868400 
# 
# From -- ./inp_files/6721.got.cif
#   From: 2010.05.17/outbox.cif.g08.bks.cpg/sg3_4_cif.got.tgz:6721.got - 2010.06.03 18:33:08.
