data_PCOD9113416
_publ_section_title
;
Structure prediction by ZEFSAII (Michael W. Deem and Ramdas Pophale) SiO2 
 PCOD9113416
Probable space group: P 2
;
_chemical_formula_sum "Si O2"
_cell_formula_units_Z 16
_cell_length_a 9.384874
_cell_length_b 9.455877
_cell_length_c 11.472517
_cell_angle_alpha 90.000000
_cell_angle_beta 57.485480
_cell_angle_gamma 90.000000
_cell_volume 858.515276
_symmetry_space_group_name_H-M "P 2"
_symmetry_group_IT_number 3
_symmetry_cell_setting 'monoclinic'
loop_
_space_group_symop_operation_xyz
x,y,z
-x,y,-z
loop_
_atom_site_type_symbol
_atom_site_label
_atom_site_fract_x
_atom_site_fract_y
_atom_site_fract_z
Si Si1 0.306935 0.126960 0.094496
Si Si2 0.989510 0.615151 0.364331
Si Si3 0.611008 0.747024 0.143580
Si Si4 0.718349 0.793901 0.841221
Si Si5 0.315468 0.236168 0.636915
Si Si6 0.025488 0.295369 0.351412
Si Si7 0.336181 0.567272 0.649373
Si Si8 0.197944 0.040067 0.900008
O O1 0.183065 0.205954 0.236433
O O2 0.307287 0.960651 0.128219
O O3 0.500000 0.176659 0.000000
O O4 0.231761 0.135435 0.998399
O O5 0.061433 0.459008 0.303037
O O6 0.815268 0.613279 0.369796
O O7 0.000000 0.621419 0.500000
O O8 0.096527 0.747223 0.273690
O O9 0.411010 0.749708 0.204040
O O10 0.658986 0.645228 0.228412
O O11 0.686286 0.900699 0.142376
O O12 0.681353 0.719334 0.981990
O O13 0.500000 0.199521 0.500000
O O14 0.154295 0.245073 0.621661
O O15 0.332360 0.398402 0.673094
O O16 0.255961 0.127688 0.762279
O O17 0.000000 0.287167 0.500000
O O18 0.500000 0.598984 0.500000
O O19 0.000000 0.000222 0.000000
#
# Coordination Sequence:
#
# PCOD9113416 Si02
#       8
#     2   2   2   2   2   2   2   2
#     4  11  22  42  61  89 123 160 198 248 299 354
#     4  10  22  40  62  87 120 157 197 248 296 352
#     4  10  22  39  60  87 118 156 197 242 295 355
#     4  10  21  41  59  85 122 153 197 246 292 350
#     4  10  23  41  62  90 122 157 199 251 298 354
#     4  10  23  41  62  90 121 157 203 245 299 360
#     4  10  22  40  62  88 119 156 200 245 297 356
#     4  11  22  40  63  87 125 157 196 250 299 354
#
# _framework density 18.636827
#
# number of rings (size 3 to 8) (size 9 to 14) (size 15 to 20)
#    0.000    1.750    3.750    0.750    5.250    3.000 
#    2.250    0.000    0.000    0.000    0.000    0.000 
#    0.000    0.000    0.000    0.000    0.000    0.000 
#
# Total GULP energy -89165.653614 kJ/mol
# GULP energy per Si atom -5572.853351 kJ/mol
# Density = 1.859441 g / cm^3
# Si number density = 18.636827 Si / 1000 Ang^3
#
#
#
# Elastic Constant Matrix: (Units=GPa)
#
#
# Indices 1 2 3 4 5 6 
#
# 1 110.0358 42.7688 49.9877 0.0000 2.6481 0.0000
# 2 42.7688 49.0870 50.6743 0.0000 -1.6576 0.0000
# 3 49.9877 50.6743 83.1554 0.0000 -4.3344 0.0000
# 4 0.0000 0.0000 0.0000 30.8732 0.0000 -4.8536
# 5 2.6481 -1.6576 -4.3344 0.0000 39.9509 0.0000
# 6 0.0000 0.0000 0.0000 -4.8536 0.0000 12.8899
#
#
#
# Elastic Compliance Matrix: (Units=1/GPa)
#
#
# Indices 1 2 3 4 5 6 
#
# 1 0.014057 -0.009414 -0.002798 0.000000 -0.001626 0.000000
# 2 -0.009414 0.061304 -0.031713 0.000000 -0.000273 0.000000
# 3 -0.002798 -0.031713 0.033162 0.000000 0.002467 0.000000
# 4 0.000000 0.000000 0.000000 0.034429 0.000000 0.012964
# 5 -0.001626 -0.000273 0.002467 0.000000 0.025395 0.000000
# 6 0.000000 0.000000 0.000000 0.012964 0.000000 0.082462
#
#
# Mechanical properties :
#
#
# Convention : Reuss Voigt Hill
#
# Bulk Modulus (GPa) = 48.37395 58.79332 53.58364
# Shear Modulus (GPa) = 14.46968 23.33263 18.90115
#
# Velocity S-wave (km/s) = 2.78942 3.54215 3.18808
# Velocity P-wave (km/s) = 6.03216 6.95302 6.50889
#
# Compressibility (1/GPa) = 0.02067228
#
# Stress axis : x y z
#
# Youngs Moduli (GPa) = 71.13705 16.31221 30.15491
#
# Poissons Ratio (x) = 0.15357 0.08438
# Poissons Ratio (y) = 0.66970 0.95631
# Poissons Ratio (z) = 0.19906 0.51731
#
# Static dielectric constant tensor:
#      x y z
#    x 1.690620 0.000000 -0.047120 
#    y 0.000000 1.631850 0.000000 
#    z -0.047120 0.000000 1.681780 
# 
# From -- ./inp_files/10731.got.cif
#   From: 2010.05.17/outbox.cif.g08.bks.cpg/sg3_6_cif.got.tgz:10731.got - 2010.06.03 18:33:08.
