data_PCOD9113573
_publ_section_title
;
Structure prediction by ZEFSAII (Michael W. Deem and Ramdas Pophale) SiO2 
 PCOD9113573
Probable space group: P 2
;
_chemical_formula_sum "Si O2"
_cell_formula_units_Z 11
_cell_length_a 9.119278
_cell_length_b 5.439006
_cell_length_c 14.707582
_cell_angle_alpha 90.000000
_cell_angle_beta 37.187186
_cell_angle_gamma 90.000000
_cell_volume 440.921003
_symmetry_space_group_name_H-M "P 2"
_symmetry_group_IT_number 3
_symmetry_cell_setting 'monoclinic'
loop_
_space_group_symop_operation_xyz
x,y,z
-x,y,-z
loop_
_atom_site_type_symbol
_atom_site_label
_atom_site_fract_x
_atom_site_fract_y
_atom_site_fract_z
Si Si1 0.351414 0.461470 0.907303
Si Si2 0.753879 0.037303 0.406681
Si Si3 0.500000 0.775146 0.000000
Si Si4 0.207121 0.101249 0.281848
Si Si5 0.910568 0.069793 0.131998
Si Si6 0.437744 0.845277 0.330062
O O1 0.349091 0.628591 0.998783
O O2 0.602691 0.316639 0.798687
O O3 0.410392 0.622293 0.788191
O O4 0.108785 0.291278 0.031831
O O5 0.500000 0.158588 0.500000
O O6 0.887337 0.975195 0.246160
O O7 0.941503 0.180447 0.379410
O O8 0.672549 0.816484 0.514821
O O9 0.683063 0.940964 0.853316
O O10 0.242182 0.929339 0.352633
O O11 0.624775 0.077021 0.247699
O O12 0.000000 0.915020 0.000000
#
# Coordination Sequence:
#
# PCOD9113573 Si02
#       6
#     2   2   1   2   2   2
#     4  11  23  43  75 112 150 199 257 306 379 454
#     4  10  23  44  73  99 147 196 241 307 385 431
#     4  10  22  38  72 110 142 196 256 316 358 450
#     4  11  21  43  70 101 147 195 256 311 375 440
#     4  11  22  44  74 108 151 198 250 314 369 447
#     4  10  24  45  71 106 152 202 247 309 382 451
#
# _framework density 24.947778
#
# number of rings (size 3 to 8) (size 9 to 14) (size 15 to 20)
#    0.000    1.455    1.818    3.273    2.545    0.727 
#    3.273    9.091    4.000    0.000    0.000    0.000 
#    0.000    0.000    0.000    0.000    0.000    0.000 
#
# Total GULP energy -61246.432880 kJ/mol
# GULP energy per Si atom -5567.857535 kJ/mol
# Density = 2.489100 g / cm^3
# Si number density = 24.947778 Si / 1000 Ang^3
#
#
#
# Elastic Constant Matrix: (Units=GPa)
#
#
# Indices 1 2 3 4 5 6 
#
# 1 182.8202 40.1616 93.6186 0.0000 -14.9341 0.0000
# 2 40.1616 85.4870 60.6723 0.0000 -6.6562 0.0000
# 3 93.6186 60.6723 183.2516 0.0000 32.4725 0.0000
# 4 0.0000 0.0000 0.0000 19.9893 0.0000 18.7730
# 5 -14.9341 -6.6562 32.4725 0.0000 83.1095 0.0000
# 6 0.0000 0.0000 0.0000 18.7730 0.0000 39.0165
#
#
#
# Elastic Compliance Matrix: (Units=1/GPa)
#
#
# Indices 1 2 3 4 5 6 
#
# 1 0.008192 -0.000276 -0.004674 0.000000 0.003276 0.000000
# 2 -0.000276 0.016274 -0.005876 0.000000 0.003550 0.000000
# 3 -0.004674 -0.005876 0.010768 0.000000 -0.005518 0.000000
# 4 0.000000 0.000000 0.000000 0.091270 0.000000 -0.043915
# 5 0.003276 0.003550 -0.005518 0.000000 0.015061 0.000000
# 6 0.000000 0.000000 0.000000 -0.043915 0.000000 0.046760
#
#
# Mechanical properties :
#
#
# Convention : Reuss Voigt Hill
#
# Bulk Modulus (GPa) = 73.62987 93.38487 83.50737
# Shear Modulus (GPa) = 23.30955 45.56348 34.43652
#
# Velocity S-wave (km/s) = 3.06000 4.27822 3.71933
# Velocity P-wave (km/s) = 6.48556 7.86878 7.21041
#
# Compressibility (1/GPa) = 0.01358144
#
# Stress axis : x y z
#
# Youngs Moduli (GPa) = 122.07674 61.44684 92.86689
#
# Poissons Ratio (x) = 0.01696 0.43406
# Poissons Ratio (y) = 0.03370 0.54570
# Poissons Ratio (z) = 0.57059 0.36107
#
# Static dielectric constant tensor:
#      x y z
#    x 2.051700 0.000000 0.016810 
#    y 0.000000 2.020510 0.000000 
#    z 0.016810 0.000000 1.932940 
# 
# From -- ./inp_files/13287.got.cif
#   From: 2010.05.17/outbox.cif.g08.bks.cpg/sg3_7_cif.got.tgz:13287.got - 2010.06.03 18:33:08.
