data_PCOD9113487
_publ_section_title
;
Structure prediction by ZEFSAII (Michael W. Deem and Ramdas Pophale) SiO2 
 PCOD9113487
Probable space group: P 2
;
_chemical_formula_sum "Si O2"
_cell_formula_units_Z 14
_cell_length_a 7.543546
_cell_length_b 6.985474
_cell_length_c 16.132849
_cell_angle_alpha 90.000000
_cell_angle_beta 43.897903
_cell_angle_gamma 90.000000
_cell_volume 589.455409
_symmetry_space_group_name_H-M "P 2"
_symmetry_group_IT_number 3
_symmetry_cell_setting 'monoclinic'
loop_
_space_group_symop_operation_xyz
x,y,z
-x,y,-z
loop_
_atom_site_type_symbol
_atom_site_label
_atom_site_fract_x
_atom_site_fract_y
_atom_site_fract_z
Si Si1 0.714841 0.558700 0.864266
Si Si2 0.774928 0.627563 0.661516
Si Si3 0.846445 0.920968 0.930395
Si Si4 0.587104 0.926620 0.186575
Si Si5 0.220976 0.927172 0.552408
Si Si6 0.063607 0.215235 0.747584
Si Si7 0.378180 0.232997 0.362042
O O1 0.633071 0.594634 0.797772
O O2 0.810297 0.748846 0.878636
O O3 0.947049 0.417568 0.766375
O O4 0.500000 0.483819 0.000000
O O5 0.577260 0.787950 0.697846
O O6 0.754178 0.433829 0.616120
O O7 0.042619 0.743620 0.587254
O O8 0.127221 0.905213 0.875481
O O9 0.631905 0.915293 0.073079
O O10 0.868457 0.123628 0.878860
O O11 0.449603 0.127307 0.252363
O O12 0.500000 0.876959 0.500000
O O13 0.087634 0.054934 0.668877
O O14 0.241964 0.085347 0.471345
O O15 0.344622 0.256648 0.688585
#
# Coordination Sequence:
#
# PCOD9113487 Si02
#       7
#     2   2   2   2   2   2   2
#     4  12  25  40  69 108 144 185 239 296 361 436
#     4  12  25  45  74 106 142 180 246 307 363 425
#     4  10  21  43  69 101 143 194 233 292 362 437
#     4  10  23  42  70 104 146 184 239 299 364 428
#     4  10  24  52  78 104 145 199 247 301 366 433
#     4  10  23  46  73  98 148 193 240 288 364 435
#     4  10  25  49  72 106 138 191 247 304 358 432
#
# _framework density 23.750734999999999
#
# number of rings (size 3 to 8) (size 9 to 14) (size 15 to 20)
#    0.000    1.429    2.857    0.857    4.000    1.143 
#    5.143    0.714    3.143    0.000    0.000    0.000 
#    0.000    0.000    0.000    0.000    0.000    0.000 
#
# Total GULP energy -78103.465927 kJ/mol
# GULP energy per Si atom -5578.818995 kJ/mol
# Density = 2.369668 g / cm^3
# Si number density = 23.750735 Si / 1000 Ang^3
#
#
#
# Elastic Constant Matrix: (Units=GPa)
#
#
# Indices 1 2 3 4 5 6 
#
# 1 75.4697 58.8172 36.0684 0.0000 -14.4669 0.0000
# 2 58.8172 139.9641 62.7091 0.0000 -10.9806 0.0000
# 3 36.0684 62.7091 127.8083 0.0000 -6.1059 0.0000
# 4 0.0000 0.0000 0.0000 14.2323 0.0000 -8.3566
# 5 -14.4669 -10.9806 -6.1059 0.0000 35.8185 0.0000
# 6 0.0000 0.0000 0.0000 -8.3566 0.0000 57.1536
#
#
#
# Elastic Compliance Matrix: (Units=1/GPa)
#
#
# Indices 1 2 3 4 5 6 
#
# 1 0.021235 -0.007564 -0.001999 0.000000 0.005917 0.000000
# 2 -0.007564 0.012005 -0.003756 0.000000 -0.000015 0.000000
# 3 -0.001999 -0.003756 0.010221 0.000000 -0.000217 0.000000
# 4 0.000000 0.000000 0.000000 0.076861 0.000000 0.011238
# 5 0.005917 -0.000015 -0.000217 0.000000 0.030267 0.000000
# 6 0.000000 0.000000 0.000000 0.011238 0.000000 0.019140
#
#
# Mechanical properties :
#
#
# Convention : Reuss Voigt Hill
#
# Bulk Modulus (GPa) = 59.44290 73.15906 66.30098
# Shear Modulus (GPa) = 24.75566 33.81738 29.28652
#
# Velocity S-wave (km/s) = 3.23199 3.77748 3.51533
# Velocity P-wave (km/s) = 6.24578 7.06368 6.66728
#
# Compressibility (1/GPa) = 0.01682287
#
# Stress axis : x y z
#
# Youngs Moduli (GPa) = 47.09296 83.29830 97.83747
#
# Poissons Ratio (x) = 0.63004 0.19555
# Poissons Ratio (y) = 0.35620 0.36752
# Poissons Ratio (z) = 0.09413 0.31291
#
# Static dielectric constant tensor:
#      x y z
#    x 1.860580 0.000000 0.009460 
#    y 0.000000 1.928170 0.000000 
#    z 0.009460 0.000000 1.980310 
# 
# From -- ./inp_files/14815.got.cif
#   From: 2010.05.17/outbox.cif.g08.bks.cpg/sg3_8_cif.got.tgz:14815.got - 2010.06.03 18:33:08.
