data_PCOD9113922
_publ_section_title
;
Structure prediction by ZEFSAII (Michael W. Deem and Ramdas Pophale) SiO2 
 PCOD9113922
Probable space group: P 2
;
_chemical_formula_sum "Si O2"
_cell_formula_units_Z 14
_cell_length_a 19.509423
_cell_length_b 5.177916
_cell_length_c 9.577133
_cell_angle_alpha 90.000000
_cell_angle_beta 37.116554
_cell_angle_gamma 90.000000
_cell_volume 583.805106
_symmetry_space_group_name_H-M "P 2"
_symmetry_group_IT_number 3
_symmetry_cell_setting 'monoclinic'
loop_
_space_group_symop_operation_xyz
x,y,z
-x,y,-z
loop_
_atom_site_type_symbol
_atom_site_label
_atom_site_fract_x
_atom_site_fract_y
_atom_site_fract_z
Si Si1 0.168270 0.641370 0.570779
Si Si2 0.933989 0.129172 0.385229
Si Si3 0.621887 0.926897 0.266246
Si Si4 0.518382 0.226957 0.809029
Si Si5 0.834937 0.239891 0.842125
Si Si6 0.316476 0.575662 0.068304
Si Si7 0.656421 0.723934 0.494874
O O1 0.122460 0.353785 0.616803
O O2 0.273262 0.664554 0.289079
O O3 0.219047 0.701763 0.639717
O O4 0.077234 0.856688 0.673426
O O5 0.867680 0.103376 0.641555
O O6 0.057816 0.223429 0.231679
O O7 0.500000 0.049969 0.500000
O O8 0.647401 0.712478 0.342711
O O9 0.614491 0.785851 0.129612
O O10 0.728003 0.114703 0.091481
O O11 0.588797 0.489273 0.673207
O O12 0.597937 0.998046 0.624175
O O13 0.500000 0.166976 0.000000
O O14 0.394442 0.319304 0.953553
O O15 0.793595 0.514082 0.848579
#
# Coordination Sequence:
#
# PCOD9113922 Si02
#       7
#     2   2   2   2   2   2   2
#     4  11  23  44  71 103 131 182 240 297 340 407
#     4  10  23  44  75 103 132 177 251 297 343 393
#     4  12  25  43  68 104 150 186 226 280 363 440
#     4  12  25  43  71 100 141 187 241 281 342 417
#     4  10  24  41  71 103 139 181 235 301 347 405
#     4  11  24  41  70 101 139 187 233 286 349 422
#     4  12  27  43  68 103 145 185 227 289 351 419
#
# _framework density 23.980606000000002
#
# number of rings (size 3 to 8) (size 9 to 14) (size 15 to 20)
#    0.000    0.857    4.286    2.143    6.000    1.714 
#    0.000    0.714    0.000    0.000    0.000    0.000 
#    0.000    0.000    0.000    0.000    0.000    0.000 
#
# Total GULP energy -78325.979160 kJ/mol
# GULP energy per Si atom -5594.712797 kJ/mol
# Density = 2.392603 g / cm^3
# Si number density = 23.980606 Si / 1000 Ang^3
#
#
#
# Elastic Constant Matrix: (Units=GPa)
#
#
# Indices 1 2 3 4 5 6 
#
# 1 100.2087 12.6354 9.3028 0.0000 -25.8148 0.0000
# 2 12.6354 94.2460 3.5927 0.0000 -9.9413 0.0000
# 3 9.3028 3.5927 61.2336 0.0000 -20.9228 0.0000
# 4 0.0000 0.0000 0.0000 18.4453 0.0000 -1.1793
# 5 -25.8148 -9.9413 -20.9228 0.0000 28.1923 0.0000
# 6 0.0000 0.0000 0.0000 -1.1793 0.0000 29.3079
#
#
#
# Elastic Compliance Matrix: (Units=1/GPa)
#
#
# Indices 1 2 3 4 5 6 
#
# 1 0.013447 -0.000404 0.002866 0.000000 0.014298 0.000000
# 2 -0.000404 0.011071 0.000830 0.000000 0.004150 0.000000
# 3 0.002866 0.000830 0.022566 0.000000 0.019664 0.000000
# 4 0.000000 0.000000 0.000000 0.054354 0.000000 0.002187
# 5 0.014298 0.004150 0.019664 0.000000 0.064620 0.000000
# 6 0.000000 0.000000 0.000000 0.002187 0.000000 0.034209
#
#
# Mechanical properties :
#
#
# Convention : Reuss Voigt Hill
#
# Bulk Modulus (GPa) = 18.63309 34.08336 26.35822
# Shear Modulus (GPa) = 23.63262 30.53291 27.08277
#
# Velocity S-wave (km/s) = 3.14266 3.57211 3.36424
# Velocity P-wave (km/s) = 4.57770 5.59080 5.10942
#
# Compressibility (1/GPa) = 0.05366797
#
# Stress axis : x y z
#
# Youngs Moduli (GPa) = 74.36412 90.32783 44.31484
#
# Poissons Ratio (x) = 0.03649 -0.12701
# Poissons Ratio (y) = 0.03004 -0.03677
# Poissons Ratio (z) = -0.21314 -0.07495
#
# Static dielectric constant tensor:
#      x y z
#    x 1.963130 0.000000 -0.014240 
#    y 0.000000 1.888680 0.000000 
#    z -0.014240 0.000000 1.947880 
# 
# From -- ./inp_files/8799.got.cif
#   From: 2010.05.17/outbox.cif.g08.bks.cpg/sg3_5_cif.got.tgz:8799.got - 2010.06.03 18:33:08.
