data_PCOD9113741
_publ_section_title
;
Structure prediction by ZEFSAII (Michael W. Deem and Ramdas Pophale) SiO2 
 PCOD9113741
Probable space group: P 2
;
_chemical_formula_sum "Si O2"
_cell_formula_units_Z 13
_cell_length_a 4.996464
_cell_length_b 8.332799
_cell_length_c 12.650604
_cell_angle_alpha 90.000000
_cell_angle_beta 88.700837
_cell_angle_gamma 90.000000
_cell_volume 526.566561
_symmetry_space_group_name_H-M "P 2"
_symmetry_group_IT_number 3
_symmetry_cell_setting 'monoclinic'
loop_
_space_group_symop_operation_xyz
x,y,z
-x,y,-z
loop_
_atom_site_type_symbol
_atom_site_label
_atom_site_fract_x
_atom_site_fract_y
_atom_site_fract_z
Si Si1 0.037430 0.005680 0.877947
Si Si2 0.334337 0.541881 0.793533
Si Si3 0.232775 0.398607 0.575934
Si Si4 0.755546 0.032618 0.427057
Si Si5 0.000000 0.565477 0.000000
Si Si6 0.539699 0.874429 0.764568
Si Si7 0.337622 0.293151 0.095184
O O1 0.920540 0.187088 0.876523
O O2 0.837930 0.930916 0.791133
O O3 0.342148 0.969229 0.846493
O O4 0.000000 0.945559 0.000000
O O5 0.217141 0.508663 0.679432
O O6 0.142180 0.616332 0.887736
O O7 0.543941 0.684860 0.778874
O O8 0.469464 0.368857 0.819296
O O9 0.500000 0.409752 0.500000
O O10 0.172837 0.212951 0.612594
O O11 0.000000 0.447377 0.500000
O O12 0.500000 0.066456 0.500000
O O13 0.000000 0.974165 0.500000
O O14 0.619781 0.918336 0.341118
O O15 0.769164 0.454100 0.956687
O O16 0.500000 0.207542 0.000000
#
# Coordination Sequence:
#
# PCOD9113741 Si02
#       7
#     2   2   2   2   1   2   2
#     4  12  26  44  69 101 141 186 248 293 355 424
#     4  11  27  44  70 104 151 190 245 292 376 439
#     4  10  24  43  73 105 135 183 242 307 355 426
#     4  10  22  45  71 101 136 180 239 300 362 424
#     4  10  24  42  70  98 138 192 232 300 348 422
#     4  12  28  43  69 106 143 195 224 303 367 443
#     4  10  22  43  68  98 132 189 245 296 347 416
#
# _framework density 24.688236
#
# number of rings (size 3 to 8) (size 9 to 14) (size 15 to 20)
#    0.000    1.231    0.769    3.231    9.692    4.923 
#    0.000    0.000    0.000    0.000    0.000    0.000 
#    0.000    0.000    0.000    0.000    0.000    0.000 
#
# Total GULP energy -72485.291633 kJ/mol
# GULP energy per Si atom -5575.791664 kJ/mol
# Density = 2.463204 g / cm^3
# Si number density = 24.688236 Si / 1000 Ang^3
#
#
#
# Elastic Constant Matrix: (Units=GPa)
#
#
# Indices 1 2 3 4 5 6 
#
# 1 91.2703 -0.7847 15.6271 0.0000 24.6564 0.0000
# 2 -0.7847 69.4664 29.9791 0.0000 7.2394 0.0000
# 3 15.6271 29.9791 116.7505 0.0000 28.2665 0.0000
# 4 0.0000 0.0000 0.0000 34.3427 0.0000 0.6578
# 5 24.6564 7.2394 28.2665 0.0000 43.1029 0.0000
# 6 0.0000 0.0000 0.0000 0.6578 0.0000 19.7305
#
#
#
# Elastic Compliance Matrix: (Units=1/GPa)
#
#
# Indices 1 2 3 4 5 6 
#
# 1 0.013022 0.001009 -0.000187 0.000000 -0.007496 0.000000
# 2 0.001009 0.016268 -0.004174 0.000000 -0.000572 0.000000
# 3 -0.000187 -0.004174 0.011253 0.000000 -0.006572 0.000000
# 4 0.000000 0.000000 0.000000 0.029137 0.000000 -0.000971
# 5 -0.007496 -0.000572 -0.006572 0.000000 0.031894 0.000000
# 6 0.000000 0.000000 0.000000 -0.000971 0.000000 0.050715
#
#
# Mechanical properties :
#
#
# Convention : Reuss Voigt Hill
#
# Bulk Modulus (GPa) = 29.55151 40.79221 35.17186
# Shear Modulus (GPa) = 29.36466 34.94626 32.15546
#
# Velocity S-wave (km/s) = 3.45254 3.76640 3.61288
# Velocity P-wave (km/s) = 5.28102 5.95593 5.62860
#
# Compressibility (1/GPa) = 0.03383922
#
# Stress axis : x y z
#
# Youngs Moduli (GPa) = 76.79199 61.47148 88.86437
#
# Poissons Ratio (x) = -0.06203 0.01665
# Poissons Ratio (y) = -0.07749 0.37089
# Poissons Ratio (z) = 0.01439 0.25656
#
# Static dielectric constant tensor:
#      x y z
#    x 1.962040 0.000000 -0.010710 
#    y 0.000000 2.018500 0.000000 
#    z -0.010710 0.000000 2.001940 
# 
# From -- ./inp_files/9872.got.cif
#   From: 2010.05.17/outbox.cif.g08.bks.cpg/sg3_5_cif.got.tgz:9872.got - 2010.06.03 18:33:08.
