data_PCOD9113680
_publ_section_title
;
Structure prediction by ZEFSAII (Michael W. Deem and Ramdas Pophale) SiO2 
 PCOD9113680
Probable space group: P 2
;
_chemical_formula_sum "Si O2"
_cell_formula_units_Z 16
_cell_length_a 17.580266
_cell_length_b 6.040612
_cell_length_c 7.381881
_cell_angle_alpha 90.000000
_cell_angle_beta 129.950220
_cell_angle_gamma 90.000000
_cell_volume 600.957451
_symmetry_space_group_name_H-M "P 2"
_symmetry_group_IT_number 3
_symmetry_cell_setting 'monoclinic'
loop_
_space_group_symop_operation_xyz
x,y,z
-x,y,-z
loop_
_atom_site_type_symbol
_atom_site_label
_atom_site_fract_x
_atom_site_fract_y
_atom_site_fract_z
Si Si1 0.731795 0.024140 0.960686
Si Si2 0.089795 0.644241 0.012017
Si Si3 0.060119 0.263891 0.762459
Si Si4 0.522112 0.554328 0.821035
Si Si5 0.139190 0.289030 0.373196
Si Si6 0.259112 0.637707 0.762883
Si Si7 0.734736 0.913722 0.584536
Si Si8 0.479373 0.065967 0.186440
O O1 0.826365 0.184556 0.076785
O O2 0.637049 0.079828 0.942322
O O3 0.776443 0.821152 0.149109
O O4 0.679109 0.992491 0.680729
O O5 0.134358 0.430785 0.183267
O O6 0.172222 0.823249 0.157137
O O7 0.058614 0.531783 0.780024
O O8 0.000000 0.715212 0.000000
O O9 0.000000 0.179978 0.500000
O O10 0.971686 0.197965 0.768698
O O11 0.641547 0.549366 0.990520
O O12 0.481597 0.313510 0.690794
O O13 0.493751 0.807119 0.715682
O O14 0.500000 0.551118 0.000000
O O15 0.177038 0.456549 0.585772
O O16 0.224302 0.112411 0.472844
O O17 0.291332 0.737152 0.612150
O O18 0.500000 0.063786 0.000000
#
# Coordination Sequence:
#
# PCOD9113680 Si02
#       8
#     2   2   2   2   2   2   2   2
#     4  11  24  41  70 101 131 185 237 295 351 432
#     4   9  21  38  57  84 126 183 228 282 351 405
#     4  11  23  37  59  93 135 180 233 292 343 423
#     4   9  19  38  71 103 132 177 226 281 359 431
#     4  10  22  42  60  86 136 183 227 288 348 411
#     4  10  24  42  66 100 135 180 236 289 357 430
#     4  11  23  41  65  92 130 185 231 288 345 420
#     4   9  20  40  68 104 132 176 227 282 356 427
#
# _framework density 26.624182000000001
#
# number of rings (size 3 to 8) (size 9 to 14) (size 15 to 20)
#    0.000    2.000    1.250    0.750    8.750    1.000 
#    2.250    0.000    0.000   12.000    0.000    0.000 
#    0.000    0.000    0.000    0.000    0.000    0.000 
#
# Total GULP energy -89076.042685 kJ/mol
# GULP energy per Si atom -5567.252668 kJ/mol
# Density = 2.656358 g / cm^3
# Si number density = 26.624182 Si / 1000 Ang^3
#
#
#
# Elastic Constant Matrix: (Units=GPa)
#
#
# Indices 1 2 3 4 5 6 
#
# 1 144.0215 43.4131 44.2710 0.0000 -5.5570 0.0000
# 2 43.4131 152.8370 57.9611 0.0000 -2.8502 0.0000
# 3 44.2710 57.9611 75.5113 0.0000 -4.1671 0.0000
# 4 0.0000 0.0000 0.0000 57.4072 0.0000 4.7351
# 5 -5.5570 -2.8502 -4.1671 0.0000 44.7440 0.0000
# 6 0.0000 0.0000 0.0000 4.7351 0.0000 28.0973
#
#
#
# Elastic Compliance Matrix: (Units=1/GPa)
#
#
# Indices 1 2 3 4 5 6 
#
# 1 0.008545 -0.000746 -0.004404 0.000000 0.000604 0.000000
# 2 -0.000746 0.009295 -0.006704 0.000000 -0.000125 0.000000
# 3 -0.004404 -0.006704 0.021026 0.000000 0.000984 0.000000
# 4 0.000000 0.000000 0.000000 0.017665 0.000000 -0.002977
# 5 0.000604 -0.000125 0.000984 0.000000 0.022508 0.000000
# 6 0.000000 0.000000 0.000000 -0.002977 0.000000 0.036092
#
#
# Mechanical properties :
#
#
# Convention : Reuss Voigt Hill
#
# Bulk Modulus (GPa) = 65.97497 73.74003 69.85750
# Shear Modulus (GPa) = 34.74829 41.16469 37.95649
#
# Velocity S-wave (km/s) = 3.61659 3.93636 3.77986
# Velocity P-wave (km/s) = 6.50181 6.95821 6.73388
#
# Compressibility (1/GPa) = 0.01515726
#
# Stress axis : x y z
#
# Youngs Moduli (GPa) = 117.02312 107.58570 47.56121
#
# Poissons Ratio (x) = 0.08024 0.20947
# Poissons Ratio (y) = 0.08728 0.31886
# Poissons Ratio (z) = 0.51539 0.72128
#
# Static dielectric constant tensor:
#      x y z
#    x 2.087770 0.000000 -0.037090 
#    y 0.000000 2.208110 0.000000 
#    z -0.037090 0.000000 2.054490 
# 
# From -- ./inp_files/8927.got.cif
#   From: 2010.05.17/outbox.cif.g08.bks.cpg/sg3_5_cif.got.tgz:8927.got - 2010.06.03 18:33:08.
