data_PCOD9113534
_publ_section_title
;
Structure prediction by ZEFSAII (Michael W. Deem and Ramdas Pophale) SiO2 
 PCOD9113534
Probable space group: P 2
;
_chemical_formula_sum "Si O2"
_cell_formula_units_Z 12
_cell_length_a 9.217006
_cell_length_b 4.952974
_cell_length_c 11.944871
_cell_angle_alpha 90.000000
_cell_angle_beta 111.261385
_cell_angle_gamma 90.000000
_cell_volume 508.186815
_symmetry_space_group_name_H-M "P 2"
_symmetry_group_IT_number 3
_symmetry_cell_setting 'monoclinic'
loop_
_space_group_symop_operation_xyz
x,y,z
-x,y,-z
loop_
_atom_site_type_symbol
_atom_site_label
_atom_site_fract_x
_atom_site_fract_y
_atom_site_fract_z
Si Si1 0.198619 0.599880 0.976832
Si Si2 0.500000 0.370653 0.500000
Si Si3 0.785121 0.791401 0.772577
Si Si4 0.569242 0.836628 0.376958
Si Si5 0.975169 0.304390 0.770639
Si Si6 0.251074 0.992419 0.784707
Si Si7 0.500000 0.304562 0.000000
O O1 0.080609 0.361637 0.910669
O O2 0.194159 0.793499 0.867427
O O3 0.372237 0.481177 0.027683
O O4 0.168893 0.742376 0.085325
O O5 0.614821 0.608843 0.480939
O O6 0.535964 0.138664 0.415207
O O7 0.601602 0.745778 0.713106
O O8 0.881639 0.578011 0.726371
O O9 0.841994 0.084561 0.752912
O O10 0.690663 0.850232 0.310377
O O11 0.107253 0.195917 0.723960
O O12 0.401370 0.136527 0.882266
#
# Coordination Sequence:
#
# PCOD9113534 Si02
#       7
#     2   1   2   2   2   2   1
#     4  11  24  38  61 101 147 189 221 258 310 407
#     4  10  26  48  72 108 116 160 228 310 366 386
#     4  12  25  41  67 100 143 187 224 267 325 402
#     4  11  25  47  77  96 132 166 230 298 349 405
#     4  11  26  39  61 100 149 188 223 255 321 399
#     4  11  24  42  64 100 139 186 223 275 329 404
#     4  10  22  36  60 102 140 176 234 262 314 398
#
# _framework density 23.613364000000001
#
# number of rings (size 3 to 8) (size 9 to 14) (size 15 to 20)
#    0.000    1.000    1.667    4.000   16.333    0.000 
#    0.000    0.000    0.000   15.000    0.000    0.000 
#    0.000    0.000    0.000    0.000    0.000    0.000 
#
# Total GULP energy -66946.732860 kJ/mol
# GULP energy per Si atom -5578.894405 kJ/mol
# Density = 2.355962 g / cm^3
# Si number density = 23.613364 Si / 1000 Ang^3
#
#
#
# Elastic Constant Matrix: (Units=GPa)
#
#
# Indices 1 2 3 4 5 6 
#
# 1 86.2080 16.5093 14.3423 0.0000 3.2570 0.0000
# 2 16.5093 120.1968 19.8267 0.0000 -6.6356 0.0000
# 3 14.3423 19.8267 76.7969 0.0000 -18.6177 0.0000
# 4 0.0000 0.0000 0.0000 24.9701 0.0000 -3.9665
# 5 3.2570 -6.6356 -18.6177 0.0000 24.4027 0.0000
# 6 0.0000 0.0000 0.0000 -3.9665 0.0000 33.3493
#
#
#
# Elastic Compliance Matrix: (Units=1/GPa)
#
#
# Indices 1 2 3 4 5 6 
#
# 1 0.012550 -0.001466 -0.003028 0.000000 -0.004384 0.000000
# 2 -0.001466 0.008874 -0.001699 0.000000 0.001313 0.000000
# 3 -0.003028 -0.001699 0.017191 0.000000 0.013058 0.000000
# 4 0.000000 0.000000 0.000000 0.040819 0.000000 0.004855
# 5 -0.004384 0.001313 0.013058 0.000000 0.051884 0.000000
# 6 0.000000 0.000000 0.000000 0.004855 0.000000 0.030563
#
#
# Mechanical properties :
#
#
# Convention : Reuss Voigt Hill
#
# Bulk Modulus (GPa) = 38.12668 42.72871 40.42769
# Shear Modulus (GPa) = 27.32091 32.04596 29.68343
#
# Velocity S-wave (km/s) = 3.40518 3.68790 3.54935
# Velocity P-wave (km/s) = 5.62508 6.02234 5.82710
#
# Compressibility (1/GPa) = 0.02622835
#
# Stress axis : x y z
#
# Youngs Moduli (GPa) = 79.68080 112.69139 58.16976
#
# Poissons Ratio (x) = 0.16524 0.17614
# Poissons Ratio (y) = 0.11684 0.09883
# Poissons Ratio (z) = 0.24128 0.19145
#
# Static dielectric constant tensor:
#      x y z
#    x 1.935220 0.000000 0.034390 
#    y 0.000000 1.949170 0.000000 
#    z 0.034390 0.000000 1.948300 
# 
# From -- ./inp_files/10183.got.cif
#   From: 2010.05.17/outbox.cif.g08.bks.cpg/sg3_6_cif.got.tgz:10183.got - 2010.06.03 18:33:08.
