data_PCOD9113865
_publ_section_title
;
Structure prediction by ZEFSAII (Michael W. Deem and Ramdas Pophale) SiO2 
 PCOD9113865
Probable space group: P 2
;
_chemical_formula_sum "Si O2"
_cell_formula_units_Z 13
_cell_length_a 17.451532
_cell_length_b 5.904941
_cell_length_c 4.953130
_cell_angle_alpha 90.000000
_cell_angle_beta 85.017205
_cell_angle_gamma 90.000000
_cell_volume 508.492396
_symmetry_space_group_name_H-M "P 2"
_symmetry_group_IT_number 3
_symmetry_cell_setting 'monoclinic'
loop_
_space_group_symop_operation_xyz
x,y,z
-x,y,-z
loop_
_atom_site_type_symbol
_atom_site_label
_atom_site_fract_x
_atom_site_fract_y
_atom_site_fract_z
Si Si1 0.753083 0.739300 0.538774
Si Si2 0.920227 0.424976 0.096508
Si Si3 0.500000 0.312130 0.000000
Si Si4 0.919675 0.742816 0.593135
Si Si5 0.753487 0.404697 0.039455
Si Si6 0.636145 0.035132 0.892057
Si Si7 0.449562 0.702704 0.686643
O O1 0.838171 0.850012 0.536974
O O2 0.752867 0.538283 0.758555
O O3 0.689773 0.916564 0.654038
O O4 0.545084 0.722296 0.638354
O O5 0.918794 0.646727 0.897335
O O6 0.839079 0.308649 0.068885
O O7 0.921821 0.520745 0.397723
O O8 0.000000 0.303212 0.000000
O O9 0.446334 0.460318 0.820010
O O10 0.562023 0.173871 0.809128
O O11 0.000000 0.866073 0.500000
O O12 0.693919 0.203379 0.033196
O O13 0.739026 0.603414 0.265626
O O14 0.597868 0.877809 0.134325
#
# Coordination Sequence:
#
# PCOD9113865 Si02
#       7
#     2   2   1   2   2   2   2
#     4  10  23  42  62 101 136 172 230 277 329 414
#     4   8  14  29  56  88 123 171 220 260 320 394
#     4  10  24  50  68  98 128 178 222 278 344 406
#     4   8  14  29  57  86 124 173 216 262 323 387
#     4  10  23  41  65  97 137 177 222 280 338 398
#     4  12  24  46  71 100 135 179 222 286 352 403
#     4  10  25  48  68  96 128 167 227 275 331 419
#
# _framework density 25.565771000000002
#
# number of rings (size 3 to 8) (size 9 to 14) (size 15 to 20)
#    0.462    1.846    0.769    0.923    0.000    5.538 
#    5.538    0.000    0.000   18.462    0.000    0.000 
#    0.000    0.000    0.000    0.000    0.000    0.000 
#
# Total GULP energy -72532.261802 kJ/mol
# GULP energy per Si atom -5579.404754 kJ/mol
# Density = 2.550758 g / cm^3
# Si number density = 25.565771 Si / 1000 Ang^3
#
#
#
# Elastic Constant Matrix: (Units=GPa)
#
#
# Indices 1 2 3 4 5 6 
#
# 1 213.4420 62.2069 22.5094 0.0000 -10.4852 0.0000
# 2 62.2069 58.2101 3.9783 0.0000 -10.0217 0.0000
# 3 22.5094 3.9783 87.6029 0.0000 -8.8421 0.0000
# 4 0.0000 0.0000 0.0000 18.7308 0.0000 0.3278
# 5 -10.4852 -10.0217 -8.8421 0.0000 37.6945 0.0000
# 6 0.0000 0.0000 0.0000 0.3278 0.0000 14.8805
#
#
#
# Elastic Compliance Matrix: (Units=1/GPa)
#
#
# Indices 1 2 3 4 5 6 
#
# 1 0.006991 -0.007435 -0.001497 0.000000 -0.000383 0.000000
# 2 -0.007435 0.025920 0.001250 0.000000 0.005116 0.000000
# 3 -0.001497 0.001250 0.012019 0.000000 0.002735 0.000000
# 4 0.000000 0.000000 0.000000 0.053409 0.000000 -0.001177
# 5 -0.000383 0.005116 0.002735 0.000000 0.028424 0.000000
# 6 0.000000 0.000000 0.000000 -0.001177 0.000000 0.067228
#
#
# Mechanical properties :
#
#
# Convention : Reuss Voigt Hill
#
# Bulk Modulus (GPa) = 33.82360 59.62713 46.72536
# Shear Modulus (GPa) = 22.80911 32.29851 27.55381
#
# Velocity S-wave (km/s) = 2.99017 3.55822 3.28649
# Velocity P-wave (km/s) = 5.01799 6.34467 5.71993
#
# Compressibility (1/GPa) = 0.02956516
#
# Stress axis : x y z
#
# Youngs Moduli (GPa) = 143.04077 38.58059 83.20013
#
# Poissons Ratio (x) = 0.28683 0.12458
# Poissons Ratio (y) = 1.06346 -0.10397
# Poissons Ratio (z) = 0.21419 -0.04821
#
# Static dielectric constant tensor:
#      x y z
#    x 2.193470 0.000000 0.074840 
#    y 0.000000 2.075060 0.000000 
#    z 0.074840 0.000000 1.943450 
# 
# From -- ./inp_files/3515.got.cif
#   From: 2010.05.17/outbox.cif.g08.bks.cpg/sg3_2_cif.got.tgz:3515.got - 2010.06.03 18:33:08.
