data_PCOD9113186
_publ_section_title
;
Structure prediction by ZEFSAII (Michael W. Deem and Ramdas Pophale) SiO2 
 PCOD9113186
Probable space group: P 2
;
_chemical_formula_sum "Si O2"
_cell_formula_units_Z 13
_cell_length_a 9.540049
_cell_length_b 8.103624
_cell_length_c 12.708641
_cell_angle_alpha 90.000000
_cell_angle_beta 37.634966
_cell_angle_gamma 90.000000
_cell_volume 599.937645
_symmetry_space_group_name_H-M "P 2"
_symmetry_group_IT_number 3
_symmetry_cell_setting 'monoclinic'
loop_
_space_group_symop_operation_xyz
x,y,z
-x,y,-z
loop_
_atom_site_type_symbol
_atom_site_label
_atom_site_fract_x
_atom_site_fract_y
_atom_site_fract_z
Si Si1 0.735720 0.727960 0.289634
Si Si2 0.006679 0.789851 0.657594
Si Si3 0.314689 0.100115 0.202463
Si Si4 0.770601 0.443310 0.823646
Si Si5 0.500000 0.164937 0.500000
Si Si6 0.449738 0.942851 0.331785
Si Si7 0.079866 0.371017 0.840454
O O1 0.500000 0.710268 0.500000
O O2 0.678966 0.845374 0.225778
O O3 0.815562 0.551966 0.202381
O O4 0.921642 0.794286 0.261816
O O5 0.888894 0.611730 0.713413
O O6 0.241666 0.811094 0.452104
O O7 0.856964 0.949256 0.718408
O O8 0.202441 0.281856 0.266413
O O9 0.440770 0.055277 0.235557
O O10 0.500000 0.102931 0.000000
O O11 0.883930 0.392699 0.868426
O O12 0.500000 0.475743 0.000000
O O13 0.286965 0.267979 0.668528
O O14 0.409656 0.054749 0.457977
O O15 0.000000 0.301595 0.000000
#
# Coordination Sequence:
#
# PCOD9113186 Si02
#       7
#     2   2   2   2   1   2   2
#     4   9  19  42  66  97 134 179 240 296 351 427
#     4  10  20  43  69  95 139 185 236 289 357 426
#     4  11  25  43  65 101 142 184 232 290 358 434
#     4  10  24  44  69 104 147 185 243 296 353 443
#     4  12  24  44  74 104 148 182 242 312 356 434
#     4  11  23  44  70  99 138 185 239 297 365 426
#     4  11  25  42  72 105 143 190 241 301 367 426
#
# _framework density 21.668915999999999
#
# number of rings (size 3 to 8) (size 9 to 14) (size 15 to 20)
#    0.000    1.538    3.077    1.846    4.308    3.692 
#    0.000    5.385    0.000    0.000    0.000    0.000 
#    0.000    0.000    0.000    0.000    0.000    0.000 
#
# Total GULP energy -72660.923261 kJ/mol
# GULP energy per Si atom -5589.301789 kJ/mol
# Density = 2.161960 g / cm^3
# Si number density = 21.668916 Si / 1000 Ang^3
#
#
#
# Elastic Constant Matrix: (Units=GPa)
#
#
# Indices 1 2 3 4 5 6 
#
# 1 119.2250 78.5604 49.5577 0.0000 5.3149 0.0000
# 2 78.5604 150.8956 32.6742 0.0000 1.5762 0.0000
# 3 49.5577 32.6742 70.4334 0.0000 9.1099 0.0000
# 4 0.0000 0.0000 0.0000 -26.7755 0.0000 -4.2104
# 5 5.3149 1.5762 9.1099 0.0000 25.7372 0.0000
# 6 0.0000 0.0000 0.0000 -4.2104 0.0000 34.8193
#
#
#
# Elastic Compliance Matrix: (Units=1/GPa)
#
#
# Indices 1 2 3 4 5 6 
#
# 1 0.016232 -0.006645 -0.008339 0.000000 0.000007 0.000000
# 2 -0.006645 0.010103 -0.000114 0.000000 0.000794 0.000000
# 3 -0.008339 -0.000114 0.020849 0.000000 -0.005651 0.000000
# 4 0.000000 0.000000 0.000000 -0.036651 0.000000 -0.004432
# 5 0.000007 0.000794 -0.005651 0.000000 0.040804 0.000000
# 6 0.000000 0.000000 0.000000 -0.004432 0.000000 0.028184
#
#
# Mechanical properties :
#
#
# Convention : Reuss Voigt Hill
#
# Bulk Modulus (GPa) = 58.86628 73.57096 66.21862
# Shear Modulus (GPa) = 43.33439 18.74032 31.03735
#
# Velocity S-wave (km/s) = 4.47681 2.94402 3.78874
# Velocity P-wave (km/s) = 7.34491 6.75147 7.05443
#
# Compressibility (1/GPa) = 0.01698765
#
# Stress axis : x y z
#
# Youngs Moduli (GPa) = 61.60538 98.97863 47.96357
#
# Poissons Ratio (x) = 0.65774 0.39999
# Poissons Ratio (y) = 0.40939 0.00546
# Poissons Ratio (z) = 0.51375 0.01127
#
# Static dielectric constant tensor:
#      x y z
#    x 1.822250 0.000000 -0.020870 
#    y 0.000000 1.804340 0.000000 
#    z -0.020870 0.000000 1.826170 
# 
# From -- ./inp_files/10657.got.cif
#   From: 2010.05.17/outbox.cif.g08.bks.cpg/sg3_6_cif.got.tgz:10657.got - 2010.06.03 18:33:08.
