data_PCOD9113993
_publ_section_title
;
Structure prediction by ZEFSAII (Michael W. Deem and Ramdas Pophale) SiO2 
 PCOD9113993
Probable space group: P 2
;
_chemical_formula_sum "Si O2"
_cell_formula_units_Z 13
_cell_length_a 12.465835
_cell_length_b 8.905732
_cell_length_c 5.107006
_cell_angle_alpha 90.000000
_cell_angle_beta 82.840821
_cell_angle_gamma 90.000000
_cell_volume 562.546239
_symmetry_space_group_name_H-M "P 2"
_symmetry_group_IT_number 3
_symmetry_cell_setting 'monoclinic'
loop_
_space_group_symop_operation_xyz
x,y,z
-x,y,-z
loop_
_atom_site_type_symbol
_atom_site_label
_atom_site_fract_x
_atom_site_fract_y
_atom_site_fract_z
Si Si1 0.500000 0.475600 0.500000
Si Si2 0.710348 0.965630 0.497702
Si Si3 0.068960 0.119305 0.741447
Si Si4 0.114051 0.435108 0.601486
Si Si5 0.377128 0.112134 0.953081
Si Si6 0.706197 0.643887 0.217324
Si Si7 0.312305 0.412126 0.179649
O O1 0.590321 0.574034 0.330085
O O2 0.421081 0.394198 0.319153
O O3 0.705826 0.799874 0.372759
O O4 0.825287 0.029340 0.368512
O O5 0.686366 0.007072 0.809980
O O6 0.627602 0.054723 0.340087
O O7 0.094845 0.293168 0.794604
O O8 0.000000 0.125611 0.500000
O O9 0.000000 0.052886 0.000000
O O10 0.182632 0.563928 0.722840
O O11 0.202579 0.376948 0.365770
O O12 0.000000 0.478332 0.500000
O O13 0.327940 0.280069 0.966192
O O14 0.500000 0.110503 0.000000
O O15 0.701721 0.584648 0.915763
#
# Coordination Sequence:
#
# PCOD9113993 Si02
#       7
#     1   2   2   2   2   2   2
#     4  10  24  44  70  98 140 182 238 290 370 414
#     4  12  28  47  69 109 152 189 239 299 373 451
#     4  11  24  46  74 104 141 191 240 305 365 430
#     4  10  24  43  73 100 138 180 248 297 360 422
#     4  12  27  45  75 106 146 190 246 301 363 440
#     4  11  26  43  71 102 146 190 236 297 367 438
#     4  11  24  46  74 103 137 189 246 310 350 438
#
# _framework density 23.109210000000001
#
# number of rings (size 3 to 8) (size 9 to 14) (size 15 to 20)
#    0.000    0.923    1.538    3.692   17.231    0.615 
#    2.769    0.000    0.000    0.000    0.000    0.000 
#    0.000    0.000    0.000    0.000    0.000    0.000 
#
# Total GULP energy -72508.180573 kJ/mol
# GULP energy per Si atom -5577.552352 kJ/mol
# Density = 2.305661 g / cm^3
# Si number density = 23.109210 Si / 1000 Ang^3
#
#
#
# Elastic Constant Matrix: (Units=GPa)
#
#
# Indices 1 2 3 4 5 6 
#
# 1 173.5349 15.5639 20.0978 0.0000 3.7504 0.0000
# 2 15.5639 84.4847 16.0626 0.0000 -0.6610 0.0000
# 3 20.0978 16.0626 77.5801 0.0000 -9.7744 0.0000
# 4 0.0000 0.0000 0.0000 -184.0859 0.0000 112.7579
# 5 3.7504 -0.6610 -9.7744 0.0000 51.3189 0.0000
# 6 0.0000 0.0000 0.0000 112.7579 0.0000 -38.1376
#
#
#
# Elastic Compliance Matrix: (Units=1/GPa)
#
#
# Indices 1 2 3 4 5 6 
#
# 1 0.006025 -0.000834 -0.001480 0.000000 -0.000733 0.000000
# 2 -0.000834 0.012443 -0.002390 0.000000 -0.000234 0.000000
# 3 -0.001480 -0.002390 0.014117 0.000000 0.002766 0.000000
# 4 0.000000 0.000000 0.000000 0.006698 0.000000 0.019804
# 5 -0.000733 -0.000234 0.002766 0.000000 0.020063 0.000000
# 6 0.000000 0.000000 0.000000 0.019804 0.000000 0.032331
#
#
# Mechanical properties :
#
#
# Convention : Reuss Voigt Hill
#
# Bulk Modulus (GPa) = 43.14859 48.78317 45.96588
# Shear Modulus (GPa) = 45.95162 -15.25590 15.34786
#
# Velocity S-wave (km/s) = 4.46405 -2.57216 2.57990
# Velocity P-wave (km/s) = 6.72922 3.51203 5.36734
#
# Compressibility (1/GPa) = 0.02317573
#
# Stress axis : x y z
#
# Youngs Moduli (GPa) = 165.98524 80.36897 70.83823
#
# Poissons Ratio (x) = 0.06704 0.10487
# Poissons Ratio (y) = 0.13846 0.16927
# Poissons Ratio (z) = 0.24572 0.19205
#
# Static dielectric constant tensor:
#      x y z
#    x 2.223340 0.000000 0.504330 
#    y 0.000000 1.915200 0.000000 
#    z 0.504330 0.000000 2.545550 
# 
# From -- ./inp_files/2160.got.cif
#   From: 2010.05.17/outbox.cif.g08.bks.cpg/sg3_2_cif.got.tgz:2160.got - 2010.06.03 18:33:08.
