data_PCOD9113177
_publ_section_title
;
Structure prediction by ZEFSAII (Michael W. Deem and Ramdas Pophale) SiO2 
 PCOD9113177
Probable space group: P 2
;
_chemical_formula_sum "Si O2"
_cell_formula_units_Z 13
_cell_length_a 9.892328
_cell_length_b 5.254863
_cell_length_c 15.769853
_cell_angle_alpha 90.000000
_cell_angle_beta 131.703441
_cell_angle_gamma 90.000000
_cell_volume 612.032531
_symmetry_space_group_name_H-M "P 2"
_symmetry_group_IT_number 3
_symmetry_cell_setting 'monoclinic'
loop_
_space_group_symop_operation_xyz
x,y,z
-x,y,-z
loop_
_atom_site_type_symbol
_atom_site_label
_atom_site_fract_x
_atom_site_fract_y
_atom_site_fract_z
Si Si1 0.702373 0.142810 0.778675
Si Si2 0.759184 0.358284 0.632856
Si Si3 0.044395 0.961278 0.690331
Si Si4 0.000000 0.477444 0.000000
Si Si5 0.212242 0.629323 0.513031
Si Si6 0.306041 0.130851 0.658659
Si Si7 0.989727 0.739746 0.836633
O O1 0.640965 0.250653 0.660401
O O2 0.521923 0.138065 0.758102
O O3 0.849150 0.310424 0.890321
O O4 0.813575 0.891156 0.798444
O O5 0.686058 0.550398 0.531757
O O6 0.913580 0.505777 0.750441
O O7 0.863655 0.132369 0.627749
O O8 0.196718 0.098910 0.700009
O O9 0.981524 0.718988 0.606939
O O10 0.094407 0.896781 0.808416
O O11 0.087452 0.647701 0.961998
O O12 0.229782 0.381706 0.579443
O O13 0.276999 0.876196 0.590410
#
# Coordination Sequence:
#
# PCOD9113177 Si02
#       7
#     2   2   2   1   2   2   2
#     4  10  23  43  63 103 128 171 222 292 331 396
#     4   9  20  41  61  90 134 178 223 264 331 390
#     4  10  22  41  65  95 138 178 227 263 328 401
#     4  10  20  42  76  90 130 168 230 274 366 394
#     4  11  24  40  59  94 137 189 219 259 323 392
#     4  12  27  38  67  98 141 176 230 270 321 392
#     4   9  20  40  71  93 124 174 222 276 344 403
#
# _framework density 21.240701999999999
#
# number of rings (size 3 to 8) (size 9 to 14) (size 15 to 20)
#    0.000    1.846    1.538    0.923   10.769    0.615 
#    5.538    0.000    0.000   22.154    0.000    0.000 
#    0.000    0.000    0.000    0.000    0.000    0.000 
#
# Total GULP energy -72457.604732 kJ/mol
# GULP energy per Si atom -5573.661902 kJ/mol
# Density = 2.119236 g / cm^3
# Si number density = 21.240702 Si / 1000 Ang^3
#
#
#
# Elastic Constant Matrix: (Units=GPa)
#
#
# Indices 1 2 3 4 5 6 
#
# 1 129.5354 32.0430 54.9824 0.0000 -6.9966 0.0000
# 2 32.0430 109.0240 42.8679 0.0000 -16.0865 0.0000
# 3 54.9824 42.8679 83.8621 0.0000 -24.2937 0.0000
# 4 0.0000 0.0000 0.0000 25.8577 0.0000 -17.2965
# 5 -6.9966 -16.0865 -24.2937 0.0000 20.3231 0.0000
# 6 0.0000 0.0000 0.0000 -17.2965 0.0000 26.9361
#
#
#
# Elastic Compliance Matrix: (Units=1/GPa)
#
#
# Indices 1 2 3 4 5 6 
#
# 1 0.011493 -0.000855 -0.009405 0.000000 -0.007962 0.000000
# 2 -0.000855 0.011678 -0.004309 0.000000 0.003799 0.000000
# 3 -0.009405 -0.004309 0.028096 0.000000 0.026937 0.000000
# 4 0.000000 0.000000 0.000000 0.067791 0.000000 0.043531
# 5 -0.007962 0.003799 0.026937 0.000000 0.081671 0.000000
# 6 0.000000 0.000000 0.000000 0.043531 0.000000 0.065077
#
#
# Mechanical properties :
#
#
# Convention : Reuss Voigt Hill
#
# Bulk Modulus (GPa) = 45.18532 64.68977 54.93755
# Shear Modulus (GPa) = 16.53871 27.45862 21.99867
#
# Velocity S-wave (km/s) = 2.79343 3.59936 3.22170
# Velocity P-wave (km/s) = 5.63236 6.91344 6.30552
#
# Compressibility (1/GPa) = 0.02213108
#
# Stress axis : x y z
#
# Youngs Moduli (GPa) = 87.00735 85.62969 35.59201
#
# Poissons Ratio (x) = 0.07320 0.33474
# Poissons Ratio (y) = 0.07437 0.15335
# Poissons Ratio (z) = 0.81830 0.36894
#
# Static dielectric constant tensor:
#      x y z
#    x 1.801700 0.000000 -0.014480 
#    y 0.000000 1.874480 0.000000 
#    z -0.014480 0.000000 1.762840 
# 
# From -- ./inp_files/9279.got.cif
#   From: 2010.05.17/outbox.cif.g08.bks.cpg/sg3_5_cif.got.tgz:9279.got - 2010.06.03 18:33:08.
