data_PCOD9113306
_publ_section_title
;
Structure prediction by ZEFSAII (Michael W. Deem and Ramdas Pophale) SiO2 
 PCOD9113306
Probable space group: P 2
;
_chemical_formula_sum "Si O2"
_cell_formula_units_Z 14
_cell_length_a 8.816222
_cell_length_b 7.703164
_cell_length_c 9.385692
_cell_angle_alpha 90.000000
_cell_angle_beta 87.249071
_cell_angle_gamma 90.000000
_cell_volume 636.674116
_symmetry_space_group_name_H-M "P 2"
_symmetry_group_IT_number 3
_symmetry_cell_setting 'monoclinic'
loop_
_space_group_symop_operation_xyz
x,y,z
-x,y,-z
loop_
_atom_site_type_symbol
_atom_site_label
_atom_site_fract_x
_atom_site_fract_y
_atom_site_fract_z
Si Si1 0.387478 0.291470 0.141101
Si Si2 0.658768 0.683435 0.436507
Si Si3 0.854136 0.175541 0.068875
Si Si4 0.610414 0.019152 0.249982
Si Si5 0.873037 0.559233 0.183338
Si Si6 0.344069 0.765707 0.007164
Si Si7 0.211748 0.635217 0.268308
O O1 0.483152 0.169798 0.246950
O O2 0.307795 0.460393 0.217806
O O3 0.500000 0.318943 0.000000
O O4 0.253428 0.192084 0.064144
O O5 0.500000 0.607371 0.500000
O O6 0.743824 0.574594 0.310881
O O7 0.765438 0.682535 0.569141
O O8 0.618327 0.873153 0.371388
O O9 0.776181 0.099725 0.213593
O O10 0.891120 0.369614 0.117713
O O11 0.000000 0.079283 0.000000
O O12 0.602301 0.914593 0.101543
O O13 0.035516 0.615838 0.236449
O O14 0.799022 0.675662 0.062507
O O15 0.289740 0.785917 0.170131
O O16 0.500000 0.656591 0.000000
#
# Coordination Sequence:
#
# PCOD9113306 Si02
#       7
#     2   2   2   2   2   2   2
#     4  10  21  38  70 109 136 182 234 305 351 411
#     4  11  27  46  67  96 139 198 238 288 351 424
#     4  11  20  39  69 109 141 175 227 296 366 414
#     4  10  25  43  64 101 146 178 241 290 353 429
#     4  11  23  42  68 108 140 177 243 297 353 428
#     4  11  21  39  70 105 137 180 235 304 344 408
#     4  12  22  41  74 102 140 189 241 295 354 422
#
# _framework density 21.989270000000001
#
# number of rings (size 3 to 8) (size 9 to 14) (size 15 to 20)
#    0.000    1.143    2.857    4.286    6.000    2.286 
#    2.571    1.429    0.000    0.000    0.000    0.000 
#    0.000    0.000    0.000    0.000    0.000    0.000 
#
# Total GULP energy -78048.893634 kJ/mol
# GULP energy per Si atom -5574.920974 kJ/mol
# Density = 2.193922 g / cm^3
# Si number density = 21.989270 Si / 1000 Ang^3
#
#
#
# Elastic Constant Matrix: (Units=GPa)
#
#
# Indices 1 2 3 4 5 6 
#
# 1 122.0054 24.2967 20.7741 0.0000 -2.4065 0.0000
# 2 24.2967 67.6009 24.1003 0.0000 1.1261 0.0000
# 3 20.7741 24.1003 108.7646 0.0000 -5.7112 0.0000
# 4 0.0000 0.0000 0.0000 47.5538 0.0000 -15.2933
# 5 -2.4065 1.1261 -5.7112 0.0000 43.5984 0.0000
# 6 0.0000 0.0000 0.0000 -15.2933 0.0000 27.1531
#
#
#
# Elastic Compliance Matrix: (Units=1/GPa)
#
#
# Indices 1 2 3 4 5 6 
#
# 1 0.008952 -0.002848 -0.001056 0.000000 0.000429 0.000000
# 2 -0.002848 0.017002 -0.003277 0.000000 -0.001026 0.000000
# 3 -0.001056 -0.003277 0.010194 0.000000 0.001362 0.000000
# 4 0.000000 0.000000 0.000000 0.025680 0.000000 0.014464
# 5 0.000429 -0.001026 0.001362 0.000000 0.023165 0.000000
# 6 0.000000 0.000000 0.000000 0.014464 0.000000 0.044975
#
#
# Mechanical properties :
#
#
# Convention : Reuss Voigt Hill
#
# Bulk Modulus (GPa) = 45.90447 48.52370 47.21409
# Shear Modulus (GPa) = 32.98336 38.94104 35.96220
#
# Velocity S-wave (km/s) = 3.87715 4.21278 4.04845
# Velocity P-wave (km/s) = 6.40033 6.76597 6.58569
#
# Compressibility (1/GPa) = 0.02178437
#
# Stress axis : x y z
#
# Youngs Moduli (GPa) = 111.70889 58.81747 98.10114
#
# Poissons Ratio (x) = 0.16751 0.10361
# Poissons Ratio (y) = 0.31815 0.32149
# Poissons Ratio (z) = 0.11799 0.19275
#
# Static dielectric constant tensor:
#      x y z
#    x 1.838190 0.000000 0.092300 
#    y 0.000000 2.005660 0.000000 
#    z 0.092300 0.000000 1.734480 
# 
# From -- ./inp_files/5552.got.cif
#   From: 2010.05.17/outbox.cif.g08.bks.cpg/sg3_3_cif.got.tgz:5552.got - 2010.06.03 18:33:08.
