data_PCOD9113571
_publ_section_title
;
Structure prediction by ZEFSAII (Michael W. Deem and Ramdas Pophale) SiO2 
 PCOD9113571
Probable space group: P 2
;
_chemical_formula_sum "Si O2"
_cell_formula_units_Z 10
_cell_length_a 17.159985
_cell_length_b 4.809087
_cell_length_c 8.966239
_cell_angle_alpha 90.000000
_cell_angle_beta 33.931755
_cell_angle_gamma 90.000000
_cell_volume 413.031907
_symmetry_space_group_name_H-M "P 2"
_symmetry_group_IT_number 3
_symmetry_cell_setting 'monoclinic'
loop_
_space_group_symop_operation_xyz
x,y,z
-x,y,-z
loop_
_atom_site_type_symbol
_atom_site_label
_atom_site_fract_x
_atom_site_fract_y
_atom_site_fract_z
Si Si1 0.787893 0.160180 0.430819
Si Si2 0.346056 0.347253 0.047094
Si Si3 0.122507 0.682296 0.204540
Si Si4 0.522850 0.845022 0.788256
Si Si5 0.918413 0.170958 0.926578
O O1 0.714613 0.318026 0.686912
O O2 0.931329 0.037812 0.270784
O O3 0.680455 0.942628 0.528530
O O4 0.845263 0.301015 0.189282
O O5 0.236904 0.516620 0.120412
O O6 0.486626 0.530080 0.813194
O O7 0.403419 0.045139 0.908315
O O8 0.053515 0.432988 0.221700
O O9 0.000000 0.810653 0.500000
O O10 0.167169 0.933165 0.025045
O O11 0.500000 0.879274 0.000000
#
# Coordination Sequence:
#
# PCOD9113571 Si02
#       5
#     2   2   2   2   2
#     4  10  24  46  69 102 138 172 232 279 343 390
#     4  11  23  42  68  96 128 180 223 270 327 403
#     4  12  25  43  67  98 139 176 230 269 344 410
#     4  10  22  38  67  96 129 173 224 273 322 395
#     4  11  26  43  70 102 135 178 218 292 338 399
#
# _framework density 24.211207000000002
#
# number of rings (size 3 to 8) (size 9 to 14) (size 15 to 20)
#    0.000    1.200    2.000    3.600    5.600    9.600 
#    0.000    6.000    0.000    0.000    0.000    0.000 
#    0.000    0.000    0.000    0.000    0.000    0.000 
#
# Total GULP energy -55766.274221 kJ/mol
# GULP energy per Si atom -5576.627422 kJ/mol
# Density = 2.415610 g / cm^3
# Si number density = 24.211207 Si / 1000 Ang^3
#
#
#
# Elastic Constant Matrix: (Units=GPa)
#
#
# Indices 1 2 3 4 5 6 
#
# 1 83.8486 28.3563 16.5113 0.0000 -0.0055 0.0000
# 2 28.3563 102.3521 16.8214 0.0000 7.4662 0.0000
# 3 16.5113 16.8214 53.6155 0.0000 3.0680 0.0000
# 4 0.0000 0.0000 0.0000 25.1226 0.0000 -3.2842
# 5 -0.0055 7.4662 3.0680 0.0000 28.2325 0.0000
# 6 0.0000 0.0000 0.0000 -3.2842 0.0000 25.1493
#
#
#
# Elastic Compliance Matrix: (Units=1/GPa)
#
#
# Indices 1 2 3 4 5 6 
#
# 1 0.013698 -0.003353 -0.003237 0.000000 0.001241 0.000000
# 2 -0.003353 0.011285 -0.002352 0.000000 -0.002729 0.000000
# 3 -0.003237 -0.002352 0.020478 0.000000 -0.001604 0.000000
# 4 0.000000 0.000000 0.000000 0.040496 0.000000 0.005288
# 5 0.001241 -0.002729 -0.001604 0.000000 0.036317 0.000000
# 6 0.000000 0.000000 0.000000 0.005288 0.000000 0.040453
#
#
# Mechanical properties :
#
#
# Convention : Reuss Voigt Hill
#
# Bulk Modulus (GPa) = 36.26356 40.35491 38.30924
# Shear Modulus (GPa) = 26.34309 27.57602 26.95955
#
# Velocity S-wave (km/s) = 3.30214 3.37854 3.34056
# Velocity P-wave (km/s) = 5.43594 5.65008 5.54404
#
# Compressibility (1/GPa) = 0.02757589
#
# Stress axis : x y z
#
# Youngs Moduli (GPa) = 73.00386 88.61436 48.83320
#
# Poissons Ratio (x) = 0.29717 0.15809
# Poissons Ratio (y) = 0.24482 0.11484
# Poissons Ratio (z) = 0.23633 0.20839
#
# Static dielectric constant tensor:
#      x y z
#    x 1.980560 0.000000 -0.034020 
#    y 0.000000 1.934340 0.000000 
#    z -0.034020 0.000000 1.985270 
# 
# From -- ./inp_files/8125.got.cif
#   From: 2010.05.17/outbox.cif.g08.bks.cpg/sg3_5_cif.got.tgz:8125.got - 2010.06.03 18:33:08.
