data_PCOD9113122
_publ_section_title
;
Structure prediction by ZEFSAII (Michael W. Deem and Ramdas Pophale) SiO2 
 PCOD9113122
Probable space group: P 2
;
_chemical_formula_sum "Si O2"
_cell_formula_units_Z 16
_cell_length_a 17.246625
_cell_length_b 6.637856
_cell_length_c 7.660797
_cell_angle_alpha 90.000000
_cell_angle_beta 63.297049
_cell_angle_gamma 90.000000
_cell_volume 783.477791
_symmetry_space_group_name_H-M "P 2"
_symmetry_group_IT_number 3
_symmetry_cell_setting 'monoclinic'
loop_
_space_group_symop_operation_xyz
x,y,z
-x,y,-z
loop_
_atom_site_type_symbol
_atom_site_label
_atom_site_fract_x
_atom_site_fract_y
_atom_site_fract_z
Si Si1 0.964883 0.211800 0.335306
Si Si2 0.676265 0.200637 0.741595
Si Si3 0.267048 0.777245 0.761955
Si Si4 0.817225 0.509201 0.451524
Si Si5 0.170512 0.909762 0.384543
Si Si6 0.143848 0.099740 0.042323
Si Si7 0.403128 0.115437 0.530213
Si Si8 0.695649 0.387189 0.090953
O O1 0.906308 0.394449 0.326311
O O2 0.000000 0.252710 0.500000
O O3 0.045655 0.169299 0.128690
O O4 0.897802 0.024805 0.421115
O O5 0.748577 0.348585 0.588996
O O6 0.603673 0.173018 0.667505
O O7 0.731053 0.992853 0.699348
O O8 0.655455 0.297254 0.951391
O O9 0.226811 0.626753 0.661835
O O10 0.295520 0.627735 0.891295
O O11 0.348512 0.910486 0.617504
O O12 0.192605 0.944693 0.867694
O O13 0.833645 0.675088 0.581620
O O14 0.142568 0.975642 0.222783
O O15 0.208085 0.289437 0.998725
O O16 0.500000 0.091288 0.500000
O O17 0.357281 0.288332 0.694784
#
# Coordination Sequence:
#
# PCOD9113122 Si02
#       8
#     2   2   2   2   2   2   2   2
#     4   9  20  35  55  88 124 166 222 268 308 371
#     4  10  20  40  67  91 126 168 207 261 327 389
#     4  11  22  40  64  94 129 169 219 265 326 398
#     4  11  20  35  65  88 122 171 216 259 324 379
#     4   9  18  35  59  86 117 169 214 258 319 378
#     4   9  20  37  58  85 127 166 212 270 317 374
#     4  11  24  43  69  95 130 165 210 273 332 394
#     4  10  22  41  66  94 126 169 215 257 327 393
#
# _framework density 20.421765000000001
#
# number of rings (size 3 to 8) (size 9 to 14) (size 15 to 20)
#    0.000    2.000    2.500    1.500    0.000    3.500 
#    0.000    3.750    0.000    0.000    0.000    0.000 
#    0.000    0.000    0.000    0.000    0.000    0.000 
#
# Total GULP energy -89283.301037 kJ/mol
# GULP energy per Si atom -5580.206315 kJ/mol
# Density = 2.037528 g / cm^3
# Si number density = 20.421765 Si / 1000 Ang^3
#
#
#
# Elastic Constant Matrix: (Units=GPa)
#
#
# Indices 1 2 3 4 5 6 
#
# 1 99.6294 18.6509 29.5506 0.0000 7.0335 0.0000
# 2 18.6509 73.5597 6.0223 0.0000 -2.4234 0.0000
# 3 29.5506 6.0223 47.8830 0.0000 9.3235 0.0000
# 4 0.0000 0.0000 0.0000 18.0688 0.0000 8.2381
# 5 7.0335 -2.4234 9.3235 0.0000 23.4640 0.0000
# 6 0.0000 0.0000 0.0000 8.2381 0.0000 26.5457
#
#
#
# Elastic Compliance Matrix: (Units=1/GPa)
#
#
# Indices 1 2 3 4 5 6 
#
# 1 0.012798 -0.002685 -0.007326 0.000000 -0.001202 0.000000
# 2 -0.002685 0.014413 -0.000653 0.000000 0.002553 0.000000
# 3 -0.007326 -0.000653 0.027176 0.000000 -0.008670 0.000000
# 4 0.000000 0.000000 0.000000 0.064465 0.000000 -0.020006
# 5 -0.001202 0.002553 -0.008670 0.000000 0.046687 0.000000
# 6 0.000000 0.000000 0.000000 -0.020006 0.000000 0.043880
#
#
# Mechanical properties :
#
#
# Convention : Reuss Voigt Hill
#
# Bulk Modulus (GPa) = 30.24942 36.61331 33.43136
# Shear Modulus (GPa) = 20.68120 24.73891 22.71006
#
# Velocity S-wave (km/s) = 3.18575 3.48429 3.33836
# Velocity P-wave (km/s) = 5.32696 5.84419 5.59156
#
# Compressibility (1/GPa) = 0.03305849
#
# Stress axis : x y z
#
# Youngs Moduli (GPa) = 78.13947 69.38353 36.79756
#
# Poissons Ratio (x) = 0.18627 0.26958
# Poissons Ratio (y) = 0.20978 0.02403
# Poissons Ratio (z) = 0.57246 0.04530
#
# Static dielectric constant tensor:
#      x y z
#    x 1.757560 0.000000 0.053500 
#    y 0.000000 1.730700 0.000000 
#    z 0.053500 0.000000 1.778490 
# 
# From -- ./inp_files/8771.got.cif
#   From: 2010.05.17/outbox.cif.g08.bks.cpg/sg3_5_cif.got.tgz:8771.got - 2010.06.03 18:33:08.
