data_PCOD9113353
_publ_section_title
;
Structure prediction by ZEFSAII (Michael W. Deem and Ramdas Pophale) SiO2 
 PCOD9113353
Probable space group: P 2
;
_chemical_formula_sum "Si O2"
_cell_formula_units_Z 16
_cell_length_a 12.538139
_cell_length_b 8.595651
_cell_length_c 8.476995
_cell_angle_alpha 90.000000
_cell_angle_beta 58.084573
_cell_angle_gamma 90.000000
_cell_volume 775.486392
_symmetry_space_group_name_H-M "P 2"
_symmetry_group_IT_number 3
_symmetry_cell_setting 'monoclinic'
loop_
_space_group_symop_operation_xyz
x,y,z
-x,y,-z
loop_
_atom_site_type_symbol
_atom_site_label
_atom_site_fract_x
_atom_site_fract_y
_atom_site_fract_z
Si Si1 0.364192 0.040190 0.522271
Si Si2 0.206966 0.681115 0.124507
Si Si3 0.398246 0.462835 0.796246
Si Si4 0.378223 0.890743 0.171671
Si Si5 0.135726 0.409890 0.383532
Si Si6 0.326143 0.410164 0.498959
Si Si7 0.856247 0.957058 0.059333
Si Si8 0.286989 0.178924 0.051889
O O1 0.500000 0.034888 0.500000
O O2 0.335120 0.221590 0.505259
O O3 0.250678 0.973191 0.720243
O O4 0.379849 0.940947 0.350578
O O5 0.258913 0.786569 0.224999
O O6 0.119053 0.554191 0.276121
O O7 0.321992 0.582962 0.961302
O O8 0.157213 0.796106 0.028154
O O9 0.340482 0.472259 0.665746
O O10 0.548169 0.477984 0.681333
O O11 0.370714 0.288237 0.877073
O O12 0.363469 0.043733 0.074981
O O13 0.500000 0.810907 0.000000
O O14 0.203070 0.452644 0.495236
O O15 0.229193 0.289060 0.228989
O O16 0.000000 0.333916 0.500000
O O17 0.819384 0.096676 0.969390
O O18 0.000000 0.973003 0.000000
#
# Coordination Sequence:
#
# PCOD9113353 Si02
#       8
#     2   2   2   2   2   2   2   2
#     4  12  22  43  69 102 132 170 229 286 338 392
#     4  10  26  45  60  98 135 180 216 264 335 407
#     4  10  21  41  68  96 131 166 221 275 337 390
#     4  11  23  39  66  98 135 171 214 274 340 399
#     4  11  26  42  65  95 133 179 226 269 334 401
#     4  11  21  39  69  98 126 165 221 284 328 388
#     4  11  25  44  69  98 138 183 224 274 337 405
#     4  10  21  39  65  96 129 165 218 274 325 391
#
# _framework density 20.632211999999999
#
# number of rings (size 3 to 8) (size 9 to 14) (size 15 to 20)
#    0.000    1.250    3.750    2.250    3.500    4.000 
#    4.500    5.000    0.000    0.000    0.000    0.000 
#    0.000    0.000    0.000    0.000    0.000    0.000 
#
# Total GULP energy -89367.407405 kJ/mol
# GULP energy per Si atom -5585.462963 kJ/mol
# Density = 2.058525 g / cm^3
# Si number density = 20.632212 Si / 1000 Ang^3
#
#
#
# Elastic Constant Matrix: (Units=GPa)
#
#
# Indices 1 2 3 4 5 6 
#
# 1 126.1749 8.7592 35.8291 0.0000 1.7253 0.0000
# 2 8.7592 41.1912 -6.1557 0.0000 9.0101 0.0000
# 3 35.8291 -6.1557 58.0189 0.0000 4.2559 0.0000
# 4 0.0000 0.0000 0.0000 18.8745 0.0000 6.0092
# 5 1.7253 9.0101 4.2559 0.0000 26.3468 0.0000
# 6 0.0000 0.0000 0.0000 6.0092 0.0000 10.5437
#
#
#
# Elastic Compliance Matrix: (Units=1/GPa)
#
#
# Indices 1 2 3 4 5 6 
#
# 1 0.010046 -0.003490 -0.006693 0.000000 0.001617 0.000000
# 2 -0.003490 0.028167 0.005904 0.000000 -0.010358 0.000000
# 3 -0.006693 0.005904 0.022376 0.000000 -0.005195 0.000000
# 4 0.000000 0.000000 0.000000 0.064726 0.000000 -0.036890
# 5 0.001617 -0.010358 -0.005195 0.000000 0.042231 0.000000
# 6 0.000000 0.000000 0.000000 -0.036890 0.000000 0.115868
#
#
# Mechanical properties :
#
#
# Convention : Reuss Voigt Hill
#
# Bulk Modulus (GPa) = 19.21944 33.58338 26.40141
# Shear Modulus (GPa) = 16.16464 23.61648 19.89056
#
# Velocity S-wave (km/s) = 2.80208 3.38693 3.10829
# Velocity P-wave (km/s) = 4.45021 5.62206 5.07010
#
# Compressibility (1/GPa) = 0.05203066
#
# Stress axis : x y z
#
# Youngs Moduli (GPa) = 99.53992 35.50245 44.69010
#
# Poissons Ratio (x) = 0.12391 0.29910
# Poissons Ratio (y) = 0.34741 -0.26383
# Poissons Ratio (z) = 0.66621 -0.20959
#
# Static dielectric constant tensor:
#      x y z
#    x 1.715840 0.000000 0.012660 
#    y 0.000000 1.730490 0.000000 
#    z 0.012660 0.000000 1.736920 
# 
# From -- ./inp_files/7420.got.cif
#   From: 2010.05.17/outbox.cif.g08.bks.cpg/sg3_4_cif.got.tgz:7420.got - 2010.06.03 18:33:08.
