data_PCOD9113344
_publ_section_title
;
Structure prediction by ZEFSAII (Michael W. Deem and Ramdas Pophale) SiO2 
 PCOD9113344
Probable space group: P 2
;
_chemical_formula_sum "Si O2"
_cell_formula_units_Z 15
_cell_length_a 8.979007
_cell_length_b 8.627108
_cell_length_c 11.033592
_cell_angle_alpha 90.000000
_cell_angle_beta 117.810962
_cell_angle_gamma 90.000000
_cell_volume 755.969443
_symmetry_space_group_name_H-M "P 2"
_symmetry_group_IT_number 3
_symmetry_cell_setting 'monoclinic'
loop_
_space_group_symop_operation_xyz
x,y,z
-x,y,-z
loop_
_atom_site_type_symbol
_atom_site_label
_atom_site_fract_x
_atom_site_fract_y
_atom_site_fract_z
Si Si1 0.351526 0.923360 0.246484
Si Si2 0.089018 0.775116 0.299261
Si Si3 0.003588 0.437767 0.651408
Si Si4 0.685432 0.222724 0.593459
Si Si5 0.332267 0.269511 0.872728
Si Si6 0.324221 0.051830 0.661719
Si Si7 0.000000 0.929182 0.500000
Si Si8 0.132162 0.011392 0.949647
O O1 0.266602 0.797136 0.300113
O O2 0.263041 0.919366 0.083323
O O3 0.322194 0.094441 0.300529
O O4 0.549702 0.909531 0.301174
O O5 0.102433 0.832725 0.442181
O O6 0.022931 0.602898 0.293437
O O7 0.967470 0.890611 0.175087
O O8 0.186850 0.378119 0.763092
O O9 0.000000 0.441251 0.500000
O O10 0.850019 0.330926 0.646074
O O11 0.500000 0.300249 0.500000
O O12 0.698494 0.119574 0.478885
O O13 0.401717 0.170615 0.785657
O O14 0.500000 0.336912 0.000000
O O15 0.233053 0.147161 0.920914
O O16 0.133666 0.023181 0.628477
O O17 0.000000 0.074934 0.000000
#
# Coordination Sequence:
#
# PCOD9113344 Si02
#       8
#     2   2   2   2   2   2   1   2
#     4  10  21  40  63  91 124 159 213 268 317 374
#     4  11  23  39  60  90 129 166 209 259 318 387
#     4  12  24  42  64  92 134 174 215 260 321 396
#     4  10  21  39  66  96 125 159 220 278 319 371
#     4  12  23  40  67  99 129 164 215 273 329 380
#     4  11  20  36  67  97 120 158 215 281 314 367
#     4  12  20  34  60  96 118 156 212 262 326 352
#     4  10  21  39  64  90 122 163 210 264 319 378
#
# _framework density 19.842072999999999
#
# number of rings (size 3 to 8) (size 9 to 14) (size 15 to 20)
#    0.000    1.067    6.000    2.400    0.000    0.000 
#    2.400    8.000    0.000    0.000    0.000    0.000 
#    0.000    0.000    0.000    0.000    0.000    0.000 
#
# Total GULP energy -83514.483501 kJ/mol
# GULP energy per Si atom -5567.632233 kJ/mol
# Density = 1.979691 g / cm^3
# Si number density = 19.842073 Si / 1000 Ang^3
#
#
#
# Elastic Constant Matrix: (Units=GPa)
#
#
# Indices 1 2 3 4 5 6 
#
# 1 92.5715 32.8585 39.5752 0.0000 23.6748 0.0000
# 2 32.8585 54.2009 26.3243 0.0000 7.4316 0.0000
# 3 39.5752 26.3243 102.2739 0.0000 14.6497 0.0000
# 4 0.0000 0.0000 0.0000 5.9105 0.0000 7.5158
# 5 23.6748 7.4316 14.6497 0.0000 40.5820 0.0000
# 6 0.0000 0.0000 0.0000 7.5158 0.0000 14.5740
#
#
#
# Elastic Compliance Matrix: (Units=1/GPa)
#
#
# Indices 1 2 3 4 5 6 
#
# 1 0.016806 -0.007482 -0.003553 0.000000 -0.007152 0.000000
# 2 -0.007482 0.024573 -0.003596 0.000000 0.001163 0.000000
# 3 -0.003553 -0.003596 0.012324 0.000000 -0.001718 0.000000
# 4 0.000000 0.000000 0.000000 0.491494 0.000000 -0.253461
# 5 -0.007152 0.001163 -0.001718 0.000000 0.029221 0.000000
# 6 0.000000 0.000000 0.000000 -0.253461 0.000000 0.199324
#
#
# Mechanical properties :
#
#
# Convention : Reuss Voigt Hill
#
# Bulk Modulus (GPa) = 40.91573 49.61803 45.26688
# Shear Modulus (GPa) = 6.16407 22.23251 14.19829
#
# Velocity S-wave (km/s) = 1.76446 3.35098 2.67791
# Velocity P-wave (km/s) = 4.98162 6.32715 5.69427
#
# Compressibility (1/GPa) = 0.02444048
#
# Stress axis : x y z
#
# Youngs Moduli (GPa) = 59.50149 40.69497 81.14151
#
# Poissons Ratio (x) = 0.30450 0.28829
# Poissons Ratio (y) = 0.44521 0.29180
# Poissons Ratio (z) = 0.21141 0.14635
#
# Static dielectric constant tensor:
#      x y z
#    x 1.868890 0.000000 0.049760 
#    y 0.000000 1.729620 0.000000 
#    z 0.049760 0.000000 1.727120 
# 
# From -- ./inp_files/10610.got.cif
#   From: 2010.05.17/outbox.cif.g08.bks.cpg/sg3_6_cif.got.tgz:10610.got - 2010.06.03 18:33:08.
