data_PCOD9113465
_publ_section_title
;
Structure prediction by ZEFSAII (Michael W. Deem and Ramdas Pophale) SiO2 
 PCOD9113465
Probable space group: P 2
;
_chemical_formula_sum "Si O2"
_cell_formula_units_Z 9
_cell_length_a 5.259926
_cell_length_b 5.333397
_cell_length_c 12.452059
_cell_angle_alpha 90.000000
_cell_angle_beta 112.724272
_cell_angle_gamma 90.000000
_cell_volume 322.204808
_symmetry_space_group_name_H-M "P 2"
_symmetry_group_IT_number 3
_symmetry_cell_setting 'monoclinic'
loop_
_space_group_symop_operation_xyz
x,y,z
-x,y,-z
loop_
_atom_site_type_symbol
_atom_site_label
_atom_site_fract_x
_atom_site_fract_y
_atom_site_fract_z
Si Si1 0.713164 0.293250 0.133769
Si Si2 0.172909 0.793248 0.923673
Si Si3 0.258704 0.981322 0.369902
Si Si4 0.000000 0.670796 0.500000
Si Si5 0.538081 0.482247 0.685038
O O1 0.910537 0.516891 0.127427
O O2 0.562013 0.386399 0.215360
O O3 0.847929 0.019517 0.163749
O O4 0.500000 0.258303 0.000000
O O5 0.500000 0.762971 0.000000
O O6 0.000000 0.864255 0.000000
O O7 0.500000 0.974377 0.500000
O O8 0.018331 0.851794 0.399881
O O9 0.351665 0.768174 0.298993
O O10 0.265140 0.267560 0.331753
O O11 0.265704 0.500099 0.565017
#
# Coordination Sequence:
#
# PCOD9113465 Si02
#       5
#     2   2   2   1   2
#     4  10  22  43  66  98 137 177 226 282 346 422
#     4  10  21  42  68  93 136 184 231 286 344 417
#     4  10  22  41  69  96 139 173 229 292 344 422
#     4  10  24  46  70 106 132 188 232 298 362 418
#     4  11  23  43  68 102 135 180 233 283 353 419
#
# _framework density 27.932539999999999
#
# number of rings (size 3 to 8) (size 9 to 14) (size 15 to 20)
#    0.000    1.778    0.000    4.000    0.000    8.000 
#   24.000    0.000    4.889    0.000    0.000    0.000 
#    0.000    0.000    0.000    0.000    0.000    0.000 
#
# Total GULP energy -50479.882911 kJ/mol
# GULP energy per Si atom -5608.875879 kJ/mol
# Density = 2.786896 g / cm^3
# Si number density = 27.932540 Si / 1000 Ang^3
#
#
#
# Elastic Constant Matrix: (Units=GPa)
#
#
# Indices 1 2 3 4 5 6 
#
# 1 100.5920 38.9643 28.4151 0.0000 -10.4009 0.0000
# 2 38.9643 235.8120 64.3503 0.0000 -8.9976 0.0000
# 3 28.4151 64.3503 147.9264 0.0000 -31.2546 0.0000
# 4 0.0000 0.0000 0.0000 -34.0796 0.0000 -118.0514
# 5 -10.4009 -8.9976 -31.2546 0.0000 67.8037 0.0000
# 6 0.0000 0.0000 0.0000 -118.0514 0.0000 -105.5828
#
#
#
# Elastic Compliance Matrix: (Units=1/GPa)
#
#
# Indices 1 2 3 4 5 6 
#
# 1 0.010950 -0.001422 -0.001296 0.000000 0.000894 0.000000
# 2 -0.001422 0.005004 -0.002005 0.000000 -0.000478 0.000000
# 3 -0.001296 -0.002005 0.008623 0.000000 0.003510 0.000000
# 4 0.000000 0.000000 0.000000 0.010213 0.000000 -0.011419
# 5 0.000894 -0.000478 0.003510 0.000000 0.016440 0.000000
# 6 0.000000 0.000000 0.000000 -0.011419 0.000000 0.003297
#
#
# Mechanical properties :
#
#
# Convention : Reuss Voigt Hill
#
# Bulk Modulus (GPa) = 66.08450 83.08774 74.58612
# Shear Modulus (GPa) = 72.44596 9.13498 40.79047
#
# Velocity S-wave (km/s) = 5.09827 1.81038 3.82556
# Velocity P-wave (km/s) = 7.63979 5.84640 6.80246
#
# Compressibility (1/GPa) = 0.01513214
#
# Stress axis : x y z
#
# Youngs Moduli (GPa) = 91.32134 199.82241 115.97039
#
# Poissons Ratio (x) = 0.28406 0.15033
# Poissons Ratio (y) = 0.12982 0.23252
# Poissons Ratio (z) = 0.11837 0.40064
#
# Static dielectric constant tensor:
#      x y z
#    x 7.721160 0.000000 5.269140 
#    y 0.000000 2.141410 0.000000 
#    z 5.269140 0.000000 7.061230 
# 
# From -- ./inp_files/1834.got.cif
#   From: 2010.05.17/outbox.cif.g08.bks.cpg/sg3_1_cif.got.tgz:1834.got - 2010.06.03 18:33:08.
