data_PCOD9113820
_publ_section_title
;
Structure prediction by ZEFSAII (Michael W. Deem and Ramdas Pophale) SiO2 
 PCOD9113820
Probable space group: P 2
;
_chemical_formula_sum "Si O2"
_cell_formula_units_Z 13
_cell_length_a 8.453395
_cell_length_b 9.807740
_cell_length_c 11.399633
_cell_angle_alpha 90.000000
_cell_angle_beta 139.301939
_cell_angle_gamma 90.000000
_cell_volume 616.292704
_symmetry_space_group_name_H-M "P 2"
_symmetry_group_IT_number 3
_symmetry_cell_setting 'monoclinic'
loop_
_space_group_symop_operation_xyz
x,y,z
-x,y,-z
loop_
_atom_site_type_symbol
_atom_site_label
_atom_site_fract_x
_atom_site_fract_y
_atom_site_fract_z
Si Si1 0.197903 0.771420 0.514345
Si Si2 0.982243 0.610882 0.795712
Si Si3 0.584928 0.053436 0.412943
Si Si4 0.606836 0.563804 0.785188
Si Si5 0.265026 0.258395 0.096109
Si Si6 0.233253 0.360540 0.833045
Si Si7 0.000000 0.198723 0.500000
O O1 0.351971 0.640243 0.643223
O O2 0.000000 0.809358 0.500000
O O3 0.058044 0.732323 0.316838
O O4 0.383685 0.893319 0.592691
O O5 0.034679 0.473694 0.751505
O O6 0.743597 0.593125 0.740057
O O7 0.210932 0.620432 0.012044
O O8 0.500000 0.077850 0.500000
O O9 0.387909 0.128328 0.221772
O O10 0.838030 0.116872 0.504648
O O11 0.600618 0.400674 0.796628
O O12 0.237763 0.250989 0.940891
O O13 0.000000 0.277998 0.000000
O O14 0.176899 0.290178 0.679310
O O15 0.500000 0.426382 0.000000
#
# Coordination Sequence:
#
# PCOD9113820 Si02
#       7
#     2   2   2   2   2   2   1
#     4  12  28  46  67 102 146 192 239 293 358 430
#     4  10  23  42  72 100 142 181 234 297 354 424
#     4  12  27  48  73 101 148 195 245 292 363 433
#     4  10  22  46  72 104 138 181 245 293 358 421
#     4  11  22  47  72 109 139 182 240 301 359 430
#     4  11  23  40  68 108 147 178 233 301 367 416
#     4  12  26  46  70 110 146 190 238 300 360 434
#
# _framework density 21.093872999999999
#
# number of rings (size 3 to 8) (size 9 to 14) (size 15 to 20)
#    0.000    0.923    5.385    2.308    7.538    0.000 
#    8.308    1.538    0.000    0.000    0.000    0.000 
#    0.000    0.000    0.000    0.000    0.000    0.000 
#
# Total GULP energy -72636.963435 kJ/mol
# GULP energy per Si atom -5587.458726 kJ/mol
# Density = 2.104586 g / cm^3
# Si number density = 21.093873 Si / 1000 Ang^3
#
#
#
# Elastic Constant Matrix: (Units=GPa)
#
#
# Indices 1 2 3 4 5 6 
#
# 1 137.6834 34.0839 33.2313 0.0000 -13.4554 0.0000
# 2 34.0839 97.4082 54.6969 0.0000 -8.8848 0.0000
# 3 33.2313 54.6969 75.1768 0.0000 -13.9360 0.0000
# 4 0.0000 0.0000 0.0000 30.9917 0.0000 8.0084
# 5 -13.4554 -8.8848 -13.9360 0.0000 37.4248 0.0000
# 6 0.0000 0.0000 0.0000 8.0084 0.0000 33.2794
#
#
#
# Elastic Compliance Matrix: (Units=1/GPa)
#
#
# Indices 1 2 3 4 5 6 
#
# 1 0.008356 -0.001476 -0.002286 0.000000 0.001803 0.000000
# 2 -0.001476 0.017632 -0.012351 0.000000 -0.000944 0.000000
# 3 -0.002286 -0.012351 0.024279 0.000000 0.005287 0.000000
# 4 0.000000 0.000000 0.000000 0.034406 0.000000 -0.008280
# 5 0.001803 -0.000944 0.005287 0.000000 0.029113 0.000000
# 6 0.000000 0.000000 0.000000 -0.008280 0.000000 0.032041
#
#
# Mechanical properties :
#
#
# Convention : Reuss Voigt Hill
#
# Bulk Modulus (GPa) = 55.42837 61.58806 58.50821
# Shear Modulus (GPa) = 27.16411 32.88961 30.02686
#
# Velocity S-wave (km/s) = 3.59245 3.95296 3.77701
# Velocity P-wave (km/s) = 6.59861 7.07778 6.84239
#
# Compressibility (1/GPa) = 0.01804130
#
# Stress axis : x y z
#
# Youngs Moduli (GPa) = 119.67026 56.71559 41.18828
#
# Poissons Ratio (x) = 0.08371 0.09414
# Poissons Ratio (y) = 0.17664 0.50872
# Poissons Ratio (z) = 0.27353 0.70050
#
# Static dielectric constant tensor:
#      x y z
#    x 1.824110 0.000000 0.011810 
#    y 0.000000 1.738720 0.000000 
#    z 0.011810 0.000000 1.741040 
# 
# From -- ./inp_files/7556.got.cif
#   From: 2010.05.17/outbox.cif.g08.bks.cpg/sg3_4_cif.got.tgz:7556.got - 2010.06.03 18:33:08.
