data_PCOD9113505
_publ_section_title
;
Structure prediction by ZEFSAII (Michael W. Deem and Ramdas Pophale) SiO2 
 PCOD9113505
Probable space group: P 2
;
_chemical_formula_sum "Si O2"
_cell_formula_units_Z 10
_cell_length_a 12.862526
_cell_length_b 7.938296
_cell_length_c 8.096398
_cell_angle_alpha 90.000000
_cell_angle_beta 32.799568
_cell_angle_gamma 90.000000
_cell_volume 447.822325
_symmetry_space_group_name_H-M "P 2"
_symmetry_group_IT_number 3
_symmetry_cell_setting 'monoclinic'
loop_
_space_group_symop_operation_xyz
x,y,z
-x,y,-z
loop_
_atom_site_type_symbol
_atom_site_label
_atom_site_fract_x
_atom_site_fract_y
_atom_site_fract_z
Si Si1 0.296935 0.880860 0.823284
Si Si2 0.707385 0.029744 0.797470
Si Si3 0.285299 0.249424 0.722480
Si Si4 0.120198 0.341731 0.592410
Si Si5 0.933330 0.714987 0.399862
O O1 0.500000 0.804484 0.500000
O O2 0.267620 0.046977 0.753740
O O3 0.300545 0.958789 0.004996
O O4 0.123922 0.750662 0.039689
O O5 0.805012 0.881516 0.559920
O O6 0.821182 0.204074 0.622347
O O7 0.500000 0.059003 0.000000
O O8 0.500000 0.292030 0.500000
O O9 0.240893 0.299232 0.595031
O O10 0.107406 0.322594 0.065710
O O11 0.161860 0.536435 0.502577
O O12 0.000000 0.708958 0.500000
#
# Coordination Sequence:
#
# PCOD9113505 Si02
#       5
#     2   2   2   2   2
#     4  10  21  44  72 100 135 181 224 284 347 400
#     4  11  23  44  70  99 138 180 230 283 339 410
#     4  10  22  44  68 104 137 180 231 277 345 401
#     4  11  24  44  70 103 139 187 227 279 346 408
#     4  10  24  43  69 101 136 181 228 281 341 405
#
# _framework density 22.330283000000001
#
# number of rings (size 3 to 8) (size 9 to 14) (size 15 to 20)
#    0.000    1.600    2.000    2.400    2.800    1.600 
#   21.600    0.000    0.000    0.000    0.000    0.000 
#    0.000    0.000    0.000    0.000    0.000    0.000 
#
# Total GULP energy -55922.188380 kJ/mol
# GULP energy per Si atom -5592.218838 kJ/mol
# Density = 2.227946 g / cm^3
# Si number density = 22.330283 Si / 1000 Ang^3
#
#
#
# Elastic Constant Matrix: (Units=GPa)
#
#
# Indices 1 2 3 4 5 6 
#
# 1 97.6428 28.9193 37.2480 0.0000 -17.6373 0.0000
# 2 28.9193 137.8525 50.0404 0.0000 -11.3549 0.0000
# 3 37.2480 50.0404 109.4385 0.0000 -10.3867 0.0000
# 4 0.0000 0.0000 0.0000 -245.7366 0.0000 23.0815
# 5 -17.6373 -11.3549 -10.3867 0.0000 23.9811 0.0000
# 6 0.0000 0.0000 0.0000 23.0815 0.0000 25.9362
#
#
#
# Elastic Compliance Matrix: (Units=1/GPa)
#
#
# Indices 1 2 3 4 5 6 
#
# 1 0.013197 -0.000915 -0.003330 0.000000 0.007831 0.000000
# 2 -0.000915 0.008907 -0.003572 0.000000 0.001998 0.000000
# 3 -0.003330 -0.003572 0.012005 0.000000 0.001059 0.000000
# 4 0.000000 0.000000 0.000000 -0.003755 0.000000 0.003342
# 5 0.007831 0.001998 0.001059 0.000000 0.048863 0.000000
# 6 0.000000 0.000000 0.000000 0.003342 0.000000 0.035582
#
#
# Mechanical properties :
#
#
# Convention : Reuss Voigt Hill
#
# Bulk Modulus (GPa) = 54.12591 64.14990 59.13790
# Shear Modulus (GPa) = 36.60570 -23.91545 6.34513
#
# Velocity S-wave (km/s) = 4.05320 -3.27614 1.68750
# Velocity P-wave (km/s) = 6.79676 3.80517 5.50796
#
# Compressibility (1/GPa) = 0.01847544
#
# Stress axis : x y z
#
# Youngs Moduli (GPa) = 75.77380 112.26943 83.30035
#
# Poissons Ratio (x) = 0.10269 0.27742
# Poissons Ratio (y) = 0.06931 0.29754
# Poissons Ratio (z) = 0.25235 0.40101
#
# Static dielectric constant tensor:
#      x y z
#    x 1.817850 0.000000 -0.008180 
#    y 0.000000 1.881080 0.000000 
#    z -0.008180 0.000000 2.016250 
# 
# From -- ./inp_files/8458.got.cif
#   From: 2010.05.17/outbox.cif.g08.bks.cpg/sg3_5_cif.got.tgz:8458.got - 2010.06.03 18:33:08.
