data_PCOD9113700
_publ_section_title
;
Structure prediction by ZEFSAII (Michael W. Deem and Ramdas Pophale) SiO2 
 PCOD9113700
Probable space group: P 2
;
_chemical_formula_sum "Si O2"
_cell_formula_units_Z 10
_cell_length_a 15.245865
_cell_length_b 5.053992
_cell_length_c 5.466078
_cell_angle_alpha 90.000000
_cell_angle_beta 118.254650
_cell_angle_gamma 90.000000
_cell_volume 370.992857
_symmetry_space_group_name_H-M "P 2"
_symmetry_group_IT_number 3
_symmetry_cell_setting 'monoclinic'
loop_
_space_group_symop_operation_xyz
x,y,z
-x,y,-z
loop_
_atom_site_type_symbol
_atom_site_label
_atom_site_fract_x
_atom_site_fract_y
_atom_site_fract_z
Si Si1 0.838811 0.435870 0.434117
Si Si2 0.390892 0.937468 0.234212
Si Si3 0.500000 0.246504 0.000000
Si Si4 0.000000 0.244815 0.000000
Si Si5 0.338754 0.437657 0.434397
Si Si6 0.109088 0.935614 0.765816
O O1 0.942142 0.421356 0.725227
O O2 0.750035 0.505282 0.499616
O O3 0.850703 0.645838 0.231943
O O4 0.826656 0.146740 0.301431
O O5 0.500000 0.945038 0.500000
O O6 0.350481 0.648028 0.232319
O O7 0.326711 0.148800 0.301358
O O8 0.414945 0.057159 0.001746
O O9 0.442169 0.423182 0.725323
O O10 0.085064 0.055493 0.998248
O O11 0.000000 0.943410 0.500000
#
# Coordination Sequence:
#
# PCOD9113700 Si02
#       6
#     2   2   1   1   2   2
#     4  11  24  43  67  99 133 170 223 272 323 397
#     4  10  22  42  67  96 131 173 220 268 326 394
#     4  10  24  46  70  94 136 180 212 276 336 378
#     4  10  24  46  70  94 136 180 212 276 336 378
#     4  11  24  43  67  99 133 170 223 272 323 397
#     4  10  22  42  67  96 131 173 220 268 326 394
#
# _framework density 26.954696999999999
#
# number of rings (size 3 to 8) (size 9 to 14) (size 15 to 20)
#    0.000    1.600    0.000    4.800    0.000   16.000 
#    0.000   12.000    0.000    0.000    0.000    0.000 
#    0.000    0.000    0.000    0.000    0.000    0.000 
#
# Total GULP energy -56103.439217 kJ/mol
# GULP energy per Si atom -5610.343922 kJ/mol
# Density = 2.689335 g / cm^3
# Si number density = 26.954697 Si / 1000 Ang^3
#
#
#
# Elastic Constant Matrix: (Units=GPa)
#
#
# Indices 1 2 3 4 5 6 
#
# 1 168.2731 37.2454 25.7535 0.0000 -13.6809 0.0000
# 2 37.2454 135.8952 16.2531 0.0000 -8.9242 0.0000
# 3 25.7535 16.2531 104.1411 0.0000 15.8064 0.0000
# 4 0.0000 0.0000 0.0000 15.6757 0.0000 -27.8409
# 5 -13.6809 -8.9242 15.8064 0.0000 54.8931 0.0000
# 6 0.0000 0.0000 0.0000 -27.8409 0.0000 28.8365
#
#
#
# Elastic Compliance Matrix: (Units=1/GPa)
#
#
# Indices 1 2 3 4 5 6 
#
# 1 0.006693 -0.001504 -0.001711 0.000000 0.001916 0.000000
# 2 -0.001504 0.007978 -0.001059 0.000000 0.001227 0.000000
# 3 -0.001711 -0.001059 0.010752 0.000000 -0.003695 0.000000
# 4 0.000000 0.000000 0.000000 -0.089255 0.000000 -0.086173
# 5 0.001916 0.001227 -0.003695 0.000000 0.019958 0.000000
# 6 0.000000 0.000000 0.000000 -0.086173 0.000000 -0.048520
#
#
# Mechanical properties :
#
#
# Convention : Reuss Voigt Hill
#
# Bulk Modulus (GPa) = 59.26442 62.97926 61.12184
# Shear Modulus (GPa) = -63.92303 41.81822 -11.05241
#
# Velocity S-wave (km/s) = -4.87509 3.94309 -2.02713
# Velocity P-wave (km/s) = 3.10712 6.64426 4.15283
#
# Compressibility (1/GPa) = 0.01687353
#
# Stress axis : x y z
#
# Youngs Moduli (GPa) = 149.40236 125.34289 93.00845
#
# Poissons Ratio (x) = 0.18851 0.15917
# Poissons Ratio (y) = 0.22469 0.09854
# Poissons Ratio (z) = 0.25569 0.13280
#
# Static dielectric constant tensor:
#      x y z
#    x 2.121190 0.000000 0.004320 
#    y 0.000000 2.032160 0.000000 
#    z 0.004320 0.000000 2.096330 
# 
# From -- ./inp_files/2776.got.cif
#   From: 2010.05.17/outbox.cif.g08.bks.cpg/sg3_2_cif.got.tgz:2776.got - 2010.06.03 18:33:08.
