data_PCOD9113295
_publ_section_title
;
Structure prediction by ZEFSAII (Michael W. Deem and Ramdas Pophale) SiO2 
 PCOD9113295
Probable space group: P 2
;
_chemical_formula_sum "Si O2"
_cell_formula_units_Z 12
_cell_length_a 9.380548
_cell_length_b 6.515434
_cell_length_c 14.358532
_cell_angle_alpha 90.000000
_cell_angle_beta 37.649557
_cell_angle_gamma 90.000000
_cell_volume 536.046063
_symmetry_space_group_name_H-M "P 2"
_symmetry_group_IT_number 3
_symmetry_cell_setting 'monoclinic'
loop_
_space_group_symop_operation_xyz
x,y,z
-x,y,-z
loop_
_atom_site_type_symbol
_atom_site_label
_atom_site_fract_x
_atom_site_fract_y
_atom_site_fract_z
Si Si1 0.452229 0.037090 0.424778
Si Si2 0.310890 0.334867 0.841905
Si Si3 0.816646 0.928523 0.013984
Si Si4 0.369356 0.664574 0.258187
Si Si5 0.109549 0.705477 0.587582
Si Si6 0.178949 0.662079 0.751234
O O1 0.500000 0.134805 0.500000
O O2 0.529775 0.188784 0.304638
O O3 0.194467 0.942654 0.553240
O O4 0.620728 0.834335 0.336113
O O5 0.462237 0.470634 0.833216
O O6 0.196264 0.491200 0.823998
O O7 0.174589 0.173618 0.979189
O O8 0.551907 0.852769 0.160223
O O9 0.000000 0.862802 0.000000
O O10 0.940060 0.797465 0.870069
O O11 0.243388 0.642080 0.423808
O O12 0.163146 0.682000 0.291270
O O13 0.195564 0.587400 0.635640
#
# Coordination Sequence:
#
# PCOD9113295 Si02
#       6
#     2   2   2   2   2   2
#     4  10  21  38  64  99 129 165 217 269 318 384
#     4  12  22  39  70 100 124 173 228 262 331 392
#     4  12  23  42  64  99 123 172 223 275 319 382
#     4  11  24  42  68  94 136 172 213 271 337 388
#     4  10  22  48  61  96 139 172 208 273 334 387
#     4  11  24  41  70  92 134 172 220 276 322 383
#
# _framework density 22.386137000000002
#
# number of rings (size 3 to 8) (size 9 to 14) (size 15 to 20)
#    0.000    1.000    6.667    0.000    4.667    0.667 
#    6.000    0.000    3.667    0.000    0.000    0.000 
#    0.000    0.000    0.000    0.000    0.000    0.000 
#
# Total GULP energy -66873.037398 kJ/mol
# GULP energy per Si atom -5572.753117 kJ/mol
# Density = 2.233518 g / cm^3
# Si number density = 22.386137 Si / 1000 Ang^3
#
#
#
# Elastic Constant Matrix: (Units=GPa)
#
#
# Indices 1 2 3 4 5 6 
#
# 1 112.0948 46.5158 29.0556 0.0000 -22.2507 0.0000
# 2 46.5158 128.4310 35.2630 0.0000 -17.1206 0.0000
# 3 29.0556 35.2630 68.2667 0.0000 -16.9267 0.0000
# 4 0.0000 0.0000 0.0000 46.2264 0.0000 -5.6800
# 5 -22.2507 -17.1206 -16.9267 0.0000 35.2538 0.0000
# 6 0.0000 0.0000 0.0000 -5.6800 0.0000 14.3175
#
#
#
# Elastic Compliance Matrix: (Units=1/GPa)
#
#
# Indices 1 2 3 4 5 6 
#
# 1 0.011701 -0.002975 -0.002237 0.000000 0.004867 0.000000
# 2 -0.002975 0.010019 -0.003597 0.000000 0.001261 0.000000
# 3 -0.002237 -0.003597 0.018929 0.000000 0.005930 0.000000
# 4 0.000000 0.000000 0.000000 0.022741 0.000000 0.009022
# 5 0.004867 0.001261 0.005930 0.000000 0.034897 0.000000
# 6 0.000000 0.000000 0.000000 0.009022 0.000000 0.073424
#
#
# Mechanical properties :
#
#
# Convention : Reuss Voigt Hill
#
# Bulk Modulus (GPa) = 43.41721 58.94014 51.17867
# Shear Modulus (GPa) = 25.37995 32.35675 28.86835
#
# Velocity S-wave (km/s) = 3.37075 3.80596 3.59495
# Velocity P-wave (km/s) = 5.88099 6.76016 6.33584
#
# Compressibility (1/GPa) = 0.02303234
#
# Stress axis : x y z
#
# Youngs Moduli (GPa) = 85.45953 99.80574 52.83015
#
# Poissons Ratio (x) = 0.29694 0.11817
# Poissons Ratio (y) = 0.25426 0.19001
# Poissons Ratio (z) = 0.19116 0.35895
#
# Static dielectric constant tensor:
#      x y z
#    x 1.876550 0.000000 0.049100 
#    y 0.000000 1.839820 0.000000 
#    z 0.049100 0.000000 2.049880 
# 
# From -- ./inp_files/13290.got.cif
#   From: 2010.05.17/outbox.cif.g08.bks.cpg/sg3_7_cif.got.tgz:13290.got - 2010.06.03 18:33:08.
