data_PCOD9113882
_publ_section_title
;
Structure prediction by ZEFSAII (Michael W. Deem and Ramdas Pophale) SiO2 
 PCOD9113882
Probable space group: P 2
;
_chemical_formula_sum "Si O2"
_cell_formula_units_Z 16
_cell_length_a 17.332376
_cell_length_b 5.225633
_cell_length_c 9.444462
_cell_angle_alpha 90.000000
_cell_angle_beta 119.910537
_cell_angle_gamma 90.000000
_cell_volume 741.473559
_symmetry_space_group_name_H-M "P 2"
_symmetry_group_IT_number 3
_symmetry_cell_setting 'monoclinic'
loop_
_space_group_symop_operation_xyz
x,y,z
-x,y,-z
loop_
_atom_site_type_symbol
_atom_site_label
_atom_site_fract_x
_atom_site_fract_y
_atom_site_fract_z
Si Si1 0.596709 0.757850 0.614145
Si Si2 0.470555 0.065432 0.817350
Si Si3 0.051968 0.482555 0.698005
Si Si4 0.752352 0.005535 0.932575
Si Si5 0.255717 0.636577 0.817303
Si Si6 0.375282 0.370306 0.132277
Si Si7 0.955797 0.974859 0.114768
Si Si8 0.634474 0.568012 0.340214
O O1 0.500000 0.889842 0.500000
O O2 0.682223 0.891496 0.759306
O O3 0.575223 0.544470 0.711395
O O4 0.633587 0.635058 0.504262
O O5 0.562899 0.123316 0.823021
O O6 0.397349 0.274189 0.703611
O O7 0.436361 0.778098 0.781844
O O8 0.500000 0.133907 0.000000
O O9 0.158224 0.516593 0.758966
O O10 0.035432 0.228137 0.777765
O O11 0.000000 0.473330 0.500000
O O12 0.022913 0.727478 0.767348
O O13 0.723189 0.300088 0.903101
O O14 0.742002 0.895159 0.084382
O O15 0.851649 0.953331 0.983903
O O16 0.277040 0.634271 0.669705
O O17 0.345462 0.496656 0.958715
O O18 0.000000 0.988767 0.000000
#
# Coordination Sequence:
#
# PCOD9113882 Si02
#       8
#     2   2   2   2   2   2   2   2
#     4  11  24  40  60  96 138 181 226 286 339 391
#     4  12  24  39  65  88 126 174 232 270 328 387
#     4  11  24  46  75 108 146 180 226 294 369 421
#     4  10  23  42  69  91 135 183 228 271 339 414
#     4  10  23  43  66  97 131 179 226 275 337 411
#     4  11  21  40  65  88 131 182 220 273 329 403
#     4  11  24  47  76 110 140 185 237 287 354 445
#     4  12  26  41  60  98 129 171 228 286 322 393
#
# _framework density 21.57865
#
# number of rings (size 3 to 8) (size 9 to 14) (size 15 to 20)
#    0.000    1.000    3.750    2.625    3.500    1.500 
#    2.250    0.000    0.000    0.000    0.000    0.000 
#    0.000    0.000    0.000    0.000    0.000    0.000 
#
# Total GULP energy -89176.359044 kJ/mol
# GULP energy per Si atom -5573.522440 kJ/mol
# Density = 2.152954 g / cm^3
# Si number density = 21.578650 Si / 1000 Ang^3
#
#
#
# Elastic Constant Matrix: (Units=GPa)
#
#
# Indices 1 2 3 4 5 6 
#
# 1 125.5498 39.0090 57.2043 0.0000 -15.8836 0.0000
# 2 39.0090 91.6278 42.8608 0.0000 -2.8178 0.0000
# 3 57.2043 42.8608 144.4806 0.0000 -8.5497 0.0000
# 4 0.0000 0.0000 0.0000 11.0000 0.0000 2.9381
# 5 -15.8836 -2.8178 -8.5497 0.0000 26.3970 0.0000
# 6 0.0000 0.0000 0.0000 2.9381 0.0000 21.9629
#
#
#
# Elastic Compliance Matrix: (Units=1/GPa)
#
#
# Indices 1 2 3 4 5 6 
#
# 1 0.011015 -0.003057 -0.003141 0.000000 0.005284 0.000000
# 2 -0.003057 0.013521 -0.002879 0.000000 -0.001329 0.000000
# 3 -0.003141 -0.002879 0.009063 0.000000 0.000738 0.000000
# 4 0.000000 0.000000 0.000000 0.094277 0.000000 -0.012612
# 5 0.005284 -0.001329 0.000738 0.000000 0.041160 0.000000
# 6 0.000000 0.000000 0.000000 -0.012612 0.000000 0.047218
#
#
# Mechanical properties :
#
#
# Convention : Reuss Voigt Hill
#
# Bulk Modulus (GPa) = 64.75496 71.08960 67.92228
# Shear Modulus (GPa) = 20.87175 26.71092 23.79134
#
# Velocity S-wave (km/s) = 3.11342 3.52211 3.32405
# Velocity P-wave (km/s) = 6.55732 7.03962 6.80275
#
# Compressibility (1/GPa) = 0.01544283
#
# Stress axis : x y z
#
# Youngs Moduli (GPa) = 90.78765 73.95726 110.33956
#
# Poissons Ratio (x) = 0.22612 0.34662
# Poissons Ratio (y) = 0.27757 0.31770
# Poissons Ratio (z) = 0.28520 0.21294
#
# Static dielectric constant tensor:
#      x y z
#    x 1.822290 0.000000 -0.049380 
#    y 0.000000 1.881500 0.000000 
#    z -0.049380 0.000000 1.837200 
# 
# From -- ./inp_files/8922.got.cif
#   From: 2010.05.17/outbox.cif.g08.bks.cpg/sg3_5_cif.got.tgz:8922.got - 2010.06.03 18:33:08.
