data_PCOD9113398
_publ_section_title
;
Structure prediction by ZEFSAII (Michael W. Deem and Ramdas Pophale) SiO2 
 PCOD9113398
Probable space group: P 2
;
_chemical_formula_sum "Si O2"
_cell_formula_units_Z 12
_cell_length_a 8.536587
_cell_length_b 5.603926
_cell_length_c 14.878584
_cell_angle_alpha 90.000000
_cell_angle_beta 44.149118
_cell_angle_gamma 90.000000
_cell_volume 495.766239
_symmetry_space_group_name_H-M "P 2"
_symmetry_group_IT_number 3
_symmetry_cell_setting 'monoclinic'
loop_
_space_group_symop_operation_xyz
x,y,z
-x,y,-z
loop_
_atom_site_type_symbol
_atom_site_label
_atom_site_fract_x
_atom_site_fract_y
_atom_site_fract_z
Si Si1 0.500000 0.760700 0.500000
Si Si2 0.936337 0.145164 0.841920
Si Si3 0.326870 0.130898 0.323031
Si Si4 0.500000 0.835417 0.000000
Si Si5 0.660458 0.475726 0.085201
Si Si6 0.128137 0.131722 0.582998
Si Si7 0.302596 0.766888 0.760320
O O1 0.391651 0.641651 0.632450
O O2 0.299586 0.929031 0.545292
O O3 0.052684 0.259741 0.705875
O O4 0.718826 0.998199 0.898646
O O5 0.840251 0.330455 0.952794
O O6 0.107599 0.955361 0.815733
O O7 0.464758 0.302342 0.201402
O O8 0.248807 0.257960 0.448786
O O9 0.102827 0.039761 0.366332
O O10 0.491346 0.920699 0.284821
O O11 0.448507 0.670909 0.935597
O O12 0.759364 0.591972 0.134314
#
# Coordination Sequence:
#
# PCOD9113398 Si02
#       7
#     1   2   2   1   2   2   2
#     4   8  18  40  68  96 130 176 222 274 332 390
#     4  11  24  44  68  97 138 177 223 279 330 398
#     4  10  21  40  67  96 131 172 224 279 330 396
#     4  12  26  42  66 100 136 178 226 274 332 400
#     4  12  25  43  69  99 132 178 223 275 340 395
#     4   9  18  40  66  93 132 176 217 277 336 385
#     4  10  23  43  68  98 134 177 224 275 333 398
#
# _framework density 24.204955000000002
#
# number of rings (size 3 to 8) (size 9 to 14) (size 15 to 20)
#    0.000    1.667    0.000    4.500    0.000    5.333 
#    0.000   28.333    0.000    2.000    0.000    0.000 
#    0.000    0.000    0.000    0.000    0.000    0.000 
#
# Total GULP energy -67145.412488 kJ/mol
# GULP energy per Si atom -5595.451041 kJ/mol
# Density = 2.414986 g / cm^3
# Si number density = 24.204955 Si / 1000 Ang^3
#
#
#
# Elastic Constant Matrix: (Units=GPa)
#
#
# Indices 1 2 3 4 5 6 
#
# 1 174.1799 57.5467 84.2334 0.0000 -7.5760 0.0000
# 2 57.5467 54.2972 55.4198 0.0000 8.6273 0.0000
# 3 84.2334 55.4198 212.9505 0.0000 46.7480 0.0000
# 4 0.0000 0.0000 0.0000 -85.2405 0.0000 -23.0398
# 5 -7.5760 8.6273 46.7480 0.0000 63.8079 0.0000
# 6 0.0000 0.0000 0.0000 -23.0398 0.0000 36.3446
#
#
#
# Elastic Compliance Matrix: (Units=1/GPa)
#
#
# Indices 1 2 3 4 5 6 
#
# 1 0.010083 -0.008624 -0.002697 0.000000 0.004339 0.000000
# 2 -0.008624 0.032602 -0.004625 0.000000 -0.002044 0.000000
# 3 -0.002697 -0.004625 0.008222 0.000000 -0.005718 0.000000
# 4 0.000000 0.000000 0.000000 -0.010015 0.000000 -0.006349
# 5 0.004339 -0.002044 -0.005718 0.000000 0.020653 0.000000
# 6 0.000000 0.000000 0.000000 -0.006349 0.000000 0.023490
#
#
# Mechanical properties :
#
#
# Convention : Reuss Voigt Hill
#
# Bulk Modulus (GPa) = 52.58600 92.86971 72.72785
# Shear Modulus (GPa) = 40.56377 19.26424 29.91401
#
# Velocity S-wave (km/s) = 4.09815 2.82420 3.51930
# Velocity P-wave (km/s) = 6.64572 7.00615 6.82831
#
# Compressibility (1/GPa) = 0.01901647
#
# Stress axis : x y z
#
# Youngs Moduli (GPa) = 99.17582 30.67293 121.63222
#
# Poissons Ratio (x) = 0.26451 0.32800
# Poissons Ratio (y) = 0.85525 0.56254
# Poissons Ratio (z) = 0.26744 0.14186
#
# Static dielectric constant tensor:
#      x y z
#    x 1.899300 0.000000 0.033700 
#    y 0.000000 1.897630 0.000000 
#    z 0.033700 0.000000 1.982090 
# 
# From -- ./inp_files/8442.got.cif
#   From: 2010.05.17/outbox.cif.g08.bks.cpg/sg3_5_cif.got.tgz:8442.got - 2010.06.03 18:33:08.
