data_PCOD9113441
_publ_section_title
;
Structure prediction by ZEFSAII (Michael W. Deem and Ramdas Pophale) SiO2 
 PCOD9113441
Probable space group: P 2
;
_chemical_formula_sum "Si O2"
_cell_formula_units_Z 16
_cell_length_a 16.939088
_cell_length_b 5.846310
_cell_length_c 6.909777
_cell_angle_alpha 90.000000
_cell_angle_beta 112.946807
_cell_angle_gamma 90.000000
_cell_volume 630.133987
_symmetry_space_group_name_H-M "P 2"
_symmetry_group_IT_number 3
_symmetry_cell_setting 'monoclinic'
loop_
_space_group_symop_operation_xyz
x,y,z
-x,y,-z
loop_
_atom_site_type_symbol
_atom_site_label
_atom_site_fract_x
_atom_site_fract_y
_atom_site_fract_z
Si Si1 0.298520 0.069230 0.431144
Si Si2 0.826746 0.838112 0.414200
Si Si3 0.010175 0.892443 0.775306
Si Si4 0.491096 0.045572 0.721202
Si Si5 0.302040 0.460800 0.697485
Si Si6 0.489971 0.556006 0.725950
Si Si7 0.932199 0.392756 0.114764
Si Si8 0.754951 0.179709 0.021766
O O1 0.273418 0.318270 0.482912
O O2 0.298719 0.062659 0.201411
O O3 0.226699 0.906298 0.444398
O O4 0.387319 0.033855 0.630796
O O5 0.923264 0.847646 0.575715
O O6 0.781374 0.603170 0.324940
O O7 0.800278 0.005713 0.214607
O O8 0.063207 0.652914 0.796282
O O9 0.036130 0.156419 0.751026
O O10 0.000000 0.903135 0.000000
O O11 0.500000 0.048652 0.500000
O O12 0.529385 0.802157 0.826610
O O13 0.517813 0.299175 0.812017
O O14 0.392231 0.562888 0.713080
O O15 0.309006 0.314956 0.899753
O O16 0.500000 0.556317 0.500000
O O17 0.831706 0.326035 0.994478
O O18 0.000000 0.406952 0.000000
#
# Coordination Sequence:
#
# PCOD9113441 Si02
#       8
#     2   2   2   2   2   2   2   2
#     4  10  21  41  68  95 134 183 225 275 342 409
#     4  11  24  42  65  95 131 175 224 289 340 407
#     4  10  23  41  68  89 125 173 227 277 339 403
#     4   9  17  33  62 100 126 173 229 267 323 402
#     4  10  23  40  65 100 131 176 222 282 336 405
#     4   9  17  35  64  97 129 176 224 266 329 404
#     4  10  23  44  65  92 126 178 224 279 338 411
#     4  11  26  42  66 100 136 175 230 289 343 408
#
# _framework density 25.391425000000002
#
# number of rings (size 3 to 8) (size 9 to 14) (size 15 to 20)
#    0.000    2.000    1.250    1.500    8.750    1.500 
#    0.000    0.000    0.000   18.750    0.000    0.000 
#    0.000    0.000    0.000    0.000    0.000    0.000 
#
# Total GULP energy -89132.646108 kJ/mol
# GULP energy per Si atom -5570.790382 kJ/mol
# Density = 2.533363 g / cm^3
# Si number density = 25.391425 Si / 1000 Ang^3
#
#
#
# Elastic Constant Matrix: (Units=GPa)
#
#
# Indices 1 2 3 4 5 6 
#
# 1 100.5865 12.5717 17.9988 0.0000 2.6548 0.0000
# 2 12.5717 171.8865 21.5123 0.0000 17.6584 0.0000
# 3 17.9988 21.5123 142.4550 0.0000 -7.1348 0.0000
# 4 0.0000 0.0000 0.0000 -29.6402 0.0000 -15.8209
# 5 2.6548 17.6584 -7.1348 0.0000 40.0167 0.0000
# 6 0.0000 0.0000 0.0000 -15.8209 0.0000 18.4422
#
#
#
# Elastic Compliance Matrix: (Units=1/GPa)
#
#
# Indices 1 2 3 4 5 6 
#
# 1 0.010248 -0.000524 -0.001249 0.000000 -0.000671 0.000000
# 2 -0.000524 0.006285 -0.001029 0.000000 -0.002922 0.000000
# 3 -0.001249 -0.001029 0.007426 0.000000 0.001861 0.000000
# 4 0.000000 0.000000 0.000000 -0.023142 0.000000 -0.019852
# 5 -0.000671 -0.002922 0.001861 0.000000 0.026655 0.000000
# 6 0.000000 0.000000 0.000000 -0.019852 0.000000 0.037193
#
#
# Mechanical properties :
#
#
# Convention : Reuss Voigt Hill
#
# Bulk Modulus (GPa) = 54.48327 57.67707 56.08017
# Shear Modulus (GPa) = 65.45316 29.95342 47.70329
#
# Velocity S-wave (km/s) = 5.08268 3.43835 4.33912
# Velocity P-wave (km/s) = 7.47989 6.20705 6.87300
#
# Compressibility (1/GPa) = 0.01835426
#
# Stress axis : x y z
#
# Youngs Moduli (GPa) = 97.57543 159.10504 134.65746
#
# Poissons Ratio (x) = 0.08341 0.16823
# Poissons Ratio (y) = 0.05115 0.13860
# Poissons Ratio (z) = 0.12190 0.16376
#
# Static dielectric constant tensor:
#      x y z
#    x 1.991060 0.000000 -0.012520 
#    y 0.000000 2.226230 0.000000 
#    z -0.012520 0.000000 1.997580 
# 
# From -- ./inp_files/3899.got.cif
#   From: 2010.05.17/outbox.cif.g08.bks.cpg/sg3_2_cif.got.tgz:3899.got - 2010.06.03 18:33:08.
