data_PCOD9113246
_publ_section_title
;
Structure prediction by ZEFSAII (Michael W. Deem and Ramdas Pophale) SiO2 
 PCOD9113246
Probable space group: P 2
;
_chemical_formula_sum "Si O2"
_cell_formula_units_Z 16
_cell_length_a 8.376781
_cell_length_b 5.507138
_cell_length_c 17.256332
_cell_angle_alpha 90.000000
_cell_angle_beta 55.018325
_cell_angle_gamma 90.000000
_cell_volume 652.248899
_symmetry_space_group_name_H-M "P 2"
_symmetry_group_IT_number 3
_symmetry_cell_setting 'monoclinic'
loop_
_space_group_symop_operation_xyz
x,y,z
-x,y,-z
loop_
_atom_site_type_symbol
_atom_site_label
_atom_site_fract_x
_atom_site_fract_y
_atom_site_fract_z
Si Si1 0.064412 0.482720 0.187039
Si Si2 0.602314 0.146925 0.176156
Si Si3 0.050486 0.414381 0.607577
Si Si4 0.267528 0.931556 0.570614
Si Si5 0.300967 0.792550 0.725203
Si Si6 0.410865 0.779481 0.143749
Si Si7 0.187542 0.508700 0.989116
Si Si8 0.643716 0.521231 0.674433
O O1 0.216159 0.709128 0.153631
O O2 0.045356 0.375441 0.279048
O O3 0.847204 0.571594 0.230464
O O4 0.139460 0.378034 0.084524
O O5 0.752661 0.314709 0.091844
O O6 0.475960 0.277352 0.277217
O O7 0.704776 0.930087 0.192442
O O8 0.454183 0.057882 0.150344
O O9 0.174268 0.666754 0.576236
O O10 0.867402 0.461002 0.602259
O O11 0.171080 0.168288 0.557911
O O12 0.500000 0.935828 0.500000
O O13 0.233900 0.954520 0.672622
O O14 0.518843 0.686891 0.651567
O O15 0.614628 0.668488 0.056461
O O16 0.374917 0.664315 0.238926
O O17 0.000000 0.634581 0.000000
#
# Coordination Sequence:
#
# PCOD9113246 Si02
#       8
#     2   2   2   2   2   2   2   2
#     4  10  21  41  60  89 128 170 230 276 341 404
#     4  10  21  37  62  88 128 177 221 282 337 400
#     4  10  24  43  73  99 135 181 222 281 344 416
#     4  11  25  46  74 104 139 174 226 284 351 418
#     4  10  23  39  68  93 130 176 228 278 351 418
#     4   9  20  39  56  86 122 173 218 286 330 396
#     4  11  22  36  55  83 130 170 229 282 336 388
#     4   9  20  39  65  92 131 171 225 268 339 407
#
# _framework density 24.530514
#
# number of rings (size 3 to 8) (size 9 to 14) (size 15 to 20)
#    0.000    2.000    0.000    3.000   12.250    1.500 
#    2.250    5.625    0.000    0.000    0.000    0.000 
#    0.000    0.000    0.000    0.000    0.000    0.000 
#
# Total GULP energy -89292.975438 kJ/mol
# GULP energy per Si atom -5580.810965 kJ/mol
# Density = 2.447468 g / cm^3
# Si number density = 24.530514 Si / 1000 Ang^3
#
#
#
# Elastic Constant Matrix: (Units=GPa)
#
#
# Indices 1 2 3 4 5 6 
#
# 1 112.7084 41.5915 14.9709 0.0000 -35.8191 0.0000
# 2 41.5915 87.8764 13.4322 0.0000 -20.5612 0.0000
# 3 14.9709 13.4322 97.4196 0.0000 -20.6326 0.0000
# 4 0.0000 0.0000 0.0000 1.9309 0.0000 7.2236
# 5 -35.8191 -20.5612 -20.6326 0.0000 34.3547 0.0000
# 6 0.0000 0.0000 0.0000 7.2236 0.0000 24.2417
#
#
#
# Elastic Compliance Matrix: (Units=1/GPa)
#
#
# Indices 1 2 3 4 5 6 
#
# 1 0.014401 -0.003857 0.001157 0.000000 0.013401 0.000000
# 2 -0.003857 0.014268 -0.000479 0.000000 0.004230 0.000000
# 3 0.001157 -0.000479 0.011856 0.000000 0.008040 0.000000
# 4 0.000000 0.000000 0.000000 -4.511812 0.000000 1.344444
# 5 0.013401 0.004230 0.008040 0.000000 0.050442 0.000000
# 6 0.000000 0.000000 0.000000 1.344444 0.000000 -0.359370
#
#
# Mechanical properties :
#
#
# Convention : Reuss Voigt Hill
#
# Bulk Modulus (GPa) = 29.26734 48.66597 38.96665
# Shear Modulus (GPa) = -1.04988 27.30609 13.12811
#
# Velocity S-wave (km/s) = -0.65492 3.34001 2.31589
# Velocity P-wave (km/s) = 3.37417 5.89544 4.80319
#
# Compressibility (1/GPa) = 0.03416778
#
# Stress axis : x y z
#
# Youngs Moduli (GPa) = 69.43893 70.08586 84.34598
#
# Poissons Ratio (x) = 0.27034 -0.09759
# Poissons Ratio (y) = 0.26784 0.04037
# Poissons Ratio (z) = -0.08034 0.03354
#
# Static dielectric constant tensor:
#      x y z
#    x 1.973040 0.000000 0.023600 
#    y 0.000000 2.048120 0.000000 
#    z 0.023600 0.000000 1.969090 
# 
# From -- ./inp_files/15722.got.cif
#   From: 2010.05.17/outbox.cif.g08.bks.cpg/sg3_8_cif.got.tgz:15722.got - 2010.06.03 18:33:08.
