data_PCOD9113346
_publ_section_title
;
Structure prediction by ZEFSAII (Michael W. Deem and Ramdas Pophale) SiO2 
 PCOD9113346
Probable space group: P 2
;
_chemical_formula_sum "Si O2"
_cell_formula_units_Z 14
_cell_length_a 13.098195
_cell_length_b 5.345507
_cell_length_c 8.952858
_cell_angle_alpha 90.000000
_cell_angle_beta 94.683816
_cell_angle_gamma 90.000000
_cell_volume 624.754357
_symmetry_space_group_name_H-M "P 2"
_symmetry_group_IT_number 3
_symmetry_cell_setting 'monoclinic'
loop_
_space_group_symop_operation_xyz
x,y,z
-x,y,-z
loop_
_atom_site_type_symbol
_atom_site_label
_atom_site_fract_x
_atom_site_fract_y
_atom_site_fract_z
Si Si1 0.123648 0.147300 0.014125
Si Si2 0.549574 0.551179 0.345202
Si Si3 0.771698 0.445677 0.482896
Si Si4 0.846973 0.640840 0.799992
Si Si5 0.949130 0.683438 0.358233
Si Si6 0.225414 0.043638 0.735180
Si Si7 0.456480 0.038926 0.830146
O O1 0.159818 0.391070 0.105550
O O2 0.165724 0.895469 0.104197
O O3 0.163067 0.201420 0.851091
O O4 0.000000 0.126999 0.000000
O O5 0.500000 0.514154 0.500000
O O6 0.673055 0.563788 0.386683
O O7 0.525024 0.308465 0.242508
O O8 0.508421 0.804835 0.265893
O O9 0.777093 0.577143 0.645654
O O10 0.890285 0.467938 0.441868
O O11 0.755609 0.157066 0.428486
O O12 0.963948 0.646136 0.751690
O O13 0.000000 0.841232 0.500000
O O14 0.850063 0.813131 0.281138
O O15 0.334438 0.005344 0.821874
O O16 0.500000 0.028159 0.000000
#
# Coordination Sequence:
#
# PCOD9113346 Si02
#       7
#     2   2   2   2   2   2   2
#     4  12  25  40  61  93 134 174 216 267 331 379
#     4  11  24  44  72  99 132 170 220 285 334 393
#     4  10  24  42  66  94 128 171 225 265 329 391
#     4  11  26  40  63  94 132 172 217 273 319 391
#     4  10  21  39  64  93 124 171 217 264 313 386
#     4  11  24  41  69  92 134 175 221 265 328 396
#     4  11  25  45  70 100 134 175 222 272 338 407
#
# _framework density 22.408806999999999
#
# number of rings (size 3 to 8) (size 9 to 14) (size 15 to 20)
#    0.000    1.143    2.857    2.143    6.000    2.857 
#    0.000    0.000    0.000    0.000    0.000    0.000 
#    0.000    0.000    0.000    0.000    0.000    0.000 
#
# Total GULP energy -77999.444056 kJ/mol
# GULP energy per Si atom -5571.388861 kJ/mol
# Density = 2.235780 g / cm^3
# Si number density = 22.408807 Si / 1000 Ang^3
#
#
#
# Elastic Constant Matrix: (Units=GPa)
#
#
# Indices 1 2 3 4 5 6 
#
# 1 43.4983 5.0909 17.6447 0.0000 5.3815 0.0000
# 2 5.0909 113.3610 44.6411 0.0000 14.7755 0.0000
# 3 17.6447 44.6411 96.7561 0.0000 10.5896 0.0000
# 4 0.0000 0.0000 0.0000 56.5153 0.0000 -11.9074
# 5 5.3815 14.7755 10.5896 0.0000 34.4609 0.0000
# 6 0.0000 0.0000 0.0000 -11.9074 0.0000 5.3275
#
#
#
# Elastic Compliance Matrix: (Units=1/GPa)
#
#
# Indices 1 2 3 4 5 6 
#
# 1 0.025165 0.001141 -0.004793 0.000000 -0.002946 0.000000
# 2 0.001141 0.011184 -0.004992 0.000000 -0.003440 0.000000
# 3 -0.004793 -0.004992 0.013656 0.000000 -0.001307 0.000000
# 4 0.000000 0.000000 0.000000 0.033443 0.000000 0.074748
# 5 -0.002946 -0.003440 -0.001307 0.000000 0.031355 0.000000
# 6 0.000000 0.000000 0.000000 0.074748 0.000000 0.354774
#
#
# Mechanical properties :
#
#
# Convention : Reuss Voigt Hill
#
# Bulk Modulus (GPa) = 30.56503 43.15212 36.85857
# Shear Modulus (GPa) = 10.04480 31.67666 20.86073
#
# Velocity S-wave (km/s) = 2.11949 3.76384 3.05440
# Velocity P-wave (km/s) = 4.43385 6.17958 5.37802
#
# Compressibility (1/GPa) = 0.03271713
#
# Stress axis : x y z
#
# Youngs Moduli (GPa) = 39.73825 89.41177 73.22999
#
# Poissons Ratio (x) = -0.10206 0.35101
# Poissons Ratio (y) = -0.04536 0.36555
# Poissons Ratio (z) = 0.19048 0.44633
#
# Static dielectric constant tensor:
#      x y z
#    x 1.471360 0.000000 0.095210 
#    y 0.000000 1.960600 0.000000 
#    z 0.095210 0.000000 1.952690 
# 
# From -- ./inp_files/6707.got.cif
#   From: 2010.05.17/outbox.cif.g08.bks.cpg/sg3_4_cif.got.tgz:6707.got - 2010.06.03 18:33:08.
