data_PCOD9113531
_publ_section_title
;
Structure prediction by ZEFSAII (Michael W. Deem and Ramdas Pophale) SiO2 
 PCOD9113531
Probable space group: P 2
;
_chemical_formula_sum "Si O2"
_cell_formula_units_Z 13
_cell_length_a 11.121781
_cell_length_b 8.573358
_cell_length_c 5.904057
_cell_angle_alpha 90.000000
_cell_angle_beta 99.906287
_cell_angle_gamma 90.000000
_cell_volume 554.564354
_symmetry_space_group_name_H-M "P 2"
_symmetry_group_IT_number 3
_symmetry_cell_setting 'monoclinic'
loop_
_space_group_symop_operation_xyz
x,y,z
-x,y,-z
loop_
_atom_site_type_symbol
_atom_site_label
_atom_site_fract_x
_atom_site_fract_y
_atom_site_fract_z
Si Si1 0.875180 0.162930 0.064631
Si Si2 0.500000 0.148414 0.000000
Si Si3 0.306699 0.916158 0.787754
Si Si4 0.326490 0.339234 0.282990
Si Si5 0.186854 0.416136 0.636944
Si Si6 0.269067 0.644973 0.064609
Si Si7 0.123647 0.732007 0.411711
O O1 0.893192 0.281724 0.278834
O O2 0.796448 0.021153 0.128170
O O3 0.798342 0.261642 0.854893
O O4 0.000000 0.109065 0.000000
O O5 0.423997 0.251995 0.156001
O O6 0.581808 0.035537 0.186656
O O7 0.237708 0.828470 0.558385
O O8 0.344399 0.780162 0.972886
O O9 0.301101 0.334983 0.544520
O O10 0.340318 0.525118 0.247320
O O11 0.127340 0.544623 0.456685
O O12 0.226510 0.528325 0.854470
O O13 0.155008 0.727523 0.155408
O O14 0.000000 0.786468 0.500000
#
# Coordination Sequence:
#
# PCOD9113531 Si02
#       7
#     2   1   2   2   2   2   2
#     4  10  22  35  57  90 137 172 216 276 335 405
#     4  10  22  44  70  88 140 182 232 288 338 406
#     4  10  23  41  61  97 132 180 220 274 345 402
#     4   9  20  41  63  93 122 175 228 283 331 392
#     4   9  20  37  62  93 129 170 228 273 336 399
#     4   9  20  40  63  95 131 166 226 275 334 404
#     4  10  22  37  64  95 137 176 221 275 337 409
#
# _framework density 23.441825999999999
#
# number of rings (size 3 to 8) (size 9 to 14) (size 15 to 20)
#    0.000    2.462    0.000    0.000    8.615    4.308 
#    0.000   12.308    0.000   14.769    0.000    0.000 
#    0.000    0.000    0.000    0.000    0.000    0.000 
#
# Total GULP energy -72413.299685 kJ/mol
# GULP energy per Si atom -5570.253822 kJ/mol
# Density = 2.338847 g / cm^3
# Si number density = 23.441826 Si / 1000 Ang^3
#
#
#
# Elastic Constant Matrix: (Units=GPa)
#
#
# Indices 1 2 3 4 5 6 
#
# 1 91.3917 16.2762 21.8088 0.0000 -16.5413 0.0000
# 2 16.2762 94.2554 13.6136 0.0000 1.4935 0.0000
# 3 21.8088 13.6136 91.6298 0.0000 -22.9772 0.0000
# 4 0.0000 0.0000 0.0000 29.9046 0.0000 -1.9840
# 5 -16.5413 1.4935 -22.9772 0.0000 24.0304 0.0000
# 6 0.0000 0.0000 0.0000 -1.9840 0.0000 24.3697
#
#
#
# Elastic Compliance Matrix: (Units=1/GPa)
#
#
# Indices 1 2 3 4 5 6 
#
# 1 0.013043 -0.002297 -0.000626 0.000000 0.008522 0.000000
# 2 -0.002297 0.011404 -0.002265 0.000000 -0.004455 0.000000
# 3 -0.000626 -0.002265 0.014898 0.000000 0.013955 0.000000
# 4 0.000000 0.000000 0.000000 0.033621 0.000000 0.002737
# 5 0.008522 -0.004455 0.013955 0.000000 0.061101 0.000000
# 6 0.000000 0.000000 0.000000 0.002737 0.000000 0.041257
#
#
# Mechanical properties :
#
#
# Convention : Reuss Voigt Hill
#
# Bulk Modulus (GPa) = 34.51898 42.29709 38.40803
# Shear Modulus (GPa) = 25.59424 30.69950 28.14687
#
# Velocity S-wave (km/s) = 3.30785 3.62277 3.46889
# Velocity P-wave (km/s) = 5.41724 5.96506 5.69774
#
# Compressibility (1/GPa) = 0.02896957
#
# Stress axis : x y z
#
# Youngs Moduli (GPa) = 76.67054 87.68999 67.12123
#
# Poissons Ratio (x) = 0.20141 0.04202
# Poissons Ratio (y) = 0.17610 0.15202
# Poissons Ratio (z) = 0.04800 0.19860
#
# Static dielectric constant tensor:
#      x y z
#    x 1.967170 0.000000 0.027840 
#    y 0.000000 1.895100 0.000000 
#    z 0.027840 0.000000 2.082660 
# 
# From -- ./inp_files/2180.got.cif
#   From: 2010.05.17/outbox.cif.g08.bks.cpg/sg3_2_cif.got.tgz:2180.got - 2010.06.03 18:33:08.
