data_PCOD9113138
_publ_section_title
;
Structure prediction by ZEFSAII (Michael W. Deem and Ramdas Pophale) SiO2 
 PCOD9113138
Probable space group: P 2
;
_chemical_formula_sum "Si O2"
_cell_formula_units_Z 16
_cell_length_a 10.005167
_cell_length_b 6.865921
_cell_length_c 24.146900
_cell_angle_alpha 90.000000
_cell_angle_beta 155.745836
_cell_angle_gamma 90.000000
_cell_volume 681.395444
_symmetry_space_group_name_H-M "P 2"
_symmetry_group_IT_number 3
_symmetry_cell_setting 'monoclinic'
loop_
_space_group_symop_operation_xyz
x,y,z
-x,y,-z
loop_
_atom_site_type_symbol
_atom_site_label
_atom_site_fract_x
_atom_site_fract_y
_atom_site_fract_z
Si Si1 0.131752 0.505270 0.738716
Si Si2 0.255674 0.170990 0.275206
Si Si3 0.338042 0.806858 0.240158
Si Si4 0.742322 0.142358 0.547247
Si Si5 0.784925 0.978073 0.964301
Si Si6 0.815703 0.804133 0.329885
Si Si7 0.328583 0.310139 0.995158
Si Si8 0.116822 0.794207 0.834965
O O1 0.073745 0.611821 0.659263
O O2 0.053414 0.665808 0.756499
O O3 0.952254 0.298176 0.661524
O O4 0.497878 0.450257 0.895866
O O5 0.047240 0.324830 0.162610
O O6 0.411378 0.027782 0.288633
O O7 0.511394 0.248226 0.415324
O O8 0.662439 0.747748 0.331090
O O9 0.154529 0.720418 0.223624
O O10 0.041981 0.823365 0.084660
O O11 0.500000 0.043599 0.500000
O O12 0.928552 0.978231 0.582137
O O13 0.002532 0.022613 0.790781
O O14 0.482723 0.884509 0.820095
O O15 0.663753 0.102239 0.970577
O O16 0.000000 0.095643 0.000000
O O17 0.500000 0.326684 0.000000
O O18 0.500000 0.779657 0.000000
#
# Coordination Sequence:
#
# PCOD9113138 Si02
#       8
#     2   2   2   2   2   2   2   2
#     4  12  26  40  70 108 145 182 232 300 362 427
#     4   9  22  41  74  96 136 192 231 284 348 419
#     4   8  20  39  74 103 131 188 235 289 353 419
#     4  12  26  44  70 103 143 188 237 292 357 426
#     4   9  18  37  67  97 134 174 225 287 348 414
#     4  11  23  44  74 100 141 188 236 291 363 421
#     4  11  21  39  64 103 132 174 229 286 348 406
#     4  10  20  40  73 107 139 181 236 296 351 415
#
# _framework density 23.481225999999999
#
# number of rings (size 3 to 8) (size 9 to 14) (size 15 to 20)
#    0.750    1.000    1.250    3.000    1.750    2.000 
#    0.000    4.375    5.500    0.000    0.000    0.000 
#    0.000    0.000    0.000    0.000    0.000    0.000 
#
# Total GULP energy -89106.834944 kJ/mol
# GULP energy per Si atom -5569.177184 kJ/mol
# Density = 2.342778 g / cm^3
# Si number density = 23.481226 Si / 1000 Ang^3
#
#
#
# Elastic Constant Matrix: (Units=GPa)
#
#
# Indices 1 2 3 4 5 6 
#
# 1 107.9292 11.7037 14.3150 0.0000 26.1372 0.0000
# 2 11.7037 74.4138 17.4551 0.0000 13.4312 0.0000
# 3 14.3150 17.4551 96.7941 0.0000 -17.1064 0.0000
# 4 0.0000 0.0000 0.0000 -10.0656 0.0000 -9.9294
# 5 26.1372 13.4312 -17.1064 0.0000 28.6871 0.0000
# 6 0.0000 0.0000 0.0000 -9.9294 0.0000 -11.7415
#
#
#
# Elastic Compliance Matrix: (Units=1/GPa)
#
#
# Indices 1 2 3 4 5 6 
#
# 1 0.013821 0.002126 -0.005397 0.000000 -0.016806 0.000000
# 2 0.002126 0.016818 -0.005680 0.000000 -0.013198 0.000000
# 3 -0.005397 -0.005680 0.015082 0.000000 0.016570 0.000000
# 4 0.000000 0.000000 0.000000 -0.599282 0.000000 0.506793
# 5 -0.016806 -0.013198 0.016570 0.000000 0.066231 0.000000
# 6 0.000000 0.000000 0.000000 0.506793 0.000000 -0.513746
#
#
# Mechanical properties :
#
#
# Convention : Reuss Voigt Hill
#
# Bulk Modulus (GPa) = 35.94749 40.67609 38.31179
# Shear Modulus (GPa) = -5.13400 17.08687 5.97644
#
# Velocity S-wave (km/s) = -1.48026 2.70049 1.59710
# Velocity P-wave (km/s) = 3.52430 5.20422 4.44436
#
# Compressibility (1/GPa) = 0.02781835
#
# Stress axis : x y z
#
# Youngs Moduli (GPa) = 72.35603 59.45840 66.30347
#
# Poissons Ratio (x) = -0.12639 0.35786
# Poissons Ratio (y) = -0.15381 0.37659
# Poissons Ratio (z) = 0.39053 0.33771
#
# Static dielectric constant tensor:
#      x y z
#    x 2.223780 0.000000 0.012900 
#    y 0.000000 1.925960 0.000000 
#    z 0.012900 0.000000 1.908810 
# 
# From -- ./inp_files/16255.got.cif
#   From: 2010.05.17/outbox.cif.g08.bks.cpg/sg3_9_cif.got.tgz:16255.got - 2010.06.03 18:33:08.
