data_PCOD9113125
_publ_section_title
;
Structure prediction by ZEFSAII (Michael W. Deem and Ramdas Pophale) SiO2 
 PCOD9113125
Probable space group: P 2
;
_chemical_formula_sum "Si O2"
_cell_formula_units_Z 13
_cell_length_a 9.461019
_cell_length_b 9.865808
_cell_length_c 7.417761
_cell_angle_alpha 90.000000
_cell_angle_beta 62.389086
_cell_angle_gamma 90.000000
_cell_volume 613.526960
_symmetry_space_group_name_H-M "P 2"
_symmetry_group_IT_number 3
_symmetry_cell_setting 'monoclinic'
loop_
_space_group_symop_operation_xyz
x,y,z
-x,y,-z
loop_
_atom_site_type_symbol
_atom_site_label
_atom_site_fract_x
_atom_site_fract_y
_atom_site_fract_z
Si Si1 0.310235 0.024680 0.303772
Si Si2 0.000000 0.853675 0.500000
Si Si3 0.337562 0.979024 0.857579
Si Si4 0.863946 0.722834 0.946006
Si Si5 0.815551 0.252816 0.145350
Si Si6 0.314113 0.462493 0.070710
Si Si7 0.823503 0.309220 0.539103
O O1 0.293651 0.183450 0.353841
O O2 0.473613 0.962563 0.284100
O O3 0.151785 0.947334 0.461148
O O4 0.317863 0.012435 0.082493
O O5 0.942577 0.771036 0.710117
O O6 0.275385 0.109983 0.788117
O O7 0.227411 0.847567 0.903070
O O8 0.738983 0.605326 0.977284
O O9 0.000000 0.671651 0.000000
O O10 0.814678 0.333581 0.332841
O O11 0.741532 0.343482 0.031304
O O12 0.000000 0.220410 0.000000
O O13 0.224730 0.435422 0.311503
O O14 0.500000 0.455570 0.000000
O O15 0.000000 0.266753 0.500000
#
# Coordination Sequence:
#
# PCOD9113125 Si02
#       7
#     2   1   2   2   2   2   2
#     4  10  20  40  68 105 136 176 221 287 344 405
#     4  10  24  42  68  96 140 178 228 278 342 414
#     4  10  22  41  71 101 141 175 225 287 347 405
#     4  11  27  46  70  98 138 187 231 277 347 415
#     4  12  24  43  75 104 137 179 235 288 349 410
#     4  12  28  47  69 100 141 185 231 288 341 415
#     4  12  24  42  73 101 136 181 231 282 346 409
#
# _framework density 21.188963000000001
#
# number of rings (size 3 to 8) (size 9 to 14) (size 15 to 20)
#    0.000    0.923    3.846    1.846    9.692    2.462 
#    0.000    0.000    0.000    0.000    0.000    0.000 
#    0.000    0.000    0.000    0.000    0.000    0.000 
#
# Total GULP energy -72734.690518 kJ/mol
# GULP energy per Si atom -5594.976194 kJ/mol
# Density = 2.114074 g / cm^3
# Si number density = 21.188963 Si / 1000 Ang^3
#
#
#
# Elastic Constant Matrix: (Units=GPa)
#
#
# Indices 1 2 3 4 5 6 
#
# 1 138.3584 29.9367 41.5020 0.0000 -10.1691 0.0000
# 2 29.9367 66.6252 12.5337 0.0000 -5.9987 0.0000
# 3 41.5020 12.5337 53.6796 0.0000 -4.6276 0.0000
# 4 0.0000 0.0000 0.0000 13.9148 0.0000 4.5415
# 5 -10.1691 -5.9987 -4.6276 0.0000 38.9353 0.0000
# 6 0.0000 0.0000 0.0000 4.5415 0.0000 -50.9807
#
#
#
# Elastic Compliance Matrix: (Units=1/GPa)
#
#
# Indices 1 2 3 4 5 6 
#
# 1 0.010083 -0.003102 -0.006957 0.000000 0.001329 0.000000
# 2 -0.003102 0.016810 -0.001387 0.000000 0.001615 0.000000
# 3 -0.006957 -0.001387 0.024407 0.000000 0.000870 0.000000
# 4 0.000000 0.000000 0.000000 0.069835 0.000000 0.006221
# 5 0.001329 0.001615 0.000870 0.000000 0.026383 0.000000
# 6 0.000000 0.000000 0.000000 0.006221 0.000000 -0.019061
#
#
# Mechanical properties :
#
#
# Convention : Reuss Voigt Hill
#
# Bulk Modulus (GPa) = 35.20288 47.40089 41.30189
# Shear Modulus (GPa) = 31.09097 12.01994 21.55545
#
# Velocity S-wave (km/s) = 3.83472 2.38433 3.19297
# Velocity P-wave (km/s) = 6.02134 5.47715 5.75568
#
# Compressibility (1/GPa) = 0.02840676
#
# Stress axis : x y z
#
# Youngs Moduli (GPa) = 99.17361 59.48966 40.97247
#
# Poissons Ratio (x) = 0.18456 0.28504
# Poissons Ratio (y) = 0.30767 0.05683
# Poissons Ratio (z) = 0.68994 0.08252
#
# Static dielectric constant tensor:
#      x y z
#    x 1.853340 0.000000 -0.032700 
#    y 0.000000 1.727710 0.000000 
#    z -0.032700 0.000000 1.787560 
# 
# From -- ./inp_files/5513.got.cif
#   From: 2010.05.17/outbox.cif.g08.bks.cpg/sg3_3_cif.got.tgz:5513.got - 2010.06.03 18:33:08.
