data_PCOD9113395
_publ_section_title
;
Structure prediction by ZEFSAII (Michael W. Deem and Ramdas Pophale) SiO2 
 PCOD9113395
Probable space group: P 2
;
_chemical_formula_sum "Si O2"
_cell_formula_units_Z 12
_cell_length_a 14.409235
_cell_length_b 8.269305
_cell_length_c 15.610504
_cell_angle_alpha 90.000000
_cell_angle_beta 18.834939
_cell_angle_gamma 90.000000
_cell_volume 600.507040
_symmetry_space_group_name_H-M "P 2"
_symmetry_group_IT_number 3
_symmetry_cell_setting 'monoclinic'
loop_
_space_group_symop_operation_xyz
x,y,z
-x,y,-z
loop_
_atom_site_type_symbol
_atom_site_label
_atom_site_fract_x
_atom_site_fract_y
_atom_site_fract_z
Si Si1 0.711517 0.294400 0.585847
Si Si2 0.323361 0.578869 0.895523
Si Si3 0.267136 0.084305 0.591273
Si Si4 0.346868 0.423822 0.044562
Si Si5 0.196839 0.878050 0.905372
Si Si6 0.811171 0.428927 0.250500
O O1 0.528117 0.428041 0.691940
O O2 0.020224 0.367146 0.339300
O O3 0.747326 0.138465 0.495690
O O4 0.520807 0.286695 0.838425
O O5 0.352927 0.574571 0.972586
O O6 0.376266 0.741932 0.798533
O O7 0.001078 0.530083 0.151002
O O8 0.016506 0.965845 0.841755
O O9 0.229758 0.249830 0.676180
O O10 0.578557 0.004439 0.330451
O O11 0.500000 0.455198 0.000000
O O12 0.000000 0.811336 0.000000
O O13 0.500000 0.499765 0.500000
O O14 0.000000 0.417822 0.000000
#
# Coordination Sequence:
#
# PCOD9113395 Si02
#       6
#     2   2   2   2   2   2
#     4  10  21  40  67  92 118 161 210 262 316 367
#     4  10  25  39  64  92 125 163 214 261 307 357
#     4  12  23  41  58  88 128 168 207 249 307 365
#     4  10  21  40  71  97 117 150 211 273 325 368
#     4  12  26  38  56  91 135 175 209 246 301 365
#     4  12  23  37  63  89 124 170 220 257 296 365
#
# _framework density 19.983112999999999
#
# number of rings (size 3 to 8) (size 9 to 14) (size 15 to 20)
#    1.000    0.000    1.667    7.000    2.333    1.333 
#    0.000    0.000    0.000    6.000    0.000    0.000 
#    0.000    0.000    0.000    0.000    0.000    0.000 
#
# Total GULP energy -67014.409905 kJ/mol
# GULP energy per Si atom -5584.534159 kJ/mol
# Density = 1.993763 g / cm^3
# Si number density = 19.983113 Si / 1000 Ang^3
#
#
#
# Elastic Constant Matrix: (Units=GPa)
#
#
# Indices 1 2 3 4 5 6 
#
# 1 130.0973 23.5950 25.1104 0.0000 3.4358 0.0000
# 2 23.5950 46.8850 10.0238 0.0000 6.6505 0.0000
# 3 25.1104 10.0238 118.5327 0.0000 -4.0642 0.0000
# 4 0.0000 0.0000 0.0000 22.4175 0.0000 1.8501
# 5 3.4358 6.6505 -4.0642 0.0000 30.5548 0.0000
# 6 0.0000 0.0000 0.0000 1.8501 0.0000 17.4351
#
#
#
# Elastic Compliance Matrix: (Units=1/GPa)
#
#
# Indices 1 2 3 4 5 6 
#
# 1 0.008716 -0.004019 -0.001517 0.000000 -0.000307 0.000000
# 2 -0.004019 0.024361 -0.001381 0.000000 -0.005034 0.000000
# 3 -0.001517 -0.001381 0.008932 0.000000 0.001659 0.000000
# 4 0.000000 0.000000 0.000000 0.045002 0.000000 -0.004775
# 5 -0.000307 -0.005034 0.001659 0.000000 0.034079 0.000000
# 6 0.000000 0.000000 0.000000 -0.004775 0.000000 0.057862
#
#
# Mechanical properties :
#
#
# Convention : Reuss Voigt Hill
#
# Bulk Modulus (GPa) = 35.49344 45.88593 40.68968
# Shear Modulus (GPa) = 24.73073 29.86721 27.29897
#
# Velocity S-wave (km/s) = 3.52174 3.87023 3.70009
# Velocity P-wave (km/s) = 5.85979 6.55620 6.21775
#
# Compressibility (1/GPa) = 0.02817422
#
# Stress axis : x y z
#
# Youngs Moduli (GPa) = 114.72715 41.05001 111.96196
#
# Poissons Ratio (x) = 0.16496 0.16987
# Poissons Ratio (y) = 0.46104 0.15466
# Poissons Ratio (z) = 0.17406 0.05670
#
# Static dielectric constant tensor:
#      x y z
#    x 1.714960 0.000000 0.024510 
#    y 0.000000 1.711930 0.000000 
#    z 0.024510 0.000000 1.728700 
# 
# From -- ./inp_files/13955.got.cif
#   From: 2010.05.17/outbox.cif.g08.bks.cpg/sg3_7_cif.got.tgz:13955.got - 2010.06.03 18:33:08.
