data_PCOD9113632
_publ_section_title
;
Structure prediction by ZEFSAII (Michael W. Deem and Ramdas Pophale) SiO2 
 PCOD9113632
Probable space group: P 2
;
_chemical_formula_sum "Si O2"
_cell_formula_units_Z 16
_cell_length_a 24.494363
_cell_length_b 5.004960
_cell_length_c 12.884901
_cell_angle_alpha 90.000000
_cell_angle_beta 156.820904
_cell_angle_gamma 90.000000
_cell_volume 621.741928
_symmetry_space_group_name_H-M "P 2"
_symmetry_group_IT_number 3
_symmetry_cell_setting 'monoclinic'
loop_
_space_group_symop_operation_xyz
x,y,z
-x,y,-z
loop_
_atom_site_type_symbol
_atom_site_label
_atom_site_fract_x
_atom_site_fract_y
_atom_site_fract_z
Si Si1 0.619326 0.701420 0.724192
Si Si2 0.748566 0.681966 0.600425
Si Si3 0.848141 0.409441 0.239843
Si Si4 0.175491 0.072147 0.009559
Si Si5 0.901017 0.178845 0.921333
Si Si6 0.319782 0.136879 0.883249
Si Si7 0.568043 0.370663 0.436753
Si Si8 0.647623 0.637601 0.202702
O O1 0.500000 0.944486 0.500000
O O2 0.522431 0.551808 0.455424
O O3 0.751743 0.791019 0.882702
O O4 0.721975 0.613300 0.999031
O O5 0.868476 0.492247 0.856319
O O6 0.612789 0.561027 0.419412
O O7 0.748805 0.645840 0.478068
O O8 0.769039 0.989934 0.662875
O O9 0.810295 0.241007 0.276267
O O10 0.000000 0.539180 0.500000
O O11 0.848669 0.206412 0.143099
O O12 0.056533 0.089810 0.888537
O O13 0.296091 0.240523 0.276846
O O14 0.000000 0.109551 0.000000
O O15 0.347252 0.346861 0.838945
O O16 0.315024 0.850232 0.821062
O O17 0.450127 0.172969 0.189780
O O18 0.500000 0.699436 0.000000
#
# Coordination Sequence:
#
# PCOD9113632 Si02
#       8
#     2   2   2   2   2   2   2   2
#     4  11  22  42  75 106 136 187 251 306 375 439
#     4  11  23  44  68 101 145 183 236 307 368 433
#     4  11  28  49  68 105 156 202 246 309 376 453
#     4  10  25  41  72 103 140 184 245 308 371 440
#     4  11  24  45  73 104 138 191 240 303 368 442
#     4  12  27  45  72 107 148 201 249 301 374 453
#     4  10  22  40  67 105 140 175 239 312 368 421
#     4  12  27  44  71 110 146 196 242 307 380 450
#
# _framework density 25.734148999999999
#
# number of rings (size 3 to 8) (size 9 to 14) (size 15 to 20)
#    0.000    1.000    3.750    1.500    8.750    2.500 
#    2.250    0.000    0.000    0.000    0.000    0.000 
#    0.000    0.000    0.000    0.000    0.000    0.000 
#
# Total GULP energy -89328.409875 kJ/mol
# GULP energy per Si atom -5583.025617 kJ/mol
# Density = 2.567558 g / cm^3
# Si number density = 25.734149 Si / 1000 Ang^3
#
#
#
# Elastic Constant Matrix: (Units=GPa)
#
#
# Indices 1 2 3 4 5 6 
#
# 1 165.2694 7.8568 15.3689 0.0000 -13.6745 0.0000
# 2 7.8568 72.6854 7.2929 0.0000 -9.3591 0.0000
# 3 15.3689 7.2929 76.1373 0.0000 -1.8055 0.0000
# 4 0.0000 0.0000 0.0000 22.5077 0.0000 -13.9935
# 5 -13.6745 -9.3591 -1.8055 0.0000 49.8692 0.0000
# 6 0.0000 0.0000 0.0000 -13.9935 0.0000 50.3854
#
#
#
# Elastic Compliance Matrix: (Units=1/GPa)
#
#
# Indices 1 2 3 4 5 6 
#
# 1 0.006313 -0.000353 -0.001202 0.000000 0.001621 0.000000
# 2 -0.000353 0.014246 -0.001233 0.000000 0.002532 0.000000
# 3 -0.001202 -0.001233 0.013493 0.000000 -0.000073 0.000000
# 4 0.000000 0.000000 0.000000 0.053702 0.000000 0.014915
# 5 0.001621 0.002532 -0.000073 0.000000 0.020970 0.000000
# 6 0.000000 0.000000 0.000000 0.014915 0.000000 0.023989
#
#
# Mechanical properties :
#
#
# Convention : Reuss Voigt Hill
#
# Bulk Modulus (GPa) = 35.11771 41.68103 38.39937
# Shear Modulus (GPa) = 33.83356 43.45733 38.64545
#
# Velocity S-wave (km/s) = 3.62986 4.11384 3.87941
# Velocity P-wave (km/s) = 5.58962 6.22871 5.91780
#
# Compressibility (1/GPa) = 0.02847566
#
# Stress axis : x y z
#
# Youngs Moduli (GPa) = 158.39177 70.19578 74.11116
#
# Poissons Ratio (x) = 0.02478 0.08909
# Poissons Ratio (y) = 0.05592 0.09140
# Poissons Ratio (z) = 0.19041 0.08657
#
# Static dielectric constant tensor:
#      x y z
#    x 2.239110 0.000000 -0.000600 
#    y 0.000000 2.002320 0.000000 
#    z -0.000600 0.000000 2.053430 
# 
# From -- ./inp_files/12713.got.cif
#   From: 2010.05.17/outbox.cif.g08.bks.cpg/sg3_7_cif.got.tgz:12713.got - 2010.06.03 18:33:08.
