data_PCOD9113953
_publ_section_title
;
Structure prediction by ZEFSAII (Michael W. Deem and Ramdas Pophale) SiO2 
 PCOD9113953
Probable space group: P 2
;
_chemical_formula_sum "Si O2"
_cell_formula_units_Z 14
_cell_length_a 11.392556
_cell_length_b 6.546713
_cell_length_c 8.677200
_cell_angle_alpha 90.000000
_cell_angle_beta 104.414358
_cell_angle_gamma 90.000000
_cell_volume 626.805847
_symmetry_space_group_name_H-M "P 2"
_symmetry_group_IT_number 3
_symmetry_cell_setting 'monoclinic'
loop_
_space_group_symop_operation_xyz
x,y,z
-x,y,-z
loop_
_atom_site_type_symbol
_atom_site_label
_atom_site_fract_x
_atom_site_fract_y
_atom_site_fract_z
Si Si1 0.000000 0.092041 0.000000
Si Si2 0.969097 0.332278 0.666142
Si Si3 0.614318 0.303483 0.926269
Si Si4 0.788098 0.533690 0.194097
Si Si5 0.747222 0.882831 0.967355
Si Si6 0.694705 0.373437 0.483149
Si Si7 0.403253 0.654979 0.313949
Si Si8 0.500000 0.028130 0.500000
O O1 0.987830 0.209230 0.831781
O O2 0.119171 0.959719 0.017654
O O3 0.825556 0.367683 0.608792
O O4 0.000000 0.249352 0.500000
O O5 0.068660 0.513669 0.722811
O O6 0.569935 0.443747 0.769035
O O7 0.500000 0.318426 0.000000
O O8 0.737678 0.401065 0.035445
O O9 0.654089 0.070043 0.926538
O O10 0.746065 0.759537 0.129322
O O11 0.722665 0.425422 0.316135
O O12 0.713046 0.733564 0.817414
O O13 0.627542 0.570757 0.528348
O O14 0.614346 0.173282 0.495108
O O15 0.477126 0.865847 0.354866
#
# Coordination Sequence:
#
# PCOD9113953 Si02
#       8
#     1   2   2   2   2   2   2   1
#     4  12  22  44  78 104 154 194 244 332 380 452
#     4  10  23  47  74 108 148 200 253 314 390 449
#     4  11  25  47  71 102 151 188 248 314 369 455
#     4  10  25  47  72 105 144 194 248 312 384 448
#     4  11  26  45  72 114 137 200 255 298 390 465
#     4  11  26  48  73 105 153 193 247 324 366 460
#     4  11  26  45  69 110 143 194 254 300 384 460
#     4  12  26  46  76 108 148 200 254 302 400 444
#
# _framework density 22.335464999999999
#
# number of rings (size 3 to 8) (size 9 to 14) (size 15 to 20)
#    0.000    1.143    1.429    3.000   10.000    3.429 
#    2.571    0.000    0.000    0.000    0.000    0.000 
#    0.000    0.000    0.000    0.000    0.000    0.000 
#
# Total GULP energy -77985.469439 kJ/mol
# GULP energy per Si atom -5570.390674 kJ/mol
# Density = 2.228463 g / cm^3
# Si number density = 22.335465 Si / 1000 Ang^3
#
#
#
# Elastic Constant Matrix: (Units=GPa)
#
#
# Indices 1 2 3 4 5 6 
#
# 1 103.3104 51.4145 23.5036 0.0000 24.2847 0.0000
# 2 51.4145 141.6064 68.3562 0.0000 6.9524 0.0000
# 3 23.5036 68.3562 119.5489 0.0000 13.5142 0.0000
# 4 0.0000 0.0000 0.0000 30.7404 0.0000 5.1124
# 5 24.2847 6.9524 13.5142 0.0000 31.2021 0.0000
# 6 0.0000 0.0000 0.0000 5.1124 0.0000 13.9994
#
#
#
# Elastic Compliance Matrix: (Units=1/GPa)
#
#
# Indices 1 2 3 4 5 6 
#
# 1 0.014612 -0.005494 0.001489 0.000000 -0.010793 0.000000
# 2 -0.005494 0.011822 -0.006167 0.000000 0.004313 0.000000
# 3 0.001489 -0.006167 0.012170 0.000000 -0.005056 0.000000
# 4 0.000000 0.000000 0.000000 0.034634 0.000000 -0.012648
# 5 -0.010793 0.004313 -0.005056 0.000000 0.041678 0.000000
# 6 0.000000 0.000000 0.000000 -0.012648 0.000000 0.076050
#
#
# Mechanical properties :
#
#
# Convention : Reuss Voigt Hill
#
# Bulk Modulus (GPa) = 54.76681 72.33492 63.55087
# Shear Modulus (GPa) = 22.99937 29.93449 26.46693
#
# Velocity S-wave (km/s) = 3.21241 3.66488 3.44608
# Velocity P-wave (km/s) = 6.19135 7.09679 6.65948
#
# Compressibility (1/GPa) = 0.01825923
#
# Stress axis : x y z
#
# Youngs Moduli (GPa) = 68.43538 84.58957 82.17126
#
# Poissons Ratio (x) = 0.46475 -0.12234
# Poissons Ratio (y) = 0.37600 0.50674
# Poissons Ratio (z) = -0.10189 0.52166
#
# Static dielectric constant tensor:
#      x y z
#    x 1.835560 0.000000 0.017590 
#    y 0.000000 1.836840 0.000000 
#    z 0.017590 0.000000 1.918360 
# 
# From -- ./inp_files/6751.got.cif
#   From: 2010.05.17/outbox.cif.g08.bks.cpg/sg3_4_cif.got.tgz:6751.got - 2010.06.03 18:33:08.
