data_PCOD9113750
_publ_section_title
;
Structure prediction by ZEFSAII (Michael W. Deem and Ramdas Pophale) SiO2 
 PCOD9113750
Probable space group: P 2
;
_chemical_formula_sum "Si O2"
_cell_formula_units_Z 11
_cell_length_a 5.220311
_cell_length_b 15.523050
_cell_length_c 5.164149
_cell_angle_alpha 90.000000
_cell_angle_beta 91.522647
_cell_angle_gamma 90.000000
_cell_volume 418.329818
_symmetry_space_group_name_H-M "P 2"
_symmetry_group_IT_number 3
_symmetry_cell_setting 'monoclinic'
loop_
_space_group_symop_operation_xyz
x,y,z
-x,y,-z
loop_
_atom_site_type_symbol
_atom_site_label
_atom_site_fract_x
_atom_site_fract_y
_atom_site_fract_z
Si Si1 0.763010 0.515980 0.670164
Si Si2 0.668738 0.697982 0.774692
Si Si3 0.674639 0.328961 0.752197
Si Si4 0.257625 0.951293 0.188560
Si Si5 0.750866 0.138849 0.827371
Si Si6 0.000000 0.816585 0.500000
O O1 0.500000 0.510724 0.500000
O O2 0.726064 0.598581 0.849108
O O3 0.821714 0.419608 0.773075
O O4 0.000000 0.540294 0.500000
O O5 0.500000 0.700143 0.500000
O O6 0.931717 0.747846 0.722979
O O7 0.500000 0.737289 0.000000
O O8 0.500000 0.336945 0.500000
O O9 0.795214 0.234435 0.716180
O O10 0.500000 0.326087 0.000000
O O11 0.222030 0.884164 0.422372
O O12 0.270400 0.047449 0.315162
O O13 0.500000 0.941920 0.000000
O O14 0.000000 0.941058 0.000000
O O15 0.500000 0.144484 0.000000
O O16 0.000000 0.125024 0.000000
#
# Coordination Sequence:
#
# PCOD9113750 Si02
#       6
#     2   2   2   2   2   1
#     4  10  22  45  68 104 142 186 235 290 353 424
#     4  11  26  47  72 105 145 188 238 299 360 426
#     4  10  22  43  70 104 141 188 234 288 349 425
#     4  10  24  46  69 100 143 186 240 299 361 424
#     4   9  20  43  67  98 139 185 236 289 354 421
#     4  12  26  42  72 104 138 190 244 296 362 430
#
# _framework density 26.295041999999999
#
# number of rings (size 3 to 8) (size 9 to 14) (size 15 to 20)
#    0.000    1.818    0.909    1.091    5.091    5.818 
#   18.000    5.455    0.000    0.000    0.000    0.000 
#    0.000    0.000    0.000    0.000    0.000    0.000 
#
# Total GULP energy -61364.149646 kJ/mol
# GULP energy per Si atom -5578.559059 kJ/mol
# Density = 2.623519 g / cm^3
# Si number density = 26.295042 Si / 1000 Ang^3
#
#
#
# Elastic Constant Matrix: (Units=GPa)
#
#
# Indices 1 2 3 4 5 6 
#
# 1 154.9493 2.8611 51.8783 0.0000 -15.0396 0.0000
# 2 2.8611 265.7186 30.7910 0.0000 -23.0623 0.0000
# 3 51.8783 30.7910 140.4443 0.0000 -30.0474 0.0000
# 4 0.0000 0.0000 0.0000 27.4429 0.0000 -30.4573
# 5 -15.0396 -23.0623 -30.0474 0.0000 67.3108 0.0000
# 6 0.0000 0.0000 0.0000 -30.4573 0.0000 21.1058
#
#
#
# Elastic Compliance Matrix: (Units=1/GPa)
#
#
# Indices 1 2 3 4 5 6 
#
# 1 0.007398 0.000278 -0.002675 0.000000 0.000554 0.000000
# 2 0.000278 0.003940 -0.000735 0.000000 0.001084 0.000000
# 3 -0.002675 -0.000735 0.008942 0.000000 0.003142 0.000000
# 4 0.000000 0.000000 0.000000 -0.060571 0.000000 -0.087409
# 5 0.000554 0.001084 0.003142 0.000000 0.016754 0.000000
# 6 0.000000 0.000000 0.000000 -0.087409 0.000000 -0.078758
#
#
# Mechanical properties :
#
#
# Convention : Reuss Voigt Hill
#
# Bulk Modulus (GPa) = 71.34415 81.35256 76.34835
# Shear Modulus (GPa) = -54.72876 54.87733 0.07428
#
# Velocity S-wave (km/s) = -4.56711 4.57331 0.16826
# Velocity P-wave (km/s) = 0.78759 7.67414 5.39778
#
# Compressibility (1/GPa) = 0.01401657
#
# Stress axis : x y z
#
# Youngs Moduli (GPa) = 135.17052 253.83291 111.83469
#
# Poissons Ratio (x) = -0.07068 0.29918
# Poissons Ratio (y) = -0.03764 0.08216
# Poissons Ratio (z) = 0.36161 0.18648
#
# Static dielectric constant tensor:
#      x y z
#    x 2.041180 0.000000 0.063980 
#    y 0.000000 2.232360 0.000000 
#    z 0.063980 0.000000 2.075390 
# 
# From -- ./inp_files/403.got.cif
#   From: 2010.05.17/outbox.cif.g08.bks.cpg/sg3_1_cif.got.tgz:403.got - 2010.06.03 18:33:08.
