data_PCOD9113935
_publ_section_title
;
Structure prediction by ZEFSAII (Michael W. Deem and Ramdas Pophale) SiO2 
 PCOD9113935
Probable space group: P 2
;
_chemical_formula_sum "Si O2"
_cell_formula_units_Z 11
_cell_length_a 8.360042
_cell_length_b 7.079034
_cell_length_c 14.071569
_cell_angle_alpha 90.000000
_cell_angle_beta 35.386827
_cell_angle_gamma 90.000000
_cell_volume 482.251802
_symmetry_space_group_name_H-M "P 2"
_symmetry_group_IT_number 3
_symmetry_cell_setting 'monoclinic'
loop_
_space_group_symop_operation_xyz
x,y,z
-x,y,-z
loop_
_atom_site_type_symbol
_atom_site_label
_atom_site_fract_x
_atom_site_fract_y
_atom_site_fract_z
Si Si1 0.335847 0.193600 0.483532
Si Si2 0.077440 0.508136 0.350960
Si Si3 0.782488 0.015749 0.979250
Si Si4 0.376022 0.352568 0.839617
Si Si5 0.000000 0.702035 0.000000
Si Si6 0.160799 0.934685 0.266229
O O1 0.500000 0.141841 0.500000
O O2 0.529326 0.244626 0.301052
O O3 0.154951 0.383245 0.586676
O O4 0.109124 0.037635 0.561821
O O5 0.361559 0.392147 0.219399
O O6 0.115018 0.711157 0.287035
O O7 0.000000 0.534098 0.500000
O O8 0.464441 0.968325 0.162627
O O9 0.829735 0.221268 0.000468
O O10 0.814450 0.015773 0.851820
O O11 0.970221 0.847266 0.927770
O O12 0.254955 0.557641 0.873322
#
# Coordination Sequence:
#
# PCOD9113935 Si02
#       6
#     2   2   2   2   1   2
#     4  11  27  44  71 101 137 184 233 292 337 409
#     4  10  23  45  72  97 136 188 232 283 343 412
#     4  11  26  45  72 103 135 189 228 289 350 410
#     4  11  25  47  72 102 140 186 232 283 351 410
#     4  12  26  44  74 102 142 178 238 282 348 418
#     4  11  25  46  70 100 141 181 235 284 348 412
#
# _framework density 22.809659
#
# number of rings (size 3 to 8) (size 9 to 14) (size 15 to 20)
#    0.000    1.091    3.636    0.545   10.182    0.727 
#    0.000    0.000    0.000    0.000    0.000    0.000 
#    0.000    0.000    0.000    0.000    0.000    0.000 
#
# Total GULP energy -61533.472415 kJ/mol
# GULP energy per Si atom -5593.952038 kJ/mol
# Density = 2.275774 g / cm^3
# Si number density = 22.809659 Si / 1000 Ang^3
#
#
#
# Elastic Constant Matrix: (Units=GPa)
#
#
# Indices 1 2 3 4 5 6 
#
# 1 72.2732 15.1984 5.7945 0.0000 -5.4685 0.0000
# 2 15.1984 122.6478 26.9074 0.0000 5.2596 0.0000
# 3 5.7945 26.9074 53.4477 0.0000 -9.3334 0.0000
# 4 0.0000 0.0000 0.0000 24.4178 0.0000 -10.9233
# 5 -5.4685 5.2596 -9.3334 0.0000 30.6879 0.0000
# 6 0.0000 0.0000 0.0000 -10.9233 0.0000 39.9420
#
#
#
# Elastic Compliance Matrix: (Units=1/GPa)
#
#
# Indices 1 2 3 4 5 6 
#
# 1 0.014460 -0.001889 -0.000116 0.000000 0.002865 0.000000
# 2 -0.001889 0.009709 -0.005314 0.000000 -0.003617 0.000000
# 3 -0.000116 -0.005314 0.022762 0.000000 0.007813 0.000000
# 4 0.000000 0.000000 0.000000 0.046663 0.000000 0.012761
# 5 0.002865 -0.003617 0.007813 0.000000 0.036093 0.000000
# 6 0.000000 0.000000 0.000000 0.012761 0.000000 0.028526
#
#
# Mechanical properties :
#
#
# Convention : Reuss Voigt Hill
#
# Bulk Modulus (GPa) = 30.96844 38.24105 34.60475
# Shear Modulus (GPa) = 27.23080 32.37409 29.80244
#
# Velocity S-wave (km/s) = 3.45893 3.77147 3.61857
# Velocity P-wave (km/s) = 5.43678 5.98055 5.71514
#
# Compressibility (1/GPa) = 0.03229094
#
# Stress axis : x y z
#
# Youngs Moduli (GPa) = 69.15733 103.00183 43.93230
#
# Poissons Ratio (x) = 0.19459 0.00511
# Poissons Ratio (y) = 0.13065 0.23347
# Poissons Ratio (z) = 0.00804 0.54740
#
# Static dielectric constant tensor:
#      x y z
#    x 1.880170 0.000000 -0.051470 
#    y 0.000000 1.805990 0.000000 
#    z -0.051470 0.000000 1.889730 
# 
# From -- ./inp_files/4849.got.cif
#   From: 2010.05.17/outbox.cif.g08.bks.cpg/sg3_3_cif.got.tgz:4849.got - 2010.06.03 18:33:08.
