data_PCOD9113594
_publ_section_title
;
Structure prediction by ZEFSAII (Michael W. Deem and Ramdas Pophale) SiO2 
 PCOD9113594
Probable space group: P 2
;
_chemical_formula_sum "Si O2"
_cell_formula_units_Z 16
_cell_length_a 5.739364
_cell_length_b 8.714273
_cell_length_c 15.776226
_cell_angle_alpha 90.000000
_cell_angle_beta 59.355329
_cell_angle_gamma 90.000000
_cell_volume 678.845014
_symmetry_space_group_name_H-M "P 2"
_symmetry_group_IT_number 3
_symmetry_cell_setting 'monoclinic'
loop_
_space_group_symop_operation_xyz
x,y,z
-x,y,-z
loop_
_atom_site_type_symbol
_atom_site_label
_atom_site_fract_x
_atom_site_fract_y
_atom_site_fract_z
Si Si1 0.820500 0.579400 0.450646
Si Si2 0.721061 0.241489 0.521427
Si Si3 0.973588 0.709678 0.759407
Si Si4 0.772252 0.962882 0.202016
Si Si5 0.466493 0.265913 0.259978
Si Si6 0.737463 0.197698 0.869389
Si Si7 0.985609 0.460022 0.100700
Si Si8 0.462611 0.896075 0.911613
O O1 0.500000 0.626521 0.500000
O O2 0.811406 0.394141 0.455145
O O3 0.981834 0.631489 0.337957
O O4 0.000000 0.627234 0.500000
O O5 0.500000 0.163380 0.500000
O O6 0.590396 0.306061 0.632757
O O7 0.000000 0.158959 0.500000
O O8 0.212655 0.832207 0.731460
O O9 0.975822 0.591628 0.837142
O O10 0.700864 0.809917 0.816453
O O11 0.781747 0.881056 0.108637
O O12 0.531272 0.083295 0.255286
O O13 0.028266 0.073630 0.161204
O O14 0.242364 0.271578 0.227988
O O15 0.709100 0.369043 0.176721
O O16 0.783855 0.332016 0.926727
O O17 0.482059 0.083014 0.915995
O O18 0.000000 0.509072 0.000000
O O19 0.500000 0.837817 0.000000
#
# Coordination Sequence:
#
# PCOD9113594 Si02
#       8
#     2   2   2   2   2   2   2   2
#     4  10  23  42  71  99 131 183 232 286 356 422
#     4  10  22  39  70 103 132 176 231 288 355 415
#     4  11  25  43  66  99 142 180 233 283 352 427
#     4   9  22  43  68  90 134 178 232 282 347 406
#     4  10  22  43  70  96 135 177 235 291 346 417
#     4   9  22  39  67  94 130 177 233 284 343 409
#     4  11  25  38  63 103 144 177 223 288 353 416
#     4  10  23  41  69  94 132 189 234 276 345 421
#
# _framework density 23.569445000000002
#
# number of rings (size 3 to 8) (size 9 to 14) (size 15 to 20)
#    0.000    2.000    0.000    1.500   15.750    2.000 
#    0.000    0.625    0.000    0.000    0.000    0.000 
#    0.000    0.000    0.000    0.000    0.000    0.000 
#
# Total GULP energy -89226.949932 kJ/mol
# GULP energy per Si atom -5576.684371 kJ/mol
# Density = 2.351580 g / cm^3
# Si number density = 23.569445 Si / 1000 Ang^3
#
#
#
# Elastic Constant Matrix: (Units=GPa)
#
#
# Indices 1 2 3 4 5 6 
#
# 1 131.5765 16.9067 41.9273 0.0000 29.5265 0.0000
# 2 16.9067 86.0830 26.4110 0.0000 8.4445 0.0000
# 3 41.9273 26.4110 117.0010 0.0000 18.2679 0.0000
# 4 0.0000 0.0000 0.0000 20.4963 0.0000 1.9458
# 5 29.5265 8.4445 18.2679 0.0000 37.0182 0.0000
# 6 0.0000 0.0000 0.0000 1.9458 0.0000 20.1142
#
#
#
# Elastic Compliance Matrix: (Units=1/GPa)
#
#
# Indices 1 2 3 4 5 6 
#
# 1 0.009917 -0.000565 -0.002396 0.000000 -0.006599 0.000000
# 2 -0.000565 0.012599 -0.002452 0.000000 -0.001213 0.000000
# 3 -0.002396 -0.002452 0.010372 0.000000 -0.002648 0.000000
# 4 0.000000 0.000000 0.000000 0.049241 0.000000 -0.004764
# 5 -0.006599 -0.001213 -0.002648 0.000000 0.033861 0.000000
# 6 0.000000 0.000000 0.000000 -0.004764 0.000000 0.050177
#
#
# Mechanical properties :
#
#
# Convention : Reuss Voigt Hill
#
# Bulk Modulus (GPa) = 45.32654 56.12785 50.72720
# Shear Modulus (GPa) = 27.12263 32.15347 29.63805
#
# Velocity S-wave (km/s) = 3.39596 3.69752 3.54994
# Velocity P-wave (km/s) = 5.88638 6.48802 6.19451
#
# Compressibility (1/GPa) = 0.02206213
#
# Stress axis : x y z
#
# Youngs Moduli (GPa) = 100.83673 79.37123 96.40892
#
# Poissons Ratio (x) = 0.04487 0.23098
# Poissons Ratio (y) = 0.05700 0.23640
# Poissons Ratio (z) = 0.24159 0.19462
#
# Static dielectric constant tensor:
#      x y z
#    x 2.062700 0.000000 -0.003290 
#    y 0.000000 1.869420 0.000000 
#    z -0.003290 0.000000 2.014180 
# 
# From -- ./inp_files/13002.got.cif
#   From: 2010.05.17/outbox.cif.g08.bks.cpg/sg3_7_cif.got.tgz:13002.got - 2010.06.03 18:33:08.
