data_PCOD9113411
_publ_section_title
;
Structure prediction by ZEFSAII (Michael W. Deem and Ramdas Pophale) SiO2 
 PCOD9113411
Probable space group: P 2
;
_chemical_formula_sum "Si O2"
_cell_formula_units_Z 11
_cell_length_a 8.737137
_cell_length_b 6.009507
_cell_length_c 13.150217
_cell_angle_alpha 90.000000
_cell_angle_beta 45.170550
_cell_angle_gamma 90.000000
_cell_volume 489.682765
_symmetry_space_group_name_H-M "P 2"
_symmetry_group_IT_number 3
_symmetry_cell_setting 'monoclinic'
loop_
_space_group_symop_operation_xyz
x,y,z
-x,y,-z
loop_
_atom_site_type_symbol
_atom_site_label
_atom_site_fract_x
_atom_site_fract_y
_atom_site_fract_z
Si Si1 0.294545 0.607260 0.647534
Si Si2 0.000000 0.306056 0.500000
Si Si3 0.755435 0.639617 0.098190
Si Si4 0.028879 0.972038 0.671057
Si Si5 0.143890 0.335011 0.124960
Si Si6 0.690521 0.605136 0.768442
O O1 0.500000 0.499346 0.500000
O O2 0.336856 0.640068 0.745900
O O3 0.231918 0.833789 0.617581
O O4 0.083587 0.455799 0.746011
O O5 0.206776 0.454725 0.370204
O O6 0.064133 0.154665 0.566966
O O7 0.544669 0.716747 0.134224
O O8 0.795483 0.407170 0.017548
O O9 0.000000 0.734896 0.000000
O O10 0.863934 0.797106 0.701439
O O11 0.904470 0.081767 0.825531
O O12 0.295242 0.443099 0.140279
#
# Coordination Sequence:
#
# PCOD9113411 Si02
#       6
#     2   1   2   2   2   2
#     4  10  23  40  66  98 142 180 219 283 339 398
#     4  10  22  38  68 102 134 174 232 284 340 390
#     4  10  22  43  65  93 136 186 212 272 351 389
#     4  10  22  41  68 101 134 175 237 277 329 414
#     4   9  21  44  64  95 134 177 233 276 335 401
#     4  10  21  40  70  94 134 178 227 285 338 392
#
# _framework density 22.463525000000001
#
# number of rings (size 3 to 8) (size 9 to 14) (size 15 to 20)
#    0.000    2.182    0.000    1.091   10.182    0.727 
#    3.273   35.455    0.000    0.000    0.000    0.000 
#    0.000    0.000    0.000    0.000    0.000    0.000 
#
# Total GULP energy -61280.464862 kJ/mol
# GULP energy per Si atom -5570.951351 kJ/mol
# Density = 2.241240 g / cm^3
# Si number density = 22.463525 Si / 1000 Ang^3
#
#
#
# Elastic Constant Matrix: (Units=GPa)
#
#
# Indices 1 2 3 4 5 6 
#
# 1 103.5920 6.8802 8.8088 0.0000 -10.0379 0.0000
# 2 6.8802 58.9652 -1.2555 0.0000 6.6487 0.0000
# 3 8.8088 -1.2555 64.7423 0.0000 0.2449 0.0000
# 4 0.0000 0.0000 0.0000 4.4966 0.0000 15.3760
# 5 -10.0379 6.6487 0.2449 0.0000 37.3897 0.0000
# 6 0.0000 0.0000 0.0000 15.3760 0.0000 16.1520
#
#
#
# Elastic Compliance Matrix: (Units=1/GPa)
#
#
# Indices 1 2 3 4 5 6 
#
# 1 0.010170 -0.001557 -0.001425 0.000000 0.003017 0.000000
# 2 -0.001557 0.017552 0.000566 0.000000 -0.003543 0.000000
# 3 -0.001425 0.000566 0.015653 0.000000 -0.000586 0.000000
# 4 0.000000 0.000000 0.000000 -0.098612 0.000000 0.093875
# 5 0.003017 -0.003543 -0.000586 0.000000 0.028189 0.000000
# 6 0.000000 0.000000 0.000000 0.093875 0.000000 -0.027453
#
#
# Mechanical properties :
#
#
# Convention : Reuss Voigt Hill
#
# Bulk Modulus (GPa) = 25.94587 28.46294 27.20440
# Shear Modulus (GPa) = -135.79731 25.79872 -54.99929
#
# Velocity S-wave (km/s) = -7.78355 3.39259 -4.95348
# Velocity P-wave (km/s) = 8.31882 5.29570 4.53643
#
# Compressibility (1/GPa) = 0.03854178
#
# Stress axis : x y z
#
# Youngs Moduli (GPa) = 98.32670 56.97233 63.88561
#
# Poissons Ratio (x) = 0.08872 0.09106
# Poissons Ratio (y) = 0.15311 -0.03614
# Poissons Ratio (z) = 0.14015 -0.03223
#
# Static dielectric constant tensor:
#      x y z
#    x 1.850020 0.000000 0.022670 
#    y 0.000000 1.844150 0.000000 
#    z 0.022670 0.000000 1.861480 
# 
# From -- ./inp_files/8421.got.cif
#   From: 2010.05.17/outbox.cif.g08.bks.cpg/sg3_5_cif.got.tgz:8421.got - 2010.06.03 18:33:08.
