data_PCOD9113764
_publ_section_title
;
Structure prediction by ZEFSAII (Michael W. Deem and Ramdas Pophale) SiO2 
 PCOD9113764
Probable space group: P 2
;
_chemical_formula_sum "Si O2"
_cell_formula_units_Z 15
_cell_length_a 19.815951
_cell_length_b 5.591905
_cell_length_c 5.203703
_cell_angle_alpha 90.000000
_cell_angle_beta 90.039576
_cell_angle_gamma 90.000000
_cell_volume 576.616548
_symmetry_space_group_name_H-M "P 2"
_symmetry_group_IT_number 3
_symmetry_cell_setting 'monoclinic'
loop_
_space_group_symop_operation_xyz
x,y,z
-x,y,-z
loop_
_atom_site_type_symbol
_atom_site_label
_atom_site_fract_x
_atom_site_fract_y
_atom_site_fract_z
Si Si1 0.435620 0.044960 0.379304
Si Si2 0.500000 0.679950 0.000000
Si Si3 0.366885 0.423105 0.011346
Si Si4 0.759860 0.451678 0.716719
Si Si5 0.953464 0.421187 0.744791
Si Si6 0.194789 0.710006 0.793258
Si Si7 0.923064 0.924674 0.904563
Si Si8 0.300159 0.083530 0.627128
O O1 0.500000 0.180522 0.500000
O O2 0.399339 0.206198 0.168723
O O3 0.373859 0.979487 0.563155
O O4 0.471340 0.831249 0.234214
O O5 0.432807 0.548914 0.906659
O O6 0.315675 0.551306 0.209895
O O7 0.320000 0.318767 0.788548
O O8 0.796115 0.580397 0.479271
O O9 0.742522 0.182865 0.617716
O O10 0.799016 0.515558 0.977822
O O11 0.923610 0.689067 0.724897
O O12 0.000000 0.376513 0.500000
O O13 0.907552 0.183080 0.778230
O O14 0.000000 0.436237 0.000000
O O15 0.255630 0.901425 0.788226
O O16 0.127496 0.857496 0.864398
O O17 0.000000 0.948391 0.000000
#
# Coordination Sequence:
#
# PCOD9113764 Si02
#       8
#     2   1   2   2   2   2   2   2
#     4  11  25  41  69 105 142 194 249 314 391 459
#     4  12  24  40  68 102 142 190 248 310 392 462
#     4  11  25  46  71 101 149 192 256 316 384 465
#     4  11  27  47  74 110 147 202 257 315 393 466
#     4  10  22  43  74 108 154 199 250 311 390 464
#     4  12  28  47  78 112 153 205 264 321 404 476
#     4  10  25  49  78 118 158 208 261 333 400 481
#     4  11  26  49  73 105 158 199 263 326 389 479
#
# _framework density 26.013819999999999
#
# number of rings (size 3 to 8) (size 9 to 14) (size 15 to 20)
#    0.000    1.067    1.333    3.200    9.333    6.933 
#    2.400    0.000    0.000    0.000    0.000    0.000 
#    0.000    0.000    0.000    0.000    0.000    0.000 
#
# Total GULP energy -83902.949280 kJ/mol
# GULP energy per Si atom -5593.529952 kJ/mol
# Density = 2.595461 g / cm^3
# Si number density = 26.013820 Si / 1000 Ang^3
#
#
#
# Elastic Constant Matrix: (Units=GPa)
#
#
# Indices 1 2 3 4 5 6 
#
# 1 113.3057 30.7669 55.0878 0.0000 -36.6904 0.0000
# 2 30.7669 127.2714 40.9149 0.0000 -21.0053 0.0000
# 3 55.0878 40.9149 145.2813 0.0000 -25.3120 0.0000
# 4 0.0000 0.0000 0.0000 79.5013 0.0000 -6.0920
# 5 -36.6904 -21.0053 -25.3120 0.0000 64.4844 0.0000
# 6 0.0000 0.0000 0.0000 -6.0920 0.0000 45.2224
#
#
#
# Elastic Compliance Matrix: (Units=1/GPa)
#
#
# Indices 1 2 3 4 5 6 
#
# 1 0.012582 -0.001006 -0.003539 0.000000 0.005442 0.000000
# 2 -0.001006 0.008966 -0.001862 0.000000 0.001618 0.000000
# 3 -0.003539 -0.001862 0.008902 0.000000 0.000874 0.000000
# 4 0.000000 0.000000 0.000000 0.012710 0.000000 0.001712
# 5 0.005442 0.001618 0.000874 0.000000 0.019474 0.000000
# 6 0.000000 0.000000 0.000000 0.001712 0.000000 0.022344
#
#
# Mechanical properties :
#
#
# Convention : Reuss Voigt Hill
#
# Bulk Modulus (GPa) = 56.70317 71.04420 63.87368
# Shear Modulus (GPa) = 48.23051 55.11421 51.67236
#
# Velocity S-wave (km/s) = 4.31052 4.60787 4.46168
# Velocity P-wave (km/s) = 6.82779 7.46187 7.15186
#
# Compressibility (1/GPa) = 0.01763570
#
# Stress axis : x y z
#
# Youngs Moduli (GPa) = 79.48036 111.53445 112.33569
#
# Poissons Ratio (x) = 0.11215 0.39760
# Poissons Ratio (y) = 0.07992 0.20916
# Poissons Ratio (z) = 0.28132 0.20767
#
# Static dielectric constant tensor:
#      x y z
#    x 2.245710 0.000000 0.097870 
#    y 0.000000 2.114290 0.000000 
#    z 0.097870 0.000000 2.076450 
# 
# From -- ./inp_files/3879.got.cif
#   From: 2010.05.17/outbox.cif.g08.bks.cpg/sg3_2_cif.got.tgz:3879.got - 2010.06.03 18:33:08.
