data_PCOD9113383
_publ_section_title
;
Structure prediction by ZEFSAII (Michael W. Deem and Ramdas Pophale) SiO2 
 PCOD9113383
Probable space group: P 2
;
_chemical_formula_sum "Si O2"
_cell_formula_units_Z 16
_cell_length_a 8.334841
_cell_length_b 19.157859
_cell_length_c 8.363612
_cell_angle_alpha 90.000000
_cell_angle_beta 34.557250
_cell_angle_gamma 90.000000
_cell_volume 757.524910
_symmetry_space_group_name_H-M "P 2"
_symmetry_group_IT_number 3
_symmetry_cell_setting 'monoclinic'
loop_
_space_group_symop_operation_xyz
x,y,z
-x,y,-z
loop_
_atom_site_type_symbol
_atom_site_label
_atom_site_fract_x
_atom_site_fract_y
_atom_site_fract_z
Si Si1 0.099571 0.543820 0.102064
Si Si2 0.148475 0.001900 0.052339
Si Si3 0.312394 0.776186 0.307342
Si Si4 0.316608 0.142935 0.803077
Si Si5 0.267878 0.923928 0.400384
Si Si6 0.198286 0.404462 0.189512
Si Si7 0.316592 0.298887 0.805428
Si Si8 0.601359 0.632404 0.600506
O O1 0.051637 0.469888 0.224276
O O2 0.918726 0.604276 0.333959
O O3 0.416765 0.572232 0.834684
O O4 0.000000 0.537174 0.000000
O O5 0.876107 0.985323 0.381094
O O6 0.408785 0.950792 0.887339
O O7 0.000000 0.992921 0.000000
O O8 0.281346 0.079362 0.954176
O O9 0.304430 0.843948 0.429163
O O10 0.430909 0.706638 0.289721
O O11 0.000000 0.759945 0.500000
O O12 0.500000 0.797410 0.000000
O O13 0.500000 0.119749 0.500000
O O14 0.419538 0.220319 0.766568
O O15 0.000000 0.153053 0.000000
O O16 0.000000 0.912892 0.500000
O O17 0.000000 0.380057 0.500000
O O18 0.500000 0.431942 0.000000
O O19 0.289080 0.346785 0.983945
O O20 0.500000 0.323111 0.500000
O O21 0.000000 0.295929 0.000000
O O22 0.500000 0.638611 0.500000
#
# Coordination Sequence:
#
# PCOD9113383 Si02
#       8
#     2   2   2   2   2   2   2   2
#     4  10  22  40  60  84 116 156 194 235 294 364
#     4  11  21  37  62  90 116 150 201 255 296 343
#     4  11  23  40  60  81 114 158 196 235 292 365
#     4   9  18  35  60  89 116 148 198 250 294 350
#     4  11  23  40  57  84 123 161 196 236 297 370
#     4  12  25  39  59  91 126 155 196 254 299 347
#     4  10  21  40  65  87 117 165 206 241 299 371
#     4  10  22  39  61  88 114 143 194 252 294 342
#
# _framework density 21.121417999999998
#
# number of rings (size 3 to 8) (size 9 to 14) (size 15 to 20)
#    0.000    1.500    0.000    6.375    0.000    5.500 
#    0.000    3.125    0.000    0.000    0.000    0.000 
#    0.000    0.000    0.000    0.000    0.000    0.000 
#
# Total GULP energy -89121.817219 kJ/mol
# GULP energy per Si atom -5570.113576 kJ/mol
# Density = 2.107334 g / cm^3
# Si number density = 21.121418 Si / 1000 Ang^3
#
#
#
# Elastic Constant Matrix: (Units=GPa)
#
#
# Indices 1 2 3 4 5 6 
#
# 1 33.7823 23.2239 12.5470 0.0000 -4.6153 0.0000
# 2 23.2239 127.4317 19.1821 0.0000 26.6552 0.0000
# 3 12.5470 19.1821 131.8391 0.0000 1.1681 0.0000
# 4 0.0000 0.0000 0.0000 28.5153 0.0000 1.9955
# 5 -4.6153 26.6552 1.1681 0.0000 30.4490 0.0000
# 6 0.0000 0.0000 0.0000 1.9955 0.0000 10.5740
#
#
#
# Elastic Compliance Matrix: (Units=1/GPa)
#
#
# Indices 1 2 3 4 5 6 
#
# 1 0.039295 -0.009867 -0.002434 0.000000 0.014687 0.000000
# 2 -0.009867 0.012321 -0.000745 0.000000 -0.012253 0.000000
# 3 -0.002434 -0.000745 0.007925 0.000000 -0.000021 0.000000
# 4 0.000000 0.000000 0.000000 0.035538 0.000000 -0.006707
# 5 0.014687 -0.012253 -0.000021 0.000000 0.045795 0.000000
# 6 0.000000 0.000000 0.000000 -0.006707 0.000000 0.095837
#
#
# Mechanical properties :
#
#
# Convention : Reuss Voigt Hill
#
# Bulk Modulus (GPa) = 29.89680 44.77323 37.33502
# Shear Modulus (GPa) = 18.25129 29.78101 24.01615
#
# Velocity S-wave (km/s) = 2.94277 3.75906 3.37568
# Velocity P-wave (km/s) = 5.07267 6.33125 5.73658
#
# Compressibility (1/GPa) = 0.03344839
#
# Stress axis : x y z
#
# Youngs Moduli (GPa) = 25.44841 81.16462 126.17919
#
# Poissons Ratio (x) = 0.80086 0.30714
# Poissons Ratio (y) = 0.25110 0.09400
# Poissons Ratio (z) = 0.06195 0.06047
#
# Static dielectric constant tensor:
#      x y z
#    x 1.792140 0.000000 0.058330 
#    y 0.000000 1.795420 0.000000 
#    z 0.058330 0.000000 1.870200 
# 
# From -- ./inp_files/6190.got.cif
#   From: 2010.05.17/outbox.cif.g08.bks.cpg/sg3_4_cif.got.tgz:6190.got - 2010.06.03 18:33:08.
