data_PCOD9113280
_publ_section_title
;
Structure prediction by ZEFSAII (Michael W. Deem and Ramdas Pophale) SiO2 
 PCOD9113280
Probable space group: P 2
;
_chemical_formula_sum "Si O2"
_cell_formula_units_Z 15
_cell_length_a 22.221749
_cell_length_b 4.981299
_cell_length_c 10.455682
_cell_angle_alpha 90.000000
_cell_angle_beta 33.883097
_cell_angle_gamma 90.000000
_cell_volume 645.235507
_symmetry_space_group_name_H-M "P 2"
_symmetry_group_IT_number 3
_symmetry_cell_setting 'monoclinic'
loop_
_space_group_symop_operation_xyz
x,y,z
-x,y,-z
loop_
_atom_site_type_symbol
_atom_site_label
_atom_site_fract_x
_atom_site_fract_y
_atom_site_fract_z
Si Si1 0.496609 0.426670 0.146200
Si Si2 0.702270 0.779523 0.452605
Si Si3 0.293002 0.777676 0.265994
Si Si4 0.455484 0.113934 0.448693
Si Si5 0.845081 0.792785 0.969721
Si Si6 0.799414 0.298253 0.703806
Si Si7 0.000000 0.060026 0.500000
Si Si8 0.729311 0.307576 0.088079
O O1 0.371418 0.512547 0.390924
O O2 0.528191 0.247714 0.211701
O O3 0.500000 0.290504 0.000000
O O4 0.585162 0.666528 0.976117
O O5 0.715544 0.878335 0.573199
O O6 0.814226 0.810332 0.175082
O O7 0.620042 0.933206 0.505478
O O8 0.213513 0.522786 0.381525
O O9 0.250191 0.018805 0.255229
O O10 0.500000 0.979492 0.500000
O O11 0.381902 0.344936 0.643478
O O12 0.821614 0.480461 0.990991
O O13 0.759481 0.994246 0.049895
O O14 0.949254 0.880142 0.704707
O O15 0.912071 0.236122 0.577376
O O16 0.729687 0.409386 0.944843
#
# Coordination Sequence:
#
# PCOD9113280 Si02
#       8
#     2   2   2   2   2   2   1   2
#     4  10  23  40  64  97 139 197 230 276 334 418
#     4  10  24  43  63  97 145 184 228 281 339 415
#     4  11  26  41  70  98 144 185 232 273 345 421
#     4  11  23  37  63  95 138 187 237 284 325 399
#     4  10  21  41  67  96 130 174 219 283 350 403
#     4  11  24  44  68 104 131 179 232 293 349 416
#     4  10  24  44  78  98 134 172 234 302 366 404
#     4  10  21  38  62  94 133 168 221 281 337 390
#
# _framework density 23.247328
#
# number of rings (size 3 to 8) (size 9 to 14) (size 15 to 20)
#    0.000    1.600    1.333    2.400    7.467    5.867 
#    0.000    0.667    0.000    3.200    0.000    0.000 
#    0.000    0.000    0.000    0.000    0.000    0.000 
#
# Total GULP energy -83524.958240 kJ/mol
# GULP energy per Si atom -5568.330549 kJ/mol
# Density = 2.319442 g / cm^3
# Si number density = 23.247328 Si / 1000 Ang^3
#
#
#
# Elastic Constant Matrix: (Units=GPa)
#
#
# Indices 1 2 3 4 5 6 
#
# 1 114.4241 28.7289 42.6827 0.0000 25.6882 0.0000
# 2 28.7289 76.5174 23.4916 0.0000 4.1637 0.0000
# 3 42.6827 23.4916 137.4360 0.0000 22.4361 0.0000
# 4 0.0000 0.0000 0.0000 18.5162 0.0000 0.2980
# 5 25.6882 4.1637 22.4361 0.0000 42.5446 0.0000
# 6 0.0000 0.0000 0.0000 0.2980 0.0000 32.1349
#
#
#
# Elastic Compliance Matrix: (Units=1/GPa)
#
#
# Indices 1 2 3 4 5 6 
#
# 1 0.011640 -0.003416 -0.002121 0.000000 -0.005575 0.000000
# 2 -0.003416 0.014796 -0.001716 0.000000 0.001519 0.000000
# 3 -0.002121 -0.001716 0.008744 0.000000 -0.003163 0.000000
# 4 0.000000 0.000000 0.000000 0.054015 0.000000 -0.000501
# 5 -0.005575 0.001519 -0.003163 0.000000 0.028390 0.000000
# 6 0.000000 0.000000 0.000000 -0.000501 0.000000 0.031123
#
#
# Mechanical properties :
#
#
# Convention : Reuss Voigt Hill
#
# Bulk Modulus (GPa) = 48.36953 57.57601 52.97277
# Shear Modulus (GPa) = 29.39352 34.20411 31.79881
#
# Velocity S-wave (km/s) = 3.55967 3.83993 3.70246
# Velocity P-wave (km/s) = 6.14383 6.66938 6.41199
#
# Compressibility (1/GPa) = 0.02067417
#
# Stress axis : x y z
#
# Youngs Moduli (GPa) = 85.91196 67.58775 114.35788
#
# Poissons Ratio (x) = 0.23086 0.24254
# Poissons Ratio (y) = 0.29345 0.19626
# Poissons Ratio (z) = 0.18221 0.11600
#
# Static dielectric constant tensor:
#      x y z
#    x 1.924100 0.000000 -0.044810 
#    y 0.000000 1.920570 0.000000 
#    z -0.044810 0.000000 1.985350 
# 
# From -- ./inp_files/9344.got.cif
#   From: 2010.05.17/outbox.cif.g08.bks.cpg/sg3_5_cif.got.tgz:9344.got - 2010.06.03 18:33:08.
