data_PCOD9113997
_publ_section_title
;
Structure prediction by ZEFSAII (Michael W. Deem and Ramdas Pophale) SiO2 
 PCOD9113997
Probable space group: P 2
;
_chemical_formula_sum "Si O2"
_cell_formula_units_Z 11
_cell_length_a 5.640882
_cell_length_b 5.155034
_cell_length_c 16.761635
_cell_angle_alpha 90.000000
_cell_angle_beta 114.993286
_cell_angle_gamma 90.000000
_cell_volume 441.768115
_symmetry_space_group_name_H-M "P 2"
_symmetry_group_IT_number 3
_symmetry_cell_setting 'monoclinic'
loop_
_space_group_symop_operation_xyz
x,y,z
-x,y,-z
loop_
_atom_site_type_symbol
_atom_site_label
_atom_site_fract_x
_atom_site_fract_y
_atom_site_fract_z
Si Si1 0.856542 0.752510 0.166901
Si Si2 0.694850 0.695961 0.657268
Si Si3 0.971682 0.304887 0.590865
Si Si4 0.016533 0.231264 0.097021
Si Si5 0.546079 0.370499 0.238373
Si Si6 0.500000 0.939279 0.500000
O O1 0.647065 0.606571 0.195245
O O2 0.099664 0.839260 0.257596
O O3 0.937932 0.514700 0.120027
O O4 0.829080 0.012130 0.110141
O O5 0.864851 0.574152 0.610265
O O6 0.594237 0.480966 0.703463
O O7 0.439762 0.794093 0.574022
O O8 0.735171 0.107282 0.566248
O O9 0.000000 0.317849 0.500000
O O10 0.206853 0.232952 0.684458
O O11 0.325840 0.202277 0.163074
O O12 0.000000 0.222004 0.000000
#
# Coordination Sequence:
#
# PCOD9113997 Si02
#       6
#     2   2   2   2   2   1
#     4  10  25  44  78 106 148 195 246 305 385 445
#     4  10  24  44  63  96 142 191 239 305 362 441
#     4  11  24  41  66  99 140 193 247 303 370 438
#     4  11  25  50  78 113 149 193 245 318 375 457
#     4  10  24  48  72 103 153 193 248 303 380 453
#     4  12  24  38  68  96 140 184 252 302 362 436
#
# _framework density 24.899940999999998
#
# number of rings (size 3 to 8) (size 9 to 14) (size 15 to 20)
#    0.000    1.455    0.000    3.273   10.182    7.273 
#    3.273    1.818    0.000    0.000    0.000    0.000 
#    0.000    0.000    0.000    0.000    0.000    0.000 
#
# Total GULP energy -61387.661844 kJ/mol
# GULP energy per Si atom -5580.696531 kJ/mol
# Density = 2.484327 g / cm^3
# Si number density = 24.899941 Si / 1000 Ang^3
#
#
#
# Elastic Constant Matrix: (Units=GPa)
#
#
# Indices 1 2 3 4 5 6 
#
# 1 70.6147 7.9422 43.6669 0.0000 -0.3725 0.0000
# 2 7.9422 78.7461 51.0009 0.0000 -8.0652 0.0000
# 3 43.6669 51.0009 179.0152 0.0000 -20.4218 0.0000
# 4 0.0000 0.0000 0.0000 29.7884 0.0000 -18.1334
# 5 -0.3725 -8.0652 -20.4218 0.0000 29.5951 0.0000
# 6 0.0000 0.0000 0.0000 -18.1334 0.0000 16.6940
#
#
#
# Elastic Compliance Matrix: (Units=1/GPa)
#
#
# Indices 1 2 3 4 5 6 
#
# 1 0.016972 0.001092 -0.004768 0.000000 -0.002779 0.000000
# 2 0.001092 0.015688 -0.004609 0.000000 0.001108 0.000000
# 3 -0.004768 -0.004609 0.008588 0.000000 0.004610 0.000000
# 4 0.000000 0.000000 0.000000 0.099094 0.000000 0.107638
# 5 -0.002779 0.001108 0.004610 0.000000 0.037238 0.000000
# 6 0.000000 0.000000 0.000000 0.107638 0.000000 0.176821
#
#
# Mechanical properties :
#
#
# Convention : Reuss Voigt Hill
#
# Bulk Modulus (GPa) = 40.52345 59.28846 49.90595
# Shear Modulus (GPa) = 13.18571 30.26655 21.72613
#
# Velocity S-wave (km/s) = 2.30369 3.49022 2.95708
# Velocity P-wave (km/s) = 4.83589 6.33282 5.63429
#
# Compressibility (1/GPa) = 0.02467707
#
# Stress axis : x y z
#
# Youngs Moduli (GPa) = 58.91906 63.74429 116.43783
#
# Poissons Ratio (x) = -0.06959 0.55519
# Poissons Ratio (y) = -0.06432 0.53669
# Poissons Ratio (z) = 0.28093 0.29381
#
# Static dielectric constant tensor:
#      x y z
#    x 2.069630 0.000000 0.053210 
#    y 0.000000 2.120480 0.000000 
#    z 0.053210 0.000000 2.128360 
# 
# From -- ./inp_files/2629.got.cif
#   From: 2010.05.17/outbox.cif.g08.bks.cpg/sg3_2_cif.got.tgz:2629.got - 2010.06.03 18:33:08.
