data_PCOD9113762
_publ_section_title
;
Structure prediction by ZEFSAII (Michael W. Deem and Ramdas Pophale) SiO2 
 PCOD9113762
Probable space group: P 2
;
_chemical_formula_sum "Si O2"
_cell_formula_units_Z 11
_cell_length_a 5.108070
_cell_length_b 5.483059
_cell_length_c 14.785145
_cell_angle_alpha 90.000000
_cell_angle_beta 92.845698
_cell_angle_gamma 90.000000
_cell_volume 413.589467
_symmetry_space_group_name_H-M "P 2"
_symmetry_group_IT_number 3
_symmetry_cell_setting 'monoclinic'
loop_
_space_group_symop_operation_xyz
x,y,z
-x,y,-z
loop_
_atom_site_type_symbol
_atom_site_label
_atom_site_fract_x
_atom_site_fract_y
_atom_site_fract_z
Si Si1 0.247821 0.989690 0.436457
Si Si2 0.073746 0.487307 0.396268
Si Si3 0.233139 0.727057 0.759355
Si Si4 0.277194 0.993346 0.178033
Si Si5 0.500000 0.995286 0.000000
Si Si6 0.091083 0.370992 0.906715
O O1 0.500000 0.049035 0.500000
O O2 0.269120 0.718058 0.396549
O O3 0.000000 0.965412 0.500000
O O4 0.187668 0.222805 0.372019
O O5 0.000000 0.457572 0.500000
O O6 0.829482 0.571682 0.331304
O O7 0.461583 0.927763 0.761656
O O8 0.254421 0.538985 0.842541
O O9 0.964494 0.862196 0.779525
O O10 0.343149 0.878159 0.080008
O O11 0.161086 0.259421 0.150310
O O12 0.716769 0.154713 0.057167
O O13 0.000000 0.484208 0.000000
#
# Coordination Sequence:
#
# PCOD9113762 Si02
#       6
#     2   2   2   2   1   2
#     4  10  22  43  74 102 140 190 249 302 376 446
#     4  10  25  49  74 112 150 202 252 318 382 459
#     4  12  28  43  75 109 148 199 256 313 388 460
#     4  11  26  45  68 107 145 194 245 315 376 465
#     4  10  22  48  72  98 152 190 248 308 390 458
#     4  10  25  46  71 108 150 197 252 318 390 467
#
# _framework density 26.596425
#
# number of rings (size 3 to 8) (size 9 to 14) (size 15 to 20)
#    0.000    1.455    1.818    0.545   10.182    5.818 
#    0.000    1.818    0.000    0.000    0.000    0.000 
#    0.000    0.000    0.000    0.000    0.000    0.000 
#
# Total GULP energy -61536.662982 kJ/mol
# GULP energy per Si atom -5594.242089 kJ/mol
# Density = 2.653589 g / cm^3
# Si number density = 26.596425 Si / 1000 Ang^3
#
#
#
# Elastic Constant Matrix: (Units=GPa)
#
#
# Indices 1 2 3 4 5 6 
#
# 1 165.8571 37.0303 23.4696 0.0000 16.0932 0.0000
# 2 37.0303 151.5923 28.2302 0.0000 17.4182 0.0000
# 3 23.4696 28.2302 98.1140 0.0000 3.8369 0.0000
# 4 0.0000 0.0000 0.0000 37.0335 0.0000 -2.1759
# 5 16.0932 17.4182 3.8369 0.0000 42.8207 0.0000
# 6 0.0000 0.0000 0.0000 -2.1759 0.0000 3.8619
#
#
#
# Elastic Compliance Matrix: (Units=1/GPa)
#
#
# Indices 1 2 3 4 5 6 
#
# 1 0.006645 -0.001185 -0.001174 0.000000 -0.001910 0.000000
# 2 -0.001185 0.007498 -0.001778 0.000000 -0.002445 0.000000
# 3 -0.001174 -0.001778 0.010978 0.000000 0.000181 0.000000
# 4 0.000000 0.000000 0.000000 0.027927 0.000000 0.015735
# 5 -0.001910 -0.002445 0.000181 0.000000 0.025050 0.000000
# 6 0.000000 0.000000 0.000000 0.015735 0.000000 0.267805
#
#
# Mechanical properties :
#
#
# Convention : Reuss Voigt Hill
#
# Bulk Modulus (GPa) = 59.35984 65.89152 62.62568
# Shear Modulus (GPa) = 13.89688 38.53212 26.21450
#
# Velocity S-wave (km/s) = 2.28833 3.81040 3.14290
# Velocity P-wave (km/s) = 5.41748 6.64735 6.06368
#
# Compressibility (1/GPa) = 0.01684641
#
# Stress axis : x y z
#
# Youngs Moduli (GPa) = 150.48084 133.36365 91.09434
#
# Poissons Ratio (x) = 0.15806 0.10694
# Poissons Ratio (y) = 0.17835 0.16200
# Poissons Ratio (z) = 0.17665 0.23717
#
# Static dielectric constant tensor:
#      x y z
#    x 2.057920 0.000000 -0.012420 
#    y 0.000000 2.160990 0.000000 
#    z -0.012420 0.000000 2.139880 
# 
# From -- ./inp_files/2728.got.cif
#   From: 2010.05.17/outbox.cif.g08.bks.cpg/sg3_2_cif.got.tgz:2728.got - 2010.06.03 18:33:08.
