data_PCOD9113769
_publ_section_title
;
Structure prediction by ZEFSAII (Michael W. Deem and Ramdas Pophale) SiO2 
 PCOD9113769
Probable space group: P 2
;
_chemical_formula_sum "Si O2"
_cell_formula_units_Z 12
_cell_length_a 17.689421
_cell_length_b 5.265681
_cell_length_c 5.102854
_cell_angle_alpha 90.000000
_cell_angle_beta 67.266329
_cell_angle_gamma 90.000000
_cell_volume 438.388106
_symmetry_space_group_name_H-M "P 2"
_symmetry_group_IT_number 3
_symmetry_cell_setting 'monoclinic'
loop_
_space_group_symop_operation_xyz
x,y,z
-x,y,-z
loop_
_atom_site_type_symbol
_atom_site_label
_atom_site_fract_x
_atom_site_fract_y
_atom_site_fract_z
Si Si1 0.000000 0.833220 0.500000
Si Si2 0.285243 0.758724 0.192683
Si Si3 0.500000 0.825061 0.500000
Si Si4 0.907942 0.128885 0.002380
Si Si5 0.580297 0.447237 0.800981
Si Si6 0.130530 0.623493 0.669994
Si Si7 0.666728 0.059222 0.343793
O O1 0.041087 0.647164 0.655353
O O2 0.072121 0.022878 0.311725
O O3 0.360621 0.561293 0.052484
O O4 0.201215 0.609471 0.358717
O O5 0.309704 0.889802 0.435152
O O6 0.277690 0.969826 0.975095
O O7 0.531313 0.654850 0.697157
O O8 0.578217 0.995317 0.340008
O O9 0.866069 0.392030 0.131632
O O10 0.862787 0.895527 0.200946
O O11 0.000000 0.139007 0.000000
O O12 0.646569 0.322943 0.514156
O O13 0.500000 0.284405 0.000000
#
# Coordination Sequence:
#
# PCOD9113769 Si02
#       7
#     1   2   1   2   2   2   2
#     4  10  24  48  82 110 156 206 256 326 392 468
#     4  11  28  47  67 111 153 193 256 323 382 471
#     4  10  22  44  66 106 138 184 260 314 368 464
#     4  10  23  46  72 113 142 194 255 310 385 466
#     4  11  24  44  76 102 149 204 261 322 388 460
#     4  11  26  45  76 110 154 197 259 315 392 469
#     4  11  26  44  72 104 145 199 252 316 391 451
#
# _framework density 27.373006
#
# number of rings (size 3 to 8) (size 9 to 14) (size 15 to 20)
#    0.000    1.333    1.667    2.000    9.333    6.000 
#    0.000    0.000    0.000    0.000    0.000    0.000 
#    0.000    0.000    0.000    0.000    0.000    0.000 
#
# Total GULP energy -67096.037901 kJ/mol
# GULP energy per Si atom -5591.336492 kJ/mol
# Density = 2.731070 g / cm^3
# Si number density = 27.373006 Si / 1000 Ang^3
#
#
#
# Elastic Constant Matrix: (Units=GPa)
#
#
# Indices 1 2 3 4 5 6 
#
# 1 84.0246 27.3364 24.2572 0.0000 4.5221 0.0000
# 2 27.3364 129.3595 40.1681 0.0000 6.1431 0.0000
# 3 24.2572 40.1681 131.1565 0.0000 -4.5390 0.0000
# 4 0.0000 0.0000 0.0000 39.9869 0.0000 13.6977
# 5 4.5221 6.1431 -4.5390 0.0000 53.7432 0.0000
# 6 0.0000 0.0000 0.0000 13.6977 0.0000 10.1851
#
#
#
# Elastic Compliance Matrix: (Units=1/GPa)
#
#
# Indices 1 2 3 4 5 6 
#
# 1 0.013186 -0.002177 -0.001807 0.000000 -0.001013 0.000000
# 2 -0.002177 0.008980 -0.002384 0.000000 -0.001045 0.000000
# 3 -0.001807 -0.002384 0.008729 0.000000 0.001162 0.000000
# 4 0.000000 0.000000 0.000000 0.046371 0.000000 -0.062363
# 5 -0.001013 -0.001045 0.001162 0.000000 0.018910 0.000000
# 6 0.000000 0.000000 0.000000 -0.062363 0.000000 0.182054
#
#
# Mechanical properties :
#
#
# Convention : Reuss Voigt Hill
#
# Bulk Modulus (GPa) = 55.06890 58.67380 56.87135
# Shear Modulus (GPa) = 16.83396 37.63498 27.23447
#
# Velocity S-wave (km/s) = 2.48258 3.71198 3.15769
# Velocity P-wave (km/s) = 5.32722 6.31294 5.84091
#
# Compressibility (1/GPa) = 0.01815907
#
# Stress axis : x y z
#
# Youngs Moduli (GPa) = 75.83915 111.35486 114.56146
#
# Poissons Ratio (x) = 0.24245 0.20701
# Poissons Ratio (y) = 0.16512 0.27309
# Poissons Ratio (z) = 0.13704 0.26545
#
# Static dielectric constant tensor:
#      x y z
#    x 2.088670 0.000000 -0.100030 
#    y 0.000000 2.177320 0.000000 
#    z -0.100030 0.000000 2.431330 
# 
# From -- ./inp_files/3820.got.cif
#   From: 2010.05.17/outbox.cif.g08.bks.cpg/sg3_2_cif.got.tgz:3820.got - 2010.06.03 18:33:08.
