data_PCOD9113975
_publ_section_title
;
Structure prediction by ZEFSAII (Michael W. Deem and Ramdas Pophale) SiO2 
 PCOD9113975
Probable space group: P 2
;
_chemical_formula_sum "Si O2"
_cell_formula_units_Z 16
_cell_length_a 15.644118
_cell_length_b 5.490967
_cell_length_c 8.364698
_cell_angle_alpha 90.000000
_cell_angle_beta 71.797736
_cell_angle_gamma 90.000000
_cell_volume 682.582844
_symmetry_space_group_name_H-M "P 2"
_symmetry_group_IT_number 3
_symmetry_cell_setting 'monoclinic'
loop_
_space_group_symop_operation_xyz
x,y,z
-x,y,-z
loop_
_atom_site_type_symbol
_atom_site_label
_atom_site_fract_x
_atom_site_fract_y
_atom_site_fract_z
Si Si1 0.206273 0.758630 0.698414
Si Si2 0.133237 0.358829 0.263413
Si Si3 0.410861 0.920768 0.157486
Si Si4 0.951891 0.444435 0.196245
Si Si5 0.213750 0.871720 0.340502
Si Si6 0.196320 0.149195 0.899067
Si Si7 0.547772 0.422880 0.706681
Si Si8 0.639181 0.373227 0.318844
O O1 0.110313 0.653963 0.698624
O O2 0.238382 0.885099 0.515092
O O3 0.285480 0.574910 0.695341
O O4 0.178803 0.865532 0.889866
O O5 0.169575 0.610912 0.318047
O O6 0.028695 0.372862 0.275068
O O7 0.153807 0.112400 0.348464
O O8 0.182981 0.297644 0.066037
O O9 0.304808 0.896892 0.179374
O O10 0.420122 0.696065 0.277481
O O11 0.422072 0.205069 0.196226
O O12 0.500000 0.871151 0.000000
O O13 0.876022 0.248377 0.188454
O O14 0.000000 0.506870 0.000000
O O15 0.298978 0.156002 0.778793
O O16 0.589670 0.337292 0.514473
O O17 0.439758 0.430302 0.758324
#
# Coordination Sequence:
#
# PCOD9113975 Si02
#       8
#     2   2   2   2   2   2   2   2
#     4  11  24  45  77 102 149 192 236 302 371 435
#     4  11  28  47  73 107 145 191 242 300 354 448
#     4  12  27  45  70  98 147 190 231 288 366 429
#     4   9  23  46  70 105 138 186 242 298 359 418
#     4  12  28  48  72 105 154 190 239 295 377 432
#     4  10  24  43  76 100 142 186 244 300 361 422
#     4  11  25  44  69 101 136 180 243 297 343 425
#     4  10  24  41  70 102 135 178 245 297 355 417
#
# _framework density 23.440377000000002
#
# number of rings (size 3 to 8) (size 9 to 14) (size 15 to 20)
#    0.000    1.250    1.250    1.875   15.750    2.000 
#    0.000    0.000    0.000    0.000    0.000    0.000 
#    0.000    0.000    0.000    0.000    0.000    0.000 
#
# Total GULP energy -89143.999082 kJ/mol
# GULP energy per Si atom -5571.499943 kJ/mol
# Density = 2.338703 g / cm^3
# Si number density = 23.440377 Si / 1000 Ang^3
#
#
#
# Elastic Constant Matrix: (Units=GPa)
#
#
# Indices 1 2 3 4 5 6 
#
# 1 124.6872 40.4601 1.2480 0.0000 -13.4435 0.0000
# 2 40.4601 84.0137 17.7900 0.0000 9.8174 0.0000
# 3 1.2480 17.7900 40.3472 0.0000 -8.9995 0.0000
# 4 0.0000 0.0000 0.0000 26.3521 0.0000 11.5114
# 5 -13.4435 9.8174 -8.9995 0.0000 37.2956 0.0000
# 6 0.0000 0.0000 0.0000 11.5114 0.0000 11.7109
#
#
#
# Elastic Compliance Matrix: (Units=1/GPa)
#
#
# Indices 1 2 3 4 5 6 
#
# 1 0.010982 -0.006990 0.004265 0.000000 0.006827 0.000000
# 2 -0.006990 0.018576 -0.010175 0.000000 -0.009864 0.000000
# 3 0.004265 -0.010175 0.031791 0.000000 0.011887 0.000000
# 4 0.000000 0.000000 0.000000 0.066503 0.000000 -0.065370
# 5 0.006827 -0.009864 0.011887 0.000000 0.034739 0.000000
# 6 0.000000 0.000000 0.000000 -0.065370 0.000000 0.149646
#
#
# Mechanical properties :
#
#
# Convention : Reuss Voigt Hill
#
# Bulk Modulus (GPa) = 28.12952 40.89381 34.51167
# Shear Modulus (GPa) = 14.29042 27.70839 20.99940
#
# Velocity S-wave (km/s) = 2.47179 3.44187 2.99635
# Velocity P-wave (km/s) = 4.49142 5.76880 5.16971
#
# Compressibility (1/GPa) = 0.03554985
#
# Stress axis : x y z
#
# Youngs Moduli (GPa) = 91.06170 53.83250 31.45584
#
# Poissons Ratio (x) = 0.37627 -0.13416
# Poissons Ratio (y) = 0.63648 0.32005
# Poissons Ratio (z) = -0.38838 0.54773
#
# Static dielectric constant tensor:
#      x y z
#    x 1.889620 0.000000 0.018050 
#    y 0.000000 2.015790 0.000000 
#    z 0.018050 0.000000 1.954640 
# 
# From -- ./inp_files/8283.got.cif
#   From: 2010.05.17/outbox.cif.g08.bks.cpg/sg3_5_cif.got.tgz:8283.got - 2010.06.03 18:33:08.
