data_PCOD9113791
_publ_section_title
;
Structure prediction by ZEFSAII (Michael W. Deem and Ramdas Pophale) SiO2 
 PCOD9113791
Probable space group: P 2
;
_chemical_formula_sum "Si O2"
_cell_formula_units_Z 14
_cell_length_a 5.607026
_cell_length_b 13.800672
_cell_length_c 9.521392
_cell_angle_alpha 90.000000
_cell_angle_beta 52.988547
_cell_angle_gamma 90.000000
_cell_volume 588.323823
_symmetry_space_group_name_H-M "P 2"
_symmetry_group_IT_number 3
_symmetry_cell_setting 'monoclinic'
loop_
_space_group_symop_operation_xyz
x,y,z
-x,y,-z
loop_
_atom_site_type_symbol
_atom_site_label
_atom_site_fract_x
_atom_site_fract_y
_atom_site_fract_z
Si Si1 0.500000 0.850291 0.500000
Si Si2 0.846140 0.519509 0.910072
Si Si3 0.500000 0.794112 0.000000
Si Si4 0.865131 0.140340 0.390015
Si Si5 0.233415 0.496539 0.518486
Si Si6 0.014755 0.962918 0.160596
Si Si7 0.149206 0.286007 0.094987
Si Si8 0.657721 0.692732 0.661200
O O1 0.751057 0.922087 0.353381
O O2 0.498053 0.773592 0.626516
O O3 0.872335 0.402620 0.900758
O O4 0.038448 0.549754 0.706793
O O5 0.500000 0.537766 0.000000
O O6 0.000000 0.555959 0.000000
O O7 0.569463 0.724315 0.846569
O O8 0.767275 0.870576 0.918704
O O9 0.500000 0.128086 0.500000
O O10 0.000000 0.132459 0.500000
O O11 0.954696 0.242640 0.289837
O O12 0.058973 0.063936 0.226732
O O13 0.500000 0.441162 0.500000
O O14 0.384922 0.582029 0.372626
O O15 0.000000 0.443672 0.500000
O O16 0.000000 0.987230 0.000000
O O17 0.500000 0.262749 0.000000
O O18 0.000000 0.252234 0.000000
O O19 0.000000 0.712414 0.500000
#
# Coordination Sequence:
#
# PCOD9113791 Si02
#       8
#     1   2   1   2   2   2   2   2
#     4  12  22  46  66  92 134 172 240 290 350 420
#     4  10  22  44  73 107 140 187 233 283 354 424
#     4  12  26  42  72  92 130 194 236 292 364 418
#     4  12  28  44  67 106 145 186 235 293 349 418
#     4  11  24  44  66 100 140 179 228 295 347 412
#     4  12  27  42  69  98 134 190 235 295 357 414
#     4  10  22  44  73 102 145 186 233 286 344 426
#     4  11  24  44  64  97 133 176 234 296 351 416
#
# _framework density 23.796419
#
# number of rings (size 3 to 8) (size 9 to 14) (size 15 to 20)
#    0.000    0.857    4.286    2.143    5.000    1.143 
#   10.286    0.714    0.000    0.000    0.000    0.000 
#    0.000    0.000    0.000    0.000    0.000    0.000 
#
# Total GULP energy -78091.646750 kJ/mol
# GULP energy per Si atom -5577.974768 kJ/mol
# Density = 2.374226 g / cm^3
# Si number density = 23.796419 Si / 1000 Ang^3
#
#
#
# Elastic Constant Matrix: (Units=GPa)
#
#
# Indices 1 2 3 4 5 6 
#
# 1 171.0493 36.9307 77.2309 0.0000 19.1876 0.0000
# 2 36.9307 76.1542 28.1703 0.0000 9.7602 0.0000
# 3 77.2309 28.1703 183.8571 0.0000 27.2330 0.0000
# 4 0.0000 0.0000 0.0000 52.1623 0.0000 9.0939
# 5 19.1876 9.7602 27.2330 0.0000 52.7184 0.0000
# 6 0.0000 0.0000 0.0000 9.0939 0.0000 46.3436
#
#
#
# Elastic Compliance Matrix: (Units=1/GPa)
#
#
# Indices 1 2 3 4 5 6 
#
# 1 0.007743 -0.002633 -0.002711 0.000000 -0.000930 0.000000
# 2 -0.002633 0.014941 -0.000991 0.000000 -0.001296 0.000000
# 3 -0.002711 -0.000991 0.007100 0.000000 -0.002497 0.000000
# 4 0.000000 0.000000 0.000000 0.019850 0.000000 -0.003895
# 5 -0.000930 -0.001296 -0.002497 0.000000 0.020837 0.000000
# 6 0.000000 0.000000 0.000000 -0.003895 0.000000 0.022342
#
#
# Mechanical properties :
#
#
# Convention : Reuss Voigt Hill
#
# Bulk Modulus (GPa) = 58.43660 79.52492 68.98076
# Shear Modulus (GPa) = 44.96857 49.49347 47.23102
#
# Velocity S-wave (km/s) = 4.35181 4.56551 4.45994
# Velocity P-wave (km/s) = 7.06124 7.82836 7.45468
#
# Compressibility (1/GPa) = 0.01711256
#
# Stress axis : x y z
#
# Youngs Moduli (GPa) = 129.14334 66.93071 140.84998
#
# Poissons Ratio (x) = 0.17622 0.38191
# Poissons Ratio (y) = 0.34002 0.13963
# Poissons Ratio (z) = 0.35017 0.06635
#
# Static dielectric constant tensor:
#      x y z
#    x 1.993230 0.000000 -0.004380 
#    y 0.000000 1.880470 0.000000 
#    z -0.004380 0.000000 1.871480 
# 
# From -- ./inp_files/4485.got.cif
#   From: 2010.05.17/outbox.cif.g08.bks.cpg/sg3_3_cif.got.tgz:4485.got - 2010.06.03 18:33:08.
