data_PCOD9113097
_publ_section_title
;
Structure prediction by ZEFSAII (Michael W. Deem and Ramdas Pophale) SiO2 
 PCOD9113097
Probable space group: P 2
;
_chemical_formula_sum "Si O2"
_cell_formula_units_Z 13
_cell_length_a 8.571508
_cell_length_b 9.851209
_cell_length_c 11.250302
_cell_angle_alpha 90.000000
_cell_angle_beta 141.158295
_cell_angle_gamma 90.000000
_cell_volume 595.795008
_symmetry_space_group_name_H-M "P 2"
_symmetry_group_IT_number 3
_symmetry_cell_setting 'monoclinic'
loop_
_space_group_symop_operation_xyz
x,y,z
-x,y,-z
loop_
_atom_site_type_symbol
_atom_site_label
_atom_site_fract_x
_atom_site_fract_y
_atom_site_fract_z
Si Si1 0.112080 0.932010 0.768264
Si Si2 0.042829 0.219914 0.330174
Si Si3 0.728419 0.205726 0.787068
Si Si4 0.529786 0.951314 0.808517
Si Si5 0.213601 0.718842 0.523623
Si Si6 0.500000 0.349056 0.000000
Si Si7 0.624984 0.423842 0.333420
O O1 0.323797 0.942869 0.792273
O O2 0.947477 0.796815 0.670167
O O3 0.955462 0.062452 0.636260
O O4 0.221973 0.946749 0.964632
O O5 0.752592 0.259755 0.129224
O O6 0.221579 0.222459 0.322469
O O7 0.158379 0.320814 0.495220
O O8 0.618794 0.347794 0.765827
O O9 0.563028 0.083221 0.744361
O O10 0.000000 0.182545 0.000000
O O11 0.447037 0.817668 0.688062
O O12 0.312242 0.567304 0.571301
O O13 0.000000 0.712759 0.500000
O O14 0.578231 0.433312 0.163568
#
# Coordination Sequence:
#
# PCOD9113097 Si02
#       7
#     2   2   2   2   2   1   2
#     4  10  20  39  68  99 131 169 223 279 329 398
#     4  12  24  42  72 101 136 175 228 285 334 397
#     4  12  23  45  68  99 139 177 229 276 336 396
#     4  10  21  40  67  98 130 173 221 277 336 392
#     4  10  23  41  64  98 134 170 224 272 337 405
#     4  12  24  42  72 102 130 174 234 286 332 400
#     4  12  26  44  67 101 136 181 223 279 341 400
#
# _framework density 21.819586000000001
#
# number of rings (size 3 to 8) (size 9 to 14) (size 15 to 20)
#    0.000    0.923    3.077    4.615    0.000    6.154 
#    0.000    3.846    0.000    0.923    0.000    0.000 
#    0.000    0.000    0.000    0.000    0.000    0.000 
#
# Total GULP energy -72499.415692 kJ/mol
# GULP energy per Si atom -5576.878130 kJ/mol
# Density = 2.176992 g / cm^3
# Si number density = 21.819586 Si / 1000 Ang^3
#
#
#
# Elastic Constant Matrix: (Units=GPa)
#
#
# Indices 1 2 3 4 5 6 
#
# 1 75.6941 35.0097 36.2989 0.0000 -3.5115 0.0000
# 2 35.0097 154.8400 53.0819 0.0000 7.0294 0.0000
# 3 36.2989 53.0819 131.3796 0.0000 10.3568 0.0000
# 4 0.0000 0.0000 0.0000 36.3565 0.0000 0.6193
# 5 -3.5115 7.0294 10.3568 0.0000 39.0116 0.0000
# 6 0.0000 0.0000 0.0000 0.6193 0.0000 18.2899
#
#
#
# Elastic Compliance Matrix: (Units=1/GPa)
#
#
# Indices 1 2 3 4 5 6 
#
# 1 0.016301 -0.002548 -0.003704 0.000000 0.002910 0.000000
# 2 -0.002548 0.007907 -0.002411 0.000000 -0.001014 0.000000
# 3 -0.003704 -0.002411 0.009806 0.000000 -0.002502 0.000000
# 4 0.000000 0.000000 0.000000 0.027521 0.000000 -0.000932
# 5 0.002910 -0.001014 -0.002502 0.000000 0.026742 0.000000
# 6 0.000000 0.000000 0.000000 -0.000932 0.000000 0.054707
#
#
# Mechanical properties :
#
#
# Convention : Reuss Voigt Hill
#
# Bulk Modulus (GPa) = 59.92011 67.85494 63.88753
# Shear Modulus (GPa) = 30.14385 34.56647 32.35516
#
# Velocity S-wave (km/s) = 3.72089 3.98451 3.85496
# Velocity P-wave (km/s) = 6.78095 7.23423 7.01126
#
# Compressibility (1/GPa) = 0.01668889
#
# Stress axis : x y z
#
# Youngs Moduli (GPa) = 61.34749 126.47232 101.97772
#
# Poissons Ratio (x) = 0.32226 0.37768
# Poissons Ratio (y) = 0.15632 0.24584
# Poissons Ratio (z) = 0.22720 0.30489
#
# Static dielectric constant tensor:
#      x y z
#    x 1.861580 0.000000 -0.001690 
#    y 0.000000 1.773420 0.000000 
#    z -0.001690 0.000000 1.855200 
# 
# From -- ./inp_files/10841.got.cif
#   From: 2010.05.17/outbox.cif.g08.bks.cpg/sg3_6_cif.got.tgz:10841.got - 2010.06.03 18:33:08.
