data_PCOD9113624
_publ_section_title
;
Structure prediction by ZEFSAII (Michael W. Deem and Ramdas Pophale) SiO2 
 PCOD9113624
Probable space group: P 2
;
_chemical_formula_sum "Si O2"
_cell_formula_units_Z 15
_cell_length_a 14.129802
_cell_length_b 5.074101
_cell_length_c 22.429337
_cell_angle_alpha 90.000000
_cell_angle_beta 18.689573
_cell_angle_gamma 90.000000
_cell_volume 515.298841
_symmetry_space_group_name_H-M "P 2"
_symmetry_group_IT_number 3
_symmetry_cell_setting 'monoclinic'
loop_
_space_group_symop_operation_xyz
x,y,z
-x,y,-z
loop_
_atom_site_type_symbol
_atom_site_label
_atom_site_fract_x
_atom_site_fract_y
_atom_site_fract_z
Si Si1 0.000000 0.750000 0.500000
Si Si2 0.682436 0.846630 0.472947
Si Si3 0.000233 0.357821 0.391934
Si Si4 0.801843 0.270351 0.844939
Si Si5 0.862341 0.482830 0.024813
Si Si6 0.546039 0.939073 0.685500
Si Si7 0.090427 0.740490 0.780768
Si Si8 0.565096 0.150338 0.104198
O O1 0.948781 0.565307 0.586872
O O2 0.722083 0.907784 0.642873
O O3 0.646367 0.786729 0.564591
O O4 0.356761 0.931799 0.644801
O O5 0.798242 0.650407 0.351140
O O6 0.927302 0.070834 0.319035
O O7 0.119609 0.459360 0.257235
O O8 0.233104 0.131761 0.276164
O O9 0.674544 0.226144 0.587259
O O10 0.500000 0.135458 0.000000
O O11 0.714806 0.344225 0.963728
O O12 0.630077 0.302634 0.127445
O O13 0.732880 0.757241 0.128358
O O14 0.000000 0.336819 0.000000
O O15 0.091458 0.539556 0.835435
O O16 0.779566 0.897175 0.969190
#
# Coordination Sequence:
#
# PCOD9113624 Si02
#       8
#     1   2   2   2   2   2   2   2
#     4  12  24  38  60  96 128 172 214 262 332 398
#     4   9  19  43  64  94 125 173 219 266 326 386
#     4  10  22  40  65  94 129 170 215 269 333 387
#     4   8  17  38  67  94 122 163 218 272 320 384
#     4  12  25  43  63 100 134 173 219 268 329 394
#     4  11  24  42  64  91 135 170 219 272 325 390
#     4  10  22  40  69  90 129 173 219 267 326 387
#     4  10  22  42  66  95 129 167 221 272 326 389
#
# _framework density 29.109321999999999
#
# number of rings (size 3 to 8) (size 9 to 14) (size 15 to 20)
#    0.000    1.867    2.667    0.400    3.733    1.600 
#    4.800    5.333    0.000    0.000    0.000    0.000 
#    0.000    0.000    0.000    0.000    0.000    0.000 
#
# Total GULP energy -83722.092187 kJ/mol
# GULP energy per Si atom -5581.472812 kJ/mol
# Density = 2.904307 g / cm^3
# Si number density = 29.109322 Si / 1000 Ang^3
#
#
#
# Elastic Constant Matrix: (Units=GPa)
#
#
# Indices 1 2 3 4 5 6 
#
# 1 225.6383 24.4520 44.5529 0.0000 32.3663 0.0000
# 2 24.4520 98.5214 21.8543 0.0000 3.4301 0.0000
# 3 44.5529 21.8543 103.4642 0.0000 0.3655 0.0000
# 4 0.0000 0.0000 0.0000 40.7764 0.0000 8.4985
# 5 32.3663 3.4301 0.3655 0.0000 66.3236 0.0000
# 6 0.0000 0.0000 0.0000 8.4985 0.0000 26.5197
#
#
#
# Elastic Compliance Matrix: (Units=1/GPa)
#
#
# Indices 1 2 3 4 5 6 
#
# 1 0.005294 -0.000758 -0.002111 0.000000 -0.002533 0.000000
# 2 -0.000758 0.010777 -0.001949 0.000000 -0.000177 0.000000
# 3 -0.002111 -0.001949 0.010982 0.000000 0.001070 0.000000
# 4 0.000000 0.000000 0.000000 0.026279 0.000000 -0.008421
# 5 -0.002533 -0.000177 0.001070 0.000000 0.016317 0.000000
# 6 0.000000 0.000000 0.000000 -0.008421 0.000000 0.040407
#
#
# Mechanical properties :
#
#
# Convention : Reuss Voigt Hill
#
# Bulk Modulus (GPa) = 57.41409 67.70470 62.55939
# Shear Modulus (GPa) = 39.84169 49.17490 44.50829
#
# Velocity S-wave (km/s) = 3.70360 4.11459 3.91449
# Velocity P-wave (km/s) = 6.16890 6.77365 6.47834
#
# Compressibility (1/GPa) = 0.01741733
#
# Stress axis : x y z
#
# Youngs Moduli (GPa) = 188.89190 92.79285 91.05746
#
# Poissons Ratio (x) = 0.07029 0.19220
# Poissons Ratio (y) = 0.14309 0.17751
# Poissons Ratio (z) = 0.39870 0.18090
#
# Static dielectric constant tensor:
#      x y z
#    x 2.342300 0.000000 0.043650 
#    y 0.000000 2.443610 0.000000 
#    z 0.043650 0.000000 2.734740 
# 
# From -- ./inp_files/16329.got.cif
#   From: 2010.05.17/outbox.cif.g08.bks.cpg/sg3_9_cif.got.tgz:16329.got - 2010.06.03 18:33:08.
