data_PCOD9113494
_publ_section_title
;
Structure prediction by ZEFSAII (Michael W. Deem and Ramdas Pophale) SiO2 
 PCOD9113494
Probable space group: P 2
;
_chemical_formula_sum "Si O2"
_cell_formula_units_Z 16
_cell_length_a 19.839639
_cell_length_b 6.726449
_cell_length_c 5.049162
_cell_angle_alpha 90.000000
_cell_angle_beta 93.589804
_cell_angle_gamma 90.000000
_cell_volume 672.490188
_symmetry_space_group_name_H-M "P 2"
_symmetry_group_IT_number 3
_symmetry_cell_setting 'monoclinic'
loop_
_space_group_symop_operation_xyz
x,y,z
-x,y,-z
loop_
_atom_site_type_symbol
_atom_site_label
_atom_site_fract_x
_atom_site_fract_y
_atom_site_fract_z
Si Si1 0.573119 0.014920 0.901439
Si Si2 0.076183 0.809550 0.982568
Si Si3 0.076438 0.085604 0.479586
Si Si4 0.712896 0.921564 0.229207
Si Si5 0.211238 0.594034 0.062434
Si Si6 0.212416 0.317742 0.561815
Si Si7 0.577614 0.475519 0.037620
Si Si8 0.626445 0.697132 0.563189
O O1 0.500000 0.961897 0.000000
O O2 0.638851 0.958293 0.088890
O O3 0.576381 0.252241 0.926806
O O4 0.582990 0.896766 0.626995
O O5 0.132189 0.648661 0.066704
O O6 0.083013 0.990787 0.191301
O O7 0.000000 0.732324 0.000000
O O8 0.085558 0.905473 0.694136
O O9 0.134946 0.244920 0.531293
O O10 0.000000 0.161396 0.500000
O O11 0.744703 0.119858 0.359831
O O12 0.696525 0.777221 0.469836
O O13 0.756684 0.808075 0.018313
O O14 0.374595 0.586779 0.157676
O O15 0.222872 0.461484 0.808668
O O16 0.229893 0.443804 0.305056
O O17 0.599129 0.540932 0.337753
O O18 0.500000 0.541590 0.000000
#
# Coordination Sequence:
#
# PCOD9113494 Si02
#       8
#     2   2   2   2   2   2   2   2
#     4  11  29  52  80 114 147 199 252 319 391 467
#     4  10  21  43  76 111 153 198 248 312 373 440
#     4  10  21  43  75 109 151 198 249 311 373 442
#     4  12  31  48  77 108 157 194 262 311 385 460
#     4  12  29  47  75 110 153 203 256 311 379 453
#     4  12  29  47  76 109 152 203 256 312 379 451
#     4  11  27  48  77 113 149 181 250 318 379 466
#     4  12  27  47  78 106 146 199 238 309 384 460
#
# _framework density 23.792166000000002
#
# number of rings (size 3 to 8) (size 9 to 14) (size 15 to 20)
#    0.000    0.750    2.500    2.250    8.750    1.000 
#    0.000    0.000    0.000    0.000    0.000    0.000 
#    0.000    0.000    0.000    0.000    0.000    0.000 
#
# Total GULP energy -89470.613407 kJ/mol
# GULP energy per Si atom -5591.913338 kJ/mol
# Density = 2.373801 g / cm^3
# Si number density = 23.792166 Si / 1000 Ang^3
#
#
#
# Elastic Constant Matrix: (Units=GPa)
#
#
# Indices 1 2 3 4 5 6 
#
# 1 117.4208 56.5207 40.8244 0.0000 1.6082 0.0000
# 2 56.5207 131.2173 23.1267 0.0000 -4.2993 0.0000
# 3 40.8244 23.1267 122.0761 0.0000 -6.9223 0.0000
# 4 0.0000 0.0000 0.0000 40.2604 0.0000 5.0472
# 5 1.6082 -4.2993 -6.9223 0.0000 31.8149 0.0000
# 6 0.0000 0.0000 0.0000 5.0472 0.0000 36.8630
#
#
#
# Elastic Compliance Matrix: (Units=1/GPa)
#
#
# Indices 1 2 3 4 5 6 
#
# 1 0.011879 -0.004614 -0.003207 0.000000 -0.001922 0.000000
# 2 -0.004614 0.009694 -0.000208 0.000000 0.001498 0.000000
# 3 -0.003207 -0.000208 0.009428 0.000000 0.002185 0.000000
# 4 0.000000 0.000000 0.000000 0.025272 0.000000 -0.003460
# 5 -0.001922 0.001498 0.002185 0.000000 0.032207 0.000000
# 6 0.000000 0.000000 0.000000 -0.003460 0.000000 0.027601
#
#
# Mechanical properties :
#
#
# Convention : Reuss Voigt Hill
#
# Bulk Modulus (GPa) = 66.93222 67.96198 67.44710
# Shear Modulus (GPa) = 36.46393 38.47049 37.46721
#
# Velocity S-wave (km/s) = 3.91909 4.02548 3.97264
# Velocity P-wave (km/s) = 6.97654 7.08751 7.03225
#
# Compressibility (1/GPa) = 0.01494049
#
# Stress axis : x y z
#
# Youngs Moduli (GPa) = 84.18217 103.15231 106.07145
#
# Poissons Ratio (x) = 0.47599 0.34021
# Poissons Ratio (y) = 0.38846 0.02211
# Poissons Ratio (z) = 0.27000 0.02150
#
# Static dielectric constant tensor:
#      x y z
#    x 1.896490 0.000000 0.018310 
#    y 0.000000 1.996070 0.000000 
#    z 0.018310 0.000000 1.891500 
# 
# From -- ./inp_files/3893.got.cif
#   From: 2010.05.17/outbox.cif.g08.bks.cpg/sg3_2_cif.got.tgz:3893.got - 2010.06.03 18:33:08.
