data_PCOD9113530
_publ_section_title
;
Structure prediction by ZEFSAII (Michael W. Deem and Ramdas Pophale) SiO2 
 PCOD9113530
Probable space group: P 2
;
_chemical_formula_sum "Si O2"
_cell_formula_units_Z 10
_cell_length_a 5.217571
_cell_length_b 9.007551
_cell_length_c 11.009600
_cell_angle_alpha 90.000000
_cell_angle_beta 58.568305
_cell_angle_gamma 90.000000
_cell_volume 441.498542
_symmetry_space_group_name_H-M "P 2"
_symmetry_group_IT_number 3
_symmetry_cell_setting 'monoclinic'
loop_
_space_group_symop_operation_xyz
x,y,z
-x,y,-z
loop_
_atom_site_type_symbol
_atom_site_label
_atom_site_fract_x
_atom_site_fract_y
_atom_site_fract_z
Si Si1 0.500000 0.357690 0.000000
Si Si2 0.301577 0.819429 0.171086
Si Si3 0.897620 0.291788 0.265782
Si Si4 0.522408 0.520308 0.238651
Si Si5 0.000000 0.339515 0.500000
Si Si6 0.788190 0.001933 0.170634
O O1 0.613821 0.454961 0.084735
O O2 0.229403 0.270127 0.127908
O O3 0.373387 0.676973 0.238538
O O4 0.469698 0.945345 0.204360
O O5 0.974693 0.882181 0.208990
O O6 0.500000 0.794300 0.000000
O O7 0.798934 0.461594 0.255727
O O8 0.873628 0.258991 0.413630
O O9 0.722741 0.162557 0.242016
O O10 0.256205 0.437017 0.373993
O O11 0.000000 0.017406 0.000000
#
# Coordination Sequence:
#
# PCOD9113530 Si02
#       6
#     1   2   2   2   1   2
#     4  10  22  34  70 100 128 164 232 276 346 394
#     4  10  23  40  67 103 141 175 220 287 360 416
#     4  11  24  42  69  98 134 184 231 291 336 413
#     4  11  22  42  68  99 133 181 226 286 336 412
#     4  10  26  42  68  90 142 174 242 274 348 386
#     4  10  23  40  67 103 140 174 222 288 357 416
#
# _framework density 22.650130999999998
#
# number of rings (size 3 to 8) (size 9 to 14) (size 15 to 20)
#    0.000    1.600    1.000    2.400   15.400    1.600 
#    0.000    1.000    0.000    0.000    0.000    0.000 
#    0.000    0.000    0.000    0.000    0.000    0.000 
#
# Total GULP energy -55703.929451 kJ/mol
# GULP energy per Si atom -5570.392945 kJ/mol
# Density = 2.259858 g / cm^3
# Si number density = 22.650131 Si / 1000 Ang^3
#
#
#
# Elastic Constant Matrix: (Units=GPa)
#
#
# Indices 1 2 3 4 5 6 
#
# 1 87.5321 12.0001 30.0642 0.0000 16.4483 0.0000
# 2 12.0001 84.0386 30.7423 0.0000 20.1529 0.0000
# 3 30.0642 30.7423 106.8616 0.0000 19.2385 0.0000
# 4 0.0000 0.0000 0.0000 17.7743 0.0000 19.6019
# 5 16.4483 20.1529 19.2385 0.0000 38.9835 0.0000
# 6 0.0000 0.0000 0.0000 19.6019 0.0000 23.2597
#
#
#
# Elastic Compliance Matrix: (Units=1/GPa)
#
#
# Indices 1 2 3 4 5 6 
#
# 1 0.013223 0.000228 -0.003029 0.000000 -0.004202 0.000000
# 2 0.000228 0.014459 -0.003140 0.000000 -0.006021 0.000000
# 3 -0.003029 -0.003140 0.011624 0.000000 -0.002835 0.000000
# 4 0.000000 0.000000 0.000000 0.796846 0.000000 -0.671535
# 5 -0.004202 -0.006021 -0.002835 0.000000 0.031937 0.000000
# 6 0.000000 0.000000 0.000000 -0.671535 0.000000 0.608923
#
#
# Mechanical properties :
#
#
# Convention : Reuss Voigt Hill
#
# Bulk Modulus (GPa) = 36.46468 47.11616 41.79042
# Shear Modulus (GPa) = 3.33770 29.71190 16.52480
#
# Velocity S-wave (km/s) = 1.21523 3.62577 2.70398
# Velocity P-wave (km/s) = 4.25477 6.19477 5.31405
#
# Compressibility (1/GPa) = 0.02742380
#
# Stress axis : x y z
#
# Youngs Moduli (GPa) = 75.62473 69.15957 86.03057
#
# Poissons Ratio (x) = -0.01574 0.26060
# Poissons Ratio (y) = -0.01721 0.27011
# Poissons Ratio (z) = 0.22908 0.21714
#
# Static dielectric constant tensor:
#      x y z
#    x 2.028860 0.000000 0.086430 
#    y 0.000000 1.909040 0.000000 
#    z 0.086430 0.000000 1.798100 
# 
# From -- ./inp_files/4175.got.cif
#   From: 2010.05.17/outbox.cif.g08.bks.cpg/sg3_3_cif.got.tgz:4175.got - 2010.06.03 18:33:08.
