data_PCOD9113448
_publ_section_title
;
Structure prediction by ZEFSAII (Michael W. Deem and Ramdas Pophale) SiO2 
 PCOD9113448
Probable space group: P 2
;
_chemical_formula_sum "Si O2"
_cell_formula_units_Z 16
_cell_length_a 9.011652
_cell_length_b 10.868503
_cell_length_c 8.551034
_cell_angle_alpha 90.000000
_cell_angle_beta 61.794797
_cell_angle_gamma 90.000000
_cell_volume 738.069226
_symmetry_space_group_name_H-M "P 2"
_symmetry_group_IT_number 3
_symmetry_cell_setting 'monoclinic'
loop_
_space_group_symop_operation_xyz
x,y,z
-x,y,-z
loop_
_atom_site_type_symbol
_atom_site_label
_atom_site_fract_x
_atom_site_fract_y
_atom_site_fract_z
Si Si1 0.977552 0.952920 0.829754
Si Si2 0.323022 0.366046 0.494352
Si Si3 0.842276 0.526535 0.192264
Si Si4 0.497931 0.544190 0.185182
Si Si5 0.313802 0.110215 0.624748
Si Si6 0.376666 0.052329 0.924428
Si Si7 0.550557 0.818449 0.658468
Si Si8 0.902090 0.736560 0.408291
O O1 0.969378 0.829343 0.736406
O O2 0.146175 0.028865 0.703211
O O3 0.000000 0.918482 0.000000
O O4 0.802803 0.024012 0.908080
O O5 0.500000 0.381188 0.500000
O O6 0.171401 0.417784 0.674779
O O7 0.357713 0.452711 0.328934
O O8 0.298268 0.220012 0.507975
O O9 0.679213 0.512585 0.165938
O O10 0.835082 0.647037 0.306563
O O11 0.000000 0.529116 0.000000
O O12 0.475340 0.685662 0.248560
O O13 0.500000 0.534038 0.000000
O O14 0.500000 0.054691 0.500000
O O15 0.336561 0.142834 0.798248
O O16 0.455506 0.926201 0.804660
O O17 0.500000 0.095446 0.000000
O O18 0.500000 0.808388 0.500000
O O19 0.752815 0.822200 0.549254
O O20 0.000000 0.670293 0.500000
#
# Coordination Sequence:
#
# PCOD9113448 Si02
#       8
#     2   2   2   2   2   2   2   2
#     4  10  22  39  60  97 134 172 225 273 336 410
#     4   9  20  45  65  93 125 175 230 274 331 413
#     4  11  24  38  63  93 131 172 221 281 337 398
#     4  11  23  41  67  95 130 174 229 286 346 411
#     4  10  21  41  71  87 127 181 223 271 344 403
#     4  11  23  38  62 101 139 171 228 283 338 411
#     4  12  21  39  63  92 137 185 218 268 349 416
#     4  12  24  37  60  91 137 177 219 275 338 408
#
# _framework density 21.678183000000001
#
# number of rings (size 3 to 8) (size 9 to 14) (size 15 to 20)
#    0.000    1.250    2.500    4.500    3.500    1.500 
#    0.000    5.625    0.000   11.250    0.000    0.000 
#    0.000    0.000    0.000    0.000    0.000    0.000 
#
# Total GULP energy -89222.007247 kJ/mol
# GULP energy per Si atom -5576.375453 kJ/mol
# Density = 2.162884 g / cm^3
# Si number density = 21.678183 Si / 1000 Ang^3
#
#
#
# Elastic Constant Matrix: (Units=GPa)
#
#
# Indices 1 2 3 4 5 6 
#
# 1 88.3032 1.3156 32.1417 0.0000 5.6894 0.0000
# 2 1.3156 70.7716 52.6703 0.0000 5.6406 0.0000
# 3 32.1417 52.6703 106.2267 0.0000 -11.0434 0.0000
# 4 0.0000 0.0000 0.0000 20.3892 0.0000 -3.3884
# 5 5.6894 5.6406 -11.0434 0.0000 44.2208 0.0000
# 6 0.0000 0.0000 0.0000 -3.3884 0.0000 3.9934
#
#
#
# Elastic Compliance Matrix: (Units=1/GPa)
#
#
# Indices 1 2 3 4 5 6 
#
# 1 0.014325 0.005811 -0.007684 0.000000 -0.004503 0.000000
# 2 0.005811 0.026288 -0.015625 0.000000 -0.008003 0.000000
# 3 -0.007684 -0.015625 0.020324 0.000000 0.008057 0.000000
# 4 0.000000 0.000000 0.000000 0.057097 0.000000 0.048446
# 5 -0.004503 -0.008003 0.008057 0.000000 0.026226 0.000000
# 6 0.000000 0.000000 0.000000 0.048446 0.000000 0.291520
#
#
# Mechanical properties :
#
#
# Convention : Reuss Voigt Hill
#
# Bulk Modulus (GPa) = 38.54762 48.61743 43.58253
# Shear Modulus (GPa) = 10.42923 25.66560 18.04742
#
# Velocity S-wave (km/s) = 2.19576 3.44457 2.88846
# Velocity P-wave (km/s) = 4.92431 6.18835 5.59216
#
# Compressibility (1/GPa) = 0.02594194
#
# Stress axis : x y z
#
# Youngs Moduli (GPa) = 69.80750 38.03989 49.20371
#
# Poissons Ratio (x) = -0.22106 0.37808
# Poissons Ratio (y) = -0.40567 0.76880
# Poissons Ratio (z) = 0.53640 0.59437
#
# Static dielectric constant tensor:
#      x y z
#    x 1.808470 0.000000 0.008490 
#    y 0.000000 1.852910 0.000000 
#    z 0.008490 0.000000 1.829360 
# 
# From -- ./inp_files/6015.got.cif
#   From: 2010.05.17/outbox.cif.g08.bks.cpg/sg3_4_cif.got.tgz:6015.got - 2010.06.03 18:33:08.
