data_PCOD9113201
_publ_section_title
;
Structure prediction by ZEFSAII (Michael W. Deem and Ramdas Pophale) SiO2 
 PCOD9113201
Probable space group: P 2
;
_chemical_formula_sum "Si O2"
_cell_formula_units_Z 12
_cell_length_a 9.438262
_cell_length_b 5.126522
_cell_length_c 16.512051
_cell_angle_alpha 90.000000
_cell_angle_beta 35.943458
_cell_angle_gamma 90.000000
_cell_volume 468.968915
_symmetry_space_group_name_H-M "P 2"
_symmetry_group_IT_number 3
_symmetry_cell_setting 'monoclinic'
loop_
_space_group_symop_operation_xyz
x,y,z
-x,y,-z
loop_
_atom_site_type_symbol
_atom_site_label
_atom_site_fract_x
_atom_site_fract_y
_atom_site_fract_z
Si Si1 0.000000 0.918000 0.000000
Si Si2 0.596205 0.478344 0.754608
Si Si3 0.691673 0.288408 0.251310
Si Si4 0.000000 0.094423 0.500000
Si Si5 0.187595 0.542808 0.054084
Si Si6 0.055702 0.661058 0.284924
Si Si7 0.234779 0.120222 0.549488
O O1 0.875384 0.755358 0.985747
O O2 0.210620 0.084613 0.860052
O O3 0.448011 0.505054 0.739020
O O4 0.756869 0.696796 0.725988
O O5 0.796271 0.270502 0.636779
O O6 0.409200 0.391351 0.910808
O O7 0.937954 0.387011 0.174974
O O8 0.511947 0.185059 0.403251
O O9 0.153193 0.978423 0.501955
O O10 0.222906 0.635243 0.128431
O O11 0.902854 0.395118 0.372813
O O12 0.870975 0.892589 0.346234
#
# Coordination Sequence:
#
# PCOD9113201 Si02
#       7
#     1   2   2   1   2   2   2
#     4  12  24  42  74 102 140 194 254 296 366 442
#     4  10  20  46  69 105 141 184 243 303 361 434
#     4  11  24  46  73 102 146 194 250 304 360 445
#     4   8  20  38  76 100 138 188 236 300 356 438
#     4  12  25  45  69 107 145 193 243 309 369 440
#     4  11  27  46  72 108 147 189 241 307 374 433
#     4  10  25  47  70 106 144 191 242 296 369 439
#
# _framework density 25.588048000000001
#
# number of rings (size 3 to 8) (size 9 to 14) (size 15 to 20)
#    0.000    1.333    3.333    0.500    4.667   10.000 
#    0.000    3.333    0.000    0.000    0.000    0.000 
#    0.000    0.000    0.000    0.000    0.000    0.000 
#
# Total GULP energy -66962.733997 kJ/mol
# GULP energy per Si atom -5580.227833 kJ/mol
# Density = 2.552981 g / cm^3
# Si number density = 25.588048 Si / 1000 Ang^3
#
#
#
# Elastic Constant Matrix: (Units=GPa)
#
#
# Indices 1 2 3 4 5 6 
#
# 1 63.4202 21.2819 32.6511 0.0000 -10.2540 0.0000
# 2 21.2819 69.6718 37.2382 0.0000 -8.8151 0.0000
# 3 32.6511 37.2382 201.7316 0.0000 -24.8299 0.0000
# 4 0.0000 0.0000 0.0000 35.3487 0.0000 -16.2467
# 5 -10.2540 -8.8151 -24.8299 0.0000 41.9798 0.0000
# 6 0.0000 0.0000 0.0000 -16.2467 0.0000 51.1683
#
#
#
# Elastic Compliance Matrix: (Units=1/GPa)
#
#
# Indices 1 2 3 4 5 6 
#
# 1 0.018612 -0.004352 -0.001900 0.000000 0.002508 0.000000
# 2 -0.004352 0.017059 -0.002302 0.000000 0.001157 0.000000
# 3 -0.001900 -0.002302 0.006011 0.000000 0.002607 0.000000
# 4 0.000000 0.000000 0.000000 0.033123 0.000000 0.010517
# 5 0.002508 0.001157 0.002607 0.000000 0.026219 0.000000
# 6 0.000000 0.000000 0.000000 0.010517 0.000000 0.022883
#
#
# Mechanical properties :
#
#
# Convention : Reuss Voigt Hill
#
# Bulk Modulus (GPa) = 40.69553 57.46288 49.07920
# Shear Modulus (GPa) = 33.51039 41.94286 37.72662
#
# Velocity S-wave (km/s) = 3.62278 4.05304 3.84394
# Velocity P-wave (km/s) = 5.78256 6.66397 6.23885
#
# Compressibility (1/GPa) = 0.02457272
#
# Stress axis : x y z
#
# Youngs Moduli (GPa) = 53.72810 58.61896 166.37389
#
# Poissons Ratio (x) = 0.25512 0.31617
# Poissons Ratio (y) = 0.23384 0.38302
# Poissons Ratio (z) = 0.10210 0.13495
#
# Static dielectric constant tensor:
#      x y z
#    x 2.106880 0.000000 0.106580 
#    y 0.000000 2.070110 0.000000 
#    z 0.106580 0.000000 2.099610 
# 
# From -- ./inp_files/15110.got.cif
#   From: 2010.05.17/outbox.cif.g08.bks.cpg/sg3_8_cif.got.tgz:15110.got - 2010.06.03 18:33:08.
