data_PCOD9113147
_publ_section_title
;
Structure prediction by ZEFSAII (Michael W. Deem and Ramdas Pophale) SiO2 
 PCOD9113147
Probable space group: P 2
;
_chemical_formula_sum "Si O2"
_cell_formula_units_Z 13
_cell_length_a 7.981335
_cell_length_b 9.745621
_cell_length_c 11.777173
_cell_angle_alpha 90.000000
_cell_angle_beta 37.099602
_cell_angle_gamma 90.000000
_cell_volume 552.572424
_symmetry_space_group_name_H-M "P 2"
_symmetry_group_IT_number 3
_symmetry_cell_setting 'monoclinic'
loop_
_space_group_symop_operation_xyz
x,y,z
-x,y,-z
loop_
_atom_site_type_symbol
_atom_site_label
_atom_site_fract_x
_atom_site_fract_y
_atom_site_fract_z
Si Si1 0.500000 0.594900 0.500000
Si Si2 0.132269 0.076748 0.714141
Si Si3 0.383396 0.992130 0.372308
Si Si4 0.553708 0.443309 0.788828
Si Si5 0.333370 0.723108 0.824212
Si Si6 0.101424 0.384466 0.628099
Si Si7 0.589270 0.165028 0.081385
O O1 0.449058 0.686531 0.636635
O O2 0.232295 0.496061 0.640694
O O3 0.140218 0.980892 0.597325
O O4 0.374376 0.043230 0.672192
O O5 0.138661 0.232101 0.658977
O O6 0.856420 0.069546 0.937652
O O7 0.355903 0.109460 0.292530
O O8 0.485885 0.858620 0.250551
O O9 0.418863 0.592626 0.854712
O O10 0.710166 0.409864 0.585952
O O11 0.338215 0.319762 0.922352
O O12 0.789919 0.421218 0.757039
O O13 0.000000 0.743104 0.000000
O O14 0.500000 0.163213 0.000000
#
# Coordination Sequence:
#
# PCOD9113147 Si02
#       7
#     1   2   2   2   2   2   2
#     4  10  22  40  66 100 136 178 232 280 356 416
#     4  11  22  40  73  96 136 176 229 302 335 417
#     4  11  25  45  65 102 136 181 238 284 354 417
#     4  10  23  42  66 100 146 178 235 289 346 430
#     4  11  25  44  68  98 144 189 233 291 348 437
#     4  10  20  41  68 103 134 180 229 293 353 403
#     4  12  24  40  67 101 135 178 231 293 348 409
#
# _framework density 23.526330000000002
#
# number of rings (size 3 to 8) (size 9 to 14) (size 15 to 20)
#    0.000    1.231    3.077    3.231    4.308    0.615 
#    0.000   10.000    0.000    0.000    0.000    0.000 
#    0.000    0.000    0.000    0.000    0.000    0.000 
#
# Total GULP energy -72632.714376 kJ/mol
# GULP energy per Si atom -5587.131875 kJ/mol
# Density = 2.347278 g / cm^3
# Si number density = 23.526330 Si / 1000 Ang^3
#
#
#
# Elastic Constant Matrix: (Units=GPa)
#
#
# Indices 1 2 3 4 5 6 
#
# 1 44.5595 8.5627 1.5021 0.0000 4.7798 0.0000
# 2 8.5627 111.9512 15.6337 0.0000 3.6952 0.0000
# 3 1.5021 15.6337 80.5581 0.0000 0.0570 0.0000
# 4 0.0000 0.0000 0.0000 39.1377 0.0000 0.8640
# 5 4.7798 3.6952 0.0570 0.0000 32.6507 0.0000
# 6 0.0000 0.0000 0.0000 0.8640 0.0000 10.5649
#
#
#
# Elastic Compliance Matrix: (Units=1/GPa)
#
#
# Indices 1 2 3 4 5 6 
#
# 1 0.023105 -0.001646 -0.000109 0.000000 -0.003196 0.000000
# 2 -0.001646 0.009334 -0.001780 0.000000 -0.000812 0.000000
# 3 -0.000109 -0.001780 0.012761 0.000000 0.000195 0.000000
# 4 0.000000 0.000000 0.000000 0.025597 0.000000 -0.002093
# 5 -0.003196 -0.000812 0.000195 0.000000 0.031187 0.000000
# 6 0.000000 0.000000 0.000000 -0.002093 0.000000 0.094824
#
#
# Mechanical properties :
#
#
# Convention : Reuss Voigt Hill
#
# Bulk Modulus (GPa) = 26.22738 32.05175 29.13957
# Shear Modulus (GPa) = 23.08531 30.56201 26.82366
#
# Velocity S-wave (km/s) = 3.13590 3.60815 3.38028
# Velocity P-wave (km/s) = 4.92789 5.56881 5.25813
#
# Compressibility (1/GPa) = 0.03812809
#
# Stress axis : x y z
#
# Youngs Moduli (GPa) = 43.28112 107.13756 78.36530
#
# Poissons Ratio (x) = 0.17640 0.00854
# Poissons Ratio (y) = 0.07126 0.13950
# Poissons Ratio (z) = 0.00472 0.19072
#
# Static dielectric constant tensor:
#      x y z
#    x 1.935310 0.000000 -0.071260 
#    y 0.000000 1.895760 0.000000 
#    z -0.071260 0.000000 1.978620 
# 
# From -- ./inp_files/7575.got.cif
#   From: 2010.05.17/outbox.cif.g08.bks.cpg/sg3_4_cif.got.tgz:7575.got - 2010.06.03 18:33:08.
