data_PCOD9113029
_publ_section_title
;
Structure prediction by ZEFSAII (Michael W. Deem and Ramdas Pophale) SiO2 
 PCOD9113029
Probable space group: P 2
;
_chemical_formula_sum "Si O2"
_cell_formula_units_Z 12
_cell_length_a 8.767910
_cell_length_b 9.854804
_cell_length_c 9.029443
_cell_angle_alpha 90.000000
_cell_angle_beta 58.123353
_cell_angle_gamma 90.000000
_cell_volume 662.534309
_symmetry_space_group_name_H-M "P 2"
_symmetry_group_IT_number 3
_symmetry_cell_setting 'monoclinic'
loop_
_space_group_symop_operation_xyz
x,y,z
-x,y,-z
loop_
_atom_site_type_symbol
_atom_site_label
_atom_site_fract_x
_atom_site_fract_y
_atom_site_fract_z
Si Si1 0.531715 0.638950 0.809207
Si Si2 0.293939 0.912202 0.673979
Si Si3 0.178427 0.455073 0.504944
Si Si4 0.167340 0.629819 0.803992
Si Si5 0.676842 0.158597 0.511683
Si Si6 0.519473 0.951074 0.819038
O O1 0.670617 0.538066 0.661921
O O2 0.347816 0.622683 0.810484
O O3 0.595161 0.796966 0.764724
O O4 0.500000 0.612349 0.000000
O O5 0.500000 0.893164 0.500000
O O6 0.181670 0.776638 0.716885
O O7 0.215857 0.045785 0.638146
O O8 0.331227 0.940306 0.827294
O O9 0.160917 0.519739 0.677378
O O10 0.230990 0.298155 0.497095
O O11 0.000000 0.467534 0.500000
O O12 0.000000 0.621698 0.000000
O O13 0.500000 0.186866 0.500000
O O14 0.622320 0.071872 0.684065
O O15 0.500000 0.979757 0.000000
#
# Coordination Sequence:
#
# PCOD9113029 Si02
#       6
#     2   2   2   2   2   2
#     4  10  20  38  62  87 113 146 185 231 282 334
#     4   8  16  34  58  81 106 144 184 221 277 336
#     4  12  24  38  54  81 117 154 192 231 275 331
#     4  11  21  37  60  87 113 145 186 234 282 333
#     4   9  18  35  56  77 106 150 186 222 277 332
#     4   8  15  30  56  85 107 133 181 229 273 330
#
# _framework density 18.112269999999999
#
# number of rings (size 3 to 8) (size 9 to 14) (size 15 to 20)
#    0.000    2.667    0.000    5.500    0.000    0.667 
#    0.000   12.500    0.000    0.000    0.000    0.000 
#    0.000    0.000    0.000    0.000    0.000    0.000 
#
# Total GULP energy -66860.627472 kJ/mol
# GULP energy per Si atom -5571.718956 kJ/mol
# Density = 1.807105 g / cm^3
# Si number density = 18.112270 Si / 1000 Ang^3
#
#
#
# Elastic Constant Matrix: (Units=GPa)
#
#
# Indices 1 2 3 4 5 6 
#
# 1 88.0313 57.9210 53.3777 0.0000 5.0849 0.0000
# 2 57.9210 167.6796 84.1697 0.0000 0.1316 0.0000
# 3 53.3777 84.1697 125.8593 0.0000 16.1971 0.0000
# 4 0.0000 0.0000 0.0000 11.8726 0.0000 12.4642
# 5 5.0849 0.1316 16.1971 0.0000 32.2412 0.0000
# 6 0.0000 0.0000 0.0000 12.4642 0.0000 17.1814
#
#
#
# Elastic Compliance Matrix: (Units=1/GPa)
#
#
# Indices 1 2 3 4 5 6 
#
# 1 0.016405 -0.003292 -0.004731 0.000000 -0.000197 0.000000
# 2 -0.003292 0.009955 -0.005691 0.000000 0.003337 0.000000
# 3 -0.004731 -0.005691 0.014602 0.000000 -0.006567 0.000000
# 4 0.000000 0.000000 0.000000 0.353305 0.000000 -0.256305
# 5 -0.000197 0.003337 -0.006567 0.000000 0.034333 0.000000
# 6 0.000000 0.000000 0.000000 -0.256305 0.000000 0.244139
#
#
# Mechanical properties :
#
#
# Convention : Reuss Voigt Hill
#
# Bulk Modulus (GPa) = 73.87764 85.83411 79.85588
# Shear Modulus (GPa) = 7.09543 24.66582 15.88063
#
# Velocity S-wave (km/s) = 1.98141 3.69430 2.96427
# Velocity P-wave (km/s) = 6.79057 8.10494 7.47670
#
# Compressibility (1/GPa) = 0.01353589
#
# Stress axis : x y z
#
# Youngs Moduli (GPa) = 60.95522 100.45327 68.48162
#
# Poissons Ratio (x) = 0.33070 0.32396
# Poissons Ratio (y) = 0.20067 0.38971
# Poissons Ratio (z) = 0.28836 0.57165
#
# Static dielectric constant tensor:
#      x y z
#    x 1.629090 0.000000 0.008810 
#    y 0.000000 1.630850 0.000000 
#    z 0.008810 0.000000 1.638550 
# 
# From -- ./inp_files/5078.got.cif
#   From: 2010.05.17/outbox.cif.g08.bks.cpg/sg3_3_cif.got.tgz:5078.got - 2010.06.03 18:33:08.
