data_PCOD9113708
_publ_section_title
;
Structure prediction by ZEFSAII (Michael W. Deem and Ramdas Pophale) SiO2 
 PCOD9113708
Probable space group: P 2
;
_chemical_formula_sum "Si O2"
_cell_formula_units_Z 16
_cell_length_a 5.490724
_cell_length_b 7.295412
_cell_length_c 22.870196
_cell_angle_alpha 90.000000
_cell_angle_beta 55.779690
_cell_angle_gamma 90.000000
_cell_volume 757.517171
_symmetry_space_group_name_H-M "P 2"
_symmetry_group_IT_number 3
_symmetry_cell_setting 'monoclinic'
loop_
_space_group_symop_operation_xyz
x,y,z
-x,y,-z
loop_
_atom_site_type_symbol
_atom_site_label
_atom_site_fract_x
_atom_site_fract_y
_atom_site_fract_z
Si Si1 0.786213 0.032200 0.181027
Si Si2 0.963973 0.546919 0.288621
Si Si3 0.756810 0.326482 0.081775
Si Si4 0.508503 0.708490 0.155510
Si Si5 0.298879 0.831275 0.585062
Si Si6 0.197146 0.051462 0.416585
Si Si7 0.436334 0.002215 0.076435
Si Si8 0.561080 0.326786 0.699530
O O1 0.831284 0.169685 0.119237
O O2 0.601798 0.151698 0.250512
O O3 0.620971 0.843141 0.190883
O O4 0.118434 0.981637 0.148616
O O5 0.818259 0.662512 0.360788
O O6 0.699807 0.458818 0.286887
O O7 0.172460 0.661444 0.216832
O O8 0.199646 0.409046 0.287837
O O9 0.663580 0.512439 0.125709
O O10 0.509397 0.213793 0.080159
O O11 0.000000 0.362466 0.000000
O O12 0.594744 0.833780 0.087891
O O13 0.500000 0.787944 0.500000
O O14 0.507779 0.949395 0.600469
O O15 0.008908 0.938139 0.600760
O O16 0.000000 0.076199 0.500000
O O17 0.272663 0.246157 0.378700
O O18 0.500000 0.974503 0.000000
#
# Coordination Sequence:
#
# PCOD9113708 Si02
#       8
#     2   2   2   2   2   2   2   2
#     4  11  25  44  66  91 133 174 223 281 339 406
#     4  12  26  44  67 101 137 179 228 283 338 400
#     4  11  23  44  64  92 132 166 222 286 341 407
#     4  11  27  41  68  95 130 177 227 279 344 409
#     4  10  22  42  69 100 137 177 227 279 335 403
#     4  10  22  42  69 100 136 181 226 275 339 403
#     4  11  25  42  65  95 127 174 224 281 346 407
#     4  12  26  43  69  97 141 178 228 283 335 403
#
# _framework density 21.121632999999999
#
# number of rings (size 3 to 8) (size 9 to 14) (size 15 to 20)
#    0.000    1.000    2.500    3.000    7.000    2.500 
#    0.000    0.000    0.000    0.000    0.000    0.000 
#    0.000    0.000    0.000    0.000    0.000    0.000 
#
# Total GULP energy -89244.477066 kJ/mol
# GULP energy per Si atom -5577.779817 kJ/mol
# Density = 2.107356 g / cm^3
# Si number density = 21.121633 Si / 1000 Ang^3
#
#
#
# Elastic Constant Matrix: (Units=GPa)
#
#
# Indices 1 2 3 4 5 6 
#
# 1 70.6532 22.0257 12.6889 0.0000 -4.4295 0.0000
# 2 22.0257 117.1326 35.3555 0.0000 0.2750 0.0000
# 3 12.6889 35.3555 41.4786 0.0000 -2.9670 0.0000
# 4 0.0000 0.0000 0.0000 57.5128 0.0000 -22.4448
# 5 -4.4295 0.2750 -2.9670 0.0000 23.9667 0.0000
# 6 0.0000 0.0000 0.0000 -22.4448 0.0000 54.7097
#
#
#
# Elastic Compliance Matrix: (Units=1/GPa)
#
#
# Indices 1 2 3 4 5 6 
#
# 1 0.015458 -0.002074 -0.002780 0.000000 0.002537 0.000000
# 2 -0.002074 0.011817 -0.009560 0.000000 -0.001702 0.000000
# 3 -0.002780 -0.009560 0.033374 0.000000 0.003728 0.000000
# 4 0.000000 0.000000 0.000000 0.020702 0.000000 0.008493
# 5 0.002537 -0.001702 0.003728 0.000000 0.042674 0.000000
# 6 0.000000 0.000000 0.000000 0.008493 0.000000 0.021763
#
#
# Mechanical properties :
#
#
# Convention : Reuss Voigt Hill
#
# Bulk Modulus (GPa) = 31.42402 41.04499 36.23450
# Shear Modulus (GPa) = 26.99449 37.85080 32.42264
#
# Velocity S-wave (km/s) = 3.57886 4.23784 3.92221
# Velocity P-wave (km/s) = 5.65576 6.58943 6.14037
#
# Compressibility (1/GPa) = 0.03182279
#
# Stress axis : x y z
#
# Youngs Moduli (GPa) = 64.68984 84.62520 29.96303
#
# Poissons Ratio (x) = 0.17548 0.08330
# Poissons Ratio (y) = 0.13414 0.28644
# Poissons Ratio (z) = 0.17984 0.80900
#
# Static dielectric constant tensor:
#      x y z
#    x 1.891160 0.000000 0.010980 
#    y 0.000000 1.732570 0.000000 
#    z 0.010980 0.000000 1.739140 
# 
# From -- ./inp_files/3963.got.cif
#   From: 2010.05.17/outbox.cif.g08.bks.cpg/sg3_2_cif.got.tgz:3963.got - 2010.06.03 18:33:08.
