data_PCOD9113734
_publ_section_title
;
Structure prediction by ZEFSAII (Michael W. Deem and Ramdas Pophale) SiO2 
 PCOD9113734
Probable space group: P 2
;
_chemical_formula_sum "Si O2"
_cell_formula_units_Z 16
_cell_length_a 23.010627
_cell_length_b 5.666422
_cell_length_c 9.183046
_cell_angle_alpha 90.000000
_cell_angle_beta 34.959297
_cell_angle_gamma 90.000000
_cell_volume 686.079556
_symmetry_space_group_name_H-M "P 2"
_symmetry_group_IT_number 3
_symmetry_cell_setting 'monoclinic'
loop_
_space_group_symop_operation_xyz
x,y,z
-x,y,-z
loop_
_atom_site_type_symbol
_atom_site_label
_atom_site_fract_x
_atom_site_fract_y
_atom_site_fract_z
Si Si1 0.802515 0.688180 0.536222
Si Si2 0.284247 0.166725 0.740833
Si Si3 0.944210 0.088418 0.350858
Si Si4 0.580917 0.697703 0.965690
Si Si5 0.809077 0.440031 0.814408
Si Si6 0.509474 0.189328 0.157307
Si Si7 0.115530 0.780101 0.108378
Si Si8 0.874980 0.396231 0.144753
O O1 0.774618 0.618029 0.758912
O O2 0.855802 0.466127 0.349741
O O3 0.875633 0.913126 0.393963
O O4 0.696081 0.713968 0.672354
O O5 0.399593 0.158792 0.454671
O O6 0.272399 0.324649 0.910383
O O7 0.222005 0.281166 0.734124
O O8 0.219684 0.929450 0.904367
O O9 0.871457 0.240177 0.602755
O O10 0.029788 0.236068 0.090200
O O11 0.015927 0.935796 0.309554
O O12 0.560475 0.444570 0.085688
O O13 0.567265 0.946239 0.077780
O O14 0.500000 0.700525 0.000000
O O15 0.881117 0.582481 0.775812
O O16 0.500000 0.191199 0.000000
O O17 0.111404 0.646276 0.962844
#
# Coordination Sequence:
#
# PCOD9113734 Si02
#       8
#     2   2   2   2   2   2   2   2
#     4  12  27  45  74 106 156 194 252 315 386 452
#     4  10  23  43  75 108 141 189 256 306 383 459
#     4  11  26  45  70 108 151 204 251 305 379 459
#     4  10  24  45  77 109 142 193 252 317 388 449
#     4  11  26  44  70 100 156 194 247 301 381 455
#     4  10  22  42  78 110 139 180 252 325 383 449
#     4  10  24  44  71 103 141 200 248 304 367 459
#     4  10  24  43  71 105 148 192 249 311 371 453
#
# _framework density 23.320910999999999
#
# number of rings (size 3 to 8) (size 9 to 14) (size 15 to 20)
#    0.000    1.500    0.000    3.000    8.750   17.000 
#    0.000    0.625    0.000    0.000    0.000    0.000 
#    0.000    0.000    0.000    0.000    0.000    0.000 
#
# Total GULP energy -89483.014116 kJ/mol
# GULP energy per Si atom -5592.688382 kJ/mol
# Density = 2.326783 g / cm^3
# Si number density = 23.320911 Si / 1000 Ang^3
#
#
#
# Elastic Constant Matrix: (Units=GPa)
#
#
# Indices 1 2 3 4 5 6 
#
# 1 59.9449 3.9089 15.4532 0.0000 12.6724 0.0000
# 2 3.9089 137.4393 47.8478 0.0000 -3.3029 0.0000
# 3 15.4532 47.8478 115.0807 0.0000 -16.8328 0.0000
# 4 0.0000 0.0000 0.0000 36.7394 0.0000 0.5686
# 5 12.6724 -3.3029 -16.8328 0.0000 31.9357 0.0000
# 6 0.0000 0.0000 0.0000 0.5686 0.0000 31.3429
#
#
#
# Elastic Compliance Matrix: (Units=1/GPa)
#
#
# Indices 1 2 3 4 5 6 
#
# 1 0.019944 0.000748 -0.004481 0.000000 -0.010198 0.000000
# 2 0.000748 0.008569 -0.003876 0.000000 -0.001453 0.000000
# 3 -0.004481 -0.003876 0.012032 0.000000 0.007719 0.000000
# 4 0.000000 0.000000 0.000000 0.027226 0.000000 -0.000494
# 5 -0.010198 -0.001453 0.007719 0.000000 0.039278 0.000000
# 6 0.000000 0.000000 0.000000 -0.000494 0.000000 0.031914
#
#
# Mechanical properties :
#
#
# Convention : Reuss Voigt Hill
#
# Bulk Modulus (GPa) = 39.48310 49.65386 44.56848
# Shear Modulus (GPa) = 30.74583 36.35393 33.54988
#
# Velocity S-wave (km/s) = 3.63489 3.95252 3.79703
# Velocity P-wave (km/s) = 5.88079 6.49366 6.19481
#
# Compressibility (1/GPa) = 0.02532729
#
# Stress axis : x y z
#
# Youngs Moduli (GPa) = 50.13967 116.69896 83.11369
#
# Poissons Ratio (x) = -0.08724 0.37241
# Poissons Ratio (y) = -0.03748 0.32213
# Poissons Ratio (z) = 0.22466 0.45230
#
# Static dielectric constant tensor:
#      x y z
#    x 1.896820 0.000000 0.004480 
#    y 0.000000 1.980480 0.000000 
#    z 0.004480 0.000000 1.819660 
# 
# From -- ./inp_files/12712.got.cif
#   From: 2010.05.17/outbox.cif.g08.bks.cpg/sg3_7_cif.got.tgz:12712.got - 2010.06.03 18:33:08.
