data_PCOD9113794
_publ_section_title
;
Structure prediction by ZEFSAII (Michael W. Deem and Ramdas Pophale) SiO2 
 PCOD9113794
Probable space group: P 2
;
_chemical_formula_sum "Si O2"
_cell_formula_units_Z 12
_cell_length_a 5.295509
_cell_length_b 18.165677
_cell_length_c 5.231709
_cell_angle_alpha 90.000000
_cell_angle_beta 84.701254
_cell_angle_gamma 90.000000
_cell_volume 501.121504
_symmetry_space_group_name_H-M "P 2"
_symmetry_group_IT_number 3
_symmetry_cell_setting 'monoclinic'
loop_
_space_group_symop_operation_xyz
x,y,z
-x,y,-z
loop_
_atom_site_type_symbol
_atom_site_label
_atom_site_fract_x
_atom_site_fract_y
_atom_site_fract_z
Si Si1 0.179905 0.185490 0.238980
Si Si2 0.834764 0.346508 0.767781
Si Si3 0.500000 0.579893 0.500000
Si Si4 0.226452 0.810382 0.152998
Si Si5 0.500000 0.479057 0.000000
Si Si6 0.259326 0.965973 0.353073
Si Si7 0.000000 0.680191 0.500000
Si Si8 0.500000 0.064734 0.000000
O O1 0.301633 0.267715 0.251056
O O2 0.000000 0.177356 0.500000
O O3 0.399026 0.124933 0.211878
O O4 0.000000 0.176440 0.000000
O O5 0.693996 0.420744 0.856692
O O6 0.000000 0.359109 0.500000
O O7 0.000000 0.331492 0.000000
O O8 0.454390 0.531192 0.759731
O O9 0.246171 0.629538 0.518400
O O10 0.270789 0.877518 0.341194
O O11 0.102388 0.736645 0.276536
O O12 0.500000 0.794990 0.000000
O O13 0.000000 0.840993 0.000000
O O14 0.500000 0.989868 0.500000
O O15 0.000000 0.990271 0.500000
O O16 0.283858 0.003240 0.072608
#
# Coordination Sequence:
#
# PCOD9113794 Si02
#       8
#     2   2   1   2   1   2   1   1
#     4  10  24  44  70 107 149 201 255 312 380 448
#     4  10  22  44  75 106 148 200 254 309 373 455
#     4  12  32  48  82 112 162 200 250 318 394 458
#     4  12  26  48  80 106 145 196 256 318 381 457
#     4  12  27  48  73 114 152 198 254 312 387 456
#     4  12  28  46  72 109 147 194 258 323 385 451
#     4  12  30  52  72 112 150 204 246 322 380 472
#     4  12  27  40  71  98 158 194 260 312 397 430
#
# _framework density 23.946286000000001
#
# number of rings (size 3 to 8) (size 9 to 14) (size 15 to 20)
#    0.000    0.667    1.667    4.000   12.833    0.000 
#    0.000    5.000    0.000    0.000    0.000    0.000 
#    0.000    0.000    0.000    0.000    0.000    0.000 
#
# Total GULP energy -66923.871213 kJ/mol
# GULP energy per Si atom -5576.989268 kJ/mol
# Density = 2.389178 g / cm^3
# Si number density = 23.946286 Si / 1000 Ang^3
#
#
#
# Elastic Constant Matrix: (Units=GPa)
#
#
# Indices 1 2 3 4 5 6 
#
# 1 146.4346 61.3189 63.6187 0.0000 -23.4540 0.0000
# 2 61.3189 186.1344 56.0884 0.0000 -11.7060 0.0000
# 3 63.6187 56.0884 174.4238 0.0000 -29.7283 0.0000
# 4 0.0000 0.0000 0.0000 -83.7059 0.0000 -18.7111
# 5 -23.4540 -11.7060 -29.7283 0.0000 55.2511 0.0000
# 6 0.0000 0.0000 0.0000 -18.7111 0.0000 31.6129
#
#
#
# Elastic Compliance Matrix: (Units=1/GPa)
#
#
# Indices 1 2 3 4 5 6 
#
# 1 0.009059 -0.002174 -0.002233 0.000000 0.002184 0.000000
# 2 -0.002174 0.006474 -0.001335 0.000000 -0.000269 0.000000
# 3 -0.002233 -0.001335 0.007450 0.000000 0.002778 0.000000
# 4 0.000000 0.000000 0.000000 -0.010551 0.000000 -0.006245
# 5 0.002184 -0.000269 0.002778 0.000000 0.020464 0.000000
# 6 0.000000 0.000000 0.000000 -0.006245 0.000000 0.027936
#
#
# Mechanical properties :
#
#
# Convention : Reuss Voigt Hill
#
# Bulk Modulus (GPa) = 86.95835 96.56053 91.75944
# Shear Modulus (GPa) = 65.65982 22.36275 44.01129
#
# Velocity S-wave (km/s) = 5.24206 3.05925 4.29174
# Velocity P-wave (km/s) = 8.54585 7.27255 7.93478
#
# Compressibility (1/GPa) = 0.01149976
#
# Stress axis : x y z
#
# Youngs Moduli (GPa) = 110.38403 154.46468 134.22353
#
# Poissons Ratio (x) = 0.33584 0.29971
# Poissons Ratio (y) = 0.24000 0.17915
# Poissons Ratio (z) = 0.24648 0.20616
#
# Static dielectric constant tensor:
#      x y z
#    x 1.977630 0.000000 0.118690 
#    y 0.000000 1.960910 0.000000 
#    z 0.118690 0.000000 1.988890 
# 
# From -- ./inp_files/453.got.cif
#   From: 2010.05.17/outbox.cif.g08.bks.cpg/sg3_1_cif.got.tgz:453.got - 2010.06.03 18:33:08.
