data_PCOD9113742
_publ_section_title
;
Structure prediction by ZEFSAII (Michael W. Deem and Ramdas Pophale) SiO2 
 PCOD9113742
Probable space group: P 2
;
_chemical_formula_sum "Si O2"
_cell_formula_units_Z 14
_cell_length_a 14.432616
_cell_length_b 8.711846
_cell_length_c 13.194281
_cell_angle_alpha 90.000000
_cell_angle_beta 158.600529
_cell_angle_gamma 90.000000
_cell_volume 605.308783
_symmetry_space_group_name_H-M "P 2"
_symmetry_group_IT_number 3
_symmetry_cell_setting 'monoclinic'
loop_
_space_group_symop_operation_xyz
x,y,z
-x,y,-z
loop_
_atom_site_type_symbol
_atom_site_label
_atom_site_fract_x
_atom_site_fract_y
_atom_site_fract_z
Si Si1 0.340905 0.820720 0.586609
Si Si2 0.460577 0.125141 0.622760
Si Si3 0.761393 0.016769 0.324375
Si Si4 0.430952 0.307262 0.782950
Si Si5 0.659313 0.609632 0.062713
Si Si6 0.960283 0.549824 0.699621
Si Si7 0.070202 0.301366 0.961953
O O1 0.539026 0.712795 0.849313
O O2 0.137474 0.698184 0.340427
O O3 0.449023 0.941424 0.616481
O O4 0.222677 0.930243 0.552937
O O5 0.549103 0.186268 0.824661
O O6 0.178446 0.197336 0.320057
O O7 0.681230 0.194473 0.778103
O O8 0.742290 0.199181 0.324588
O O9 0.000000 0.974918 0.500000
O O10 0.500000 0.981027 0.000000
O O11 0.628934 0.423912 0.032127
O O12 0.261660 0.431053 0.552052
O O13 0.500000 0.655762 0.000000
O O14 0.949285 0.613408 0.318700
O O15 0.129174 0.440024 0.942969
O O16 0.000000 0.367911 0.000000
#
# Coordination Sequence:
#
# PCOD9113742 Si02
#       7
#     2   2   2   2   2   2   2
#     4  10  25  39  62  91 134 183 215 276 339 397
#     4  10  22  43  68  99 131 172 214 278 335 402
#     4  11  25  38  59  87 127 173 235 277 318 380
#     4   9  21  37  58  90 125 173 222 273 324 379
#     4  11  22  36  61  90 137 180 228 266 324 388
#     4  10  23  41  64  95 134 180 218 281 333 401
#     4  11  23  45  77 101 128 167 226 278 342 408
#
# _framework density 23.128689999999999
#
# number of rings (size 3 to 8) (size 9 to 14) (size 15 to 20)
#    0.000    1.714    1.429    1.286   10.000    3.429 
#    0.000    0.714    3.143    0.000    0.000    0.000 
#    0.000    0.000    0.000    0.000    0.000    0.000 
#
# Total GULP energy -77979.947994 kJ/mol
# GULP energy per Si atom -5569.996285 kJ/mol
# Density = 2.307605 g / cm^3
# Si number density = 23.128690 Si / 1000 Ang^3
#
#
#
# Elastic Constant Matrix: (Units=GPa)
#
#
# Indices 1 2 3 4 5 6 
#
# 1 69.5771 13.3044 9.9793 0.0000 18.3186 0.0000
# 2 13.3044 154.5262 29.6978 0.0000 3.7253 0.0000
# 3 9.9793 29.6978 68.7503 0.0000 17.7481 0.0000
# 4 0.0000 0.0000 0.0000 36.0203 0.0000 18.2737
# 5 18.3186 3.7253 17.7481 0.0000 28.8723 0.0000
# 6 0.0000 0.0000 0.0000 18.2737 0.0000 31.4736
#
#
#
# Elastic Compliance Matrix: (Units=1/GPa)
#
#
# Indices 1 2 3 4 5 6 
#
# 1 0.017550 -0.001437 0.001070 0.000000 -0.011607 0.000000
# 2 -0.001437 0.007207 -0.003447 0.000000 0.002100 0.000000
# 3 0.001070 -0.003447 0.018946 0.000000 -0.011880 0.000000
# 4 0.000000 0.000000 0.000000 0.039354 0.000000 -0.022849
# 5 -0.011607 0.002100 -0.011880 0.000000 0.049031 0.000000
# 6 0.000000 0.000000 0.000000 -0.022849 0.000000 0.045039
#
#
# Mechanical properties :
#
#
# Convention : Reuss Voigt Hill
#
# Bulk Modulus (GPa) = 27.72035 44.31296 36.01665
# Shear Modulus (GPa) = 25.40916 35.26471 30.33694
#
# Velocity S-wave (km/s) = 3.31811 3.90900 3.62561
# Velocity P-wave (km/s) = 5.16634 6.29083 5.75611
#
# Compressibility (1/GPa) = 0.03607458
#
# Stress axis : x y z
#
# Youngs Moduli (GPa) = 56.98079 138.75606 52.78175
#
# Poissons Ratio (x) = 0.19936 -0.05645
# Poissons Ratio (y) = 0.08187 0.18193
# Poissons Ratio (z) = -0.06094 0.47827
#
# Static dielectric constant tensor:
#      x y z
#    x 1.973330 0.000000 -0.001110 
#    y 0.000000 1.879820 0.000000 
#    z -0.001110 0.000000 2.043930 
# 
# From -- ./inp_files/3154.got.cif
#   From: 2010.05.17/outbox.cif.g08.bks.cpg/sg3_2_cif.got.tgz:3154.got - 2010.06.03 18:33:08.
