data_PCOD9113349
_publ_section_title
;
Structure prediction by ZEFSAII (Michael W. Deem and Ramdas Pophale) SiO2 
 PCOD9113349
Probable space group: P 2
;
_chemical_formula_sum "Si O2"
_cell_formula_units_Z 15
_cell_length_a 15.140369
_cell_length_b 8.618917
_cell_length_c 5.492249
_cell_angle_alpha 90.000000
_cell_angle_beta 79.004523
_cell_angle_gamma 90.000000
_cell_volume 703.546191
_symmetry_space_group_name_H-M "P 2"
_symmetry_group_IT_number 3
_symmetry_cell_setting 'monoclinic'
loop_
_space_group_symop_operation_xyz
x,y,z
-x,y,-z
loop_
_atom_site_type_symbol
_atom_site_label
_atom_site_fract_x
_atom_site_fract_y
_atom_site_fract_z
Si Si1 0.631317 0.032370 0.579172
Si Si2 0.328885 0.323408 0.187919
Si Si3 0.500000 0.794599 0.500000
Si Si4 0.765951 0.090368 0.108102
Si Si5 0.761695 0.815503 0.805234
Si Si6 0.101332 0.351964 0.885307
Si Si7 0.404563 0.611733 0.914187
Si Si8 0.162356 0.507304 0.371614
O O1 0.611415 0.203757 0.691123
O O2 0.670698 0.058330 0.289594
O O3 0.547930 0.917175 0.652285
O O4 0.714767 0.937375 0.650204
O O5 0.262907 0.437019 0.371797
O O6 0.261964 0.204275 0.094371
O O7 0.379485 0.433207 0.970672
O O8 0.424193 0.680028 0.639147
O O9 0.838106 0.199084 0.203394
O O10 0.801399 0.925917 0.994474
O O11 0.828916 0.692472 0.653377
O O12 0.679076 0.711836 0.948173
O O13 0.105563 0.453430 0.635316
O O14 0.134533 0.444022 0.114808
O O15 0.000000 0.305030 0.000000
O O16 0.500000 0.637110 0.000000
#
# Coordination Sequence:
#
# PCOD9113349 Si02
#       8
#     2   2   1   2   2   2   2   2
#     4  11  21  38  61  87 124 168 215 275 327 393
#     4   9  22  39  60  85 122 165 224 265 322 397
#     4  12  24  34  62  86 128 174 220 280 346 370
#     4  10  21  39  64  95 120 170 215 266 333 398
#     4  10  22  39  65  88 125 171 217 271 327 401
#     4  11  23  43  70  99 137 169 216 271 332 400
#     4  11  22  39  54  85 122 163 216 276 328 377
#     4  10  22  41  69  98 127 173 219 265 327 403
#
# _framework density 21.320558999999999
#
# number of rings (size 3 to 8) (size 9 to 14) (size 15 to 20)
#    0.000    1.600    4.000    0.400    1.867    3.200 
#    0.000    0.667    2.933    0.000    0.000    0.000 
#    0.000    0.000    0.000    0.000    0.000    0.000 
#
# Total GULP energy -83512.045579 kJ/mol
# GULP energy per Si atom -5567.469705 kJ/mol
# Density = 2.127203 g / cm^3
# Si number density = 21.320559 Si / 1000 Ang^3
#
#
#
# Elastic Constant Matrix: (Units=GPa)
#
#
# Indices 1 2 3 4 5 6 
#
# 1 28.8754 12.4765 -7.5781 0.0000 -4.7543 0.0000
# 2 12.4765 145.5290 32.7093 0.0000 -2.9221 0.0000
# 3 -7.5781 32.7093 62.3191 0.0000 -10.3210 0.0000
# 4 0.0000 0.0000 0.0000 34.2964 0.0000 -1.4399
# 5 -4.7543 -2.9221 -10.3210 0.0000 25.4710 0.0000
# 6 0.0000 0.0000 0.0000 -1.4399 0.0000 11.1668
#
#
#
# Elastic Compliance Matrix: (Units=1/GPa)
#
#
# Indices 1 2 3 4 5 6 
#
# 1 0.041399 -0.005521 0.009762 0.000000 0.011049 0.000000
# 2 -0.005521 0.008543 -0.005535 0.000000 -0.002293 0.000000
# 3 0.009762 -0.005535 0.021798 0.000000 0.010020 0.000000
# 4 0.000000 0.000000 0.000000 0.029316 0.000000 0.003780
# 5 0.011049 -0.002293 0.010020 0.000000 0.045120 0.000000
# 6 0.000000 0.000000 0.000000 0.003780 0.000000 0.090039
#
#
# Mechanical properties :
#
#
# Convention : Reuss Voigt Hill
#
# Bulk Modulus (GPa) = 14.46117 34.65985 24.56051
# Shear Modulus (GPa) = 19.09465 27.46122 23.27794
#
# Velocity S-wave (km/s) = 2.99590 3.59279 3.30783
# Velocity P-wave (km/s) = 4.33182 5.78815 5.11211
#
# Compressibility (1/GPa) = 0.06915071
#
# Stress axis : x y z
#
# Youngs Moduli (GPa) = 24.15546 117.05650 45.87529
#
# Poissons Ratio (x) = 0.64632 -0.44784
# Poissons Ratio (y) = 0.13337 0.25393
# Poissons Ratio (z) = -0.23581 0.64792
#
# Static dielectric constant tensor:
#      x y z
#    x 1.818720 0.000000 0.069700 
#    y 0.000000 1.773440 0.000000 
#    z 0.069700 0.000000 1.906130 
# 
# From -- ./inp_files/3179.got.cif
#   From: 2010.05.17/outbox.cif.g08.bks.cpg/sg3_2_cif.got.tgz:3179.got - 2010.06.03 18:33:08.
