data_PCOD9113035
_publ_section_title
;
Structure prediction by ZEFSAII (Michael W. Deem and Ramdas Pophale) SiO2 
 PCOD9113035
Probable space group: P 2
;
_chemical_formula_sum "Si O2"
_cell_formula_units_Z 16
_cell_length_a 20.692352
_cell_length_b 7.294826
_cell_length_c 8.475659
_cell_angle_alpha 90.000000
_cell_angle_beta 142.687112
_cell_angle_gamma 90.000000
_cell_volume 775.516044
_symmetry_space_group_name_H-M "P 2"
_symmetry_group_IT_number 3
_symmetry_cell_setting 'monoclinic'
loop_
_space_group_symop_operation_xyz
x,y,z
-x,y,-z
loop_
_atom_site_type_symbol
_atom_site_label
_atom_site_fract_x
_atom_site_fract_y
_atom_site_fract_z
Si Si1 0.766582 0.564590 0.469821
Si Si2 0.029740 0.336978 0.232200
Si Si3 0.422831 0.401924 0.702633
Si Si4 0.254203 0.847257 0.007977
Si Si5 0.057039 0.952403 0.442619
Si Si6 0.111333 0.693468 0.014247
Si Si7 0.615068 0.194035 0.677969
Si Si8 0.393386 0.565635 0.128595
O O1 0.859168 0.442078 0.574042
O O2 0.688517 0.468457 0.444891
O O3 0.685674 0.599312 0.171166
O O4 0.828234 0.708072 0.701322
O O5 0.047764 0.164122 0.378075
O O6 0.939548 0.488432 0.102243
O O7 0.000000 0.267717 0.000000
O O8 0.396191 0.245567 0.526472
O O9 0.500000 0.352274 0.000000
O O10 0.490884 0.545757 0.727728
O O11 0.190609 0.747037 0.025743
O O12 0.359612 0.730184 0.175763
O O13 0.174223 0.872673 0.703725
O O14 0.290129 0.052278 0.118054
O O15 0.000000 0.930661 0.500000
O O16 0.988309 0.830126 0.190626
O O17 0.500000 0.112880 0.500000
O O18 0.626243 0.375318 0.812226
#
# Coordination Sequence:
#
# PCOD9113035 Si02
#       8
#     2   2   2   2   2   2   2   2
#     4  10  20  38  63  86 116 162 204 244 306 364
#     4  10  22  38  59  84 117 158 199 250 304 358
#     4   9  20  40  64  90 121 160 202 248 309 370
#     4  11  23  38  63  92 120 162 206 249 308 368
#     4  10  23  39  58  88 122 158 204 254 305 361
#     4  10  23  40  57  87 124 160 203 253 304 365
#     4  10  22  40  63  91 123 158 202 256 309 366
#     4  10  21  39  64  90 123 158 196 254 307 366
#
# _framework density 20.631422000000001
#
# number of rings (size 3 to 8) (size 9 to 14) (size 15 to 20)
#    0.000    2.000    0.000    2.250    0.000   13.500 
#    0.000    3.750    0.000    7.500    0.000    0.000 
#    0.000    0.000    0.000    0.000    0.000    0.000 
#
# Total GULP energy -89212.912081 kJ/mol
# GULP energy per Si atom -5575.807005 kJ/mol
# Density = 2.058446 g / cm^3
# Si number density = 20.631422 Si / 1000 Ang^3
#
#
#
# Elastic Constant Matrix: (Units=GPa)
#
#
# Indices 1 2 3 4 5 6 
#
# 1 78.2208 25.3594 17.1131 0.0000 -3.2140 0.0000
# 2 25.3594 65.5761 18.7815 0.0000 -5.4061 0.0000
# 3 17.1131 18.7815 102.6329 0.0000 -11.1754 0.0000
# 4 0.0000 0.0000 0.0000 30.6377 0.0000 -2.8511
# 5 -3.2140 -5.4061 -11.1754 0.0000 25.7619 0.0000
# 6 0.0000 0.0000 0.0000 -2.8511 0.0000 21.9055
#
#
#
# Elastic Compliance Matrix: (Units=1/GPa)
#
#
# Indices 1 2 3 4 5 6 
#
# 1 0.014833 -0.005301 -0.001493 0.000000 0.000090 0.000000
# 2 -0.005301 0.018108 -0.002191 0.000000 0.002188 0.000000
# 3 -0.001493 -0.002191 0.010835 0.000000 0.004054 0.000000
# 4 0.000000 0.000000 0.000000 0.033040 0.000000 0.004300
# 5 0.000090 0.002188 0.004054 0.000000 0.041046 0.000000
# 6 0.000000 0.000000 0.000000 0.004300 0.000000 0.046210
#
#
# Mechanical properties :
#
#
# Convention : Reuss Voigt Hill
#
# Bulk Modulus (GPa) = 38.75401 40.99309 39.87355
# Shear Modulus (GPa) = 26.22673 28.00608 27.11641
#
# Velocity S-wave (km/s) = 3.56926 3.68835 3.62930
# Velocity P-wave (km/s) = 5.98422 6.16855 6.07708
#
# Compressibility (1/GPa) = 0.02580378
#
# Stress axis : x y z
#
# Youngs Moduli (GPa) = 67.41535 55.22564 92.29411
#
# Poissons Ratio (x) = 0.29276 0.13783
# Poissons Ratio (y) = 0.35738 0.20226
# Poissons Ratio (z) = 0.10068 0.12103
#
# Static dielectric constant tensor:
#      x y z
#    x 1.753250 0.000000 0.006100 
#    y 0.000000 1.719620 0.000000 
#    z 0.006100 0.000000 1.787580 
# 
# From -- ./inp_files/9378.got.cif
#   From: 2010.05.17/outbox.cif.g08.bks.cpg/sg3_5_cif.got.tgz:9378.got - 2010.06.03 18:33:08.
