data_PCOD9113946
_publ_section_title
;
Structure prediction by ZEFSAII (Michael W. Deem and Ramdas Pophale) SiO2 
 PCOD9113946
Probable space group: P 2
;
_chemical_formula_sum "Si O2"
_cell_formula_units_Z 13
_cell_length_a 15.505771
_cell_length_b 6.171349
_cell_length_c 9.636624
_cell_angle_alpha 90.000000
_cell_angle_beta 36.781910
_cell_angle_gamma 90.000000
_cell_volume 552.152403
_symmetry_space_group_name_H-M "P 2"
_symmetry_group_IT_number 3
_symmetry_cell_setting 'monoclinic'
loop_
_space_group_symop_operation_xyz
x,y,z
-x,y,-z
loop_
_atom_site_type_symbol
_atom_site_label
_atom_site_fract_x
_atom_site_fract_y
_atom_site_fract_z
Si Si1 0.500000 0.471160 0.500000
Si Si2 0.005095 0.709458 0.296940
Si Si3 0.500000 0.611770 0.000000
Si Si4 0.000000 0.342083 0.500000
Si Si5 0.497043 0.244637 0.211367
Si Si6 0.268916 0.920630 0.440926
Si Si7 0.770907 0.016149 0.918574
Si Si8 0.764863 0.790113 0.195429
O O1 0.483335 0.325369 0.385635
O O2 0.637692 0.629044 0.314477
O O3 0.948864 0.493551 0.438579
O O4 0.885870 0.894767 0.430811
O O5 0.137379 0.797345 0.221904
O O6 0.084711 0.682436 0.046520
O O7 0.449299 0.448623 0.944829
O O8 0.625747 0.755740 0.773238
O O9 0.870585 0.203275 0.730286
O O10 0.348382 0.151176 0.342649
O O11 0.613477 0.050318 0.060076
O O12 0.250542 0.847455 0.624704
O O13 0.756701 0.001631 0.104925
#
# Coordination Sequence:
#
# PCOD9113946 Si02
#       8
#     1   2   1   1   2   2   2   2
#     4  12  22  48  80 108 138 200 256 314 358 444
#     4  10  26  43  76 105 151 193 237 310 366 439
#     4  12  28  44  72 112 150 196 244 312 376 432
#     4  12  22  46  74 112 146 196 254 292 372 450
#     4  12  26  45  76 108 144 196 255 301 373 443
#     4  12  25  49  71 107 154 192 244 311 375 442
#     4  10  25  43  73 107 141 196 249 303 355 442
#     4  10  23  46  73 105 145 192 246 306 372 425
#
# _framework density 23.544224
#
# number of rings (size 3 to 8) (size 9 to 14) (size 15 to 20)
#    0.923    0.000    1.538    5.077    0.000    6.154 
#    0.000    0.000    3.385    0.000    0.000    0.000 
#    0.000    0.000    0.000    0.000    0.000    0.000 
#
# Total GULP energy -72686.193384 kJ/mol
# GULP energy per Si atom -5591.245645 kJ/mol
# Density = 2.349064 g / cm^3
# Si number density = 23.544224 Si / 1000 Ang^3
#
#
#
# Elastic Constant Matrix: (Units=GPa)
#
#
# Indices 1 2 3 4 5 6 
#
# 1 70.6068 21.6771 60.8562 0.0000 9.5211 0.0000
# 2 21.6771 72.5280 57.7466 0.0000 11.1300 0.0000
# 3 60.8562 57.7466 148.4851 0.0000 15.6508 0.0000
# 4 0.0000 0.0000 0.0000 39.6957 0.0000 8.5497
# 5 9.5211 11.1300 15.6508 0.0000 50.4416 0.0000
# 6 0.0000 0.0000 0.0000 8.5497 0.0000 41.0509
#
#
#
# Elastic Compliance Matrix: (Units=1/GPa)
#
#
# Indices 1 2 3 4 5 6 
#
# 1 0.022046 0.001028 -0.009276 0.000000 -0.001510 0.000000
# 2 0.001028 0.020230 -0.008062 0.000000 -0.002157 0.000000
# 3 -0.009276 -0.008062 0.013749 0.000000 -0.000736 0.000000
# 4 0.000000 0.000000 0.000000 0.026375 0.000000 -0.005493
# 5 -0.001510 -0.002157 -0.000736 0.000000 0.020814 0.000000
# 6 0.000000 0.000000 0.000000 -0.005493 0.000000 0.025504
#
#
# Mechanical properties :
#
#
# Convention : Reuss Voigt Hill
#
# Bulk Modulus (GPa) = 42.72368 63.57552 53.14960
# Shear Modulus (GPa) = 29.56129 36.32698 32.94414
#
# Velocity S-wave (km/s) = 3.54724 3.93227 3.74471
# Velocity P-wave (km/s) = 5.91293 6.90494 6.42810
#
# Compressibility (1/GPa) = 0.02340623
#
# Stress axis : x y z
#
# Youngs Moduli (GPa) = 45.35950 49.43130 72.73042
#
# Poissons Ratio (x) = -0.05083 0.67467
# Poissons Ratio (y) = -0.04665 0.58633
# Poissons Ratio (z) = 0.42077 0.39850
#
# Static dielectric constant tensor:
#      x y z
#    x 1.898900 0.000000 0.020520 
#    y 0.000000 1.863250 0.000000 
#    z 0.020520 0.000000 1.920400 
# 
# From -- ./inp_files/8202.got.cif
#   From: 2010.05.17/outbox.cif.g08.bks.cpg/sg3_5_cif.got.tgz:8202.got - 2010.06.03 18:33:08.
