data_PCOD9113969
_publ_section_title
;
Structure prediction by ZEFSAII (Michael W. Deem and Ramdas Pophale) SiO2 
 PCOD9113969
Probable space group: P 2
;
_chemical_formula_sum "Si O2"
_cell_formula_units_Z 7
_cell_length_a 8.270280
_cell_length_b 8.933627
_cell_length_c 5.066634
_cell_angle_alpha 90.000000
_cell_angle_beta 57.057056
_cell_angle_gamma 90.000000
_cell_volume 314.151771
_symmetry_space_group_name_H-M "P 2"
_symmetry_group_IT_number 3
_symmetry_cell_setting 'monoclinic'
loop_
_space_group_symop_operation_xyz
x,y,z
-x,y,-z
loop_
_atom_site_type_symbol
_atom_site_label
_atom_site_fract_x
_atom_site_fract_y
_atom_site_fract_z
Si Si1 0.626877 0.561020 0.628421
Si Si2 0.795344 0.068185 0.107810
Si Si3 0.500000 0.842438 0.500000
Si Si4 0.280607 0.260978 0.306834
O O1 0.500000 0.492565 0.500000
O O2 0.654291 0.729521 0.498772
O O3 0.776498 0.431785 0.569988
O O4 0.500000 0.584596 0.000000
O O5 0.729410 0.162183 0.422019
O O6 0.628616 0.947756 0.200296
O O7 0.827166 0.180126 0.836585
O O8 0.000000 0.996659 0.000000
O O9 0.500000 0.269400 0.000000
#
# Coordination Sequence:
#
# PCOD9113969 Si02
#       4
#     2   2   1   2
#     4   9  20  36  65  95 120 169 218 255 317 381
#     4  12  25  40  67  99 133 165 216 267 324 382
#     4  10  24  40  68  94 132 172 206 268 328 382
#     4  11  20  42  67  94 124 173 218 263 312 383
#
# _framework density 22.282225
#
# number of rings (size 3 to 8) (size 9 to 14) (size 15 to 20)
#    0.857    0.571    2.857    4.286    4.000    0.000 
#    0.000    1.429   12.571    0.000    0.000    0.000 
#    0.000    0.000    0.000    0.000    0.000    0.000 
#
# Total GULP energy -38980.724276 kJ/mol
# GULP energy per Si atom -5568.674897 kJ/mol
# Density = 2.223151 g / cm^3
# Si number density = 22.282225 Si / 1000 Ang^3
#
#
#
# Elastic Constant Matrix: (Units=GPa)
#
#
# Indices 1 2 3 4 5 6 
#
# 1 76.9816 32.7824 19.0948 0.0000 8.9657 0.0000
# 2 32.7824 140.4256 34.8418 0.0000 1.3939 0.0000
# 3 19.0948 34.8418 86.2913 0.0000 28.8543 0.0000
# 4 0.0000 0.0000 0.0000 27.8846 0.0000 12.5353
# 5 8.9657 1.3939 28.8543 0.0000 45.7894 0.0000
# 6 0.0000 0.0000 0.0000 12.5353 0.0000 25.8014
#
#
#
# Elastic Compliance Matrix: (Units=1/GPa)
#
#
# Indices 1 2 3 4 5 6 
#
# 1 0.014886 -0.003112 -0.001387 0.000000 -0.001946 0.000000
# 2 -0.003112 0.008751 -0.003750 0.000000 0.002706 0.000000
# 3 -0.001387 -0.003750 0.016826 0.000000 -0.010217 0.000000
# 4 0.000000 0.000000 0.000000 0.045883 0.000000 -0.022292
# 5 -0.001946 0.002706 -0.010217 0.000000 0.028576 0.000000
# 6 0.000000 0.000000 0.000000 -0.022292 0.000000 0.049588
#
#
# Mechanical properties :
#
#
# Convention : Reuss Voigt Hill
#
# Bulk Modulus (GPa) = 41.72466 53.01517 47.36992
# Shear Modulus (GPa) = 26.45571 34.36040 30.40805
#
# Velocity S-wave (km/s) = 3.44946 3.93116 3.69816
# Velocity P-wave (km/s) = 5.88483 6.66705 6.28812
#
# Compressibility (1/GPa) = 0.02396664
#
# Stress axis : x y z
#
# Youngs Moduli (GPa) = 67.17777 114.27111 59.43187
#
# Poissons Ratio (x) = 0.35558 0.08242
# Poissons Ratio (y) = 0.20904 0.22285
# Poissons Ratio (z) = 0.09317 0.42847
#
# Static dielectric constant tensor:
#      x y z
#    x 1.790620 0.000000 -0.057930 
#    y 0.000000 1.881260 0.000000 
#    z -0.057930 0.000000 1.725670 
# 
# From -- ./inp_files/831.got.cif
#   From: 2010.05.17/outbox.cif.g08.bks.cpg/sg3_1_cif.got.tgz:831.got - 2010.06.03 18:33:08.
