data_PCOD9113962
_publ_section_title
;
Structure prediction by ZEFSAII (Michael W. Deem and Ramdas Pophale) SiO2 
 PCOD9113962
Probable space group: P 2
;
_chemical_formula_sum "Si O2"
_cell_formula_units_Z 13
_cell_length_a 12.435536
_cell_length_b 9.746469
_cell_length_c 5.112217
_cell_angle_alpha 90.000000
_cell_angle_beta 78.595220
_cell_angle_gamma 90.000000
_cell_volume 607.379347
_symmetry_space_group_name_H-M "P 2"
_symmetry_group_IT_number 3
_symmetry_cell_setting 'monoclinic'
loop_
_space_group_symop_operation_xyz
x,y,z
-x,y,-z
loop_
_atom_site_type_symbol
_atom_site_label
_atom_site_fract_x
_atom_site_fract_y
_atom_site_fract_z
Si Si1 0.000000 0.423151 0.500000
Si Si2 0.500000 0.476434 0.000000
Si Si3 0.069885 0.959547 0.714561
Si Si4 0.259532 0.155904 0.541234
Si Si5 0.726458 0.604547 0.971272
Si Si6 0.174371 0.301457 0.079265
Si Si7 0.500000 0.272265 0.500000
Si Si8 0.845649 0.669599 0.419992
O O1 0.055231 0.327877 0.256147
O O2 0.085008 0.529027 0.595097
O O3 0.397588 0.578578 0.043555
O O4 0.502549 0.374344 0.248593
O O5 0.078685 0.795024 0.700904
O O6 0.000000 0.006952 0.500000
O O7 0.194580 0.014925 0.629889
O O8 0.000000 0.003037 0.000000
O O9 0.236041 0.201757 0.255041
O O10 0.388462 0.181154 0.537918
O O11 0.194478 0.253293 0.776345
O O12 0.773467 0.451271 0.925102
O O13 0.792877 0.693937 0.729369
O O14 0.751067 0.653202 0.250616
#
# Coordination Sequence:
#
# PCOD9113962 Si02
#       8
#     1   1   2   2   2   2   1   2
#     4  10  24  38  66  94 140 168 206 274 340 418
#     4  12  22  40  66 100 134 172 208 276 344 388
#     4  12  27  47  68  93 134 179 224 276 325 396
#     4  12  25  43  64  98 131 176 224 270 328 394
#     4  11  22  40  65  98 129 165 218 267 324 403
#     4  11  23  39  61  99 132 165 209 274 337 396
#     4  12  22  44  66  92 138 180 220 268 340 404
#     4  11  24  43  64  93 130 177 217 258 332 402
#
# _framework density 21.403431000000001
#
# number of rings (size 3 to 8) (size 9 to 14) (size 15 to 20)
#    0.000    0.615    3.846    4.615    5.385    2.462 
#    0.000    1.538    0.000    0.000    0.000    0.000 
#    0.000    0.000    0.000    0.000    0.000    0.000 
#
# Total GULP energy -72669.760961 kJ/mol
# GULP energy per Si atom -5589.981612 kJ/mol
# Density = 2.135472 g / cm^3
# Si number density = 21.403431 Si / 1000 Ang^3
#
#
#
# Elastic Constant Matrix: (Units=GPa)
#
#
# Indices 1 2 3 4 5 6 
#
# 1 116.2893 14.2205 17.7898 0.0000 -1.7194 0.0000
# 2 14.2205 51.1543 7.8473 0.0000 -1.9005 0.0000
# 3 17.7898 7.8473 91.5745 0.0000 9.2892 0.0000
# 4 0.0000 0.0000 0.0000 5.3549 0.0000 5.1564
# 5 -1.7194 -1.9005 9.2892 0.0000 31.7246 0.0000
# 6 0.0000 0.0000 0.0000 5.1564 0.0000 15.6875
#
#
#
# Elastic Compliance Matrix: (Units=1/GPa)
#
#
# Indices 1 2 3 4 5 6 
#
# 1 0.009143 -0.002254 -0.001669 0.000000 0.000849 0.000000
# 2 -0.002254 0.020458 -0.001471 0.000000 0.001534 0.000000
# 3 -0.001669 -0.001471 0.011737 0.000000 -0.003615 0.000000
# 4 0.000000 0.000000 0.000000 0.273227 0.000000 -0.089809
# 5 0.000849 0.001534 -0.003615 0.000000 0.032718 0.000000
# 6 0.000000 0.000000 0.000000 -0.089809 0.000000 0.093265
#
#
# Mechanical properties :
#
#
# Convention : Reuss Voigt Hill
#
# Bulk Modulus (GPa) = 32.73340 37.63703 35.18521
# Shear Modulus (GPa) = 10.83380 25.16409 17.99894
#
# Velocity S-wave (km/s) = 2.25227 3.43257 2.90304
# Velocity P-wave (km/s) = 4.70003 5.77346 5.26418
#
# Compressibility (1/GPa) = 0.03054984
#
# Stress axis : x y z
#
# Youngs Moduli (GPa) = 109.37604 48.88086 85.20005
#
# Poissons Ratio (x) = 0.11018 0.14221
# Poissons Ratio (y) = 0.24654 0.12531
# Poissons Ratio (z) = 0.18256 0.07190
#
# Static dielectric constant tensor:
#      x y z
#    x 2.119040 0.000000 -0.126370 
#    y 0.000000 1.770910 0.000000 
#    z -0.126370 0.000000 1.838320 
# 
# From -- ./inp_files/2204.got.cif
#   From: 2010.05.17/outbox.cif.g08.bks.cpg/sg3_2_cif.got.tgz:2204.got - 2010.06.03 18:33:08.
