data_PCOD9113019
_publ_section_title
;
Structure prediction by ZEFSAII (Michael W. Deem and Ramdas Pophale) SiO2 
 PCOD9113019
Probable space group: P 2
;
_chemical_formula_sum "Si O2"
_cell_formula_units_Z 14
_cell_length_a 17.262673
_cell_length_b 6.090297
_cell_length_c 6.112570
_cell_angle_alpha 90.000000
_cell_angle_beta 95.042265
_cell_angle_gamma 90.000000
_cell_volume 640.156914
_symmetry_space_group_name_H-M "P 2"
_symmetry_group_IT_number 3
_symmetry_cell_setting 'monoclinic'
loop_
_space_group_symop_operation_xyz
x,y,z
-x,y,-z
loop_
_atom_site_type_symbol
_atom_site_label
_atom_site_fract_x
_atom_site_fract_y
_atom_site_fract_z
Si Si1 0.926614 0.641180 0.360844
Si Si2 0.500000 0.108167 0.500000
Si Si3 0.000000 0.932016 0.000000
Si Si4 0.571776 0.804704 0.897864
Si Si5 0.644035 0.102368 0.293289
Si Si6 0.288238 0.749116 0.340354
Si Si7 0.859194 0.992208 0.694477
Si Si8 0.785492 0.371044 0.385571
O O1 0.893039 0.814343 0.530236
O O2 0.855560 0.486351 0.275422
O O3 0.000000 0.526341 0.500000
O O4 0.959286 0.777038 0.167597
O O5 0.573260 0.226069 0.403062
O O6 0.534004 0.950779 0.696895
O O7 0.929749 0.059870 0.868211
O O8 0.643589 0.678863 0.807224
O O9 0.500000 0.683188 0.000000
O O10 0.609365 0.970344 0.082153
O O11 0.715624 0.254149 0.241153
O O12 0.677351 0.925315 0.476591
O O13 0.214540 0.871755 0.210784
O O14 0.255803 0.547875 0.469615
O O15 0.826678 0.194051 0.550603
#
# Coordination Sequence:
#
# PCOD9113019 Si02
#       8
#     2   1   1   2   2   2   2   2
#     4   9  20  39  58  83 117 150 191 241 287 337
#     4   8  16  34  58  82 116 154 190 234 282 330
#     4  10  20  40  64  82 112 154 192 236 288 342
#     4   9  17  34  61  85 113 156 193 229 284 339
#     4   9  18  35  58  83 114 155 195 234 281 337
#     4   9  19  36  56  83 118 151 190 241 287 332
#     4   9  20  38  59  84 116 152 192 239 286 337
#     4  10  20  38  61  85 118 152 187 238 290 338
#
# _framework density 21.86964
#
# number of rings (size 3 to 8) (size 9 to 14) (size 15 to 20)
#    0.000    2.857    0.000    0.000    0.000    5.143 
#    0.000   34.286    0.000   15.429    0.000    0.000 
#    0.000    0.000    0.000    0.000    0.000    0.000 
#
# Total GULP energy -78101.964328 kJ/mol
# GULP energy per Si atom -5578.711738 kJ/mol
# Density = 2.181986 g / cm^3
# Si number density = 21.869640 Si / 1000 Ang^3
#
#
#
# Elastic Constant Matrix: (Units=GPa)
#
#
# Indices 1 2 3 4 5 6 
#
# 1 158.2103 27.6100 38.1051 0.0000 -1.5528 0.0000
# 2 27.6100 26.2531 -9.6802 0.0000 4.6208 0.0000
# 3 38.1051 -9.6802 52.3830 0.0000 11.6796 0.0000
# 4 0.0000 0.0000 0.0000 12.4862 0.0000 6.3136
# 5 -1.5528 4.6208 11.6796 0.0000 39.4268 0.0000
# 6 0.0000 0.0000 0.0000 6.3136 0.0000 40.7175
#
#
#
# Elastic Compliance Matrix: (Units=1/GPa)
#
#
# Indices 1 2 3 4 5 6 
#
# 1 0.014213 -0.022346 -0.016250 0.000000 0.007993 0.000000
# 2 -0.022346 0.078207 0.035278 0.000000 -0.020496 0.000000
# 3 -0.016250 0.035278 0.041218 0.000000 -0.016985 0.000000
# 4 0.000000 0.000000 0.000000 0.086902 0.000000 -0.013475
# 5 0.007993 -0.020496 -0.016985 0.000000 0.033112 0.000000
# 6 0.000000 0.000000 0.000000 -0.013475 0.000000 0.026649
#
#
# Mechanical properties :
#
#
# Convention : Reuss Voigt Hill
#
# Bulk Modulus (GPa) = 7.87401 38.76847 23.32124
# Shear Modulus (GPa) = 15.18504 30.58019 22.88262
#
# Velocity S-wave (km/s) = 2.63790 3.74343 3.23819
# Velocity P-wave (km/s) = 3.58974 6.03738 4.96670
#
# Compressibility (1/GPa) = 0.12700007
#
# Stress axis : x y z
#
# Youngs Moduli (GPa) = 70.35896 12.78653 24.26150
#
# Poissons Ratio (x) = 0.28573 0.39426
# Poissons Ratio (y) = 1.57225 -0.85589
# Poissons Ratio (z) = 1.14337 -0.45108
#
# Static dielectric constant tensor:
#      x y z
#    x 1.881110 0.000000 0.000600 
#    y 0.000000 1.774450 0.000000 
#    z 0.000600 0.000000 1.770220 
# 
# From -- ./inp_files/3558.got.cif
#   From: 2010.05.17/outbox.cif.g08.bks.cpg/sg3_2_cif.got.tgz:3558.got - 2010.06.03 18:33:08.
