data_PCOD9113335
_publ_section_title
;
Structure prediction by ZEFSAII (Michael W. Deem and Ramdas Pophale) SiO2 
 PCOD9113335
Probable space group: P 2
;
_chemical_formula_sum "Si O2"
_cell_formula_units_Z 12
_cell_length_a 13.302748
_cell_length_b 7.616590
_cell_length_c 9.991602
_cell_angle_alpha 90.000000
_cell_angle_beta 31.489475
_cell_angle_gamma 90.000000
_cell_volume 528.800622
_symmetry_space_group_name_H-M "P 2"
_symmetry_group_IT_number 3
_symmetry_cell_setting 'monoclinic'
loop_
_space_group_symop_operation_xyz
x,y,z
-x,y,-z
loop_
_atom_site_type_symbol
_atom_site_label
_atom_site_fract_x
_atom_site_fract_y
_atom_site_fract_z
Si Si1 0.278242 0.359200 0.342651
Si Si2 0.548367 0.982669 0.803664
Si Si3 0.847575 0.907918 0.792893
Si Si4 0.331972 0.514286 0.994218
Si Si5 0.047015 0.452289 0.096269
Si Si6 0.905105 0.856415 0.244623
O O1 0.249687 0.424017 0.223304
O O2 0.084833 0.363115 0.644263
O O3 0.350477 0.160993 0.267679
O O4 0.441078 0.478534 0.234365
O O5 0.683747 0.888836 0.540146
O O6 0.500000 0.883474 0.000000
O O7 0.337566 0.030625 0.991618
O O8 0.747923 0.714274 0.909133
O O9 0.000000 0.918092 0.500000
O O10 0.973349 0.943727 0.777696
O O11 0.255962 0.453846 0.932950
O O12 0.962708 0.651462 0.186708
O O13 0.000000 0.382817 0.000000
O O14 0.000000 0.921500 0.000000
#
# Coordination Sequence:
#
# PCOD9113335 Si02
#       6
#     2   2   2   2   2   2
#     4  11  23  40  61  92 128 168 210 260 317 376
#     4  12  24  41  63  95 130 169 210 261 317 381
#     4  11  22  38  67  94 124 166 215 266 315 369
#     4  10  21  39  63  93 120 163 213 266 306 367
#     4  10  22  42  67  94 126 166 210 260 318 379
#     4  10  23  44  68  96 128 166 214 264 318 377
#
# _framework density 22.692862999999999
#
# number of rings (size 3 to 8) (size 9 to 14) (size 15 to 20)
#    0.000    1.333    3.333    3.500    2.333    3.333 
#    3.000    6.667    0.000    0.000    0.000    0.000 
#    0.000    0.000    0.000    0.000    0.000    0.000 
#
# Total GULP energy -66907.256041 kJ/mol
# GULP energy per Si atom -5575.604670 kJ/mol
# Density = 2.264121 g / cm^3
# Si number density = 22.692863 Si / 1000 Ang^3
#
#
#
# Elastic Constant Matrix: (Units=GPa)
#
#
# Indices 1 2 3 4 5 6 
#
# 1 133.5389 11.1365 42.3974 0.0000 12.4158 0.0000
# 2 11.1365 58.8390 6.7203 0.0000 2.7378 0.0000
# 3 42.3974 6.7203 111.8753 0.0000 3.1113 0.0000
# 4 0.0000 0.0000 0.0000 33.2237 0.0000 -1.6773
# 5 12.4158 2.7378 3.1113 0.0000 42.1948 0.0000
# 6 0.0000 0.0000 0.0000 -1.6773 0.0000 24.2697
#
#
#
# Elastic Compliance Matrix: (Units=1/GPa)
#
#
# Indices 1 2 3 4 5 6 
#
# 1 0.008818 -0.001197 -0.003207 0.000000 -0.002281 0.000000
# 2 -0.001197 0.017321 -0.000567 0.000000 -0.000730 0.000000
# 3 -0.003207 -0.000567 0.010181 0.000000 0.000230 0.000000
# 4 0.000000 0.000000 0.000000 0.030204 0.000000 0.002087
# 5 -0.002281 -0.000730 0.000230 0.000000 0.024401 0.000000
# 6 0.000000 0.000000 0.000000 0.002087 0.000000 0.041348
#
#
# Mechanical properties :
#
#
# Convention : Reuss Voigt Hill
#
# Bulk Modulus (GPa) = 37.90661 47.19572 42.55117
# Shear Modulus (GPa) = 33.11101 36.20426 34.65764
#
# Velocity S-wave (km/s) = 3.82395 3.99858 3.91224
# Velocity P-wave (km/s) = 6.01974 6.49315 6.26092
#
# Compressibility (1/GPa) = 0.02638062
#
# Stress axis : x y z
#
# Youngs Moduli (GPa) = 113.39966 57.73436 98.21855
#
# Poissons Ratio (x) = 0.06909 0.31495
# Poissons Ratio (y) = 0.13570 0.05565
# Poissons Ratio (z) = 0.36363 0.03271
#
# Static dielectric constant tensor:
#      x y z
#    x 1.913160 0.000000 0.043930 
#    y 0.000000 1.938850 0.000000 
#    z 0.043930 0.000000 1.627700 
# 
# From -- ./inp_files/7269.got.cif
#   From: 2010.05.17/outbox.cif.g08.bks.cpg/sg3_4_cif.got.tgz:7269.got - 2010.06.03 18:33:08.
