data_PCOD9113072
_publ_section_title
;
Structure prediction by ZEFSAII (Michael W. Deem and Ramdas Pophale) SiO2 
 PCOD9113072
Probable space group: P 2
;
_chemical_formula_sum "Si O2"
_cell_formula_units_Z 15
_cell_length_a 7.647386
_cell_length_b 5.417256
_cell_length_c 26.298223
_cell_angle_alpha 90.000000
_cell_angle_beta 35.713425
_cell_angle_gamma 90.000000
_cell_volume 635.963053
_symmetry_space_group_name_H-M "P 2"
_symmetry_group_IT_number 3
_symmetry_cell_setting 'monoclinic'
loop_
_space_group_symop_operation_xyz
x,y,z
-x,y,-z
loop_
_atom_site_type_symbol
_atom_site_label
_atom_site_fract_x
_atom_site_fract_y
_atom_site_fract_z
Si Si1 0.903347 0.412280 0.230614
Si Si2 0.096098 0.576347 0.364127
Si Si3 0.972554 0.064969 0.447363
Si Si4 0.406350 0.446513 0.912093
Si Si5 0.801565 0.915684 0.235131
Si Si6 0.500000 0.803158 0.500000
Si Si7 0.511145 0.950475 0.057009
Si Si8 0.725402 0.575300 0.168881
O O1 0.727509 0.664483 0.282191
O O2 0.934386 0.431579 0.160622
O O3 0.227755 0.425335 0.179349
O O4 0.702880 0.170059 0.283303
O O5 0.042006 0.338214 0.411514
O O6 0.774789 0.637960 0.414867
O O7 0.378918 0.514402 0.263094
O O8 0.161222 0.841287 0.376303
O O9 0.000000 0.049754 0.500000
O O10 0.641204 0.979376 0.508831
O O11 0.361291 0.681712 0.959545
O O12 0.251785 0.512818 0.895275
O O13 0.329366 0.179205 0.953081
O O14 0.757641 0.852939 0.185233
O O15 0.162987 0.942046 0.155958
O O16 0.500000 0.990686 0.000000
#
# Coordination Sequence:
#
# PCOD9113072 Si02
#       8
#     2   2   2   2   2   1   2   2
#     4   8  18  34  52  78 117 147 175 241 280 333
#     4  10  22  37  65  86 121 157 194 252 299 337
#     4  10  21  41  60  83 118 159 195 240 295 353
#     4  10  21  36  61  85 115 155 193 242 288 355
#     4   8  18  34  57  74 120 142 179 247 277 329
#     4   8  22  40  58  88 122 152 194 262 278 346
#     4  10  20  39  62  83 116 158 196 239 297 344
#     4  10  22  37  62  86 121 150 197 238 305 343
#
# _framework density 23.586276000000002
#
# number of rings (size 3 to 8) (size 9 to 14) (size 15 to 20)
#    1.600    1.067    0.000    1.200    3.733    0.000 
#    2.400    0.667    0.000    0.000    0.000    0.000 
#    0.000    0.000    0.000    0.000    0.000    0.000 
#
# Total GULP energy -83533.153289 kJ/mol
# GULP energy per Si atom -5568.876886 kJ/mol
# Density = 2.353259 g / cm^3
# Si number density = 23.586276 Si / 1000 Ang^3
#
#
#
# Elastic Constant Matrix: (Units=GPa)
#
#
# Indices 1 2 3 4 5 6 
#
# 1 141.6689 30.6367 25.9743 0.0000 5.4072 0.0000
# 2 30.6367 163.0795 17.0156 0.0000 14.3534 0.0000
# 3 25.9743 17.0156 32.7566 0.0000 8.3324 0.0000
# 4 0.0000 0.0000 0.0000 26.3355 0.0000 -6.3006
# 5 5.4072 14.3534 8.3324 0.0000 32.1508 0.0000
# 6 0.0000 0.0000 0.0000 -6.3006 0.0000 21.2556
#
#
#
# Elastic Compliance Matrix: (Units=1/GPa)
#
#
# Indices 1 2 3 4 5 6 
#
# 1 0.008404 -0.000977 -0.006325 0.000000 0.000662 0.000000
# 2 -0.000977 0.006741 -0.002144 0.000000 -0.002289 0.000000
# 3 -0.006325 -0.002144 0.038694 0.000000 -0.008007 0.000000
# 4 0.000000 0.000000 0.000000 0.040870 0.000000 0.012115
# 5 0.000662 -0.002289 -0.008007 0.000000 0.034089 0.000000
# 6 0.000000 0.000000 0.000000 0.012115 0.000000 0.050638
#
#
# Mechanical properties :
#
#
# Convention : Reuss Voigt Hill
#
# Bulk Modulus (GPa) = 28.61526 53.86201 41.23864
# Shear Modulus (GPa) = 23.81196 33.54026 28.67611
#
# Velocity S-wave (km/s) = 3.18082 3.77506 3.49061
# Velocity P-wave (km/s) = 5.06445 6.47203 5.81102
#
# Compressibility (1/GPa) = 0.03494639
#
# Stress axis : x y z
#
# Youngs Moduli (GPa) = 118.98475 148.35067 25.84354
#
# Poissons Ratio (x) = 0.14497 0.16346
# Poissons Ratio (y) = 0.11627 0.05542
# Poissons Ratio (z) = 0.75259 0.31811
#
# Static dielectric constant tensor:
#      x y z
#    x 1.911610 0.000000 -0.064860 
#    y 0.000000 2.044090 0.000000 
#    z -0.064860 0.000000 1.900290 
# 
# From -- ./inp_files/16235.got.cif
#   From: 2010.05.17/outbox.cif.g08.bks.cpg/sg3_9_cif.got.tgz:16235.got - 2010.06.03 18:33:08.
