data_PCOD9113733
_publ_section_title
;
Structure prediction by ZEFSAII (Michael W. Deem and Ramdas Pophale) SiO2 
 PCOD9113733
Probable space group: P 2
;
_chemical_formula_sum "Si O2"
_cell_formula_units_Z 13
_cell_length_a 15.690118
_cell_length_b 5.476259
_cell_length_c 9.580959
_cell_angle_alpha 90.000000
_cell_angle_beta 43.165274
_cell_angle_gamma 90.000000
_cell_volume 563.173279
_symmetry_space_group_name_H-M "P 2"
_symmetry_group_IT_number 3
_symmetry_cell_setting 'monoclinic'
loop_
_space_group_symop_operation_xyz
x,y,z
-x,y,-z
loop_
_atom_site_type_symbol
_atom_site_label
_atom_site_fract_x
_atom_site_fract_y
_atom_site_fract_z
Si Si1 0.181025 0.152240 0.595185
Si Si2 0.780139 0.590480 0.935006
Si Si3 0.708444 0.402712 0.299610
Si Si4 0.500000 0.039350 0.500000
Si Si5 0.065160 0.088901 0.272911
Si Si6 0.606951 0.767219 0.620202
Si Si7 0.633047 0.440465 0.837387
O O1 0.177989 0.314370 0.739892
O O2 0.258292 0.294665 0.378397
O O3 0.046789 0.071781 0.703988
O O4 0.265849 0.921945 0.534521
O O5 0.866275 0.346524 0.833513
O O6 0.682564 0.526441 0.928645
O O7 0.849553 0.846624 0.826535
O O8 0.731224 0.594857 0.151566
O O9 0.628317 0.186589 0.331660
O O10 0.617612 0.516648 0.522758
O O11 0.511676 0.910616 0.637068
O O12 0.000000 0.103816 0.500000
O O13 0.598824 0.678933 0.786988
O O14 0.500000 0.299262 0.000000
#
# Coordination Sequence:
#
# PCOD9113733 Si02
#       7
#     2   2   2   1   2   2   2
#     4  10  24  48  71 101 146 195 240 305 375 434
#     4  12  29  46  78 111 143 194 252 309 362 441
#     4  10  25  44  68 113 139 189 248 300 383 425
#     4  10  22  42  74  94 154 190 236 302 374 458
#     4  12  26  50  78 102 149 195 251 305 369 440
#     4  10  23  43  71  99 142 200 235 299 375 435
#     4  11  26  44  71 111 147 189 250 304 369 448
#
# _framework density 23.083480999999999
#
# number of rings (size 3 to 8) (size 9 to 14) (size 15 to 20)
#    0.000    1.231    1.538    1.846   17.231    1.231 
#    0.000    0.000    0.000    0.000    0.000    0.000 
#    0.000    0.000    0.000    0.000    0.000    0.000 
#
# Total GULP energy -72574.793452 kJ/mol
# GULP energy per Si atom -5582.676419 kJ/mol
# Density = 2.303094 g / cm^3
# Si number density = 23.083481 Si / 1000 Ang^3
#
#
#
# Elastic Constant Matrix: (Units=GPa)
#
#
# Indices 1 2 3 4 5 6 
#
# 1 175.6959 24.6610 16.6319 0.0000 7.8010 0.0000
# 2 24.6610 71.6926 -9.0375 0.0000 -8.6312 0.0000
# 3 16.6319 -9.0375 39.1953 0.0000 10.3378 0.0000
# 4 0.0000 0.0000 0.0000 -0.9748 0.0000 -4.7108
# 5 7.8010 -8.6312 10.3378 0.0000 31.3965 0.0000
# 6 0.0000 0.0000 0.0000 -4.7108 0.0000 33.7844
#
#
#
# Elastic Compliance Matrix: (Units=1/GPa)
#
#
# Indices 1 2 3 4 5 6 
#
# 1 0.006422 -0.002752 -0.003000 0.000000 -0.001364 0.000000
# 2 -0.002752 0.015831 0.003822 0.000000 0.003778 0.000000
# 3 -0.003000 0.003822 0.029780 0.000000 -0.008010 0.000000
# 4 0.000000 0.000000 0.000000 -0.612877 0.000000 -0.085458
# 5 -0.001364 0.003778 -0.008010 0.000000 0.035866 0.000000
# 6 0.000000 0.000000 0.000000 -0.085458 0.000000 0.017683
#
#
# Mechanical properties :
#
#
# Convention : Reuss Voigt Hill
#
# Bulk Modulus (GPa) = 20.75802 39.01051 29.88427
# Shear Modulus (GPa) = -10.25901 29.79646 9.76873
#
# Velocity S-wave (km/s) = -2.11044 3.59669 2.05939
# Velocity P-wave (km/s) = 1.75314 5.84676 4.31614
#
# Compressibility (1/GPa) = 0.04817415
#
# Stress axis : x y z
#
# Youngs Moduli (GPa) = 155.70420 63.16525 33.57971
#
# Poissons Ratio (x) = 0.17381 0.10073
# Poissons Ratio (y) = 0.42844 -0.12833
# Poissons Ratio (z) = 0.46709 -0.24139
#
# Static dielectric constant tensor:
#      x y z
#    x 1.928790 0.000000 0.005990 
#    y 0.000000 1.895520 0.000000 
#    z 0.005990 0.000000 1.965780 
# 
# From -- ./inp_files/6570.got.cif
#   From: 2010.05.17/outbox.cif.g08.bks.cpg/sg3_4_cif.got.tgz:6570.got - 2010.06.03 18:33:08.
