data_PCOD9113912
_publ_section_title
;
Structure prediction by ZEFSAII (Michael W. Deem and Ramdas Pophale) SiO2 
 PCOD9113912
Probable space group: P 2
;
_chemical_formula_sum "Si O2"
_cell_formula_units_Z 15
_cell_length_a 11.821205
_cell_length_b 6.835850
_cell_length_c 11.607021
_cell_angle_alpha 90.000000
_cell_angle_beta 54.191987
_cell_angle_gamma 90.000000
_cell_volume 760.652435
_symmetry_space_group_name_H-M "P 2"
_symmetry_group_IT_number 3
_symmetry_cell_setting 'monoclinic'
loop_
_space_group_symop_operation_xyz
x,y,z
-x,y,-z
loop_
_atom_site_type_symbol
_atom_site_label
_atom_site_fract_x
_atom_site_fract_y
_atom_site_fract_z
Si Si1 0.349313 0.722170 0.331290
Si Si2 0.500000 0.306646 0.500000
Si Si3 0.781737 0.548539 0.367835
Si Si4 0.130036 0.899295 0.835607
Si Si5 0.460075 0.339703 0.146596
Si Si6 0.205623 0.056823 0.318378
Si Si7 0.078177 0.160045 0.639358
Si Si8 0.419934 0.050227 0.762503
O O1 0.263100 0.686837 0.499263
O O2 0.406921 0.513532 0.258358
O O3 0.249914 0.829719 0.297689
O O4 0.479387 0.867772 0.271124
O O5 0.639151 0.437224 0.417953
O O6 0.491547 0.167005 0.615060
O O7 0.840349 0.682263 0.230991
O O8 0.890303 0.384578 0.346225
O O9 0.106672 0.033883 0.736482
O O10 0.268498 0.977522 0.816373
O O11 0.000000 0.905602 0.000000
O O12 0.334761 0.187427 0.203578
O O13 0.579040 0.207872 0.135054
O O14 0.500000 0.424573 0.000000
O O15 0.174185 0.111228 0.471004
O O16 0.074549 0.109178 0.318171
#
# Coordination Sequence:
#
# PCOD9113912 Si02
#       8
#     2   1   2   2   2   2   2   2
#     4  11  21  43  71 100 131 169 235 283 332 394
#     4  12  20  42  76 100 130 168 234 294 328 396
#     4  12  22  42  69 103 130 178 232 280 332 399
#     4  12  28  45  65 102 143 183 221 273 347 413
#     4  11  25  44  68 102 131 171 220 282 346 396
#     4  10  23  44  70  97 131 178 221 276 333 403
#     4  11  23  45  70  94 134 178 226 272 332 402
#     4  11  24  43  71 100 136 175 224 283 345 398
#
# _framework density 19.719913999999999
#
# number of rings (size 3 to 8) (size 9 to 14) (size 15 to 20)
#    0.000    0.800    5.333    2.400    1.867    3.733 
#    2.400    0.000    0.000    0.000    0.000    0.000 
#    0.000    0.000    0.000    0.000    0.000    0.000 
#
# Total GULP energy -83830.212766 kJ/mol
# GULP energy per Si atom -5588.680851 kJ/mol
# Density = 1.967503 g / cm^3
# Si number density = 19.719914 Si / 1000 Ang^3
#
#
#
# Elastic Constant Matrix: (Units=GPa)
#
#
# Indices 1 2 3 4 5 6 
#
# 1 131.6036 43.5480 27.7908 0.0000 -5.5533 0.0000
# 2 43.5480 97.9732 14.2508 0.0000 -2.6594 0.0000
# 3 27.7908 14.2508 80.1360 0.0000 0.1423 0.0000
# 4 0.0000 0.0000 0.0000 18.6509 0.0000 -1.6946
# 5 -5.5533 -2.6594 0.1423 0.0000 20.3048 0.0000
# 6 0.0000 0.0000 0.0000 -1.6946 0.0000 22.2967
#
#
#
# Elastic Compliance Matrix: (Units=1/GPa)
#
#
# Indices 1 2 3 4 5 6 
#
# 1 0.009493 -0.003780 -0.002624 0.000000 0.002120 0.000000
# 2 -0.003780 0.012022 -0.000828 0.000000 0.000547 0.000000
# 3 -0.002624 -0.000828 0.013538 0.000000 -0.000921 0.000000
# 4 0.000000 0.000000 0.000000 0.053990 0.000000 0.004103
# 5 0.002120 0.000547 -0.000921 0.000000 0.049907 0.000000
# 6 0.000000 0.000000 0.000000 0.004103 0.000000 0.045161
#
#
# Mechanical properties :
#
#
# Convention : Reuss Voigt Hill
#
# Bulk Modulus (GPa) = 48.56936 53.43245 51.00091
# Shear Modulus (GPa) = 24.33824 27.19203 25.76514
#
# Velocity S-wave (km/s) = 3.51692 3.71740 3.61855
# Velocity P-wave (km/s) = 6.41676 6.75129 6.58615
#
# Compressibility (1/GPa) = 0.02058911
#
# Stress axis : x y z
#
# Youngs Moduli (GPa) = 105.34094 83.17756 73.86880
#
# Poissons Ratio (x) = 0.31444 0.19380
# Poissons Ratio (y) = 0.39823 0.06116
# Poissons Ratio (z) = 0.27637 0.06887
#
# Static dielectric constant tensor:
#      x y z
#    x 1.700720 0.000000 0.017570 
#    y 0.000000 1.683960 0.000000 
#    z 0.017570 0.000000 1.671970 
# 
# From -- ./inp_files/11276.got.cif
#   From: 2010.05.17/outbox.cif.g08.bks.cpg/sg3_6_cif.got.tgz:11276.got - 2010.06.03 18:33:08.
