data_PCOD9113182
_publ_section_title
;
Structure prediction by ZEFSAII (Michael W. Deem and Ramdas Pophale) SiO2 
 PCOD9113182
Probable space group: P 2
;
_chemical_formula_sum "Si O2"
_cell_formula_units_Z 16
_cell_length_a 9.581404
_cell_length_b 6.972785
_cell_length_c 20.441544
_cell_angle_alpha 90.000000
_cell_angle_beta 29.580193
_cell_angle_gamma 90.000000
_cell_volume 674.156259
_symmetry_space_group_name_H-M "P 2"
_symmetry_group_IT_number 3
_symmetry_cell_setting 'monoclinic'
loop_
_space_group_symop_operation_xyz
x,y,z
-x,y,-z
loop_
_atom_site_type_symbol
_atom_site_label
_atom_site_fract_x
_atom_site_fract_y
_atom_site_fract_z
Si Si1 0.939795 0.234440 0.456733
Si Si2 0.496317 0.407573 0.070233
Si Si3 0.792948 0.911338 0.416213
Si Si4 0.326324 0.996755 0.133701
Si Si5 0.559862 0.527039 0.762420
Si Si6 0.076072 0.512811 0.862675
Si Si7 0.480892 0.528692 0.429432
Si Si8 0.261211 0.861470 0.927121
O O1 0.663166 0.355354 0.550789
O O2 0.000000 0.127638 0.500000
O O3 0.175740 0.401916 0.366258
O O4 0.932632 0.073865 0.403968
O O5 0.405460 0.509478 0.173250
O O6 0.293450 0.226615 0.141353
O O7 0.500000 0.517045 0.000000
O O8 0.826475 0.362877 0.949754
O O9 0.500000 0.968965 0.500000
O O10 0.711751 0.721031 0.489799
O O11 0.037174 0.883851 0.262730
O O12 0.537455 0.976686 0.108357
O O13 0.500000 0.935669 0.000000
O O14 0.293613 0.443228 0.830141
O O15 0.477448 0.751389 0.789342
O O16 0.240642 0.563097 0.728436
O O17 0.909047 0.696154 0.962010
O O18 0.500000 0.483963 0.500000
O O19 0.000000 0.968731 0.000000
#
# Coordination Sequence:
#
# PCOD9113182 Si02
#       8
#     2   2   2   2   2   2   2   2
#     4  12  24  45  72 102 134 194 242 297 356 434
#     4  10  22  38  67  96 131 172 226 291 353 420
#     4  11  27  50  69 104 151 190 244 301 360 437
#     4  11  24  42  65 101 135 180 230 293 357 415
#     4  10  20  43  64  92 137 168 232 284 355 425
#     4  10  22  43  63 100 131 177 226 291 355 425
#     4  11  26  43  71 102 141 191 238 291 363 428
#     4   9  21  39  66  94 132 175 216 290 354 419
#
# _framework density 23.733371999999999
#
# number of rings (size 3 to 8) (size 9 to 14) (size 15 to 20)
#    0.000    1.500    2.500    2.250    5.250    5.500 
#    4.500    0.000    0.000    0.000    0.000    0.000 
#    0.000    0.000    0.000    0.000    0.000    0.000 
#
# Total GULP energy -89121.494226 kJ/mol
# GULP energy per Si atom -5570.093389 kJ/mol
# Density = 2.367935 g / cm^3
# Si number density = 23.733372 Si / 1000 Ang^3
#
#
#
# Elastic Constant Matrix: (Units=GPa)
#
#
# Indices 1 2 3 4 5 6 
#
# 1 127.6117 0.5044 10.2267 0.0000 -3.6495 0.0000
# 2 0.5044 47.2998 6.2107 0.0000 -0.0300 0.0000
# 3 10.2267 6.2107 100.4914 0.0000 6.1731 0.0000
# 4 0.0000 0.0000 0.0000 32.8868 0.0000 3.1457
# 5 -3.6495 -0.0300 6.1731 0.0000 31.6732 0.0000
# 6 0.0000 0.0000 0.0000 3.1457 0.0000 23.5226
#
#
#
# Elastic Compliance Matrix: (Units=1/GPa)
#
#
# Indices 1 2 3 4 5 6 
#
# 1 0.007937 0.000031 -0.000876 0.000000 0.001085 0.000000
# 2 0.000031 0.021317 -0.001338 0.000000 0.000285 0.000000
# 3 -0.000876 -0.001338 0.010252 0.000000 -0.002100 0.000000
# 4 0.000000 0.000000 0.000000 0.030801 0.000000 -0.004119
# 5 0.001085 0.000285 -0.002100 0.000000 0.032107 0.000000
# 6 0.000000 0.000000 0.000000 -0.004119 0.000000 0.043063
#
#
# Mechanical properties :
#
#
# Convention : Reuss Voigt Hill
#
# Bulk Modulus (GPa) = 28.45763 34.36518 31.41140
# Shear Modulus (GPa) = 30.94855 34.84725 32.89790
#
# Velocity S-wave (km/s) = 3.61503 3.83597 3.72714
# Velocity P-wave (km/s) = 5.42597 5.84215 5.63790
#
# Compressibility (1/GPa) = 0.03513996
#
# Stress axis : x y z
#
# Youngs Moduli (GPa) = 125.98549 46.91022 97.54184
#
# Poissons Ratio (x) = -0.00146 0.08548
# Poissons Ratio (y) = -0.00392 0.13052
# Poissons Ratio (z) = 0.11041 0.06277
#
# Static dielectric constant tensor:
#      x y z
#    x 1.969590 0.000000 0.035060 
#    y 0.000000 1.951750 0.000000 
#    z 0.035060 0.000000 2.007940 
# 
# From -- ./inp_files/15819.got.cif
#   From: 2010.05.17/outbox.cif.g08.bks.cpg/sg3_8_cif.got.tgz:15819.got - 2010.06.03 18:33:08.
