data_PCOD9113614
_publ_section_title
;
Structure prediction by ZEFSAII (Michael W. Deem and Ramdas Pophale) SiO2 
 PCOD9113614
Probable space group: P 2
;
_chemical_formula_sum "Si O2"
_cell_formula_units_Z 13
_cell_length_a 9.563349
_cell_length_b 5.447995
_cell_length_c 14.001688
_cell_angle_alpha 90.000000
_cell_angle_beta 43.913712
_cell_angle_gamma 90.000000
_cell_volume 505.964519
_symmetry_space_group_name_H-M "P 2"
_symmetry_group_IT_number 3
_symmetry_cell_setting 'monoclinic'
loop_
_space_group_symop_operation_xyz
x,y,z
-x,y,-z
loop_
_atom_site_type_symbol
_atom_site_label
_atom_site_fract_x
_atom_site_fract_y
_atom_site_fract_z
Si Si1 0.457196 0.115960 0.692800
Si Si2 0.379497 0.834813 0.971503
Si Si3 0.116008 0.483837 0.214906
Si Si4 0.198639 0.746928 0.526473
Si Si5 0.018066 0.139460 0.884776
Si Si6 0.353410 0.471591 0.271363
Si Si7 0.500000 0.483480 0.500000
O O1 0.485024 0.269405 0.775740
O O2 0.452246 0.318258 0.612888
O O3 0.235061 0.997802 0.788365
O O4 0.668857 0.976175 0.571906
O O5 0.530284 0.719439 0.819208
O O6 0.500000 0.961753 0.000000
O O7 0.289365 0.589726 0.064006
O O8 0.179700 0.972411 0.033481
O O9 0.986117 0.315672 0.207056
O O10 0.216916 0.353704 0.256005
O O11 0.020363 0.720318 0.319481
O O12 0.223633 0.554154 0.427396
O O13 0.321365 0.655069 0.557112
O O14 0.000000 0.261880 0.000000
#
# Coordination Sequence:
#
# PCOD9113614 Si02
#       7
#     2   2   2   2   2   2   1
#     4  11  24  42  74 105 145 192 237 302 368 434
#     4  10  25  45  69 103 144 191 241 300 362 440
#     4  11  25  46  73 101 144 192 241 304 362 439
#     4  11  23  42  72 104 145 186 245 294 373 434
#     4  12  26  43  73 108 140 191 245 299 376 437
#     4  10  24  47  70 104 146 191 242 303 364 435
#     4  10  22  40  64 102 148 180 230 296 360 426
#
# _framework density 25.693503
#
# number of rings (size 3 to 8) (size 9 to 14) (size 15 to 20)
#    0.000    1.231    1.538    2.769    4.308    7.385 
#    0.000    3.077    0.000    0.000    0.000    0.000 
#    0.000    0.000    0.000    0.000    0.000    0.000 
#
# Total GULP energy -72524.216065 kJ/mol
# GULP energy per Si atom -5578.785851 kJ/mol
# Density = 2.563502 g / cm^3
# Si number density = 25.693503 Si / 1000 Ang^3
#
#
#
# Elastic Constant Matrix: (Units=GPa)
#
#
# Indices 1 2 3 4 5 6 
#
# 1 188.9137 39.6815 35.1954 0.0000 8.5768 0.0000
# 2 39.6815 58.8110 18.7864 0.0000 3.3042 0.0000
# 3 35.1954 18.7864 101.2324 0.0000 4.5399 0.0000
# 4 0.0000 0.0000 0.0000 47.3578 0.0000 27.4034
# 5 8.5768 3.3042 4.5399 0.0000 46.7310 0.0000
# 6 0.0000 0.0000 0.0000 27.4034 0.0000 92.6532
#
#
#
# Elastic Compliance Matrix: (Units=1/GPa)
#
#
# Indices 1 2 3 4 5 6 
#
# 1 0.006404 -0.003803 -0.001486 0.000000 -0.000762 0.000000
# 2 -0.003803 0.020376 -0.002436 0.000000 -0.000506 0.000000
# 3 -0.001486 -0.002436 0.010875 0.000000 -0.000611 0.000000
# 4 0.000000 0.000000 0.000000 0.025476 0.000000 -0.007535
# 5 -0.000762 -0.000506 -0.000611 0.000000 0.021634 0.000000
# 6 0.000000 0.000000 0.000000 -0.007535 0.000000 0.013021
#
#
# Mechanical properties :
#
#
# Convention : Reuss Voigt Hill
#
# Bulk Modulus (GPa) = 45.03957 59.58708 52.31333
# Shear Modulus (GPa) = 41.44580 54.36798 47.90689
#
# Velocity S-wave (km/s) = 4.02068 4.60501 4.32273
# Velocity P-wave (km/s) = 6.25477 7.17751 6.73197
#
# Compressibility (1/GPa) = 0.02220270
#
# Stress axis : x y z
#
# Youngs Moduli (GPa) = 156.15693 49.07618 91.95727
#
# Poissons Ratio (x) = 0.18665 0.13669
# Poissons Ratio (y) = 0.59390 0.22405
# Poissons Ratio (z) = 0.23212 0.11957
#
# Static dielectric constant tensor:
#      x y z
#    x 1.415970 0.000000 0.241640 
#    y 0.000000 2.042010 0.000000 
#    z 0.241640 0.000000 2.036080 
# 
# From -- ./inp_files/13319.got.cif
#   From: 2010.05.17/outbox.cif.g08.bks.cpg/sg3_7_cif.got.tgz:13319.got - 2010.06.03 18:33:08.
