data_PCOD9113171
_publ_section_title
;
Structure prediction by ZEFSAII (Michael W. Deem and Ramdas Pophale) SiO2 
 PCOD9113171
Probable space group: P 2
;
_chemical_formula_sum "Si O2"
_cell_formula_units_Z 11
_cell_length_a 11.846215
_cell_length_b 7.442720
_cell_length_c 8.386353
_cell_angle_alpha 90.000000
_cell_angle_beta 140.264797
_cell_angle_gamma 90.000000
_cell_volume 472.659793
_symmetry_space_group_name_H-M "P 2"
_symmetry_group_IT_number 3
_symmetry_cell_setting 'monoclinic'
loop_
_space_group_symop_operation_xyz
x,y,z
-x,y,-z
loop_
_atom_site_type_symbol
_atom_site_label
_atom_site_fract_x
_atom_site_fract_y
_atom_site_fract_z
Si Si1 0.304502 0.191860 0.754040
Si Si2 0.500000 0.685596 0.500000
Si Si3 0.843837 0.485730 0.940868
Si Si4 0.987851 0.752958 0.672447
Si Si5 0.939711 0.150394 0.200204
Si Si6 0.596300 0.798877 0.264347
O O1 0.203022 0.161169 0.811143
O O2 0.130108 0.241043 0.456563
O O3 0.360771 0.004817 0.732622
O O4 0.500000 0.281950 0.000000
O O5 0.500625 0.789449 0.331447
O O6 0.664913 0.555119 0.678520
O O7 0.881775 0.590536 0.147053
O O8 0.858201 0.274243 0.976149
O O9 0.000000 0.554287 0.000000
O O10 0.000000 0.800286 0.500000
O O11 0.785573 0.703809 0.484619
O O12 0.033606 0.940585 0.809642
O O13 0.500000 0.728360 0.000000
#
# Coordination Sequence:
#
# PCOD9113171 Si02
#       6
#     2   1   2   2   2   2
#     4   9  19  40  69 104 139 177 241 292 355 431
#     4  12  26  46  70 110 150 190 246 300 362 434
#     4  12  28  46  66 103 149 189 241 297 365 432
#     4  11  21  44  76 102 137 189 243 299 363 429
#     4  10  22  43  66 101 142 182 239 295 352 432
#     4  10  20  42  72 108 144 184 240 296 357 431
#
# _framework density 23.272555000000001
#
# number of rings (size 3 to 8) (size 9 to 14) (size 15 to 20)
#    0.000    1.455    5.455    1.091    5.091    2.182 
#    0.000    0.909    0.000    0.000    0.000    0.000 
#    0.000    0.000    0.000    0.000    0.000    0.000 
#
# Total GULP energy -61346.163060 kJ/mol
# GULP energy per Si atom -5576.923915 kJ/mol
# Density = 2.321959 g / cm^3
# Si number density = 23.272555 Si / 1000 Ang^3
#
#
#
# Elastic Constant Matrix: (Units=GPa)
#
#
# Indices 1 2 3 4 5 6 
#
# 1 124.4359 15.1081 53.1727 0.0000 11.4543 0.0000
# 2 15.1081 76.5269 26.6592 0.0000 -4.3233 0.0000
# 3 53.1727 26.6592 88.3601 0.0000 17.2270 0.0000
# 4 0.0000 0.0000 0.0000 14.3315 0.0000 8.0228
# 5 11.4543 -4.3233 17.2270 0.0000 42.4987 0.0000
# 6 0.0000 0.0000 0.0000 8.0228 0.0000 44.5317
#
#
#
# Elastic Compliance Matrix: (Units=1/GPa)
#
#
# Indices 1 2 3 4 5 6 
#
# 1 0.010822 0.000110 -0.006492 0.000000 -0.000274 0.000000
# 2 0.000110 0.015114 -0.005342 0.000000 0.003674 0.000000
# 3 -0.006492 -0.005342 0.018025 0.000000 -0.006100 0.000000
# 4 0.000000 0.000000 0.000000 0.077603 0.000000 -0.013981
# 5 -0.000274 0.003674 -0.006100 0.000000 0.026450 0.000000
# 6 0.000000 0.000000 0.000000 -0.013981 0.000000 0.024975
#
#
# Mechanical properties :
#
#
# Convention : Reuss Voigt Hill
#
# Bulk Modulus (GPa) = 48.75169 53.24477 50.99823
# Shear Modulus (GPa) = 24.59689 33.23123 28.91406
#
# Velocity S-wave (km/s) = 3.25454 3.78288 3.52861
# Velocity P-wave (km/s) = 5.92590 6.48141 6.20987
#
# Compressibility (1/GPa) = 0.02051211
#
# Stress axis : x y z
#
# Youngs Moduli (GPa) = 92.40103 66.16270 55.47744
#
# Poissons Ratio (x) = -0.00725 0.36017
# Poissons Ratio (y) = -0.01013 0.29638
# Poissons Ratio (z) = 0.59989 0.35346
#
# Static dielectric constant tensor:
#      x y z
#    x 1.889250 0.000000 -0.042220 
#    y 0.000000 1.829020 0.000000 
#    z -0.042220 0.000000 1.994120 
# 
# From -- ./inp_files/6901.got.cif
#   From: 2010.05.17/outbox.cif.g08.bks.cpg/sg3_4_cif.got.tgz:6901.got - 2010.06.03 18:33:08.
