data_PCOD9113434
_publ_section_title
;
Structure prediction by ZEFSAII (Michael W. Deem and Ramdas Pophale) SiO2 
 PCOD9113434
Probable space group: P 2
;
_chemical_formula_sum "Si O2"
_cell_formula_units_Z 14
_cell_length_a 21.993856
_cell_length_b 5.620641
_cell_length_c 27.688782
_cell_angle_alpha 90.000000
_cell_angle_beta 168.673312
_cell_angle_gamma 90.000000
_cell_volume 672.262589
_symmetry_space_group_name_H-M "P 2"
_symmetry_group_IT_number 3
_symmetry_cell_setting 'monoclinic'
loop_
_space_group_symop_operation_xyz
x,y,z
-x,y,-z
loop_
_atom_site_type_symbol
_atom_site_label
_atom_site_fract_x
_atom_site_fract_y
_atom_site_fract_z
Si Si1 0.232164 0.761710 0.725103
Si Si2 0.396002 0.260625 0.990223
Si Si3 0.080153 0.180172 0.295875
Si Si4 0.897924 0.493738 0.546300
Si Si5 0.389395 0.807289 0.600788
Si Si6 0.679818 0.199120 0.892128
Si Si7 0.269277 0.422041 0.172413
O O1 0.000000 0.791126 0.500000
O O2 0.031586 0.697842 0.616328
O O3 0.413435 0.509324 0.859849
O O4 0.430069 0.006418 0.880590
O O5 0.198729 0.255964 0.885998
O O6 0.158176 0.297987 0.760443
O O7 0.397057 0.332576 0.547587
O O8 0.185042 0.935560 0.402137
O O9 0.950051 0.158665 0.140721
O O10 0.812375 0.606237 0.531070
O O11 0.579209 0.365353 0.283800
O O12 0.683059 0.699533 0.802016
O O13 0.502564 0.969406 0.733323
O O14 0.786962 0.313801 0.924726
O O15 0.000000 0.370300 0.000000
#
# Coordination Sequence:
#
# PCOD9113434 Si02
#       7
#     2   2   2   2   2   2   2
#     4  12  29  44  68 104 143 189 248 302 355 418
#     4  12  25  44  69 101 140 194 238 299 361 417
#     4  11  23  42  69  98 135 179 237 283 353 422
#     4  11  24  44  65  97 139 185 236 290 359 424
#     4  10  21  41  67 100 133 179 230 285 361 413
#     4  10  23  42  71  98 135 183 228 287 352 429
#     4  10  23  45  68  99 141 177 227 290 360 433
#
# _framework density 20.825194
#
# number of rings (size 3 to 8) (size 9 to 14) (size 15 to 20)
#    0.000    1.143    4.286    2.571    4.000    7.429 
#    0.000    0.000    0.000    0.000    0.000    0.000 
#    0.000    0.000    0.000    0.000    0.000    0.000 
#
# Total GULP energy -78107.572941 kJ/mol
# GULP energy per Si atom -5579.112353 kJ/mol
# Density = 2.077780 g / cm^3
# Si number density = 20.825194 Si / 1000 Ang^3
#
#
#
# Elastic Constant Matrix: (Units=GPa)
#
#
# Indices 1 2 3 4 5 6 
#
# 1 125.0400 43.8729 89.5561 0.0000 -8.7016 0.0000
# 2 43.8729 109.3467 56.9541 0.0000 0.8860 0.0000
# 3 89.5561 56.9541 117.1098 0.0000 -13.3825 0.0000
# 4 0.0000 0.0000 0.0000 3.1602 0.0000 18.2928
# 5 -8.7016 0.8860 -13.3825 0.0000 52.7858 0.0000
# 6 0.0000 0.0000 0.0000 18.2928 0.0000 4.3940
#
#
#
# Elastic Compliance Matrix: (Units=1/GPa)
#
#
# Indices 1 2 3 4 5 6 
#
# 1 0.017696 -0.000022 -0.013582 0.000000 -0.000526 0.000000
# 2 -0.000022 0.012410 -0.006223 0.000000 -0.001790 0.000000
# 3 -0.013582 -0.006223 0.022356 0.000000 0.003533 0.000000
# 4 0.000000 0.000000 0.000000 -0.013699 0.000000 0.057033
# 5 -0.000526 -0.001790 0.003533 0.000000 0.019784 0.000000
# 6 0.000000 0.000000 0.000000 0.057033 0.000000 -0.009853
#
#
# Mechanical properties :
#
#
# Convention : Reuss Voigt Hill
#
# Bulk Modulus (GPa) = 78.07749 81.36252 79.72001
# Shear Modulus (GPa) = 53.98549 22.80887 38.39718
#
# Velocity S-wave (km/s) = 5.09700 3.31305 4.29859
# Velocity P-wave (km/s) = 8.49779 7.33411 7.93731
#
# Compressibility (1/GPa) = 0.01280779
#
# Stress axis : x y z
#
# Youngs Moduli (GPa) = 56.50880 80.58125 44.73061
#
# Poissons Ratio (x) = 0.00173 0.60755
# Poissons Ratio (y) = 0.00122 0.27837
# Poissons Ratio (z) = 0.76752 0.50148
#
# Static dielectric constant tensor:
#      x y z
#    x 1.740890 0.000000 0.030000 
#    y 0.000000 1.843050 0.000000 
#    z 0.030000 0.000000 1.771820 
# 
# From -- ./inp_files/16643.got.cif
#   From: 2010.05.17/outbox.cif.g08.bks.cpg/sg3_9_cif.got.tgz:16643.got - 2010.06.03 18:33:08.
