data_PCOD9113747
_publ_section_title
;
Structure prediction by ZEFSAII (Michael W. Deem and Ramdas Pophale) SiO2 
 PCOD9113747
Probable space group: P 2
;
_chemical_formula_sum "Si O2"
_cell_formula_units_Z 9
_cell_length_a 9.011092
_cell_length_b 7.344432
_cell_length_c 9.605712
_cell_angle_alpha 90.000000
_cell_angle_beta 46.109251
_cell_angle_gamma 90.000000
_cell_volume 458.139207
_symmetry_space_group_name_H-M "P 2"
_symmetry_group_IT_number 3
_symmetry_cell_setting 'monoclinic'
loop_
_space_group_symop_operation_xyz
x,y,z
-x,y,-z
loop_
_atom_site_type_symbol
_atom_site_label
_atom_site_fract_x
_atom_site_fract_y
_atom_site_fract_z
Si Si1 0.167708 0.956980 0.184811
Si Si2 0.454994 0.866963 0.249752
Si Si3 0.878917 0.626524 0.441334
Si Si4 0.500000 0.094907 0.500000
Si Si5 0.066520 0.294000 0.797207
O O1 0.292349 0.964129 0.249770
O O2 0.979379 0.818369 0.328986
O O3 0.330317 0.866295 0.972213
O O4 0.085457 0.148212 0.179629
O O5 0.352422 0.674541 0.359070
O O6 0.485437 0.974988 0.371249
O O7 0.916539 0.481075 0.297956
O O8 0.000000 0.564344 0.500000
O O9 0.294006 0.210845 0.645424
O O10 0.000000 0.318613 0.000000
#
# Coordination Sequence:
#
# PCOD9113747 Si02
#       5
#     2   2   2   1   2
#     4  10  22  46  68  92 132 178 220 266 328 394
#     4  10  22  43  69  96 129 173 217 271 327 387
#     4  10  24  42  68  96 131 175 218 270 327 393
#     4  12  24  38  66 100 128 172 218 270 328 380
#     4  12  26  42  64 102 135 174 219 272 332 388
#
# _framework density 19.644684999999999
#
# number of rings (size 3 to 8) (size 9 to 14) (size 15 to 20)
#    0.000    1.333    4.444    0.000    3.111    5.333 
#    0.000    2.222    0.000    0.000    0.000    0.000 
#    0.000    0.000    0.000    0.000    0.000    0.000 
#
# Total GULP energy -50273.327085 kJ/mol
# GULP energy per Si atom -5585.925232 kJ/mol
# Density = 1.959997 g / cm^3
# Si number density = 19.644685 Si / 1000 Ang^3
#
#
#
# Elastic Constant Matrix: (Units=GPa)
#
#
# Indices 1 2 3 4 5 6 
#
# 1 47.2924 32.4122 43.2236 0.0000 16.2687 0.0000
# 2 32.4122 51.6388 32.9109 0.0000 19.2542 0.0000
# 3 43.2236 32.9109 141.2331 0.0000 15.6593 0.0000
# 4 0.0000 0.0000 0.0000 53.9649 0.0000 27.5406
# 5 16.2687 19.2542 15.6593 0.0000 49.0262 0.0000
# 6 0.0000 0.0000 0.0000 27.5406 0.0000 49.1049
#
#
#
# Elastic Compliance Matrix: (Units=1/GPa)
#
#
# Indices 1 2 3 4 5 6 
#
# 1 0.044619 -0.021324 -0.008266 0.000000 -0.003791 0.000000
# 2 -0.021324 0.035951 -0.001110 0.000000 -0.006689 0.000000
# 3 -0.008266 -0.001110 0.009866 0.000000 0.000028 0.000000
# 4 0.000000 0.000000 0.000000 0.025961 0.000000 -0.014560
# 5 -0.003791 -0.006689 0.000028 0.000000 0.024273 0.000000
# 6 0.000000 0.000000 0.000000 -0.014560 0.000000 0.028531
#
#
# Mechanical properties :
#
#
# Convention : Reuss Voigt Hill
#
# Bulk Modulus (GPa) = 34.44019 50.80643 42.62331
# Shear Modulus (GPa) = 20.80915 39.19371 30.00143
#
# Velocity S-wave (km/s) = 3.25818 4.47153 3.91218
# Velocity P-wave (km/s) = 5.63240 7.25109 6.49239
#
# Compressibility (1/GPa) = 0.02903585
#
# Stress axis : x y z
#
# Youngs Moduli (GPa) = 22.41222 27.81560 101.36067
#
# Poissons Ratio (x) = 0.59314 0.83783
# Poissons Ratio (y) = 0.47792 0.11249
# Poissons Ratio (z) = 0.18526 0.03087
#
# Static dielectric constant tensor:
#      x y z
#    x 1.594850 0.000000 -0.121350 
#    y 0.000000 1.677840 0.000000 
#    z -0.121350 0.000000 1.580870 
# 
# From -- ./inp_files/4645.got.cif
#   From: 2010.05.17/outbox.cif.g08.bks.cpg/sg3_3_cif.got.tgz:4645.got - 2010.06.03 18:33:08.
