data_PCOD9113455
_publ_section_title
;
Structure prediction by ZEFSAII (Michael W. Deem and Ramdas Pophale) SiO2 
 PCOD9113455
Probable space group: P 2
;
_chemical_formula_sum "Si O2"
_cell_formula_units_Z 12
_cell_length_a 5.020024
_cell_length_b 5.674881
_cell_length_c 24.119105
_cell_angle_alpha 90.000000
_cell_angle_beta 139.978417
_cell_angle_gamma 90.000000
_cell_volume 441.861466
_symmetry_space_group_name_H-M "P 2"
_symmetry_group_IT_number 3
_symmetry_cell_setting 'monoclinic'
loop_
_space_group_symop_operation_xyz
x,y,z
-x,y,-z
loop_
_atom_site_type_symbol
_atom_site_label
_atom_site_fract_x
_atom_site_fract_y
_atom_site_fract_z
Si Si1 0.400954 0.056510 0.919433
Si Si2 0.500000 0.208288 0.500000
Si Si3 0.474305 0.053594 0.721379
Si Si4 0.466594 0.555500 0.239030
Si Si5 0.542244 0.557259 0.125472
Si Si6 0.512535 0.918468 0.402308
Si Si7 0.000000 0.510959 0.500000
O O1 0.553910 0.308147 0.919386
O O2 0.913876 0.054803 0.825527
O O3 0.559570 0.808342 0.918968
O O4 0.500000 0.053651 0.000000
O O5 0.837360 0.372989 0.526518
O O6 0.306348 0.039593 0.422442
O O7 0.310701 0.311621 0.711803
O O8 0.293622 0.800804 0.713338
O O9 0.565306 0.025716 0.670081
O O10 0.350991 0.551748 0.155935
O O11 0.046703 0.560621 0.208436
O O12 0.579984 0.640702 0.412329
O O13 0.000000 0.960802 0.500000
#
# Coordination Sequence:
#
# PCOD9113455 Si02
#       7
#     2   1   2   2   2   2   1
#     4  10  21  42  67 101 135 180 227 284 346 414
#     4  12  22  48  72 102 144 192 240 308 364 444
#     4  10  23  44  68  99 139 182 229 291 346 424
#     4  10  22  43  64 101 129 179 225 279 343 409
#     4  10  21  42  65  95 133 175 223 281 336 410
#     4  10  25  46  65 108 135 187 240 297 359 437
#     4  10  24  44  72 102 140 194 236 306 368 436
#
# _framework density 27.157831000000002
#
# number of rings (size 3 to 8) (size 9 to 14) (size 15 to 20)
#    0.500    1.333    0.833    2.000    2.333    0.000 
#   18.000   20.000    0.000    0.000    0.000    0.000 
#    0.000    0.000    0.000    0.000    0.000    0.000 
#
# Total GULP energy -67103.388268 kJ/mol
# GULP energy per Si atom -5591.949022 kJ/mol
# Density = 2.709602 g / cm^3
# Si number density = 27.157831 Si / 1000 Ang^3
#
#
#
# Elastic Constant Matrix: (Units=GPa)
#
#
# Indices 1 2 3 4 5 6 
#
# 1 67.2190 41.5276 23.1756 0.0000 -28.0068 0.0000
# 2 41.5276 259.5696 78.8885 0.0000 -28.8884 0.0000
# 3 23.1756 78.8885 184.0980 0.0000 -41.6071 0.0000
# 4 0.0000 0.0000 0.0000 134.7863 0.0000 94.3665
# 5 -28.0068 -28.8884 -41.6071 0.0000 57.9992 0.0000
# 6 0.0000 0.0000 0.0000 94.3665 0.0000 195.7174
#
#
#
# Elastic Compliance Matrix: (Units=1/GPa)
#
#
# Indices 1 2 3 4 5 6 
#
# 1 0.019799 -0.002343 0.000487 0.000000 0.008743 0.000000
# 2 -0.002343 0.004757 -0.001747 0.000000 -0.000015 0.000000
# 3 0.000487 -0.001747 0.007132 0.000000 0.004482 0.000000
# 4 0.000000 0.000000 0.000000 0.011200 0.000000 -0.005400
# 5 0.008743 -0.000015 0.004482 0.000000 0.024671 0.000000
# 6 0.000000 0.000000 0.000000 -0.005400 0.000000 0.007713
#
#
# Mechanical properties :
#
#
# Convention : Reuss Voigt Hill
#
# Bulk Modulus (GPa) = 40.84377 88.67443 64.75910
# Shear Modulus (GPa) = 55.16549 102.18688 78.67618
#
# Velocity S-wave (km/s) = 4.51188 6.14074 5.38822
# Velocity P-wave (km/s) = 6.49729 9.11047 7.91250
#
# Compressibility (1/GPa) = 0.02448354
#
# Stress axis : x y z
#
# Youngs Moduli (GPa) = 50.50783 210.23837 140.21521
#
# Poissons Ratio (x) = 0.49251 -0.06835
# Poissons Ratio (y) = 0.11832 0.24492
# Poissons Ratio (z) = -0.02462 0.36723
#
# Static dielectric constant tensor:
#      x y z
#    x 2.338750 0.000000 0.280230 
#    y 0.000000 2.471750 0.000000 
#    z 0.280230 0.000000 2.247880 
# 
# From -- ./inp_files/15565.got.cif
#   From: 2010.05.17/outbox.cif.g08.bks.cpg/sg3_8_cif.got.tgz:15565.got - 2010.06.03 18:33:08.
