data_PCOD9113763
_publ_section_title
;
Structure prediction by ZEFSAII (Michael W. Deem and Ramdas Pophale) SiO2 
 PCOD9113763
Probable space group: P 2
;
_chemical_formula_sum "Si O2"
_cell_formula_units_Z 11
_cell_length_a 5.095915
_cell_length_b 5.510996
_cell_length_c 14.902478
_cell_angle_alpha 90.000000
_cell_angle_beta 89.291459
_cell_angle_gamma 90.000000
_cell_volume 418.482741
_symmetry_space_group_name_H-M "P 2"
_symmetry_group_IT_number 3
_symmetry_cell_setting 'monoclinic'
loop_
_space_group_symop_operation_xyz
x,y,z
-x,y,-z
loop_
_atom_site_type_symbol
_atom_site_label
_atom_site_fract_x
_atom_site_fract_y
_atom_site_fract_z
Si Si1 0.586662 0.989590 0.603230
Si Si2 0.753699 0.494433 0.563218
Si Si3 0.737871 0.201651 0.240391
Si Si4 0.893105 0.836863 0.093068
Si Si5 0.254106 0.458066 0.175850
Si Si6 0.500000 0.462654 0.000000
O O1 0.500000 0.963219 0.500000
O O2 0.714702 0.730160 0.625968
O O3 0.348522 0.058472 0.670126
O O4 0.774388 0.224308 0.602592
O O5 0.500000 0.475554 0.500000
O O6 0.000000 0.546425 0.500000
O O7 0.735120 0.014891 0.157546
O O8 0.519730 0.411928 0.229353
O O9 0.019692 0.322378 0.227084
O O10 0.132349 0.717875 0.148797
O O11 0.700847 0.625423 0.057619
O O12 0.000000 0.945925 0.000000
O O13 0.324751 0.341506 0.077702
#
# Coordination Sequence:
#
# PCOD9113763 Si02
#       6
#     2   2   2   2   2   1
#     4  10  25  49  74 111 151 203 253 320 383 460
#     4  10  22  43  74 102 140 190 249 304 378 446
#     4  12  28  43  75 109 148 201 257 313 390 463
#     4  10  25  46  71 106 151 194 252 318 390 467
#     4  11  26  45  68 107 146 193 246 318 374 467
#     4  10  22  48  72 100 150 192 246 314 388 458
#
# _framework density 26.285437999999999
#
# number of rings (size 3 to 8) (size 9 to 14) (size 15 to 20)
#    0.000    1.455    1.818    0.545   10.182    5.818 
#    3.273    0.000    0.000    0.000    0.000    0.000 
#    0.000    0.000    0.000    0.000    0.000    0.000 
#
# Total GULP energy -61543.307151 kJ/mol
# GULP energy per Si atom -5594.846105 kJ/mol
# Density = 2.622561 g / cm^3
# Si number density = 26.285438 Si / 1000 Ang^3
#
#
#
# Elastic Constant Matrix: (Units=GPa)
#
#
# Indices 1 2 3 4 5 6 
#
# 1 145.2872 27.7772 39.8139 0.0000 -23.0862 0.0000
# 2 27.7772 149.6637 44.8056 0.0000 -12.2166 0.0000
# 3 39.8139 44.8056 160.3290 0.0000 -39.6665 0.0000
# 4 0.0000 0.0000 0.0000 43.0474 0.0000 -32.1981
# 5 -23.0862 -12.2166 -39.6665 0.0000 56.0747 0.0000
# 6 0.0000 0.0000 0.0000 -32.1981 0.0000 -33.3511
#
#
#
# Elastic Compliance Matrix: (Units=1/GPa)
#
#
# Indices 1 2 3 4 5 6 
#
# 1 0.007712 -0.000918 -0.001118 0.000000 0.002184 0.000000
# 2 -0.000918 0.007403 -0.001861 0.000000 -0.000082 0.000000
# 3 -0.001118 -0.001861 0.008268 0.000000 0.004983 0.000000
# 4 0.000000 0.000000 0.000000 0.013489 0.000000 -0.013023
# 5 0.002184 -0.000082 0.004983 0.000000 0.022239 0.000000
# 6 0.000000 0.000000 0.000000 -0.013023 0.000000 -0.017411
#
#
# Mechanical properties :
#
#
# Convention : Reuss Voigt Hill
#
# Bulk Modulus (GPa) = 64.15404 75.56372 69.85888
# Shear Modulus (GPa) = 91.42440 36.01310 63.71875
#
# Velocity S-wave (km/s) = 5.90397 3.70547 4.92887
# Velocity P-wave (km/s) = 8.42232 6.86419 7.68286
#
# Compressibility (1/GPa) = 0.01558748
#
# Stress axis : x y z
#
# Youngs Moduli (GPa) = 129.66924 135.08925 120.95393
#
# Poissons Ratio (x) = 0.12405 0.13524
# Poissons Ratio (y) = 0.11908 0.22508
# Poissons Ratio (z) = 0.14498 0.25139
#
# Static dielectric constant tensor:
#      x y z
#    x 2.095450 0.000000 0.047690 
#    y 0.000000 2.133190 0.000000 
#    z 0.047690 0.000000 2.085750 
# 
# From -- ./inp_files/2818.got.cif
#   From: 2010.05.17/outbox.cif.g08.bks.cpg/sg3_2_cif.got.tgz:2818.got - 2010.06.03 18:33:08.
