data_PCOD9113038
_publ_section_title
;
Structure prediction by ZEFSAII (Michael W. Deem and Ramdas Pophale) SiO2 
 PCOD9113038
Probable space group: P 2
;
_chemical_formula_sum "Si O2"
_cell_formula_units_Z 15
_cell_length_a 18.410927
_cell_length_b 5.672438
_cell_length_c 9.338745
_cell_angle_alpha 90.000000
_cell_angle_beta 138.768569
_cell_angle_gamma 90.000000
_cell_volume 642.815939
_symmetry_space_group_name_H-M "P 2"
_symmetry_group_IT_number 3
_symmetry_cell_setting 'monoclinic'
loop_
_space_group_symop_operation_xyz
x,y,z
-x,y,-z
loop_
_atom_site_type_symbol
_atom_site_label
_atom_site_fract_x
_atom_site_fract_y
_atom_site_fract_z
Si Si1 0.535048 0.238070 0.208950
Si Si2 0.407059 0.883417 0.467871
Si Si3 0.145888 0.370123 0.497629
Si Si4 0.341389 0.583337 0.983341
Si Si5 0.000000 0.601111 0.500000
Si Si6 0.745047 0.276114 0.903931
Si Si7 0.186734 0.971979 0.743569
Si Si8 0.752103 0.492103 0.627913
O O1 0.458482 0.467857 0.123592
O O2 0.659748 0.326486 0.415410
O O3 0.527953 0.033160 0.315519
O O4 0.500000 0.154132 0.000000
O O5 0.500000 0.773753 0.500000
O O6 0.318950 0.714852 0.418631
O O7 0.340111 0.077332 0.276414
O O8 0.036221 0.451265 0.417222
O O9 0.155936 0.491125 0.358396
O O10 0.154390 0.090360 0.544601
O O11 0.254048 0.463326 0.744447
O O12 0.313427 0.492406 0.101216
O O13 0.307369 0.854656 0.915180
O O14 0.104165 0.770599 0.672193
O O15 0.799016 0.371539 0.840258
O O16 0.816511 0.161547 0.134740
#
# Coordination Sequence:
#
# PCOD9113038 Si02
#       8
#     2   2   2   2   1   2   2   2
#     4  11  23  40  57  94 136 180 233 279 314 387
#     4  11  24  40  64  89 135 193 228 269 328 380
#     4  10  22  43  64  98 129 164 222 288 338 416
#     4  10  20  38  63  91 131 177 227 268 324 393
#     4  10  22  42  76  98 120 164 228 282 360 416
#     4  10  22  40  61  94 132 176 229 270 318 406
#     4  10  22  41  74  95 126 176 223 278 350 403
#     4  11  25  38  62  94 141 176 221 279 333 391
#
# _framework density 23.334827000000001
#
# number of rings (size 3 to 8) (size 9 to 14) (size 15 to 20)
#    0.000    1.600    2.667    1.200    3.733    4.800 
#    0.000    0.000    0.000   32.800    0.000    0.000 
#    0.000    0.000    0.000    0.000    0.000    0.000 
#
# Total GULP energy -83714.361363 kJ/mol
# GULP energy per Si atom -5580.957424 kJ/mol
# Density = 2.328172 g / cm^3
# Si number density = 23.334827 Si / 1000 Ang^3
#
#
#
# Elastic Constant Matrix: (Units=GPa)
#
#
# Indices 1 2 3 4 5 6 
#
# 1 151.2535 47.1000 15.2237 0.0000 -29.3581 0.0000
# 2 47.1000 89.7655 13.1827 0.0000 -8.7169 0.0000
# 3 15.2237 13.1827 45.3538 0.0000 -23.6490 0.0000
# 4 0.0000 0.0000 0.0000 40.0334 0.0000 12.9001
# 5 -29.3581 -8.7169 -23.6490 0.0000 45.8416 0.0000
# 6 0.0000 0.0000 0.0000 12.9001 0.0000 22.2794
#
#
#
# Elastic Compliance Matrix: (Units=1/GPa)
#
#
# Indices 1 2 3 4 5 6 
#
# 1 0.008898 -0.004302 0.001106 0.000000 0.005451 0.000000
# 2 -0.004302 0.013730 -0.003587 0.000000 -0.001995 0.000000
# 3 0.001106 -0.003587 0.031100 0.000000 0.016070 0.000000
# 4 0.000000 0.000000 0.000000 0.030709 0.000000 -0.017781
# 5 0.005451 -0.001995 0.016070 0.000000 0.033216 0.000000
# 6 0.000000 0.000000 0.000000 -0.017781 0.000000 0.055180
#
#
# Mechanical properties :
#
#
# Convention : Reuss Voigt Hill
#
# Bulk Modulus (GPa) = 24.89903 48.59842 36.74872
# Shear Modulus (GPa) = 25.02684 35.68863 30.35774
#
# Velocity S-wave (km/s) = 3.27847 3.91502 3.61080
# Velocity P-wave (km/s) = 5.00247 6.42715 5.75903
#
# Compressibility (1/GPa) = 0.04016221
#
# Stress axis : x y z
#
# Youngs Moduli (GPa) = 112.38930 72.83140 32.15465
#
# Poissons Ratio (x) = 0.31330 -0.03556
# Poissons Ratio (y) = 0.48347 0.11534
# Poissons Ratio (z) = -0.12430 0.26125
#
# Static dielectric constant tensor:
#      x y z
#    x 1.955210 0.000000 -0.000990 
#    y 0.000000 1.985120 0.000000 
#    z -0.000990 0.000000 1.886720 
# 
# From -- ./inp_files/8342.got.cif
#   From: 2010.05.17/outbox.cif.g08.bks.cpg/sg3_5_cif.got.tgz:8342.got - 2010.06.03 18:33:08.
