data_PCOD9113581
_publ_section_title
;
Structure prediction by ZEFSAII (Michael W. Deem and Ramdas Pophale) SiO2 
 PCOD9113581
Probable space group: P 2
;
_chemical_formula_sum "Si O2"
_cell_formula_units_Z 9
_cell_length_a 7.287200
_cell_length_b 6.753195
_cell_length_c 9.949039
_cell_angle_alpha 90.000000
_cell_angle_beta 55.578730
_cell_angle_gamma 90.000000
_cell_volume 403.881879
_symmetry_space_group_name_H-M "P 2"
_symmetry_group_IT_number 3
_symmetry_cell_setting 'monoclinic'
loop_
_space_group_symop_operation_xyz
x,y,z
-x,y,-z
loop_
_atom_site_type_symbol
_atom_site_label
_atom_site_fract_x
_atom_site_fract_y
_atom_site_fract_z
Si Si1 0.000000 0.565200 0.000000
Si Si2 0.864262 0.986819 0.690189
Si Si3 0.480237 0.670314 0.863203
Si Si4 0.379450 0.311043 0.358833
Si Si5 0.840007 0.232442 0.266176
O O1 0.779664 0.692920 0.063397
O O2 0.964302 0.410537 0.138651
O O3 0.769043 0.199870 0.687313
O O4 0.000000 0.916509 0.500000
O O5 0.020533 0.037022 0.752477
O O6 0.652634 0.850049 0.804142
O O7 0.569316 0.529802 0.709280
O O8 0.500000 0.564588 0.000000
O O9 0.614456 0.195860 0.275436
O O10 0.254671 0.306690 0.551742
#
# Coordination Sequence:
#
# PCOD9113581 Si02
#       5
#     1   2   2   2   2
#     4  10  22  40  64  92 124 164 202 248 308 364
#     4  10  22  39  62  90 120 158 203 251 303 359
#     4  11  24  38  60  93 124 160 203 249 303 362
#     4   9  20  41  62  85 120 162 204 249 301 359
#     4   9  19  39  65  87 118 162 204 249 303 359
#
# _framework density 22.283743000000001
#
# number of rings (size 3 to 8) (size 9 to 14) (size 15 to 20)
#    0.000    2.222    0.000    1.333    0.000   10.667 
#    0.000   16.667    0.000    0.000    0.000    0.000 
#    0.000    0.000    0.000    0.000    0.000    0.000 
#
# Total GULP energy -50225.709338 kJ/mol
# GULP energy per Si atom -5580.634371 kJ/mol
# Density = 2.223302 g / cm^3
# Si number density = 22.283743 Si / 1000 Ang^3
#
#
#
# Elastic Constant Matrix: (Units=GPa)
#
#
# Indices 1 2 3 4 5 6 
#
# 1 152.9640 46.7663 31.4059 0.0000 -24.5944 0.0000
# 2 46.7663 41.3316 34.3835 0.0000 -18.1338 0.0000
# 3 31.4059 34.3835 55.2814 0.0000 -26.7698 0.0000
# 4 0.0000 0.0000 0.0000 24.5102 0.0000 -9.7685
# 5 -24.5944 -18.1338 -26.7698 0.0000 33.1967 0.0000
# 6 0.0000 0.0000 0.0000 -9.7685 0.0000 43.7844
#
#
#
# Elastic Compliance Matrix: (Units=1/GPa)
#
#
# Indices 1 2 3 4 5 6 
#
# 1 0.010499 -0.014049 0.004633 0.000000 0.003840 0.000000
# 2 -0.014049 0.069209 -0.035763 0.000000 -0.001442 0.000000
# 3 0.004633 -0.035763 0.049061 0.000000 0.023460 0.000000
# 4 0.000000 0.000000 0.000000 0.044781 0.000000 0.009991
# 5 0.003840 -0.001442 0.023460 0.000000 0.051099 0.000000
# 6 0.000000 0.000000 0.000000 0.009991 0.000000 0.025068
#
#
# Mechanical properties :
#
#
# Convention : Reuss Voigt Hill
#
# Bulk Modulus (GPa) = 26.03413 52.74316 39.38864
# Shear Modulus (GPa) = 14.16918 29.43303 21.80111
#
# Velocity S-wave (km/s) = 2.52435 3.63826 3.13124
# Velocity P-wave (km/s) = 4.49498 6.43192 5.54862
#
# Compressibility (1/GPa) = 0.03841112
#
# Stress axis : x y z
#
# Youngs Moduli (GPa) = 95.24846 14.44900 20.38270
#
# Poissons Ratio (x) = 0.20299 -0.09443
# Poissons Ratio (y) = 1.33811 0.72895
# Poissons Ratio (z) = -0.44128 0.51674
#
# Static dielectric constant tensor:
#      x y z
#    x 1.855260 0.000000 -0.015700 
#    y 0.000000 1.779770 0.000000 
#    z -0.015700 0.000000 1.836000 
# 
# From -- ./inp_files/4782.got.cif
#   From: 2010.05.17/outbox.cif.g08.bks.cpg/sg3_3_cif.got.tgz:4782.got - 2010.06.03 18:33:08.
