data_PCOD9113549
_publ_section_title
;
Structure prediction by ZEFSAII (Michael W. Deem and Ramdas Pophale) SiO2 
 PCOD9113549
Probable space group: P 2
;
_chemical_formula_sum "Si O2"
_cell_formula_units_Z 15
_cell_length_a 12.711328
_cell_length_b 12.842130
_cell_length_c 5.189039
_cell_angle_alpha 90.000000
_cell_angle_beta 60.958068
_cell_angle_gamma 90.000000
_cell_volume 740.555902
_symmetry_space_group_name_H-M "P 2"
_symmetry_group_IT_number 3
_symmetry_cell_setting 'monoclinic'
loop_
_space_group_symop_operation_xyz
x,y,z
-x,y,-z
loop_
_atom_site_type_symbol
_atom_site_label
_atom_site_fract_x
_atom_site_fract_y
_atom_site_fract_z
Si Si1 0.637255 0.171740 0.253647
Si Si2 0.366458 0.979500 0.062599
Si Si3 0.861407 0.681351 0.241812
Si Si4 0.222027 0.315539 0.247758
Si Si5 0.167319 0.119340 0.571575
Si Si6 0.856271 0.435486 0.165490
Si Si7 0.000000 0.971376 0.500000
Si Si8 0.202684 0.801452 0.166668
O O1 0.500000 0.195254 0.500000
O O2 0.761532 0.175975 0.276488
O O3 0.637899 0.049485 0.186449
O O4 0.661043 0.251054 0.987295
O O5 0.500000 0.987456 0.000000
O O6 0.323948 0.862205 0.087390
O O7 0.273110 0.042531 0.350427
O O8 0.841455 0.559054 0.222632
O O9 0.835608 0.722651 0.559773
O O10 0.788138 0.745697 0.117225
O O11 0.000000 0.702022 0.000000
O O12 0.139327 0.215982 0.415362
O O13 0.216716 0.382761 0.513744
O O14 0.186070 0.391008 0.057948
O O15 0.052458 0.044015 0.667268
O O16 0.000000 0.412964 0.000000
O O17 0.896094 0.894524 0.725340
#
# Coordination Sequence:
#
# PCOD9113549 Si02
#       8
#     2   2   2   2   2   2   1   2
#     4  11  22  40  68  93 135 176 227 264 314 391
#     4  10  22  37  61  95 129 173 220 262 314 383
#     4  11  22  42  64  93 122 164 219 269 322 395
#     4  11  23  41  61  96 126 165 220 265 330 381
#     4  10  22  39  59  97 133 175 206 263 314 399
#     4  11  24  41  67  91 128 170 217 272 332 395
#     4  10  22  38  58  92 140 170 200 254 330 386
#     4  11  23  39  64  93 129 170 211 268 325 387
#
# _framework density 20.255051999999999
#
# number of rings (size 3 to 8) (size 9 to 14) (size 15 to 20)
#    0.000    1.333    4.000    1.200    5.600    2.133 
#    2.400    0.000    0.000    3.200    0.000    0.000 
#    0.000    0.000    0.000    0.000    0.000    0.000 
#
# Total GULP energy -83531.564728 kJ/mol
# GULP energy per Si atom -5568.770982 kJ/mol
# Density = 2.020895 g / cm^3
# Si number density = 20.255052 Si / 1000 Ang^3
#
#
#
# Elastic Constant Matrix: (Units=GPa)
#
#
# Indices 1 2 3 4 5 6 
#
# 1 77.1044 27.6695 25.2185 0.0000 14.7728 0.0000
# 2 27.6695 88.1496 16.9147 0.0000 8.0029 0.0000
# 3 25.2185 16.9147 57.9689 0.0000 16.7127 0.0000
# 4 0.0000 0.0000 0.0000 12.9757 0.0000 9.1406
# 5 14.7728 8.0029 16.7127 0.0000 19.4698 0.0000
# 6 0.0000 0.0000 0.0000 9.1406 0.0000 12.8120
#
#
#
# Elastic Compliance Matrix: (Units=1/GPa)
#
#
# Indices 1 2 3 4 5 6 
#
# 1 0.017226 -0.003905 -0.004052 0.000000 -0.007987 0.000000
# 2 -0.003905 0.012999 -0.001871 0.000000 -0.000774 0.000000
# 3 -0.004052 -0.001871 0.024519 0.000000 -0.017204 0.000000
# 4 0.000000 0.000000 0.000000 0.154932 0.000000 -0.110534
# 5 -0.007987 -0.000774 -0.017204 0.000000 0.072508 0.000000
# 6 0.000000 0.000000 0.000000 -0.110534 0.000000 0.156911
#
#
# Mechanical properties :
#
#
# Convention : Reuss Voigt Hill
#
# Bulk Modulus (GPa) = 28.49843 40.31424 34.40634
# Shear Modulus (GPa) = 10.62819 19.27952 14.95386
#
# Velocity S-wave (km/s) = 2.29316 3.08853 2.72007
# Velocity P-wave (km/s) = 4.59475 5.71535 5.18541
#
# Compressibility (1/GPa) = 0.03508965
#
# Stress axis : x y z
#
# Youngs Moduli (GPa) = 58.05110 76.92713 40.78429
#
# Poissons Ratio (x) = 0.30036 0.16525
# Poissons Ratio (y) = 0.22666 0.07631
# Poissons Ratio (z) = 0.23522 0.14394
#
# Static dielectric constant tensor:
#      x y z
#    x 1.853570 0.000000 0.037950 
#    y 0.000000 1.710530 0.000000 
#    z 0.037950 0.000000 1.782500 
# 
# From -- ./inp_files/2486.got.cif
#   From: 2010.05.17/outbox.cif.g08.bks.cpg/sg3_2_cif.got.tgz:2486.got - 2010.06.03 18:33:08.
