data_PCOD9113897
_publ_section_title
;
Structure prediction by ZEFSAII (Michael W. Deem and Ramdas Pophale) SiO2 
 PCOD9113897
Probable space group: P 2
;
_chemical_formula_sum "Si O2"
_cell_formula_units_Z 13
_cell_length_a 10.447166
_cell_length_b 5.177605
_cell_length_c 10.465656
_cell_angle_alpha 90.000000
_cell_angle_beta 107.290878
_cell_angle_gamma 90.000000
_cell_volume 540.517769
_symmetry_space_group_name_H-M "P 2"
_symmetry_group_IT_number 3
_symmetry_cell_setting 'monoclinic'
loop_
_space_group_symop_operation_xyz
x,y,z
-x,y,-z
loop_
_atom_site_type_symbol
_atom_site_label
_atom_site_fract_x
_atom_site_fract_y
_atom_site_fract_z
Si Si1 0.771352 0.618250 0.769083
Si Si2 0.000000 0.909390 0.000000
Si Si3 0.916491 0.086302 0.345316
Si Si4 0.527623 0.874389 0.800681
Si Si5 0.977335 0.575034 0.643277
Si Si6 0.262751 0.191963 0.025970
Si Si7 0.351576 0.369097 0.781152
O O1 0.635415 0.783648 0.728350
O O2 0.826825 0.628315 0.641273
O O3 0.737392 0.362579 0.843451
O O4 0.901736 0.738288 0.881400
O O5 0.887216 0.087813 0.031659
O O6 0.780823 0.246822 0.324572
O O7 0.000000 0.038263 0.500000
O O8 0.000890 0.293530 0.290549
O O9 0.917231 0.799203 0.287886
O O10 0.417477 0.648719 0.778780
O O11 0.637351 0.943054 0.943808
O O12 0.458175 0.151238 0.772166
O O13 0.000000 0.537619 0.500000
O O14 0.313659 0.352126 0.920008
#
# Coordination Sequence:
#
# PCOD9113897 Si02
#       7
#     2   1   2   2   2   2   2
#     4  11  24  41  65  98 145 179 229 283 345 404
#     4  10  24  38  62 104 136 186 220 290 346 408
#     4  10  23  44  72 101 128 170 235 301 342 404
#     4  11  26  41  62  99 141 190 228 273 331 430
#     4  10  23  43  71  98 129 172 228 290 352 399
#     4  11  25  39  63  98 149 187 229 280 338 421
#     4  12  25  41  68  96 142 190 231 272 349 411
#
# _framework density 24.051013000000001
#
# number of rings (size 3 to 8) (size 9 to 14) (size 15 to 20)
#    0.000    1.231    1.538    2.769   15.077    0.000 
#    0.000    0.000    0.000   22.154    0.000    0.000 
#    0.000    0.000    0.000    0.000    0.000    0.000 
#
# Total GULP energy -72374.446951 kJ/mol
# GULP energy per Si atom -5567.265150 kJ/mol
# Density = 2.399627 g / cm^3
# Si number density = 24.051013 Si / 1000 Ang^3
#
#
#
# Elastic Constant Matrix: (Units=GPa)
#
#
# Indices 1 2 3 4 5 6 
#
# 1 124.4822 2.1007 18.0808 0.0000 -7.9524 0.0000
# 2 2.1007 118.0360 1.7204 0.0000 -4.8853 0.0000
# 3 18.0808 1.7204 54.1429 0.0000 -17.6619 0.0000
# 4 0.0000 0.0000 0.0000 7.3643 0.0000 7.3646
# 5 -7.9524 -4.8853 -17.6619 0.0000 32.3316 0.0000
# 6 0.0000 0.0000 0.0000 7.3646 0.0000 45.8381
#
#
#
# Elastic Compliance Matrix: (Units=1/GPa)
#
#
# Indices 1 2 3 4 5 6 
#
# 1 0.008455 -0.000086 -0.002612 0.000000 0.000640 0.000000
# 2 -0.000086 0.008528 0.000208 0.000000 0.001381 0.000000
# 3 -0.002612 0.000208 0.023285 0.000000 0.012109 0.000000
# 4 0.000000 0.000000 0.000000 0.161784 0.000000 -0.025993
# 5 0.000640 0.001381 0.012109 0.000000 0.037910 0.000000
# 6 0.000000 0.000000 0.000000 -0.025993 0.000000 0.025992
#
#
# Mechanical properties :
#
#
# Convention : Reuss Voigt Hill
#
# Bulk Modulus (GPa) = 28.33778 37.82942 33.08360
# Shear Modulus (GPa) = 17.68681 35.42409 26.55545
#
# Velocity S-wave (km/s) = 2.71474 3.84197 3.32645
# Velocity P-wave (km/s) = 4.65128 5.95348 5.34220
#
# Compressibility (1/GPa) = 0.03528858
#
# Stress axis : x y z
#
# Youngs Moduli (GPa) = 118.27321 117.26558 42.94534
#
# Poissons Ratio (x) = 0.01008 0.11218
# Poissons Ratio (y) = 0.01016 -0.00894
# Poissons Ratio (z) = 0.30894 -0.02442
#
# Static dielectric constant tensor:
#      x y z
#    x 2.071980 0.000000 0.091100 
#    y 0.000000 2.072320 0.000000 
#    z 0.091100 0.000000 2.489560 
# 
# From -- ./inp_files/10275.got.cif
#   From: 2010.05.17/outbox.cif.g08.bks.cpg/sg3_6_cif.got.tgz:10275.got - 2010.06.03 18:33:08.
