data_PCOD9113281
_publ_section_title
;
Structure prediction by ZEFSAII (Michael W. Deem and Ramdas Pophale) SiO2 
 PCOD9113281
Probable space group: P 2
;
_chemical_formula_sum "Si O2"
_cell_formula_units_Z 16
_cell_length_a 11.342989
_cell_length_b 8.753669
_cell_length_c 8.728372
_cell_angle_alpha 90.000000
_cell_angle_beta 122.967254
_cell_angle_gamma 90.000000
_cell_volume 727.115446
_symmetry_space_group_name_H-M "P 2"
_symmetry_group_IT_number 3
_symmetry_cell_setting 'monoclinic'
loop_
_space_group_symop_operation_xyz
x,y,z
-x,y,-z
loop_
_atom_site_type_symbol
_atom_site_label
_atom_site_fract_x
_atom_site_fract_y
_atom_site_fract_z
Si Si1 0.986797 0.810000 0.172359
Si Si2 0.541675 0.893307 0.873222
Si Si3 0.252334 0.878028 0.508549
Si Si4 0.353786 0.332702 0.805977
Si Si5 0.652794 0.088347 0.684973
Si Si6 0.724832 0.607155 0.058152
Si Si7 0.560374 0.405103 0.697572
Si Si8 0.872501 0.070310 0.311024
O O1 0.931600 0.969983 0.210921
O O2 0.137568 0.766223 0.354596
O O3 0.876429 0.675460 0.129249
O O4 0.000000 0.829493 0.000000
O O5 0.411274 0.840883 0.672993
O O6 0.641322 0.990559 0.831995
O O7 0.626764 0.753899 0.003336
O O8 0.500000 0.981947 0.000000
O O9 0.253999 0.010161 0.378705
O O10 0.188310 0.941716 0.618989
O O11 0.419875 0.336661 0.682362
O O12 0.246622 0.200448 0.781175
O O13 0.500000 0.323079 0.000000
O O14 0.284773 0.494405 0.804235
O O15 0.500000 0.080510 0.500000
O O16 0.665395 0.264864 0.734927
O O17 0.648992 0.516831 0.866255
O O18 0.500000 0.477313 0.500000
O O19 0.000000 0.141071 0.500000
#
# Coordination Sequence:
#
# PCOD9113281 Si02
#       8
#     2   2   2   2   2   2   2   2
#     4  11  25  45  64  90 128 167 213 260 312 372
#     4  11  21  37  63  95 124 160 211 261 313 368
#     4  10  22  40  66  95 123 160 210 264 314 367
#     4  10  22  42  64  92 127 163 204 252 311 376
#     4   9  19  36  63  96 124 156 207 266 317 364
#     4  11  25  40  57  89 129 168 205 250 310 374
#     4  10  21  38  62  95 128 159 203 261 313 365
#     4  10  22  42  67  92 120 159 209 262 314 370
#
# _framework density 22.004760000000001
#
# number of rings (size 3 to 8) (size 9 to 14) (size 15 to 20)
#    0.000    1.750    0.000    4.875    0.000   11.500 
#    0.000   12.500    0.000    0.000    0.000    0.000 
#    0.000    0.000    0.000    0.000    0.000    0.000 
#
# Total GULP energy -89263.428831 kJ/mol
# GULP energy per Si atom -5578.964302 kJ/mol
# Density = 2.195468 g / cm^3
# Si number density = 22.004760 Si / 1000 Ang^3
#
#
#
# Elastic Constant Matrix: (Units=GPa)
#
#
# Indices 1 2 3 4 5 6 
#
# 1 96.5207 23.3809 44.3508 0.0000 -2.0174 0.0000
# 2 23.3809 64.1683 23.9870 0.0000 0.5665 0.0000
# 3 44.3508 23.9870 91.6374 0.0000 -0.7663 0.0000
# 4 0.0000 0.0000 0.0000 16.9429 0.0000 9.1339
# 5 -2.0174 0.5665 -0.7663 0.0000 52.2360 0.0000
# 6 0.0000 0.0000 0.0000 9.1339 0.0000 39.0560
#
#
#
# Elastic Compliance Matrix: (Units=1/GPa)
#
#
# Indices 1 2 3 4 5 6 
#
# 1 0.013774 -0.002807 -0.005928 0.000000 0.000475 0.000000
# 2 -0.002807 0.017850 -0.003317 0.000000 -0.000351 0.000000
# 3 -0.005928 -0.003317 0.014650 0.000000 0.000022 0.000000
# 4 0.000000 0.000000 0.000000 0.067537 0.000000 -0.015795
# 5 0.000475 -0.000351 0.000022 0.000000 0.019166 0.000000
# 6 0.000000 0.000000 0.000000 -0.015795 0.000000 0.029298
#
#
# Mechanical properties :
#
#
# Convention : Reuss Voigt Hill
#
# Bulk Modulus (GPa) = 45.10457 48.41820 46.76139
# Shear Modulus (GPa) = 25.80406 32.35418 29.07912
#
# Velocity S-wave (km/s) = 3.42812 3.83864 3.63918
# Velocity P-wave (km/s) = 6.01760 6.45741 6.24138
#
# Compressibility (1/GPa) = 0.02217070
#
# Stress axis : x y z
#
# Youngs Moduli (GPa) = 72.59983 56.02312 68.26042
#
# Poissons Ratio (x) = 0.15727 0.40462
# Poissons Ratio (y) = 0.20380 0.22640
# Poissons Ratio (z) = 0.43034 0.18581
#
# Static dielectric constant tensor:
#      x y z
#    x 2.030810 0.000000 -0.034340 
#    y 0.000000 1.846030 0.000000 
#    z -0.034340 0.000000 1.879650 
# 
# From -- ./inp_files/7478.got.cif
#   From: 2010.05.17/outbox.cif.g08.bks.cpg/sg3_4_cif.got.tgz:7478.got - 2010.06.03 18:33:08.
