data_PCOD9113976
_publ_section_title
;
Structure prediction by ZEFSAII (Michael W. Deem and Ramdas Pophale) SiO2 
 PCOD9113976
Probable space group: P 2
;
_chemical_formula_sum "Si O2"
_cell_formula_units_Z 15
_cell_length_a 15.684652
_cell_length_b 9.114234
_cell_length_c 5.318840
_cell_angle_alpha 90.000000
_cell_angle_beta 70.356099
_cell_angle_gamma 90.000000
_cell_volume 716.095166
_symmetry_space_group_name_H-M "P 2"
_symmetry_group_IT_number 3
_symmetry_cell_setting 'monoclinic'
loop_
_space_group_symop_operation_xyz
x,y,z
-x,y,-z
loop_
_atom_site_type_symbol
_atom_site_label
_atom_site_fract_x
_atom_site_fract_y
_atom_site_fract_z
Si Si1 0.750657 0.302680 0.497259
Si Si2 0.500000 0.135487 0.500000
Si Si3 0.248355 0.868444 0.084035
Si Si4 0.055491 0.021427 0.189299
Si Si5 0.674520 0.003518 0.472014
Si Si6 0.247797 0.536414 0.906896
Si Si7 0.093044 0.337541 0.305264
Si Si8 0.592075 0.364807 0.039195
O O1 0.752881 0.465109 0.372802
O O2 0.847344 0.275798 0.524856
O O3 0.729006 0.156052 0.364801
O O4 0.666476 0.300891 0.773846
O O5 0.559684 0.241440 0.265197
O O6 0.568844 0.042920 0.601711
O O7 0.316545 0.917870 0.797397
O O8 0.234579 0.697826 0.028892
O O9 0.152738 0.947024 0.125477
O O10 0.284319 0.918644 0.325353
O O11 0.000000 0.992970 0.500000
O O12 0.068816 0.197301 0.162289
O O13 0.000000 0.970562 0.000000
O O14 0.348852 0.489528 0.888863
O O15 0.164159 0.444714 0.105786
O O16 0.000000 0.405085 0.500000
O O17 0.500000 0.417408 0.000000
#
# Coordination Sequence:
#
# PCOD9113976 Si02
#       8
#     2   1   2   2   2   2   2   2
#     4  11  22  42  74  99 137 186 243 293 362 424
#     4  12  24  42  78 108 136 180 258 310 362 432
#     4  12  28  47  70 101 156 193 233 296 378 448
#     4  11  24  44  71 108 138 187 246 303 358 427
#     4  12  25  46  73 105 138 191 241 303 359 436
#     4  11  26  44  67 104 144 199 231 296 374 439
#     4  10  24  41  72 101 137 180 246 303 344 422
#     4  11  21  41  72 101 138 178 240 301 360 420
#
# _framework density 20.946935
#
# number of rings (size 3 to 8) (size 9 to 14) (size 15 to 20)
#    0.000    0.800    4.000    2.400    9.333    0.533 
#    4.800    0.000    0.000    0.000    0.000    0.000 
#    0.000    0.000    0.000    0.000    0.000    0.000 
#
# Total GULP energy -83663.268299 kJ/mol
# GULP energy per Si atom -5577.551220 kJ/mol
# Density = 2.089926 g / cm^3
# Si number density = 20.946935 Si / 1000 Ang^3
#
#
#
# Elastic Constant Matrix: (Units=GPa)
#
#
# Indices 1 2 3 4 5 6 
#
# 1 147.2527 24.2590 44.4856 0.0000 -6.1141 0.0000
# 2 24.2590 69.3021 31.9940 0.0000 -10.8889 0.0000
# 3 44.4856 31.9940 103.3311 0.0000 -10.9525 0.0000
# 4 0.0000 0.0000 0.0000 14.9175 0.0000 3.3959
# 5 -6.1141 -10.8889 -10.9525 0.0000 34.8512 0.0000
# 6 0.0000 0.0000 0.0000 3.3959 0.0000 12.8674
#
#
#
# Elastic Compliance Matrix: (Units=1/GPa)
#
#
# Indices 1 2 3 4 5 6 
#
# 1 0.007921 -0.001396 -0.002976 0.000000 0.000018 0.000000
# 2 -0.001396 0.017569 -0.004431 0.000000 0.003852 0.000000
# 3 -0.002976 -0.004431 0.012546 0.000000 0.002037 0.000000
# 4 0.000000 0.000000 0.000000 0.071320 0.000000 -0.018822
# 5 0.000018 0.003852 0.002037 0.000000 0.030540 0.000000
# 6 0.000000 0.000000 0.000000 -0.018822 0.000000 0.082683
#
#
# Mechanical properties :
#
#
# Convention : Reuss Voigt Hill
#
# Bulk Modulus (GPa) = 48.94417 57.92923 53.43670
# Shear Modulus (GPa) = 20.24334 27.13704 23.69019
#
# Velocity S-wave (km/s) = 3.11209 3.60323 3.36663
# Velocity P-wave (km/s) = 6.02743 6.71016 6.37794
#
# Compressibility (1/GPa) = 0.02043144
#
# Stress axis : x y z
#
# Youngs Moduli (GPa) = 126.24995 56.91890 79.70381
#
# Poissons Ratio (x) = 0.07946 0.23719
# Poissons Ratio (y) = 0.17624 0.35313
# Poissons Ratio (z) = 0.37570 0.25218
#
# Static dielectric constant tensor:
#      x y z
#    x 1.757020 0.000000 0.061580 
#    y 0.000000 1.791880 0.000000 
#    z 0.061580 0.000000 1.843850 
# 
# From -- ./inp_files/3174.got.cif
#   From: 2010.05.17/outbox.cif.g08.bks.cpg/sg3_2_cif.got.tgz:3174.got - 2010.06.03 18:33:08.
