data_PCOD9113394
_publ_section_title
;
Structure prediction by ZEFSAII (Michael W. Deem and Ramdas Pophale) SiO2 
 PCOD9113394
Probable space group: P 2
;
_chemical_formula_sum "Si O2"
_cell_formula_units_Z 15
_cell_length_a 5.386217
_cell_length_b 5.253632
_cell_length_c 19.998312
_cell_angle_alpha 90.000000
_cell_angle_beta 84.837894
_cell_angle_gamma 90.000000
_cell_volume 563.601068
_symmetry_space_group_name_H-M "P 2"
_symmetry_group_IT_number 3
_symmetry_cell_setting 'monoclinic'
loop_
_space_group_symop_operation_xyz
x,y,z
-x,y,-z
loop_
_atom_site_type_symbol
_atom_site_label
_atom_site_fract_x
_atom_site_fract_y
_atom_site_fract_z
Si Si1 0.447074 0.676770 0.931092
Si Si2 0.500000 0.142186 0.500000
Si Si3 0.874809 0.518711 0.568963
Si Si4 0.998111 0.333931 0.800987
Si Si5 0.958517 0.845834 0.889505
Si Si6 0.769257 0.128311 0.368951
Si Si7 0.290412 0.914138 0.318595
Si Si8 0.491971 0.497156 0.219472
O O1 0.178139 0.807547 0.937163
O O2 0.452748 0.518382 0.861792
O O3 0.674931 0.876821 0.919990
O O4 0.500000 0.536827 0.000000
O O5 0.684027 0.312864 0.541619
O O6 0.679728 0.006233 0.442378
O O7 0.000000 0.634533 0.500000
O O8 0.091729 0.383263 0.607916
O O9 0.726320 0.706689 0.620466
O O10 0.951189 0.578370 0.849736
O O11 0.244845 0.416003 0.756367
O O12 0.741057 0.309553 0.767323
O O13 0.037716 0.078089 0.840947
O O14 0.511148 0.104218 0.334926
O O15 0.997853 0.992589 0.324550
O O16 0.392887 0.759594 0.252171
#
# Coordination Sequence:
#
# PCOD9113394 Si02
#       8
#     2   1   2   2   2   2   2   2
#     4  10  21  42  69 100 138 186 235 302 365 434
#     4  10  22  48  64 104 134 182 240 302 370 428
#     4  10  25  45  67 102 142 180 246 306 372 445
#     4  10  21  44  67  96 137 184 230 291 358 430
#     4  10  21  40  67 100 132 179 234 292 358 429
#     4  11  25  44  68  99 137 182 238 301 357 452
#     4  12  26  44  71 104 138 196 242 295 384 438
#     4  10  23  45  65 104 141 183 246 294 367 449
#
# _framework density 26.614567999999998
#
# number of rings (size 3 to 8) (size 9 to 14) (size 15 to 20)
#    0.000    1.600    1.333    2.000    5.600    0.000 
#   14.400   16.000    0.000    0.000    0.000    0.000 
#    0.000    0.000    0.000    0.000    0.000    0.000 
#
# Total GULP energy -83856.303301 kJ/mol
# GULP energy per Si atom -5590.420220 kJ/mol
# Density = 2.655399 g / cm^3
# Si number density = 26.614568 Si / 1000 Ang^3
#
#
#
# Elastic Constant Matrix: (Units=GPa)
#
#
# Indices 1 2 3 4 5 6 
#
# 1 253.5838 27.9969 53.4836 0.0000 15.4327 0.0000
# 2 27.9969 33.5645 20.2770 0.0000 5.9613 0.0000
# 3 53.4836 20.2770 131.8389 0.0000 2.4555 0.0000
# 4 0.0000 0.0000 0.0000 21.2791 0.0000 -8.3712
# 5 15.4327 5.9613 2.4555 0.0000 61.1235 0.0000
# 6 0.0000 0.0000 0.0000 -8.3712 0.0000 14.4014
#
#
#
# Elastic Compliance Matrix: (Units=1/GPa)
#
#
# Indices 1 2 3 4 5 6 
#
# 1 0.004606 -0.002839 -0.001416 0.000000 -0.000829 0.000000
# 2 -0.002839 0.035155 -0.004208 0.000000 -0.002543 0.000000
# 3 -0.001416 -0.004208 0.008799 0.000000 0.000415 0.000000
# 4 0.000000 0.000000 0.000000 0.060927 0.000000 0.035416
# 5 -0.000829 -0.002543 0.000415 0.000000 0.016801 0.000000
# 6 0.000000 0.000000 0.000000 0.035416 0.000000 0.090024
#
#
# Mechanical properties :
#
#
# Convention : Reuss Voigt Hill
#
# Bulk Modulus (GPa) = 31.61191 69.16691 50.38941
# Shear Modulus (GPa) = 20.50998 40.50944 30.50971
#
# Velocity S-wave (km/s) = 2.77903 3.90561 3.38946
# Velocity P-wave (km/s) = 4.71178 6.81052 5.85594
#
# Compressibility (1/GPa) = 0.03163365
#
# Stress axis : x y z
#
# Youngs Moduli (GPa) = 217.10183 28.44528 113.64796
#
# Poissons Ratio (x) = 0.08076 0.16098
# Poissons Ratio (y) = 0.61637 0.47821
# Poissons Ratio (z) = 0.30752 0.11969
#
# Static dielectric constant tensor:
#      x y z
#    x 2.128790 0.000000 -0.020380 
#    y 0.000000 2.128020 0.000000 
#    z -0.020380 0.000000 2.215140 
# 
# From -- ./inp_files/15587.got.cif
#   From: 2010.05.17/outbox.cif.g08.bks.cpg/sg3_8_cif.got.tgz:15587.got - 2010.06.03 18:33:08.
