data_PCOD9113326
_publ_section_title
;
Structure prediction by ZEFSAII (Michael W. Deem and Ramdas Pophale) SiO2 
 PCOD9113326
Probable space group: P 2
;
_chemical_formula_sum "Si O2"
_cell_formula_units_Z 15
_cell_length_a 8.223093
_cell_length_b 16.665540
_cell_length_c 8.760030
_cell_angle_alpha 90.000000
_cell_angle_beta 144.097177
_cell_angle_gamma 90.000000
_cell_volume 703.984720
_symmetry_space_group_name_H-M "P 2"
_symmetry_group_IT_number 3
_symmetry_cell_setting 'monoclinic'
loop_
_space_group_symop_operation_xyz
x,y,z
-x,y,-z
loop_
_atom_site_type_symbol
_atom_site_label
_atom_site_fract_x
_atom_site_fract_y
_atom_site_fract_z
Si Si1 0.986899 0.029720 0.308231
Si Si2 0.883734 0.706547 0.083004
Si Si3 0.235705 0.159335 0.082544
Si Si4 0.324041 0.455815 0.710196
Si Si5 0.189526 0.861636 0.796131
Si Si6 0.382074 0.617546 0.582316
Si Si7 0.500000 0.031625 0.500000
Si Si8 0.675783 0.275033 0.289727
O O1 0.000000 0.041302 0.500000
O O2 0.274104 0.998188 0.448042
O O3 0.792266 0.953075 0.130778
O O4 0.880375 0.113262 0.154756
O O5 0.922913 0.796850 0.170717
O O6 0.068095 0.649159 0.330816
O O7 0.569672 0.675297 0.830171
O O8 0.000000 0.701063 0.000000
O O9 0.312752 0.086683 0.251021
O O10 0.512614 0.209952 0.265162
O O11 0.000000 0.206174 0.000000
O O12 0.407390 0.527738 0.663496
O O13 0.352470 0.365361 0.667117
O O14 0.000000 0.465642 0.500000
O O15 0.500000 0.460474 0.000000
O O16 0.000000 0.861881 0.500000
O O17 0.500000 0.834546 0.000000
O O18 0.500000 0.620697 0.500000
O O19 0.000000 0.260144 0.500000
O O20 0.500000 0.274771 0.000000
#
# Coordination Sequence:
#
# PCOD9113326 Si02
#       8
#     2   2   2   2   2   2   1   2
#     4  10  25  44  67  96 132 175 224 280 333 401
#     4  10  22  40  62  91 128 165 210 258 321 387
#     4  10  24  43  64  96 130 170 226 273 334 404
#     4  10  21  40  61  92 125 163 214 264 321 386
#     4  11  25  43  63  96 129 164 218 265 323 389
#     4  10  21  39  62  92 124 168 210 256 322 389
#     4  10  24  42  64  96 126 168 228 266 338 396
#     4  10  24  41  65  95 129 171 219 271 334 398
#
# _framework density 21.307282000000001
#
# number of rings (size 3 to 8) (size 9 to 14) (size 15 to 20)
#    0.000    1.867    0.000    1.600    9.333    4.800 
#    4.800    2.000    0.000    0.000    0.000    0.000 
#    0.000    0.000    0.000    0.000    0.000    0.000 
#
# Total GULP energy -83705.738359 kJ/mol
# GULP energy per Si atom -5580.382557 kJ/mol
# Density = 2.125879 g / cm^3
# Si number density = 21.307282 Si / 1000 Ang^3
#
#
#
# Elastic Constant Matrix: (Units=GPa)
#
#
# Indices 1 2 3 4 5 6 
#
# 1 69.7370 36.2249 35.9043 0.0000 5.2106 0.0000
# 2 36.2249 109.8076 34.9831 0.0000 -5.2070 0.0000
# 3 35.9043 34.9831 128.0638 0.0000 9.9339 0.0000
# 4 0.0000 0.0000 0.0000 82.8136 0.0000 117.0539
# 5 5.2106 -5.2070 9.9339 0.0000 26.5616 0.0000
# 6 0.0000 0.0000 0.0000 117.0539 0.0000 -1.2377
#
#
#
# Elastic Compliance Matrix: (Units=1/GPa)
#
#
# Indices 1 2 3 4 5 6 
#
# 1 0.019268 -0.005350 -0.003672 0.000000 -0.003455 0.000000
# 2 -0.005350 0.011709 -0.002016 0.000000 0.004099 0.000000
# 3 -0.003672 -0.002016 0.009644 0.000000 -0.003282 0.000000
# 4 0.000000 0.000000 0.000000 0.000090 0.000000 0.008480
# 5 -0.003455 0.004099 -0.003282 0.000000 0.040357 0.000000
# 6 0.000000 0.000000 0.000000 0.008480 0.000000 -0.005999
#
#
# Mechanical properties :
#
#
# Convention : Reuss Voigt Hill
#
# Bulk Modulus (GPa) = 53.93199 57.98147 55.95673
# Shear Modulus (GPa) = 48.39062 34.99388 41.69225
#
# Velocity S-wave (km/s) = 4.77076 4.05698 4.42827
# Velocity P-wave (km/s) = 7.46414 7.01545 7.24327
#
# Compressibility (1/GPa) = 0.01854187
#
# Stress axis : x y z
#
# Youngs Moduli (GPa) = 51.90051 85.40741 103.69588
#
# Poissons Ratio (x) = 0.45694 0.38081
# Poissons Ratio (y) = 0.27768 0.20909
# Poissons Ratio (z) = 0.19060 0.17222
#
# Static dielectric constant tensor:
#      x y z
#    x 1.715660 0.000000 -0.143460 
#    y 0.000000 1.753530 0.000000 
#    z -0.143460 0.000000 1.655520 
# 
# From -- ./inp_files/6272.got.cif
#   From: 2010.05.17/outbox.cif.g08.bks.cpg/sg3_4_cif.got.tgz:6272.got - 2010.06.03 18:33:08.
