data_PCOD9113216
_publ_section_title
;
Structure prediction by ZEFSAII (Michael W. Deem and Ramdas Pophale) SiO2 
 PCOD9113216
Probable space group: P 2
;
_chemical_formula_sum "Si O2"
_cell_formula_units_Z 14
_cell_length_a 8.187149
_cell_length_b 16.281498
_cell_length_c 6.990547
_cell_angle_alpha 90.000000
_cell_angle_beta 140.497170
_cell_angle_gamma 90.000000
_cell_volume 592.754365
_symmetry_space_group_name_H-M "P 2"
_symmetry_group_IT_number 3
_symmetry_cell_setting 'monoclinic'
loop_
_space_group_symop_operation_xyz
x,y,z
-x,y,-z
loop_
_atom_site_type_symbol
_atom_site_label
_atom_site_fract_x
_atom_site_fract_y
_atom_site_fract_z
Si Si1 0.091075 0.698430 0.363010
Si Si2 0.583310 0.770792 0.861158
Si Si3 0.265823 0.941215 0.140328
Si Si4 0.595888 0.528629 0.368513
Si Si5 0.227519 0.104194 0.860844
Si Si6 0.227902 0.284850 0.861085
Si Si7 0.910546 0.457122 0.133186
O O1 0.313935 0.762502 0.507068
O O2 0.245782 0.613190 0.494734
O O3 0.000000 0.711128 0.500000
O O4 0.819732 0.712254 0.011623
O O5 0.672566 0.864472 0.940791
O O6 0.500000 0.746406 0.000000
O O7 0.500000 0.949019 0.500000
O O8 0.000000 0.920124 0.000000
O O9 0.223980 0.027210 0.996835
O O10 0.500000 0.515981 0.500000
O O11 0.817987 0.463980 0.511652
O O12 0.323752 0.516695 0.015263
O O13 0.208854 0.194687 0.938817
O O14 0.000000 0.096928 0.500000
O O15 0.500000 0.102085 0.000000
O O16 0.194633 0.364877 0.960526
O O17 0.000000 0.287263 0.500000
O O18 0.500000 0.289814 0.000000
O O19 0.000000 0.479921 0.000000
#
# Coordination Sequence:
#
# PCOD9113216 Si02
#       7
#     2   2   2   2   2   2   2
#     4  10  21  37  58  84 110 148 200 246 289 347
#     4  10  22  40  60  82 116 157 195 240 301 361
#     4  12  25  40  62  96 126 154 203 255 302 359
#     4  10  21  36  55  81 115 153 192 237 296 354
#     4  10  22  42  65  88 122 165 202 243 305 370
#     4  10  21  38  61  89 115 150 201 246 290 353
#     4  10  21  37  56  82 117 155 190 235 298 356
#
# _framework density 23.618552999999999
#
# number of rings (size 3 to 8) (size 9 to 14) (size 15 to 20)
#    0.000    1.714    0.000    3.857    0.000    5.714 
#    0.000    2.143    0.000    0.000    0.000    0.000 
#    0.000    0.000    0.000    0.000    0.000    0.000 
#
# Total GULP energy -78237.821505 kJ/mol
# GULP energy per Si atom -5588.415822 kJ/mol
# Density = 2.356480 g / cm^3
# Si number density = 23.618553 Si / 1000 Ang^3
#
#
#
# Elastic Constant Matrix: (Units=GPa)
#
#
# Indices 1 2 3 4 5 6 
#
# 1 76.4011 25.4434 55.1131 0.0000 38.5364 0.0000
# 2 25.4434 147.1339 36.9158 0.0000 35.4450 0.0000
# 3 55.1131 36.9158 182.2088 0.0000 48.5772 0.0000
# 4 0.0000 0.0000 0.0000 37.5015 0.0000 5.6695
# 5 38.5364 35.4450 48.5772 0.0000 46.0761 0.0000
# 6 0.0000 0.0000 0.0000 5.6695 0.0000 42.1594
#
#
#
# Elastic Compliance Matrix: (Units=1/GPa)
#
#
# Indices 1 2 3 4 5 6 
#
# 1 0.023571 0.000816 -0.002604 0.000000 -0.017597 0.000000
# 2 0.000816 0.008371 -0.000061 0.000000 -0.007058 0.000000
# 3 -0.002604 -0.000061 0.007922 0.000000 -0.006127 0.000000
# 4 0.000000 0.000000 0.000000 0.027219 0.000000 -0.003660
# 5 -0.017597 -0.007058 -0.006127 0.000000 0.048309 0.000000
# 6 0.000000 0.000000 0.000000 -0.003660 0.000000 0.024212
#
#
# Mechanical properties :
#
#
# Convention : Reuss Voigt Hill
#
# Bulk Modulus (GPa) = 27.65001 71.18761 49.41881
# Shear Modulus (GPa) = 32.18414 44.36550 38.27482
#
# Velocity S-wave (km/s) = 3.69543 4.33877 4.02996
# Velocity P-wave (km/s) = 5.47180 7.43679 6.52865
#
# Compressibility (1/GPa) = 0.03616636
#
# Stress axis : x y z
#
# Youngs Moduli (GPa) = 42.42519 119.46078 126.23749
#
# Poissons Ratio (x) = -0.09752 0.32867
# Poissons Ratio (y) = -0.03463 0.00774
# Poissons Ratio (z) = 0.11046 0.00732
#
# Static dielectric constant tensor:
#      x y z
#    x 1.864820 0.000000 -0.049100 
#    y 0.000000 1.910920 0.000000 
#    z -0.049100 0.000000 1.992150 
# 
# From -- ./inp_files/6169.got.cif
#   From: 2010.05.17/outbox.cif.g08.bks.cpg/sg3_4_cif.got.tgz:6169.got - 2010.06.03 18:33:08.
