data_PCOD9113255
_publ_section_title
;
Structure prediction by ZEFSAII (Michael W. Deem and Ramdas Pophale) SiO2 
 PCOD9113255
Probable space group: P 2
;
_chemical_formula_sum "Si O2"
_cell_formula_units_Z 16
_cell_length_a 8.014210
_cell_length_b 5.407049
_cell_length_c 18.806328
_cell_angle_alpha 90.000000
_cell_angle_beta 123.077168
_cell_angle_gamma 90.000000
_cell_volume 682.866831
_symmetry_space_group_name_H-M "P 2"
_symmetry_group_IT_number 3
_symmetry_cell_setting 'monoclinic'
loop_
_space_group_symop_operation_xyz
x,y,z
-x,y,-z
loop_
_atom_site_type_symbol
_atom_site_label
_atom_site_fract_x
_atom_site_fract_y
_atom_site_fract_z
Si Si1 0.699050 0.685950 0.998784
Si Si2 0.586661 0.519873 0.814498
Si Si3 0.736776 0.195788 0.063670
Si Si4 0.922684 0.278384 0.583748
Si Si5 0.190189 0.659441 0.664539
Si Si6 0.696887 0.050940 0.411913
Si Si7 0.693871 0.032745 0.762028
Si Si8 0.936582 0.045742 0.247092
O O1 0.631776 0.589621 0.906273
O O2 0.500000 0.717254 0.000000
O O3 0.825216 0.459257 0.060565
O O4 0.798502 0.955991 0.031194
O O5 0.354852 0.477799 0.737736
O O6 0.701710 0.273222 0.815261
O O7 0.631752 0.780635 0.786334
O O8 0.776273 0.155639 0.156031
O O9 0.500000 0.222785 0.000000
O O10 0.744286 0.144734 0.502019
O O11 0.945462 0.221722 0.671649
O O12 0.967585 0.568761 0.592768
O O13 0.124494 0.183069 0.590864
O O14 0.272326 0.771792 0.609760
O O15 0.161931 0.851316 0.722605
O O16 0.476754 0.108899 0.334394
O O17 0.894899 0.962331 0.768512
#
# Coordination Sequence:
#
# PCOD9113255 Si02
#       8
#     2   2   2   2   2   2   2   2
#     4  10  21  37  66  96 125 161 222 283 329 387
#     4  11  23  44  70  96 135 181 225 274 353 403
#     4  10  22  38  62  95 130 165 216 284 327 386
#     4  10  21  38  69  93 128 170 231 280 327 399
#     4  10  21  40  71  97 130 176 234 292 325 412
#     4   9  21  41  62 100 130 171 224 280 340 397
#     4  11  25  45  66  96 142 186 214 279 349 425
#     4  11  26  40  66  98 137 177 233 274 348 404
#
# _framework density 23.430631000000002
#
# number of rings (size 3 to 8) (size 9 to 14) (size 15 to 20)
#    0.000    1.750    1.250    2.250    7.000    4.500 
#    0.000    3.750    0.000    0.000    0.000    0.000 
#    0.000    0.000    0.000    0.000    0.000    0.000 
#
# Total GULP energy -89169.738446 kJ/mol
# GULP energy per Si atom -5573.108653 kJ/mol
# Density = 2.337730 g / cm^3
# Si number density = 23.430631 Si / 1000 Ang^3
#
#
#
# Elastic Constant Matrix: (Units=GPa)
#
#
# Indices 1 2 3 4 5 6 
#
# 1 39.5676 -6.8947 13.7529 0.0000 1.1834 0.0000
# 2 -6.8947 92.4535 5.9777 0.0000 -9.3405 0.0000
# 3 13.7529 5.9777 136.7213 0.0000 -14.4877 0.0000
# 4 0.0000 0.0000 0.0000 29.0023 0.0000 -5.8981
# 5 1.1834 -9.3405 -14.4877 0.0000 15.8276 0.0000
# 6 0.0000 0.0000 0.0000 -5.8981 0.0000 48.5174
#
#
#
# Elastic Compliance Matrix: (Units=1/GPa)
#
#
# Indices 1 2 3 4 5 6 
#
# 1 0.026812 0.001817 -0.003184 0.000000 -0.003847 0.000000
# 2 0.001817 0.011632 0.000024 0.000000 0.006751 0.000000
# 3 -0.003184 0.000024 0.008483 0.000000 0.008017 0.000000
# 4 0.000000 0.000000 0.000000 0.035354 0.000000 0.004298
# 5 -0.003847 0.006751 0.008017 0.000000 0.074791 0.000000
# 6 0.000000 0.000000 0.000000 0.004298 0.000000 0.021134
#
#
# Mechanical properties :
#
#
# Convention : Reuss Voigt Hill
#
# Bulk Modulus (GPa) = 22.60405 32.71271 27.65838
# Shear Modulus (GPa) = 25.55732 35.72989 30.64360
#
# Velocity S-wave (km/s) = 3.30626 3.90926 3.62034
# Velocity P-wave (km/s) = 4.92375 5.86244 5.41348
#
# Compressibility (1/GPa) = 0.04423987
#
# Stress axis : x y z
#
# Youngs Moduli (GPa) = 37.29740 85.96825 117.88399
#
# Poissons Ratio (x) = -0.15617 0.37535
# Poissons Ratio (y) = -0.06776 -0.00283
# Poissons Ratio (z) = 0.11876 -0.00207
#
# Static dielectric constant tensor:
#      x y z
#    x 1.584980 0.000000 0.022170 
#    y 0.000000 2.119360 0.000000 
#    z 0.022170 0.000000 1.901440 
# 
# From -- ./inp_files/14861.got.cif
#   From: 2010.05.17/outbox.cif.g08.bks.cpg/sg3_8_cif.got.tgz:14861.got - 2010.06.03 18:33:08.
