data_PCOD9113809
_publ_section_title
;
Structure prediction by ZEFSAII (Michael W. Deem and Ramdas Pophale) SiO2 
 PCOD9113809
Probable space group: P 2
;
_chemical_formula_sum "Si O2"
_cell_formula_units_Z 15
_cell_length_a 6.208398
_cell_length_b 7.858003
_cell_length_c 15.702929
_cell_angle_alpha 90.000000
_cell_angle_beta 58.362029
_cell_angle_gamma 90.000000
_cell_volume 652.222223
_symmetry_space_group_name_H-M "P 2"
_symmetry_group_IT_number 3
_symmetry_cell_setting 'monoclinic'
loop_
_space_group_symop_operation_xyz
x,y,z
-x,y,-z
loop_
_atom_site_type_symbol
_atom_site_label
_atom_site_fract_x
_atom_site_fract_y
_atom_site_fract_z
Si Si1 0.947650 0.205230 0.176135
Si Si2 0.586204 0.570881 0.807261
Si Si3 0.250103 0.472450 0.998985
Si Si4 0.000000 0.254992 0.500000
Si Si5 0.340729 0.897786 0.812109
Si Si6 0.890621 0.028709 0.683534
Si Si7 0.121389 0.698389 0.697312
Si Si8 0.508298 0.433022 0.354376
O O1 0.712013 0.301613 0.271337
O O2 0.126160 0.330691 0.084844
O O3 0.084949 0.115839 0.228649
O O4 0.847587 0.054516 0.134563
O O5 0.437568 0.749496 0.855656
O O6 0.597404 0.536351 0.705088
O O7 0.872397 0.593688 0.775628
O O8 0.421177 0.421157 0.882318
O O9 0.500000 0.550924 0.000000
O O10 0.000000 0.550000 0.000000
O O11 0.987697 0.146685 0.588724
O O12 0.735842 0.354926 0.551810
O O13 0.215413 0.790960 0.762552
O O14 0.600296 0.983284 0.727926
O O15 0.040793 0.850185 0.652724
O O16 0.329952 0.566090 0.624480
#
# Coordination Sequence:
#
# PCOD9113809 Si02
#       8
#     2   2   2   1   2   2   2   2
#     4  11  23  43  77 101 146 196 246 317 384 456
#     4  10  22  45  73 102 147 190 246 311 380 470
#     4  12  27  43  76 110 146 200 251 311 388 459
#     4  12  26  42  74 110 148 198 252 328 386 462
#     4   9  20  44  73  98 140 190 241 308 383 456
#     4  10  23  45  71 102 146 198 250 312 391 460
#     4   9  21  44  74  99 137 197 237 313 386 458
#     4  11  23  42  72 103 145 185 251 311 378 453
#
# _framework density 22.998297000000001
#
# number of rings (size 3 to 8) (size 9 to 14) (size 15 to 20)
#    0.000    1.600    2.667    0.800    7.467    0.533 
#    0.000    8.000    0.000    0.000    0.000    0.000 
#    0.000    0.000    0.000    0.000    0.000    0.000 
#
# Total GULP energy -83593.603490 kJ/mol
# GULP energy per Si atom -5572.906899 kJ/mol
# Density = 2.294595 g / cm^3
# Si number density = 22.998297 Si / 1000 Ang^3
#
#
#
# Elastic Constant Matrix: (Units=GPa)
#
#
# Indices 1 2 3 4 5 6 
#
# 1 139.2611 50.4032 55.6275 0.0000 -31.8561 0.0000
# 2 50.4032 105.9905 65.1295 0.0000 -21.9530 0.0000
# 3 55.6275 65.1295 129.3638 0.0000 -28.0506 0.0000
# 4 0.0000 0.0000 0.0000 23.7066 0.0000 -12.7629
# 5 -31.8561 -21.9530 -28.0506 0.0000 38.5166 0.0000
# 6 0.0000 0.0000 0.0000 -12.7629 0.0000 53.8639
#
#
#
# Elastic Compliance Matrix: (Units=1/GPa)
#
#
# Indices 1 2 3 4 5 6 
#
# 1 0.010110 -0.002498 -0.001883 0.000000 0.005567 0.000000
# 2 -0.002498 0.014640 -0.005861 0.000000 0.002010 0.000000
# 3 -0.001883 -0.005861 0.012384 0.000000 0.004121 0.000000
# 4 0.000000 0.000000 0.000000 0.048350 0.000000 0.011456
# 5 0.005567 0.002010 0.004121 0.000000 0.034715 0.000000
# 6 0.000000 0.000000 0.000000 0.011456 0.000000 0.021280
#
#
# Mechanical properties :
#
#
# Convention : Reuss Voigt Hill
#
# Bulk Modulus (GPa) = 60.05357 79.65952 69.85655
# Shear Modulus (GPa) = 29.84836 36.78109 33.31472
#
# Velocity S-wave (km/s) = 3.60648 4.00346 3.81014
# Velocity P-wave (km/s) = 6.59630 7.48883 7.05669
#
# Compressibility (1/GPa) = 0.01665180
#
# Stress axis : x y z
#
# Youngs Moduli (GPa) = 98.90798 68.30393 80.74858
#
# Poissons Ratio (x) = 0.17062 0.15203
# Poissons Ratio (y) = 0.24706 0.47326
# Poissons Ratio (z) = 0.18622 0.40032
#
# Static dielectric constant tensor:
#      x y z
#    x 1.964210 0.000000 0.032000 
#    y 0.000000 1.936380 0.000000 
#    z 0.032000 0.000000 1.845520 
# 
# From -- ./inp_files/14689.got.cif
#   From: 2010.05.17/outbox.cif.g08.bks.cpg/sg3_8_cif.got.tgz:14689.got - 2010.06.03 18:33:08.
