data_PCOD9113030
_publ_section_title
;
Structure prediction by ZEFSAII (Michael W. Deem and Ramdas Pophale) SiO2 
 PCOD9113030
Probable space group: P 2
;
_chemical_formula_sum "Si O2"
_cell_formula_units_Z 15
_cell_length_a 10.498389
_cell_length_b 8.754196
_cell_length_c 12.791250
_cell_angle_alpha 90.000000
_cell_angle_beta 138.530488
_cell_angle_gamma 90.000000
_cell_volume 778.493768
_symmetry_space_group_name_H-M "P 2"
_symmetry_group_IT_number 3
_symmetry_cell_setting 'monoclinic'
loop_
_space_group_symop_operation_xyz
x,y,z
-x,y,-z
loop_
_atom_site_type_symbol
_atom_site_label
_atom_site_fract_x
_atom_site_fract_y
_atom_site_fract_z
Si Si1 0.502707 0.699060 0.884758
Si Si2 0.000000 0.418121 0.000000
Si Si3 0.138367 0.483237 0.685089
Si Si4 0.167530 0.134488 0.691259
Si Si5 0.807159 0.118903 0.833519
Si Si6 0.949624 0.639179 0.159336
Si Si7 0.910087 0.968191 0.689818
Si Si8 0.577451 0.974989 0.312031
O O1 0.339669 0.569003 0.788507
O O2 0.452897 0.814960 0.763123
O O3 0.500000 0.770777 0.000000
O O4 0.720152 0.647610 0.000915
O O5 0.825288 0.294214 0.884539
O O6 0.979598 0.527490 0.887891
O O7 0.179502 0.307408 0.736988
O O8 0.030684 0.563632 0.714731
O O9 0.000000 0.490708 0.500000
O O10 0.000000 0.128179 0.500000
O O11 0.352090 0.083622 0.739307
O O12 0.098779 0.025331 0.742854
O O13 0.838903 0.093562 0.729889
O O14 0.614967 0.040062 0.754650
O O15 0.000000 0.043080 0.000000
O O16 0.043290 0.807392 0.225178
O O17 0.742070 0.955812 0.500532
#
# Coordination Sequence:
#
# PCOD9113030 Si02
#       8
#     2   1   2   2   2   2   2   2
#     4  10  22  37  58  95 127 163 207 262 322 383
#     4  10  26  42  64  86 130 176 210 260 326 394
#     4  10  20  38  62  91 130 165 209 270 321 377
#     4   9  20  36  62  93 122 161 210 264 321 368
#     4  10  24  42  62  90 124 172 210 266 318 385
#     4  11  23  40  62  92 126 169 213 264 324 386
#     4  11  22  41  68  92 125 166 221 270 318 380
#     4  11  22  40  66  96 123 167 216 268 317 379
#
# _framework density 19.267976999999998
#
# number of rings (size 3 to 8) (size 9 to 14) (size 15 to 20)
#    0.400    1.333    0.000    4.400    4.667    1.067 
#    0.000    0.000    2.933    0.000    0.000    0.000 
#    0.000    0.000    0.000    0.000    0.000    0.000 
#
# Total GULP energy -83659.174011 kJ/mol
# GULP energy per Si atom -5577.278267 kJ/mol
# Density = 1.922412 g / cm^3
# Si number density = 19.267977 Si / 1000 Ang^3
#
#
#
# Elastic Constant Matrix: (Units=GPa)
#
#
# Indices 1 2 3 4 5 6 
#
# 1 85.0827 30.5504 27.1860 0.0000 9.3467 0.0000
# 2 30.5504 102.9339 34.1915 0.0000 -7.8458 0.0000
# 3 27.1860 34.1915 85.3209 0.0000 -2.4428 0.0000
# 4 0.0000 0.0000 0.0000 29.5969 0.0000 -11.7556
# 5 9.3467 -7.8458 -2.4428 0.0000 25.5849 0.0000
# 6 0.0000 0.0000 0.0000 -11.7556 0.0000 27.8005
#
#
#
# Elastic Compliance Matrix: (Units=1/GPa)
#
#
# Indices 1 2 3 4 5 6 
#
# 1 0.014999 -0.003842 -0.003440 0.000000 -0.006986 0.000000
# 2 -0.003842 0.012428 -0.003617 0.000000 0.004869 0.000000
# 3 -0.003440 -0.003617 0.014309 0.000000 0.001514 0.000000
# 4 0.000000 0.000000 0.000000 0.040608 0.000000 0.017171
# 5 -0.006986 0.004869 0.001514 0.000000 0.043275 0.000000
# 6 0.000000 0.000000 0.000000 0.017171 0.000000 0.043232
#
#
# Mechanical properties :
#
#
# Convention : Reuss Voigt Hill
#
# Bulk Modulus (GPa) = 50.15106 50.79924 50.47515
# Shear Modulus (GPa) = 25.34298 28.69045 27.01671
#
# Velocity S-wave (km/s) = 3.63063 3.86297 3.74860
# Velocity P-wave (km/s) = 6.60757 6.80577 6.70740
#
# Compressibility (1/GPa) = 0.01993976
#
# Stress axis : x y z
#
# Youngs Moduli (GPa) = 66.67028 80.46568 69.88509
#
# Poissons Ratio (x) = 0.30912 0.24039
# Poissons Ratio (y) = 0.25612 0.25276
# Poissons Ratio (z) = 0.22933 0.29103
#
# Static dielectric constant tensor:
#      x y z
#    x 1.706560 0.000000 0.014420 
#    y 0.000000 1.673510 0.000000 
#    z 0.014420 0.000000 1.701620 
# 
# From -- ./inp_files/10796.got.cif
#   From: 2010.05.17/outbox.cif.g08.bks.cpg/sg3_6_cif.got.tgz:10796.got - 2010.06.03 18:33:08.
