data_PCOD9113666
_publ_section_title
;
Structure prediction by ZEFSAII (Michael W. Deem and Ramdas Pophale) SiO2 
 PCOD9113666
Probable space group: P 2
;
_chemical_formula_sum "Si O2"
_cell_formula_units_Z 13
_cell_length_a 5.365628
_cell_length_b 19.261221
_cell_length_c 5.207410
_cell_angle_alpha 90.000000
_cell_angle_beta 90.463805
_cell_angle_gamma 90.000000
_cell_volume 538.160623
_symmetry_space_group_name_H-M "P 2"
_symmetry_group_IT_number 3
_symmetry_cell_setting 'monoclinic'
loop_
_space_group_symop_operation_xyz
x,y,z
-x,y,-z
loop_
_atom_site_type_symbol
_atom_site_label
_atom_site_fract_x
_atom_site_fract_y
_atom_site_fract_z
Si Si1 0.500000 0.698441 0.500000
Si Si2 0.242254 0.096158 0.159821
Si Si3 0.500000 0.602025 0.000000
Si Si4 0.000000 0.508364 0.000000
Si Si5 0.867063 0.810906 0.750172
Si Si6 0.319001 0.400219 0.251740
Si Si7 0.640571 0.952939 0.747721
Si Si8 0.327723 0.247231 0.250856
O O1 0.467201 0.649272 0.745929
O O2 0.705496 0.751561 0.612581
O O3 0.185487 0.174007 0.258405
O O4 0.259886 0.028586 0.344351
O O5 0.500000 0.106730 0.000000
O O6 0.000000 0.075664 0.000000
O O7 0.753132 0.556251 0.015017
O O8 0.096486 0.455391 0.220906
O O9 0.762135 0.882805 0.859029
O O10 0.000000 0.840619 0.500000
O O11 0.000000 0.778105 0.000000
O O12 0.500000 0.410248 0.500000
O O13 0.201259 0.322679 0.255260
O O14 0.500000 0.406055 0.000000
O O15 0.500000 0.924766 0.500000
O O16 0.500000 0.976528 0.000000
O O17 0.500000 0.245620 0.500000
O O18 0.500000 0.249289 0.000000
#
# Coordination Sequence:
#
# PCOD9113666 Si02
#       8
#     1   2   1   1   2   2   2   2
#     4  12  30  54  72 114 144 194 232 316 354 468
#     4  10  22  41  66  99 143 191 242 299 360 420
#     4  12  32  50  84 106 158 184 250 294 394 424
#     4  12  28  54  76 116 146 200 234 316 356 466
#     4  12  26  46  77 107 143 191 246 300 363 439
#     4  10  23  44  74 108 147 193 247 299 361 437
#     4  11  23  43  68 103 143 187 242 303 358 425
#     4   9  19  40  66 100 140 189 240 297 354 421
#
# _framework density 24.156357
#
# number of rings (size 3 to 8) (size 9 to 14) (size 15 to 20)
#    0.000    1.231    1.538    2.769    6.462    3.077 
#    0.000    9.231    0.000    0.000    0.000    0.000 
#    0.000    0.000    0.000    0.000    0.000    0.000 
#
# Total GULP energy -72376.968892 kJ/mol
# GULP energy per Si atom -5567.459146 kJ/mol
# Density = 2.410138 g / cm^3
# Si number density = 24.156357 Si / 1000 Ang^3
#
#
#
# Elastic Constant Matrix: (Units=GPa)
#
#
# Indices 1 2 3 4 5 6 
#
# 1 85.9994 32.5667 28.8380 0.0000 18.9616 0.0000
# 2 32.5667 177.1414 16.9126 0.0000 9.3486 0.0000
# 3 28.8380 16.9126 161.0352 0.0000 20.4632 0.0000
# 4 0.0000 0.0000 0.0000 39.1370 0.0000 29.3892
# 5 18.9616 9.3486 20.4632 0.0000 48.1728 0.0000
# 6 0.0000 0.0000 0.0000 29.3892 0.0000 13.1014
#
#
#
# Elastic Compliance Matrix: (Units=1/GPa)
#
#
# Indices 1 2 3 4 5 6 
#
# 1 0.013990 -0.002178 -0.001724 0.000000 -0.004352 0.000000
# 2 -0.002178 0.006079 -0.000219 0.000000 -0.000229 0.000000
# 3 -0.001724 -0.000219 0.006818 0.000000 -0.002175 0.000000
# 4 0.000000 0.000000 0.000000 -0.037328 0.000000 0.083736
# 5 -0.004352 -0.000229 -0.002175 0.000000 0.023440 0.000000
# 6 0.000000 0.000000 0.000000 0.083736 0.000000 -0.111509
#
#
# Mechanical properties :
#
#
# Convention : Reuss Voigt Hill
#
# Bulk Modulus (GPa) = 53.63254 64.53451 59.08352
# Shear Modulus (GPa) = -59.48555 43.13947 -8.17304
#
# Velocity S-wave (km/s) = -4.96776 4.23051 -1.84140
# Velocity P-wave (km/s) = 3.26412 7.11592 4.47112
#
# Compressibility (1/GPa) = 0.01864540
#
# Stress axis : x y z
#
# Youngs Moduli (GPa) = 71.47849 164.51093 146.67234
#
# Poissons Ratio (x) = 0.35827 0.25281
# Poissons Ratio (y) = 0.15567 0.03216
# Poissons Ratio (z) = 0.12320 0.03607
#
# Static dielectric constant tensor:
#      x y z
#    x 2.136940 0.000000 -0.123730 
#    y 0.000000 2.016410 0.000000 
#    z -0.123730 0.000000 1.921260 
# 
# From -- ./inp_files/641.got.cif
#   From: 2010.05.17/outbox.cif.g08.bks.cpg/sg3_1_cif.got.tgz:641.got - 2010.06.03 18:33:08.
