data_PCOD9113539
_publ_section_title
;
Structure prediction by ZEFSAII (Michael W. Deem and Ramdas Pophale) SiO2 
 PCOD9113539
Probable space group: P 2
;
_chemical_formula_sum "Si O2"
_cell_formula_units_Z 13
_cell_length_a 14.614505
_cell_length_b 5.223098
_cell_length_c 9.305793
_cell_angle_alpha 90.000000
_cell_angle_beta 132.957379
_cell_angle_gamma 90.000000
_cell_volume 519.869300
_symmetry_space_group_name_H-M "P 2"
_symmetry_group_IT_number 3
_symmetry_cell_setting 'monoclinic'
loop_
_space_group_symop_operation_xyz
x,y,z
-x,y,-z
loop_
_atom_site_type_symbol
_atom_site_label
_atom_site_fract_x
_atom_site_fract_y
_atom_site_fract_z
Si Si1 0.000000 0.616290 0.500000
Si Si2 0.239348 0.433410 0.100345
Si Si3 0.316990 0.550547 0.493952
Si Si4 0.073271 0.924868 0.932552
Si Si5 0.263582 0.857051 0.724623
Si Si6 0.122871 0.226475 0.437924
Si Si7 0.433070 0.463715 0.067469
O O1 0.131892 0.759472 0.647136
O O2 0.025955 0.425385 0.396858
O O3 0.317726 0.544194 0.322064
O O4 0.324127 0.361009 0.053878
O O5 0.157345 0.179572 0.043146
O O6 0.154649 0.681293 0.980526
O O7 0.282323 0.772173 0.575831
O O8 0.204447 0.351503 0.401805
O O9 0.452831 0.485202 0.699029
O O10 0.964132 0.995135 0.704268
O O11 0.000000 0.863242 0.000000
O O12 0.229206 0.155184 0.669662
O O13 0.372746 0.725795 0.933706
O O14 0.500000 0.332622 0.000000
#
# Coordination Sequence:
#
# PCOD9113539 Si02
#       7
#     1   2   2   2   2   2   2
#     4  10  22  36  66 102 150 178 250 306 386 454
#     4  12  26  48  77 114 152 201 257 319 392 454
#     4  10  23  46  70 101 145 198 255 314 380 449
#     4  12  26  44  76 115 153 195 249 320 393 465
#     4  10  22  42  67 102 142 194 247 310 387 449
#     4  11  23  40  70 105 145 198 244 320 383 458
#     4  10  24  50  71 104 151 203 263 314 376 462
#
# _framework density 25.006284999999998
#
# number of rings (size 3 to 8) (size 9 to 14) (size 15 to 20)
#    0.000    1.231    1.538    3.231    8.615    0.000 
#    5.538    4.615    0.000    0.000    0.000    0.000 
#    0.000    0.000    0.000    0.000    0.000    0.000 
#
# Total GULP energy -72545.960809 kJ/mol
# GULP energy per Si atom -5580.458524 kJ/mol
# Density = 2.494937 g / cm^3
# Si number density = 25.006285 Si / 1000 Ang^3
#
#
#
# Elastic Constant Matrix: (Units=GPa)
#
#
# Indices 1 2 3 4 5 6 
#
# 1 160.4469 12.9622 42.3458 0.0000 -4.6434 0.0000
# 2 12.9622 54.4575 11.5021 0.0000 2.3902 0.0000
# 3 42.3458 11.5021 158.9703 0.0000 -14.1599 0.0000
# 4 0.0000 0.0000 0.0000 28.5651 0.0000 6.3268
# 5 -4.6434 2.3902 -14.1599 0.0000 43.4247 0.0000
# 6 0.0000 0.0000 0.0000 6.3268 0.0000 34.8311
#
#
#
# Elastic Compliance Matrix: (Units=1/GPa)
#
#
# Indices 1 2 3 4 5 6 
#
# 1 0.006790 -0.001269 -0.001695 0.000000 0.000243 0.000000
# 2 -0.001269 0.018982 -0.001175 0.000000 -0.001564 0.000000
# 3 -0.001695 -0.001175 0.007021 0.000000 0.002173 0.000000
# 4 0.000000 0.000000 0.000000 0.036475 0.000000 -0.006626
# 5 0.000243 -0.001564 0.002173 0.000000 0.023849 0.000000
# 6 0.000000 0.000000 0.000000 -0.006626 0.000000 0.029913
#
#
# Mechanical properties :
#
#
# Convention : Reuss Voigt Hill
#
# Bulk Modulus (GPa) = 40.79192 56.38831 48.59011
# Shear Modulus (GPa) = 35.84796 41.83514 38.84155
#
# Velocity S-wave (km/s) = 3.79034 4.09465 3.94543
# Velocity P-wave (km/s) = 5.95850 6.70474 6.34260
#
# Compressibility (1/GPa) = 0.02451466
#
# Stress axis : x y z
#
# Youngs Moduli (GPa) = 147.28620 52.68243 142.43920
#
# Poissons Ratio (x) = 0.06684 0.24145
# Poissons Ratio (y) = 0.18686 0.16732
# Poissons Ratio (z) = 0.24967 0.06189
#
# Static dielectric constant tensor:
#      x y z
#    x 1.898320 0.000000 -0.061960 
#    y 0.000000 2.062120 0.000000 
#    z -0.061960 0.000000 2.046100 
# 
# From -- ./inp_files/8372.got.cif
#   From: 2010.05.17/outbox.cif.g08.bks.cpg/sg3_5_cif.got.tgz:8372.got - 2010.06.03 18:33:08.
