data_PCOD9113513
_publ_section_title
;
Structure prediction by ZEFSAII (Michael W. Deem and Ramdas Pophale) SiO2 
 PCOD9113513
Probable space group: P 2
;
_chemical_formula_sum "Si O2"
_cell_formula_units_Z 13
_cell_length_a 20.293653
_cell_length_b 5.628793
_cell_length_c 6.922493
_cell_angle_alpha 90.000000
_cell_angle_beta 51.404474
_cell_angle_gamma 90.000000
_cell_volume 618.024173
_symmetry_space_group_name_H-M "P 2"
_symmetry_group_IT_number 3
_symmetry_cell_setting 'monoclinic'
loop_
_space_group_symop_operation_xyz
x,y,z
-x,y,-z
loop_
_atom_site_type_symbol
_atom_site_label
_atom_site_fract_x
_atom_site_fract_y
_atom_site_fract_z
Si Si1 0.500000 0.655581 0.500000
Si Si2 0.734364 0.026906 0.476323
Si Si3 0.920346 0.712300 0.509248
Si Si4 0.355398 0.316028 0.674687
Si Si5 0.913564 0.213154 0.286494
Si Si6 0.633074 0.948352 0.050228
Si Si7 0.232284 0.699876 0.923180
O O1 0.429960 0.503542 0.513790
O O2 0.546622 0.811595 0.250235
O O3 0.662049 0.150915 0.476903
O O4 0.819014 0.180877 0.367031
O O5 0.770236 0.807213 0.285422
O O6 0.683926 0.946893 0.759102
O O7 0.911392 0.467743 0.402472
O O8 0.000000 0.686104 0.500000
O O9 0.922798 0.962681 0.388197
O O10 0.846890 0.732232 0.799706
O O11 0.378820 0.208838 0.840471
O O12 0.263457 0.432043 0.864394
O O13 0.000000 0.223432 0.000000
O O14 0.695142 0.837074 0.095237
#
# Coordination Sequence:
#
# PCOD9113513 Si02
#       7
#     1   2   2   2   2   2   2
#     4  10  22  44  68  96 144 180 240 290 380 428
#     4  11  24  42  72 102 143 186 245 296 373 425
#     4  12  26  45  72 102 151 196 244 305 363 424
#     4  10  23  41  70  96 136 186 232 302 357 444
#     4  12  27  45  72 109 150 197 253 306 356 435
#     4  10  21  45  66  99 137 184 233 299 362 437
#     4  10  23  41  67  99 136 187 234 294 366 427
#
# _framework density 21.034773999999999
#
# number of rings (size 3 to 8) (size 9 to 14) (size 15 to 20)
#    0.000    1.231    1.538    3.231    6.462    2.462 
#    0.000   18.462    0.000    0.000    0.000    0.000 
#    0.000    0.000    0.000    0.000    0.000    0.000 
#
# Total GULP energy -72408.014268 kJ/mol
# GULP energy per Si atom -5569.847251 kJ/mol
# Density = 2.098690 g / cm^3
# Si number density = 21.034774 Si / 1000 Ang^3
#
#
#
# Elastic Constant Matrix: (Units=GPa)
#
#
# Indices 1 2 3 4 5 6 
#
# 1 75.1526 30.5845 51.7840 0.0000 -6.6815 0.0000
# 2 30.5845 100.4199 57.5312 0.0000 7.1959 0.0000
# 3 51.7840 57.5312 182.7656 0.0000 -9.2412 0.0000
# 4 0.0000 0.0000 0.0000 22.3753 0.0000 -6.7973
# 5 -6.6815 7.1959 -9.2412 0.0000 36.8701 0.0000
# 6 0.0000 0.0000 0.0000 -6.7973 0.0000 35.5413
#
#
#
# Elastic Compliance Matrix: (Units=1/GPa)
#
#
# Indices 1 2 3 4 5 6 
#
# 1 0.017532 -0.003398 -0.003751 0.000000 0.002900 0.000000
# 2 -0.003398 0.013237 -0.003409 0.000000 -0.004054 0.000000
# 3 -0.003751 -0.003409 0.007704 0.000000 0.001917 0.000000
# 4 0.000000 0.000000 0.000000 0.047449 0.000000 0.009075
# 5 0.002900 -0.004054 0.001917 0.000000 0.028919 0.000000
# 6 0.000000 0.000000 0.000000 0.009075 0.000000 0.029872
#
#
# Mechanical properties :
#
#
# Convention : Reuss Voigt Hill
#
# Bulk Modulus (GPa) = 57.61597 70.90417 64.26007
# Shear Modulus (GPa) = 29.13512 33.51989 31.32750
#
# Velocity S-wave (km/s) = 3.72572 3.99626 3.86336
# Velocity P-wave (km/s) = 6.77925 7.42123 7.10749
#
# Compressibility (1/GPa) = 0.01735630
#
# Stress axis : x y z
#
# Youngs Moduli (GPa) = 57.03928 75.54820 129.79993
#
# Poissons Ratio (x) = 0.25675 0.48687
# Poissons Ratio (y) = 0.19385 0.44245
# Poissons Ratio (z) = 0.21395 0.25752
#
# Static dielectric constant tensor:
#      x y z
#    x 1.731780 0.000000 0.051140 
#    y 0.000000 2.038430 0.000000 
#    z 0.051140 0.000000 1.641180 
# 
# From -- ./inp_files/3818.got.cif
#   From: 2010.05.17/outbox.cif.g08.bks.cpg/sg3_2_cif.got.tgz:3818.got - 2010.06.03 18:33:08.
