data_PCOD9113075
_publ_section_title
;
Structure prediction by ZEFSAII (Michael W. Deem and Ramdas Pophale) SiO2 
 PCOD9113075
Probable space group: P 2
;
_chemical_formula_sum "Si O2"
_cell_formula_units_Z 15
_cell_length_a 17.499894
_cell_length_b 8.718051
_cell_length_c 5.413792
_cell_angle_alpha 90.000000
_cell_angle_beta 121.473614
_cell_angle_gamma 90.000000
_cell_volume 704.441080
_symmetry_space_group_name_H-M "P 2"
_symmetry_group_IT_number 3
_symmetry_cell_setting 'monoclinic'
loop_
_space_group_symop_operation_xyz
x,y,z
-x,y,-z
loop_
_atom_site_type_symbol
_atom_site_label
_atom_site_fract_x
_atom_site_fract_y
_atom_site_fract_z
Si Si1 0.230664 0.299310 0.345661
Si Si2 0.597615 0.170504 0.627305
Si Si3 0.593286 0.872030 0.307632
Si Si4 0.186083 0.799658 0.860107
Si Si5 0.000000 0.940193 0.500000
Si Si6 0.954615 0.245444 0.177393
Si Si7 0.257519 0.653813 0.477630
Si Si8 0.726209 0.073399 0.212845
O O1 0.329681 0.247279 0.427443
O O2 0.239893 0.473755 0.437903
O O3 0.206397 0.178353 0.521616
O O4 0.150968 0.280550 0.014493
O O5 0.500000 0.239836 0.500000
O O6 0.583711 0.992661 0.516377
O O7 0.648625 0.176820 0.970956
O O8 0.640324 0.706957 0.421968
O O9 0.672723 0.954806 0.291052
O O10 0.500000 0.865307 0.000000
O O11 0.084928 0.832418 0.609832
O O12 0.231338 0.704712 0.712439
O O13 0.229927 0.970047 0.924391
O O14 0.200286 0.730183 0.155798
O O15 0.025768 0.062807 0.757612
O O16 0.000000 0.314512 0.500000
O O17 0.000000 0.299917 0.000000
#
# Coordination Sequence:
#
# PCOD9113075 Si02
#       8
#     2   2   2   2   1   2   2   2
#     4  11  26  44  66 100 146 180 229 291 357 425
#     4  11  21  39  70  99 127 176 239 290 338 401
#     4  10  20  39  62  96 129 174 230 289 329 406
#     4  11  24  44  69  97 132 179 229 279 346 413
#     4  10  24  40  72 102 128 164 236 282 332 400
#     4  10  24  41  72 102 131 174 231 285 348 400
#     4  11  27  45  65  98 144 186 217 276 367 418
#     4  10  21  39  71  90 130 173 232 286 336 396
#
# _framework density 21.293479000000001
#
# number of rings (size 3 to 8) (size 9 to 14) (size 15 to 20)
#    0.400    1.067    2.667    1.600    9.333    0.000 
#    6.000    0.667    0.000    0.000    0.000    0.000 
#    0.000    0.000    0.000    0.000    0.000    0.000 
#
# Total GULP energy -83589.063082 kJ/mol
# GULP energy per Si atom -5572.604205 kJ/mol
# Density = 2.124501 g / cm^3
# Si number density = 21.293479 Si / 1000 Ang^3
#
#
#
# Elastic Constant Matrix: (Units=GPa)
#
#
# Indices 1 2 3 4 5 6 
#
# 1 61.8614 -0.7863 18.6658 0.0000 11.7703 0.0000
# 2 -0.7863 66.5681 25.6745 0.0000 8.4628 0.0000
# 3 18.6658 25.6745 113.8014 0.0000 15.7488 0.0000
# 4 0.0000 0.0000 0.0000 19.2670 0.0000 -4.0879
# 5 11.7703 8.4628 15.7488 0.0000 44.9213 0.0000
# 6 0.0000 0.0000 0.0000 -4.0879 0.0000 -7.7408
#
#
#
# Elastic Compliance Matrix: (Units=1/GPa)
#
#
# Indices 1 2 3 4 5 6 
#
# 1 0.017788 0.001788 -0.002764 0.000000 -0.004029 0.000000
# 2 0.001788 0.016788 -0.003761 0.000000 -0.002313 0.000000
# 3 -0.002764 -0.003761 0.010395 0.000000 -0.002212 0.000000
# 4 0.000000 0.000000 0.000000 0.046673 0.000000 -0.024648
# 5 -0.004029 -0.002313 -0.002212 0.000000 0.024528 0.000000
# 6 0.000000 0.000000 0.000000 -0.024648 0.000000 -0.116169
#
#
# Mechanical properties :
#
#
# Convention : Reuss Voigt Hill
#
# Bulk Modulus (GPa) = 28.16977 36.59321 32.38149
# Shear Modulus (GPa) = 234.65419 24.53462 129.59441
#
# Velocity S-wave (km/s) = 10.50901 3.39811 7.80981
# Velocity P-wave (km/s) = 12.66927 5.71128 9.82672
#
# Compressibility (1/GPa) = 0.03549905
#
# Stress axis : x y z
#
# Youngs Moduli (GPa) = 56.21667 59.56701 96.19975
#
# Poissons Ratio (x) = -0.10652 0.26585
# Poissons Ratio (y) = -0.10052 0.36178
# Poissons Ratio (z) = 0.15536 0.22401
#
# Static dielectric constant tensor:
#      x y z
#    x 1.903140 0.000000 -0.020740 
#    y 0.000000 1.797290 0.000000 
#    z -0.020740 0.000000 1.810980 
# 
# From -- ./inp_files/3736.got.cif
#   From: 2010.05.17/outbox.cif.g08.bks.cpg/sg3_2_cif.got.tgz:3736.got - 2010.06.03 18:33:08.
