data_PCOD9113390
_publ_section_title
;
Structure prediction by ZEFSAII (Michael W. Deem and Ramdas Pophale) SiO2 
 PCOD9113390
Probable space group: P 2
;
_chemical_formula_sum "Si O2"
_cell_formula_units_Z 14
_cell_length_a 8.840187
_cell_length_b 5.353377
_cell_length_c 14.492614
_cell_angle_alpha 90.000000
_cell_angle_beta 128.973376
_cell_angle_gamma 90.000000
_cell_volume 533.214489
_symmetry_space_group_name_H-M "P 2"
_symmetry_group_IT_number 3
_symmetry_cell_setting 'monoclinic'
loop_
_space_group_symop_operation_xyz
x,y,z
-x,y,-z
loop_
_atom_site_type_symbol
_atom_site_label
_atom_site_fract_x
_atom_site_fract_y
_atom_site_fract_z
Si Si1 0.177831 0.420090 0.515977
Si Si2 0.515797 0.072890 0.598353
Si Si3 0.906270 0.565380 0.251107
Si Si4 0.186604 0.962336 0.038080
Si Si5 0.486853 0.708622 0.742293
Si Si6 0.173379 0.361358 0.198726
Si Si7 0.717734 0.071044 0.123450
O O1 0.348141 0.279833 0.526664
O O2 0.290424 0.561290 0.642892
O O3 0.000000 0.277858 0.500000
O O4 0.066641 0.576183 0.393441
O O5 0.500000 0.910179 0.500000
O O6 0.735670 0.163662 0.694099
O O7 0.457560 0.956713 0.672647
O O8 0.777259 0.816057 0.197717
O O9 0.011231 0.518461 0.191709
O O10 0.772232 0.315107 0.202706
O O11 0.385540 0.803512 0.121396
O O12 0.179397 0.197295 0.105947
O O13 0.159671 0.060209 0.924888
O O14 0.000000 0.803173 0.000000
O O15 0.652678 0.554955 0.752467
O O16 0.500000 0.091041 0.000000
#
# Coordination Sequence:
#
# PCOD9113390 Si02
#       7
#     2   2   2   2   2   2   2
#     4  11  27  45  71 107 152 199 250 312 383 468
#     4  10  21  40  66 101 145 189 243 312 373 444
#     4  12  27  49  78 110 154 202 257 312 388 457
#     4  11  23  45  73 108 145 197 252 316 377 451
#     4  10  25  39  72 103 145 189 253 312 380 439
#     4  10  22  40  67 108 141 193 244 316 372 442
#     4  12  30  50  78 110 154 205 253 319 379 461
#
# _framework density 26.255849999999999
#
# number of rings (size 3 to 8) (size 9 to 14) (size 15 to 20)
#    0.000    1.143    2.857    1.286   10.000    4.571 
#    0.000    0.000    0.000    0.000    0.000    0.000 
#    0.000    0.000    0.000    0.000    0.000    0.000 
#
# Total GULP energy -78085.102015 kJ/mol
# GULP energy per Si atom -5577.507287 kJ/mol
# Density = 2.619609 g / cm^3
# Si number density = 26.255850 Si / 1000 Ang^3
#
#
#
# Elastic Constant Matrix: (Units=GPa)
#
#
# Indices 1 2 3 4 5 6 
#
# 1 69.9838 8.1431 33.0206 0.0000 25.4856 0.0000
# 2 8.1431 93.7510 50.6420 0.0000 18.8043 0.0000
# 3 33.0206 50.6420 159.1129 0.0000 9.5389 0.0000
# 4 0.0000 0.0000 0.0000 31.2045 0.0000 9.1569
# 5 25.4856 18.8043 9.5389 0.0000 51.7245 0.0000
# 6 0.0000 0.0000 0.0000 9.1569 0.0000 5.6725
#
#
#
# Elastic Compliance Matrix: (Units=1/GPa)
#
#
# Indices 1 2 3 4 5 6 
#
# 1 0.019585 0.002587 -0.004300 0.000000 -0.009797 0.000000
# 2 0.002587 0.014083 -0.004688 0.000000 -0.005530 0.000000
# 3 -0.004300 -0.004688 0.008534 0.000000 0.002249 0.000000
# 4 0.000000 0.000000 0.000000 0.060891 0.000000 -0.098293
# 5 -0.009797 -0.005530 0.002249 0.000000 0.025756 0.000000
# 6 0.000000 0.000000 0.000000 -0.098293 0.000000 0.334961
#
#
# Mechanical properties :
#
#
# Convention : Reuss Voigt Hill
#
# Bulk Modulus (GPa) = 34.01331 56.27323 45.14327
# Shear Modulus (GPa) = 10.27934 33.12311 21.70122
#
# Velocity S-wave (km/s) = 1.98080 3.55569 2.87806
# Velocity P-wave (km/s) = 4.26780 6.19164 5.31745
#
# Compressibility (1/GPa) = 0.02940025
#
# Stress axis : x y z
#
# Youngs Moduli (GPa) = 51.05966 71.00635 117.17183
#
# Poissons Ratio (x) = -0.18369 0.50390
# Poissons Ratio (y) = -0.13209 0.54927
# Poissons Ratio (z) = 0.21958 0.33286
#
# Static dielectric constant tensor:
#      x y z
#    x 2.258300 0.000000 0.019420 
#    y 0.000000 2.113540 0.000000 
#    z 0.019420 0.000000 2.111070 
# 
# From -- ./inp_files/13382.got.cif
#   From: 2010.05.17/outbox.cif.g08.bks.cpg/sg3_7_cif.got.tgz:13382.got - 2010.06.03 18:33:08.
