data_PCOD9113413
_publ_section_title
;
Structure prediction by ZEFSAII (Michael W. Deem and Ramdas Pophale) SiO2 
 PCOD9113413
Probable space group: P 2
;
_chemical_formula_sum "Si O2"
_cell_formula_units_Z 14
_cell_length_a 9.841156
_cell_length_b 5.637577
_cell_length_c 27.753834
_cell_angle_alpha 90.000000
_cell_angle_beta 154.020528
_cell_angle_gamma 90.000000
_cell_volume 674.503767
_symmetry_space_group_name_H-M "P 2"
_symmetry_group_IT_number 3
_symmetry_cell_setting 'monoclinic'
loop_
_space_group_symop_operation_xyz
x,y,z
-x,y,-z
loop_
_atom_site_type_symbol
_atom_site_label
_atom_site_fract_x
_atom_site_fract_y
_atom_site_fract_z
Si Si1 0.876102 0.630060 0.824098
Si Si2 0.165640 0.565593 0.298348
Si Si3 0.624208 0.287513 0.165585
Si Si4 0.675662 0.292681 0.507166
Si Si5 0.942290 0.908913 0.650358
Si Si6 0.659828 0.535607 0.272280
Si Si7 0.230379 0.123961 0.953998
O O1 0.807700 0.670095 0.745967
O O2 0.569293 0.583834 0.757561
O O3 0.061570 0.377407 0.888419
O O4 0.039031 0.876396 0.892645
O O5 0.433633 0.365220 0.389155
O O6 0.810394 0.478047 0.192502
O O7 0.203450 0.742206 0.355479
O O8 0.506345 0.391831 0.178751
O O9 0.908193 0.122483 0.272421
O O10 0.379570 0.158527 0.054313
O O11 0.500000 0.376147 0.500000
O O12 0.013258 0.410761 0.608998
O O13 0.746013 0.021170 0.544014
O O14 0.225652 0.775582 0.715804
O O15 0.500000 0.095695 0.000000
#
# Coordination Sequence:
#
# PCOD9113413 Si02
#       7
#     2   2   2   2   2   2   2
#     4  12  29  47  72 105 154 186 236 305 366 428
#     4  11  23  42  71 107 138 189 239 300 359 434
#     4  10  22  42  71 101 136 183 247 293 349 429
#     4  11  21  39  72 101 133 182 242 287 353 426
#     4  10  21  40  71  99 137 179 240 295 349 429
#     4  10  25  44  66 106 144 181 235 301 363 432
#     4  12  26  48  75 103 139 196 248 295 358 430
#
# _framework density 20.756001999999999
#
# number of rings (size 3 to 8) (size 9 to 14) (size 15 to 20)
#    0.000    1.143    5.714    1.286   10.000    1.143 
#    0.000    0.000    3.143    0.000    0.000    0.000 
#    0.000    0.000    0.000    0.000    0.000    0.000 
#
# Total GULP energy -78024.886791 kJ/mol
# GULP energy per Si atom -5573.206199 kJ/mol
# Density = 2.070876 g / cm^3
# Si number density = 20.756002 Si / 1000 Ang^3
#
#
#
# Elastic Constant Matrix: (Units=GPa)
#
#
# Indices 1 2 3 4 5 6 
#
# 1 109.2373 32.6213 27.0628 0.0000 23.7767 0.0000
# 2 32.6213 95.3153 37.5036 0.0000 10.4009 0.0000
# 3 27.0628 37.5036 76.8646 -0.0002 1.8400 -0.0002
# 4 0.0000 0.0000 -0.0002 32.2449 0.0000 -22.9477
# 5 23.7767 10.4009 1.8400 0.0000 35.8449 0.0000
# 6 0.0000 0.0000 -0.0002 -22.9477 0.0000 -3.1955
#
#
#
# Elastic Compliance Matrix: (Units=1/GPa)
#
#
# Indices 1 2 3 4 5 6 
#
# 1 0.012136 -0.002163 -0.003044 0.000000 -0.007266 0.000000
# 2 -0.002163 0.013809 -0.005922 0.000000 -0.002268 0.000000
# 3 -0.003044 -0.005922 0.016902 0.000000 0.002870 0.000000
# 4 0.000000 0.000000 0.000000 0.005075 0.000000 -0.036446
# 5 -0.007266 -0.002268 0.002870 0.000000 0.033229 0.000000
# 6 0.000000 0.000000 0.000000 -0.036446 0.000000 -0.051212
#
#
# Mechanical properties :
#
#
# Convention : Reuss Voigt Hill
#
# Bulk Modulus (GPa) = 48.56634 52.86587 50.71611
# Shear Modulus (GPa) = 84.65980 25.26083 54.96032
#
# Velocity S-wave (km/s) = 6.39349 3.49239 5.15138
# Velocity P-wave (km/s) = 8.82903 6.46435 7.73756
#
# Compressibility (1/GPa) = 0.02059039
#
# Stress axis : x y z
#
# Youngs Moduli (GPa) = 82.40024 72.41438 59.16383
#
# Poissons Ratio (x) = 0.15664 0.18007
# Poissons Ratio (y) = 0.17823 0.35037
# Poissons Ratio (z) = 0.25079 0.42884
#
# Static dielectric constant tensor:
#      x y z
#    x 1.698030 0.000000 -0.013780 
#    y 0.000000 1.845730 0.000000 
#    z -0.013780 0.000000 1.793510 
# 
# From -- ./inp_files/9615.got.cif
#   From: 2010.05.17/outbox.cif.g08.bks.cpg/sg3_5_cif.got.tgz:9615.got - 2010.06.03 18:33:08.
