data_PCOD9113142
_publ_section_title
;
Structure prediction by ZEFSAII (Michael W. Deem and Ramdas Pophale) SiO2 
 PCOD9113142
Probable space group: P 2
;
_chemical_formula_sum "Si O2"
_cell_formula_units_Z 11
_cell_length_a 13.528595
_cell_length_b 4.943115
_cell_length_c 14.332552
_cell_angle_alpha 90.000000
_cell_angle_beta 148.534825
_cell_angle_gamma 90.000000
_cell_volume 500.300556
_symmetry_space_group_name_H-M "P 2"
_symmetry_group_IT_number 3
_symmetry_cell_setting 'monoclinic'
loop_
_space_group_symop_operation_xyz
x,y,z
-x,y,-z
loop_
_atom_site_type_symbol
_atom_site_label
_atom_site_fract_x
_atom_site_fract_y
_atom_site_fract_z
Si Si1 0.304114 0.782030 0.891877
Si Si2 0.000000 0.737544 0.500000
Si Si3 0.902019 0.976467 0.018436
Si Si4 0.470101 0.104920 0.196268
Si Si5 0.977490 0.476745 0.198577
Si Si6 0.711493 0.604445 0.411937
O O1 0.147764 0.883314 0.689995
O O2 0.183518 0.564780 0.855631
O O3 0.500000 0.684449 0.000000
O O4 0.378063 0.005630 0.024904
O O5 0.138917 0.556903 0.549764
O O6 0.678592 0.035243 0.842282
O O7 0.974140 0.172644 0.159286
O O8 0.000000 0.036506 0.000000
O O9 0.939686 0.671146 0.080395
O O10 0.651776 0.915551 0.357324
O O11 0.532827 0.413373 0.251743
O O12 0.179126 0.540541 0.405936
#
# Coordination Sequence:
#
# PCOD9113142 Si02
#       6
#     2   1   2   2   2   2
#     4  10  20  41  64  96 135 177 225 262 331 388
#     4  10  22  40  64  96 132 184 218 264 320 396
#     4  11  23  44  68  94 127 176 223 274 343 393
#     4  11  23  42  66  92 131 171 220 275 326 391
#     4  10  23  42  66  97 133 170 218 281 325 397
#     4  11  23  43  63  96 134 170 219 272 326 387
#
# _framework density 21.986784
#
# number of rings (size 3 to 8) (size 9 to 14) (size 15 to 20)
#    0.000    1.455    1.818    3.818    0.000    0.727 
#   16.364    5.455    0.000    0.000    0.000    0.000 
#    0.000    0.000    0.000    0.000    0.000    0.000 
#
# Total GULP energy -61452.688975 kJ/mol
# GULP energy per Si atom -5586.608089 kJ/mol
# Density = 2.193674 g / cm^3
# Si number density = 21.986784 Si / 1000 Ang^3
#
#
#
# Elastic Constant Matrix: (Units=GPa)
#
#
# Indices 1 2 3 4 5 6 
#
# 1 127.7496 -12.4616 21.8661 0.0000 6.4507 0.0000
# 2 -12.4616 33.6393 -6.1791 0.0000 3.3887 0.0000
# 3 21.8661 -6.1791 111.1090 0.0000 14.4478 0.0000
# 4 0.0000 0.0000 0.0000 22.1327 0.0000 10.0921
# 5 6.4507 3.3887 14.4478 0.0000 13.4883 0.0000
# 6 0.0000 0.0000 0.0000 10.0921 0.0000 11.6168
#
#
#
# Elastic Compliance Matrix: (Units=1/GPa)
#
#
# Indices 1 2 3 4 5 6 
#
# 1 0.008520 0.003364 -0.000987 0.000000 -0.003862 0.000000
# 2 0.003364 0.032793 0.002837 0.000000 -0.012887 0.000000
# 3 -0.000987 0.002837 0.010902 0.000000 -0.011918 0.000000
# 4 0.000000 0.000000 0.000000 0.074822 0.000000 -0.065001
# 5 -0.003862 -0.012887 -0.011918 0.000000 0.091989 0.000000
# 6 0.000000 0.000000 0.000000 -0.065001 0.000000 0.142552
#
#
# Mechanical properties :
#
#
# Convention : Reuss Voigt Hill
#
# Bulk Modulus (GPa) = 15.96364 30.99431 23.47897
# Shear Modulus (GPa) = 13.43974 27.39905 20.41940
#
# Velocity S-wave (km/s) = 2.47506 3.53393 3.05078
# Velocity P-wave (km/s) = 3.92991 5.54788 4.80745
#
# Compressibility (1/GPa) = 0.06264235
#
# Stress axis : x y z
#
# Youngs Moduli (GPa) = 117.37119 30.49460 91.72584
#
# Poissons Ratio (x) = -0.10258 0.09057
# Poissons Ratio (y) = -0.39482 -0.26026
# Poissons Ratio (z) = 0.11590 -0.08652
#
# Static dielectric constant tensor:
#      x y z
#    x 1.803530 0.000000 0.010170 
#    y 0.000000 1.783060 0.000000 
#    z 0.010170 0.000000 1.843000 
# 
# From -- ./inp_files/13850.got.cif
#   From: 2010.05.17/outbox.cif.g08.bks.cpg/sg3_7_cif.got.tgz:13850.got - 2010.06.03 18:33:08.
