data_PCOD9113070
_publ_section_title
;
Structure prediction by ZEFSAII (Michael W. Deem and Ramdas Pophale) SiO2 
 PCOD9113070
Probable space group: P 2
;
_chemical_formula_sum "Si O2"
_cell_formula_units_Z 16
_cell_length_a 15.329697
_cell_length_b 8.370526
_cell_length_c 5.521162
_cell_angle_alpha 90.000000
_cell_angle_beta 114.729652
_cell_angle_gamma 90.000000
_cell_volume 643.490595
_symmetry_space_group_name_H-M "P 2"
_symmetry_group_IT_number 3
_symmetry_cell_setting 'monoclinic'
loop_
_space_group_symop_operation_xyz
x,y,z
-x,y,-z
loop_
_atom_site_type_symbol
_atom_site_label
_atom_site_fract_x
_atom_site_fract_y
_atom_site_fract_z
Si Si1 0.891824 0.870440 0.384433
Si Si2 0.600888 0.183549 0.672665
Si Si3 0.260349 0.019370 0.496644
Si Si4 0.751857 0.728792 0.859410
Si Si5 0.095848 0.534338 0.442707
Si Si6 0.233261 0.402468 0.953196
Si Si7 0.902075 0.237290 0.912648
Si Si8 0.443493 0.834753 0.186351
O O1 0.899399 0.726144 0.591899
O O2 0.000000 0.939051 0.500000
O O3 0.800898 0.985082 0.333889
O O4 0.852357 0.784585 0.096492
O O5 0.500000 0.266199 0.500000
O O6 0.645464 0.120189 0.467075
O O7 0.579248 0.023150 0.800629
O O8 0.674852 0.292661 0.906755
O O9 0.181976 0.124237 0.267764
O O10 0.274512 0.847782 0.387624
O O11 0.659916 0.749302 0.931570
O O12 0.759501 0.539715 0.833297
O O13 0.200991 0.495880 0.679064
O O14 0.083395 0.395054 0.233499
O O15 0.000000 0.525517 0.500000
O O16 0.136927 0.298213 0.878918
O O17 0.000000 0.143913 0.000000
O O18 0.500000 0.786458 0.500000
O O19 0.500000 0.810051 0.000000
#
# Coordination Sequence:
#
# PCOD9113070 Si02
#       8
#     2   2   2   2   2   2   2   2
#     4  10  23  38  61  92 130 172 213 265 325 397
#     4   9  21  42  67  94 123 170 214 274 333 396
#     4  10  23  39  60  93 126 163 215 265 332 389
#     4  10  23  40  66  92 128 169 218 277 328 402
#     4  10  20  39  59  86 125 170 209 256 325 389
#     4  10  21  42  61  91 123 164 218 266 327 387
#     4  11  22  35  59  84 122 166 208 263 316 393
#     4  10  23  44  72  99 135 179 225 283 352 409
#
# _framework density 24.864386
#
# number of rings (size 3 to 8) (size 9 to 14) (size 15 to 20)
#    0.000    2.000    1.250    0.750    7.000    4.000 
#    4.500    0.625    0.000    0.000    0.000    0.000 
#    0.000    0.000    0.000    0.000    0.000    0.000 
#
# Total GULP energy -89205.548875 kJ/mol
# GULP energy per Si atom -5575.346805 kJ/mol
# Density = 2.480779 g / cm^3
# Si number density = 24.864386 Si / 1000 Ang^3
#
#
#
# Elastic Constant Matrix: (Units=GPa)
#
#
# Indices 1 2 3 4 5 6 
#
# 1 179.3167 26.0111 45.2879 0.0000 22.3486 0.0000
# 2 26.0111 49.9731 14.3921 0.0000 -3.3326 0.0000
# 3 45.2879 14.3921 72.8143 0.0000 11.0041 0.0000
# 4 0.0000 0.0000 0.0000 14.5163 0.0000 -0.4356
# 5 22.3486 -3.3326 11.0041 0.0000 47.2629 0.0000
# 6 0.0000 0.0000 0.0000 -0.4356 0.0000 35.3378
#
#
#
# Elastic Compliance Matrix: (Units=1/GPa)
#
#
# Indices 1 2 3 4 5 6 
#
# 1 0.007238 -0.002949 -0.003493 0.000000 -0.002817 0.000000
# 2 -0.002949 0.022724 -0.003224 0.000000 0.003747 0.000000
# 3 -0.003493 -0.003224 0.016923 0.000000 -0.002516 0.000000
# 4 0.000000 0.000000 0.000000 0.068914 0.000000 0.000849
# 5 -0.002817 0.003747 -0.002516 0.000000 0.023340 0.000000
# 6 0.000000 0.000000 0.000000 0.000849 0.000000 0.028309
#
#
# Mechanical properties :
#
#
# Convention : Reuss Voigt Hill
#
# Bulk Modulus (GPa) = 36.29257 52.60961 44.45109
# Shear Modulus (GPa) = 25.51486 33.85093 29.68289
#
# Velocity S-wave (km/s) = 3.20685 3.69375 3.45888
# Velocity P-wave (km/s) = 5.32351 6.27664 5.81962
#
# Compressibility (1/GPa) = 0.02755385
#
# Stress axis : x y z
#
# Youngs Moduli (GPa) = 138.16320 44.00608 59.08962
#
# Poissons Ratio (x) = 0.12978 0.20640
# Poissons Ratio (y) = 0.40747 0.19048
# Poissons Ratio (z) = 0.48260 0.14186
#
# Static dielectric constant tensor:
#      x y z
#    x 2.076710 0.000000 -0.106750 
#    y 0.000000 2.021800 0.000000 
#    z -0.106750 0.000000 2.190390 
# 
# From -- ./inp_files/3205.got.cif
#   From: 2010.05.17/outbox.cif.g08.bks.cpg/sg3_2_cif.got.tgz:3205.got - 2010.06.03 18:33:08.
