data_PCOD9113023
_publ_section_title
;
Structure prediction by ZEFSAII (Michael W. Deem and Ramdas Pophale) SiO2 
 PCOD9113023
Probable space group: P 2
;
_chemical_formula_sum "Si O2"
_cell_formula_units_Z 16
_cell_length_a 11.107525
_cell_length_b 7.833176
_cell_length_c 10.291921
_cell_angle_alpha 90.000000
_cell_angle_beta 58.404443
_cell_angle_gamma 90.000000
_cell_volume 762.733332
_symmetry_space_group_name_H-M "P 2"
_symmetry_group_IT_number 3
_symmetry_cell_setting 'monoclinic'
loop_
_space_group_symop_operation_xyz
x,y,z
-x,y,-z
loop_
_atom_site_type_symbol
_atom_site_label
_atom_site_fract_x
_atom_site_fract_y
_atom_site_fract_z
Si Si1 0.489732 0.572370 0.350642
Si Si2 0.906320 0.188493 0.232094
Si Si3 0.899293 0.811229 0.172709
Si Si4 0.224690 0.330122 0.451366
Si Si5 0.188311 0.346154 0.185416
Si Si6 0.001519 0.621280 0.364783
Si Si7 0.680467 0.278856 0.149616
Si Si8 0.426703 0.926894 0.681577
O O1 0.500000 0.587419 0.500000
O O2 0.359745 0.450712 0.389182
O O3 0.620645 0.459158 0.231034
O O4 0.488311 0.767973 0.302462
O O5 0.796421 0.201143 0.416264
O O6 0.824244 0.253581 0.151640
O O7 0.044823 0.287653 0.196130
O O8 0.955614 0.998275 0.176687
O O9 0.923741 0.701159 0.286542
O O10 0.733292 0.847666 0.239219
O O11 0.000000 0.744400 0.000000
O O12 0.215273 0.260284 0.310216
O O13 0.095646 0.461035 0.540713
O O14 0.154261 0.545754 0.236150
O O15 0.303128 0.299718 0.013657
O O16 0.000000 0.728549 0.500000
O O17 0.589535 0.109724 0.238382
O O18 0.500000 0.959185 0.500000
#
# Coordination Sequence:
#
# PCOD9113023 Si02
#       8
#     2   2   2   2   2   2   2   2
#     4  11  21  38  65  90 119 167 216 260 313 383
#     4  10  20  38  61  89 124 161 209 259 321 391
#     4  11  23  36  61  97 131 159 211 279 329 371
#     4  10  21  40  61  88 119 169 215 251 317 394
#     4  10  22  38  60  89 129 159 205 265 324 382
#     4   9  20  37  58  86 123 164 204 251 312 394
#     4  11  22  37  64  94 124 165 209 265 321 372
#     4  10  23  39  62  97 130 164 218 270 313 394
#
# _framework density 20.977186
#
# number of rings (size 3 to 8) (size 9 to 14) (size 15 to 20)
#    0.000    1.750    1.250    4.875    5.250    1.500 
#    0.000    0.000    0.000    1.500    0.000    0.000 
#    0.000    0.000    0.000    0.000    0.000    0.000 
#
# Total GULP energy -89157.575822 kJ/mol
# GULP energy per Si atom -5572.348489 kJ/mol
# Density = 2.092944 g / cm^3
# Si number density = 20.977186 Si / 1000 Ang^3
#
#
#
# Elastic Constant Matrix: (Units=GPa)
#
#
# Indices 1 2 3 4 5 6 
#
# 1 27.1722 -4.6701 12.1357 0.0000 8.5290 0.0000
# 2 -4.6701 68.5011 37.2409 0.0000 4.4244 0.0000
# 3 12.1357 37.2409 157.7608 0.0000 19.3057 0.0000
# 4 0.0000 0.0000 0.0000 14.4045 0.0000 -6.1058
# 5 8.5290 4.4244 19.3057 0.0000 29.1214 0.0000
# 6 0.0000 0.0000 0.0000 -6.1058 0.0000 -6.2860
#
#
#
# Elastic Compliance Matrix: (Units=1/GPa)
#
#
# Indices 1 2 3 4 5 6 
#
# 1 0.042658 0.005358 -0.003175 0.000000 -0.011202 0.000000
# 2 0.005358 0.017421 -0.004362 0.000000 -0.001324 0.000000
# 3 -0.003175 -0.004362 0.008073 0.000000 -0.003759 0.000000
# 4 0.000000 0.000000 0.000000 0.049175 0.000000 -0.047766
# 5 -0.011202 -0.001324 -0.003759 0.000000 0.040313 0.000000
# 6 0.000000 0.000000 0.000000 -0.047766 0.000000 -0.112687
#
#
# Mechanical properties :
#
#
# Convention : Reuss Voigt Hill
#
# Bulk Modulus (GPa) = 15.67603 38.09413 26.88508
# Shear Modulus (GPa) = 70.84538 21.36316 46.10427
#
# Velocity S-wave (km/s) = 5.81772 3.19470 4.69319
# Velocity P-wave (km/s) = 7.25376 5.63980 6.49709
#
# Compressibility (1/GPa) = 0.06379166
#
# Stress axis : x y z
#
# Youngs Moduli (GPa) = 23.44244 57.40264 123.87307
#
# Poissons Ratio (x) = -0.30757 0.39334
# Poissons Ratio (y) = -0.12561 0.54040
# Poissons Ratio (z) = 0.07444 0.25042
#
# Static dielectric constant tensor:
#      x y z
#    x 1.331520 0.000000 -0.154390 
#    y 0.000000 1.789270 0.000000 
#    z -0.154390 0.000000 1.883020 
# 
# From -- ./inp_files/7447.got.cif
#   From: 2010.05.17/outbox.cif.g08.bks.cpg/sg3_4_cif.got.tgz:7447.got - 2010.06.03 18:33:08.
