data_PCOD9113082
_publ_section_title
;
Structure prediction by ZEFSAII (Michael W. Deem and Ramdas Pophale) SiO2 
 PCOD9113082
Probable space group: P 2
;
_chemical_formula_sum "Si O2"
_cell_formula_units_Z 11
_cell_length_a 5.063929
_cell_length_b 11.040777
_cell_length_c 9.514659
_cell_angle_alpha 90.000000
_cell_angle_beta 86.677059
_cell_angle_gamma 90.000000
_cell_volume 531.067440
_symmetry_space_group_name_H-M "P 2"
_symmetry_group_IT_number 3
_symmetry_cell_setting 'monoclinic'
loop_
_space_group_symop_operation_xyz
x,y,z
-x,y,-z
loop_
_atom_site_type_symbol
_atom_site_label
_atom_site_fract_x
_atom_site_fract_y
_atom_site_fract_z
Si Si1 0.913589 0.155130 0.352259
Si Si2 0.741870 0.489221 0.603633
Si Si3 0.260673 0.765362 0.400071
Si Si4 0.444949 0.008674 0.273945
Si Si5 0.902219 0.332431 0.860338
Si Si6 0.500000 0.137691 0.000000
O O1 0.170970 0.079661 0.300240
O O2 0.875058 0.261661 0.239263
O O3 0.000000 0.206947 0.500000
O O4 0.667334 0.063942 0.370808
O O5 0.500000 0.471643 0.500000
O O6 0.763273 0.629019 0.655672
O O7 0.749695 0.407426 0.744056
O O8 0.000000 0.471390 0.500000
O O9 0.500000 0.757250 0.500000
O O10 0.000000 0.797410 0.500000
O O11 0.357049 0.870467 0.293231
O O12 0.575098 0.047279 0.122867
O O13 0.721507 0.227606 0.933673
O O14 0.000000 0.399523 0.000000
#
# Coordination Sequence:
#
# PCOD9113082 Si02
#       6
#     2   2   2   2   2   1
#     4  11  22  35  60  92 118 160 210 254 317 371
#     4  10  24  42  68  95 125 168 221 269 316 374
#     4  10  20  39  64  92 121 160 212 268 316 365
#     4  11  21  37  60  87 126 159 203 260 311 377
#     4  11  23  41  62  89 137 170 209 265 318 383
#     4  10  24  38  58  90 130 168 210 246 332 378
#
# _framework density 20.712999
#
# number of rings (size 3 to 8) (size 9 to 14) (size 15 to 20)
#    0.000    1.455    1.818    3.818    2.545    2.909 
#    0.000    0.909    4.000    0.000    0.000    0.000 
#    0.000    0.000    0.000    0.000    0.000    0.000 
#
# Total GULP energy -61302.087417 kJ/mol
# GULP energy per Si atom -5572.917038 kJ/mol
# Density = 2.066586 g / cm^3
# Si number density = 20.712999 Si / 1000 Ang^3
#
#
#
# Elastic Constant Matrix: (Units=GPa)
#
#
# Indices 1 2 3 4 5 6 
#
# 1 121.0693 29.3667 29.8385 0.0000 0.3773 0.0000
# 2 29.3667 131.8076 70.7227 0.0000 -2.8805 0.0000
# 3 29.8385 70.7227 151.8992 0.0000 8.2063 0.0000
# 4 0.0000 0.0000 0.0000 -0.0830 0.0000 -23.9111
# 5 0.3773 -2.8805 8.2063 0.0000 27.0152 0.0000
# 6 0.0000 0.0000 0.0000 -23.9111 0.0000 13.0482
#
#
#
# Elastic Compliance Matrix: (Units=1/GPa)
#
#
# Indices 1 2 3 4 5 6 
#
# 1 0.008866 -0.001383 -0.001101 0.000000 0.000063 0.000000
# 2 -0.001383 0.010505 -0.004759 0.000000 0.002585 0.000000
# 3 -0.001101 -0.004759 0.009193 0.000000 -0.003284 0.000000
# 4 0.000000 0.000000 0.000000 -0.022779 0.000000 -0.041743
# 5 0.000063 0.002585 -0.003284 0.000000 0.038289 0.000000
# 6 0.000000 0.000000 0.000000 -0.041743 0.000000 0.000145
#
#
# Mechanical properties :
#
#
# Convention : Reuss Voigt Hill
#
# Bulk Modulus (GPa) = 71.03478 73.84799 72.44139
# Shear Modulus (GPa) = 78.86676 26.31928 52.59302
#
# Velocity S-wave (km/s) = 6.17727 3.56851 5.04445
# Velocity P-wave (km/s) = 9.23295 7.26012 8.30532
#
# Compressibility (1/GPa) = 0.01407761
#
# Stress axis : x y z
#
# Youngs Moduli (GPa) = 112.78498 95.19324 108.78135
#
# Poissons Ratio (x) = 0.13168 0.11978
# Poissons Ratio (y) = 0.15601 0.51768
# Poissons Ratio (z) = 0.12418 0.45302
#
# Static dielectric constant tensor:
#      x y z
#    x 1.800160 0.000000 0.030500 
#    y 0.000000 1.837960 0.000000 
#    z 0.030500 0.000000 1.862250 
# 
# From -- ./inp_files/4266.got.cif
#   From: 2010.05.17/outbox.cif.g08.bks.cpg/sg3_3_cif.got.tgz:4266.got - 2010.06.03 18:33:08.
