data_PCOD9113290
_publ_section_title
;
Structure prediction by ZEFSAII (Michael W. Deem and Ramdas Pophale) SiO2 
 PCOD9113290
Probable space group: P 2
;
_chemical_formula_sum "Si O2"
_cell_formula_units_Z 13
_cell_length_a 18.183869
_cell_length_b 5.357318
_cell_length_c 5.140125
_cell_angle_alpha 90.000000
_cell_angle_beta 84.219662
_cell_angle_gamma 90.000000
_cell_volume 498.188299
_symmetry_space_group_name_H-M "P 2"
_symmetry_group_IT_number 3
_symmetry_cell_setting 'monoclinic'
loop_
_space_group_symop_operation_xyz
x,y,z
-x,y,-z
loop_
_atom_site_type_symbol
_atom_site_label
_atom_site_fract_x
_atom_site_fract_y
_atom_site_fract_z
Si Si1 0.620849 0.493330 0.652152
Si Si2 0.074474 0.453077 0.399692
Si Si3 0.241888 0.937239 0.968780
Si Si4 0.395274 0.010748 0.661130
Si Si5 0.922303 0.137029 0.100086
Si Si6 0.500000 0.740477 0.000000
Si Si7 0.232157 0.655576 0.472151
O O1 0.618225 0.759914 0.502986
O O2 0.568098 0.558137 0.908373
O O3 0.708378 0.457766 0.656069
O O4 0.591749 0.258707 0.506605
O O5 0.074173 0.219307 0.601357
O O6 0.148776 0.590036 0.441964
O O7 0.000000 0.596993 0.500000
O O8 0.073716 0.369868 0.102488
O O9 0.319664 0.058995 0.852835
O O10 0.241764 0.694380 0.776416
O O11 0.160378 0.039577 0.928187
O O12 0.245859 0.888323 0.274020
O O13 0.465158 0.926161 0.802939
O O14 0.000000 0.997471 0.000000
#
# Coordination Sequence:
#
# PCOD9113290 Si02
#       7
#     2   2   2   2   2   1   2
#     4  11  27  49  77 112 152 201 259 326 396 478
#     4  10  21  38  63  97 140 193 249 311 378 453
#     4  11  23  43  68 106 144 195 253 314 388 465
#     4  11  27  49  77 112 152 201 259 326 396 478
#     4  10  21  38  63  97 140 193 249 311 378 453
#     4  12  26  54  80 112 156 210 266 334 414 482
#     4  11  23  43  68 106 144 195 253 314 388 465
#
# _framework density 26.094550999999999
#
# number of rings (size 3 to 8) (size 9 to 14) (size 15 to 20)
#    0.000    1.231    1.538    3.231    0.000    8.615 
#    0.000    0.000    0.000    0.000    0.000    0.000 
#    0.000    0.000    0.000    0.000    0.000    0.000 
#
# Total GULP energy -72685.259403 kJ/mol
# GULP energy per Si atom -5591.173800 kJ/mol
# Density = 2.603516 g / cm^3
# Si number density = 26.094551 Si / 1000 Ang^3
#
#
#
# Elastic Constant Matrix: (Units=GPa)
#
#
# Indices 1 2 3 4 5 6 
#
# 1 153.2260 28.3660 13.4644 0.0000 -16.6455 0.0000
# 2 28.3660 100.7252 34.6583 0.0000 -7.4313 0.0000
# 3 13.4644 34.6583 68.7902 0.0000 1.5263 0.0000
# 4 0.0000 0.0000 0.0000 42.7629 0.0000 -7.1508
# 5 -16.6455 -7.4313 1.5263 0.0000 58.6634 0.0000
# 6 0.0000 0.0000 0.0000 -7.1508 0.0000 72.5569
#
#
#
# Elastic Compliance Matrix: (Units=1/GPa)
#
#
# Indices 1 2 3 4 5 6 
#
# 1 0.007082 -0.001657 -0.000592 0.000000 0.001815 0.000000
# 2 -0.001657 0.012566 -0.006035 0.000000 0.001279 0.000000
# 3 -0.000592 -0.006035 0.017724 0.000000 -0.001394 0.000000
# 4 0.000000 0.000000 0.000000 0.023777 0.000000 0.002343
# 5 0.001815 0.001279 -0.001394 0.000000 0.017760 0.000000
# 6 0.000000 0.000000 0.000000 0.002343 0.000000 0.014013
#
#
# Mechanical properties :
#
#
# Convention : Reuss Voigt Hill
#
# Bulk Modulus (GPa) = 48.06562 52.85766 50.46164
# Shear Modulus (GPa) = 42.94669 51.21348 47.08009
#
# Velocity S-wave (km/s) = 4.06126 4.43494 4.25221
# Velocity P-wave (km/s) = 6.36015 6.82093 6.59457
#
# Compressibility (1/GPa) = 0.02080489
#
# Stress axis : x y z
#
# Youngs Moduli (GPa) = 141.19862 79.58296 56.42002
#
# Poissons Ratio (x) = 0.13187 0.03338
# Poissons Ratio (y) = 0.23396 0.34049
# Poissons Ratio (z) = 0.08354 0.48027
#
# Static dielectric constant tensor:
#      x y z
#    x 2.061730 0.000000 -0.066470 
#    y 0.000000 2.096240 0.000000 
#    z -0.066470 0.000000 2.048340 
# 
# From -- ./inp_files/3429.got.cif
#   From: 2010.05.17/outbox.cif.g08.bks.cpg/sg3_2_cif.got.tgz:3429.got - 2010.06.03 18:33:08.
