data_PCOD9113970
_publ_section_title
;
Structure prediction by ZEFSAII (Michael W. Deem and Ramdas Pophale) SiO2 
 PCOD9113970
Probable space group: P 2
;
_chemical_formula_sum "Si O2"
_cell_formula_units_Z 9
_cell_length_a 12.752085
_cell_length_b 5.127555
_cell_length_c 5.618865
_cell_angle_alpha 90.000000
_cell_angle_beta 73.049928
_cell_angle_gamma 90.000000
_cell_volume 351.440625
_symmetry_space_group_name_H-M "P 2"
_symmetry_group_IT_number 3
_symmetry_cell_setting 'monoclinic'
loop_
_space_group_symop_operation_xyz
x,y,z
-x,y,-z
loop_
_atom_site_type_symbol
_atom_site_label
_atom_site_fract_x
_atom_site_fract_y
_atom_site_fract_z
Si Si1 0.393942 0.856560 0.406254
Si Si2 0.107336 0.082983 0.318077
Si Si3 0.000000 0.455458 0.000000
Si Si4 0.318182 0.343210 0.201608
Si Si5 0.220689 0.696503 0.890150
O O1 0.500000 0.877684 0.500000
O O2 0.380695 0.578820 0.286950
O O3 0.386414 0.084785 0.216275
O O4 0.292687 0.856122 0.658378
O O5 0.197156 0.267313 0.387214
O O6 0.000000 0.952191 0.500000
O O7 0.183003 0.871474 0.138398
O O8 0.048327 0.274746 0.172075
O O9 0.895378 0.621475 0.147114
O O10 0.288720 0.452174 0.956689
#
# Coordination Sequence:
#
# PCOD9113970 Si02
#       5
#     2   2   1   2   2
#     4  12  28  51  76 107 148 196 251 311 371 438
#     4  11  24  43  71 107 149 191 236 301 370 449
#     4  10  24  40  72 108 146 192 236 298 374 452
#     4  11  26  49  73 108 148 190 250 305 368 442
#     4  11  26  46  75 112 148 196 244 305 373 450
#
# _framework density 25.608875999999999
#
# number of rings (size 3 to 8) (size 9 to 14) (size 15 to 20)
#    0.000    0.889    2.222    2.667   12.444    4.444 
#    4.000    0.000    0.000    0.000    0.000    0.000 
#    0.000    0.000    0.000    0.000    0.000    0.000 
#
# Total GULP energy -50356.175120 kJ/mol
# GULP energy per Si atom -5595.130569 kJ/mol
# Density = 2.555059 g / cm^3
# Si number density = 25.608876 Si / 1000 Ang^3
#
#
#
# Elastic Constant Matrix: (Units=GPa)
#
#
# Indices 1 2 3 4 5 6 
#
# 1 168.5048 57.3782 23.3136 0.0000 33.5766 0.0000
# 2 57.3782 155.2495 25.4943 0.0000 15.6401 0.0000
# 3 23.3136 25.4943 51.1883 0.0000 -11.0944 0.0000
# 4 0.0000 0.0000 0.0000-3610.3424 0.0000 1633.4842
# 5 33.5766 15.6401 -11.0944 0.0000 47.1470 0.0000
# 6 0.0000 0.0000 0.0000 1633.4842 0.0000 -669.6485
#
#
#
# Elastic Compliance Matrix: (Units=1/GPa)
#
#
# Indices 1 2 3 4 5 6 
#
# 1 0.008415 -0.001746 -0.004359 0.000000 -0.006440 0.000000
# 2 -0.001746 0.007907 -0.003627 0.000000 -0.002233 0.000000
# 3 -0.004359 -0.003627 0.025565 0.000000 0.010323 0.000000
# 4 0.000000 0.000000 0.000000 0.002672 0.000000 0.006518
# 5 -0.006440 -0.002233 0.010323 0.000000 0.028967 0.000000
# 6 0.000000 0.000000 0.000000 0.006518 0.000000 0.014406
#
#
# Mechanical properties :
#
#
# Convention : Reuss Voigt Hill
#
# Bulk Modulus (GPa) = 44.59561 65.25721 54.92641
# Shear Modulus (GPa) = 43.52746 -828.65169 -392.56211
#
# Velocity S-wave (km/s) = 4.12722 -18.00784 -12.39452
# Velocity P-wave (km/s) = 6.33749 20.17025 13.54022
#
# Compressibility (1/GPa) = 0.02242373
#
# Stress axis : x y z
#
# Youngs Moduli (GPa) = 118.83204 126.47014 39.11609
#
# Poissons Ratio (x) = 0.22077 0.17051
# Poissons Ratio (y) = 0.20743 0.14188
# Poissons Ratio (z) = 0.51799 0.45872
#
# Static dielectric constant tensor:
#      x y z
#    x 5.010320 0.000000 -2.506560 
#    y 0.000000 2.052750 0.000000 
#    z -2.506560 0.000000 4.112320 
# 
# From -- ./inp_files/1796.got.cif
#   From: 2010.05.17/outbox.cif.g08.bks.cpg/sg3_1_cif.got.tgz:1796.got - 2010.06.03 18:33:08.
