data_PCOD9113276
_publ_section_title
;
Structure prediction by ZEFSAII (Michael W. Deem and Ramdas Pophale) SiO2 
 PCOD9113276
Probable space group: P 2
;
_chemical_formula_sum "Si O2"
_cell_formula_units_Z 12
_cell_length_a 7.224896
_cell_length_b 9.559533
_cell_length_c 8.002223
_cell_angle_alpha 90.000000
_cell_angle_beta 109.019672
_cell_angle_gamma 90.000000
_cell_volume 522.513626
_symmetry_space_group_name_H-M "P 2"
_symmetry_group_IT_number 3
_symmetry_cell_setting 'monoclinic'
loop_
_space_group_symop_operation_xyz
x,y,z
-x,y,-z
loop_
_atom_site_type_symbol
_atom_site_label
_atom_site_fract_x
_atom_site_fract_y
_atom_site_fract_z
Si Si1 0.675215 0.000000 0.683398
Si Si2 0.500000 0.487137 0.000000
Si Si3 0.161887 0.401122 0.411706
Si Si4 0.500000 0.617345 0.500000
Si Si5 0.597989 0.232172 0.260832
Si Si6 0.597405 0.746121 0.865725
Si Si7 0.973089 0.157109 0.184760
O O1 0.500000 0.969639 0.500000
O O2 0.582178 0.130472 0.758610
O O3 0.881852 0.052699 0.674698
O O4 0.720073 0.865147 0.810637
O O5 0.550125 0.379887 0.160521
O O6 0.341706 0.599021 0.026671
O O7 0.307507 0.524503 0.409062
O O8 0.296680 0.283138 0.540062
O O9 0.047784 0.316492 0.236162
O O10 0.000000 0.445808 0.500000
O O11 0.466490 0.696029 0.667458
O O12 0.756179 0.154127 0.192802
O O13 0.500000 0.817519 0.000000
O O14 0.000000 0.122395 0.000000
#
# Coordination Sequence:
#
# PCOD9113276 Si02
#       7
#     2   1   2   1   2   2   2
#     4  12  24  44  70  97 136 190 223 280 350 414
#     4  10  22  40  70 102 134 182 220 296 350 390
#     4  10  21  38  62 100 131 167 227 292 335 404
#     4  12  20  44  72  88 140 188 226 276 354 414
#     4  11  22  41  68  97 135 171 230 291 336 397
#     4  10  25  41  67 103 138 182 237 272 348 427
#     4  11  25  37  64 104 132 170 230 283 343 402
#
# _framework density 22.965910000000001
#
# number of rings (size 3 to 8) (size 9 to 14) (size 15 to 20)
#    0.500    0.667    4.167    2.000    5.833    0.000 
#    0.000    1.667    7.333    0.000    0.000    0.000 
#    0.000    0.000    0.000    0.000    0.000    0.000 
#
# Total GULP energy -66860.404841 kJ/mol
# GULP energy per Si atom -5571.700403 kJ/mol
# Density = 2.291364 g / cm^3
# Si number density = 22.965910 Si / 1000 Ang^3
#
#
#
# Elastic Constant Matrix: (Units=GPa)
#
#
# Indices 1 2 3 4 5 6 
#
# 1 97.3578 27.9383 -8.8387 0.0000 -9.7481 0.0000
# 2 27.9383 108.5803 7.7251 0.0000 -7.2347 0.0000
# 3 -8.8387 7.7251 75.3376 0.0000 -17.3364 0.0000
# 4 0.0000 0.0000 0.0000 37.9750 0.0000 -11.5880
# 5 -9.7481 -7.2347 -17.3364 0.0000 20.5529 0.0000
# 6 0.0000 0.0000 0.0000 -11.5880 0.0000 17.7035
#
#
#
# Elastic Compliance Matrix: (Units=1/GPa)
#
#
# Indices 1 2 3 4 5 6 
#
# 1 0.012186 -0.002870 0.003501 0.000000 0.007723 0.000000
# 2 -0.002870 0.010111 -0.001077 0.000000 0.001290 0.000000
# 3 0.003501 -0.001077 0.017483 0.000000 0.016029 0.000000
# 4 0.000000 0.000000 0.000000 0.032906 0.000000 0.021539
# 5 0.007723 0.001290 0.016029 0.000000 0.066292 0.000000
# 6 0.000000 0.000000 0.000000 0.021539 0.000000 0.070585
#
#
# Mechanical properties :
#
#
# Convention : Reuss Voigt Hill
#
# Bulk Modulus (GPa) = 25.71442 37.21391 31.46416
# Shear Modulus (GPa) = 22.37972 32.20966 27.29469
#
# Velocity S-wave (km/s) = 3.12505 3.74906 3.45118
# Velocity P-wave (km/s) = 4.92365 5.91437 5.44160
#
# Compressibility (1/GPa) = 0.03888869
#
# Stress axis : x y z
#
# Youngs Moduli (GPa) = 82.06067 98.90418 57.19776
#
# Poissons Ratio (x) = 0.28386 -0.20026
# Poissons Ratio (y) = 0.23552 0.06159
# Poissons Ratio (z) = -0.28730 0.10649
#
# Static dielectric constant tensor:
#      x y z
#    x 1.903180 0.000000 0.020090 
#    y 0.000000 1.877560 0.000000 
#    z 0.020090 0.000000 1.960840 
# 
# From -- ./inp_files/5188.got.cif
#   From: 2010.05.17/outbox.cif.g08.bks.cpg/sg3_3_cif.got.tgz:5188.got - 2010.06.03 18:33:08.
