data_PCOD9113457
_publ_section_title
;
Structure prediction by ZEFSAII (Michael W. Deem and Ramdas Pophale) SiO2 
 PCOD9113457
Probable space group: P 2
;
_chemical_formula_sum "Si O2"
_cell_formula_units_Z 11
_cell_length_a 11.837354
_cell_length_b 7.730862
_cell_length_c 4.809991
_cell_angle_alpha 90.000000
_cell_angle_beta 103.216793
_cell_angle_gamma 90.000000
_cell_volume 428.517043
_symmetry_space_group_name_H-M "P 2"
_symmetry_group_IT_number 3
_symmetry_cell_setting 'monoclinic'
loop_
_space_group_symop_operation_xyz
x,y,z
-x,y,-z
loop_
_atom_site_type_symbol
_atom_site_label
_atom_site_fract_x
_atom_site_fract_y
_atom_site_fract_z
Si Si1 0.755391 0.484500 0.818110
Si Si2 0.000000 0.995227 0.500000
Si Si3 0.844781 0.118852 0.935450
Si Si4 0.389117 0.410154 0.752968
Si Si5 0.626796 0.008521 0.155050
Si Si6 0.178294 0.810700 0.458035
O O1 0.822947 0.307218 0.799604
O O2 0.637073 0.477040 0.567521
O O3 0.819459 0.650608 0.738967
O O4 0.718791 0.476599 0.118976
O O5 0.907135 0.827717 0.333451
O O6 0.927074 0.130488 0.246728
O O7 0.884468 0.982961 0.717699
O O8 0.718085 0.047352 0.959177
O O9 0.389797 0.200620 0.728120
O O10 0.500000 0.457282 0.000000
O O11 0.694039 0.872558 0.383953
O O12 0.500000 0.945366 0.000000
#
# Coordination Sequence:
#
# PCOD9113457 Si02
#       6
#     2   1   2   2   2   2
#     4  11  24  41  71  99 139 175 229 283 340 406
#     4  10  24  46  72  90 136 182 234 292 356 396
#     4  10  22  45  66  97 133 178 228 285 340 411
#     4  10  21  42  66 101 142 188 223 273 333 411
#     4   9  20  39  68  98 141 183 220 269 339 407
#     4  11  23  43  68  97 135 175 229 287 339 412
#
# _framework density 25.669920000000001
#
# number of rings (size 3 to 8) (size 9 to 14) (size 15 to 20)
#    0.000    1.818    1.818    1.091    5.091    1.455 
#    3.273    5.455    0.000    0.000    0.000    0.000 
#    0.000    0.000    0.000    0.000    0.000    0.000 
#
# Total GULP energy -61370.888603 kJ/mol
# GULP energy per Si atom -5579.171691 kJ/mol
# Density = 2.561149 g / cm^3
# Si number density = 25.669920 Si / 1000 Ang^3
#
#
#
# Elastic Constant Matrix: (Units=GPa)
#
#
# Indices 1 2 3 4 5 6 
#
# 1 126.4329 40.7335 42.2985 0.0000 28.9036 0.0000
# 2 40.7335 143.1198 48.4881 0.0000 0.0448 0.0000
# 3 42.2985 48.4881 151.8250 0.0000 12.1860 0.0000
# 4 0.0000 0.0000 0.0000 35.0572 0.0000 -8.2447
# 5 28.9036 0.0448 12.1860 0.0000 51.9870 0.0000
# 6 0.0000 0.0000 0.0000 -8.2447 0.0000 18.7878
#
#
#
# Elastic Compliance Matrix: (Units=1/GPa)
#
#
# Indices 1 2 3 4 5 6 
#
# 1 0.010502 -0.002404 -0.001722 0.000000 -0.005433 0.000000
# 2 -0.002404 0.008403 -0.002161 0.000000 0.001836 0.000000
# 3 -0.001722 -0.002161 0.007827 0.000000 -0.000875 0.000000
# 4 0.000000 0.000000 0.000000 0.031807 0.000000 0.013958
# 5 -0.005433 0.001836 -0.000875 0.000000 0.022460 0.000000
# 6 0.000000 0.000000 0.000000 0.013958 0.000000 0.059351
#
#
# Mechanical properties :
#
#
# Convention : Reuss Voigt Hill
#
# Bulk Modulus (GPa) = 70.63467 76.04643 73.34055
# Shear Modulus (GPa) = 31.71703 40.49024 36.10363
#
# Velocity S-wave (km/s) = 3.51888 3.97588 3.75434
# Velocity P-wave (km/s) = 6.63975 7.12502 6.88666
#
# Compressibility (1/GPa) = 0.01415735
#
# Stress axis : x y z
#
# Youngs Moduli (GPa) = 95.22024 119.00556 127.76615
#
# Poissons Ratio (x) = 0.28607 0.22002
# Poissons Ratio (y) = 0.22890 0.27614
# Poissons Ratio (z) = 0.16398 0.25720
#
# Static dielectric constant tensor:
#      x y z
#    x 2.214670 0.000000 -0.010080 
#    y 0.000000 2.041780 0.000000 
#    z -0.010080 0.000000 2.143930 
# 
# From -- ./inp_files/2062.got.cif
#   From: 2010.05.17/outbox.cif.g08.bks.cpg/sg3_2_cif.got.tgz:2062.got - 2010.06.03 18:33:08.
