data_PCOD9113963
_publ_section_title
;
Structure prediction by ZEFSAII (Michael W. Deem and Ramdas Pophale) SiO2 
 PCOD9113963
Probable space group: P 2
;
_chemical_formula_sum "Si O2"
_cell_formula_units_Z 11
_cell_length_a 14.817161
_cell_length_b 5.904252
_cell_length_c 15.148483
_cell_angle_alpha 90.000000
_cell_angle_beta 160.620577
_cell_angle_gamma 90.000000
_cell_volume 439.748821
_symmetry_space_group_name_H-M "P 2"
_symmetry_group_IT_number 3
_symmetry_cell_setting 'monoclinic'
loop_
_space_group_symop_operation_xyz
x,y,z
-x,y,-z
loop_
_atom_site_type_symbol
_atom_site_label
_atom_site_fract_x
_atom_site_fract_y
_atom_site_fract_z
Si Si1 0.427202 0.345610 0.191549
Si Si2 0.559830 0.589640 0.150516
Si Si3 0.958614 0.975962 0.113605
Si Si4 0.492504 0.709338 0.589846
Si Si5 0.875660 0.971196 0.547587
Si Si6 0.000000 0.228007 0.500000
O O1 0.357807 0.468650 0.034336
O O2 0.556919 0.523214 0.380039
O O3 0.649283 0.150270 0.374175
O O4 0.165937 0.228311 0.996560
O O5 0.724239 0.764982 0.361888
O O6 0.752183 0.386474 0.296332
O O7 0.500000 0.700109 0.000000
O O8 0.265901 0.907637 0.374884
O O9 0.942047 0.904675 0.201287
O O10 0.768633 0.828959 0.875488
O O11 0.500000 0.602105 0.500000
O O12 0.055128 0.081237 0.636941
#
# Coordination Sequence:
#
# PCOD9113963 Si02
#       6
#     2   2   2   2   2   1
#     4  11  25  47  78 110 159 204 262 314 401 462
#     4  11  23  43  69 110 157 208 256 324 380 462
#     4  12  25  51  78 113 151 202 255 322 393 471
#     4  12  29  52  79 115 155 196 261 329 398 472
#     4  11  24  45  70 113 153 208 258 318 383 467
#     4  10  24  38  68 108 156 202 266 306 386 454
#
# _framework density 25.014279999999999
#
# number of rings (size 3 to 8) (size 9 to 14) (size 15 to 20)
#    0.000    0.727    3.636    2.182    2.545    9.455 
#    3.273    0.000    0.000    0.000    0.000    0.000 
#    0.000    0.000    0.000    0.000    0.000    0.000 
#
# Total GULP energy -61540.578126 kJ/mol
# GULP energy per Si atom -5594.598011 kJ/mol
# Density = 2.495735 g / cm^3
# Si number density = 25.014280 Si / 1000 Ang^3
#
#
#
# Elastic Constant Matrix: (Units=GPa)
#
#
# Indices 1 2 3 4 5 6 
#
# 1 135.7881 30.7316 30.4008 0.0000 -41.1306 0.0000
# 2 30.7316 59.5183 18.4462 0.0000 -5.0943 0.0000
# 3 30.4008 18.4462 107.8672 0.0000 -25.5787 0.0000
# 4 0.0000 0.0000 0.0000 75.8197 0.0000 14.9586
# 5 -41.1306 -5.0943 -25.5787 0.0000 51.1515 0.0000
# 6 0.0000 0.0000 0.0000 14.9586 0.0000 44.1480
#
#
#
# Elastic Compliance Matrix: (Units=1/GPa)
#
#
# Indices 1 2 3 4 5 6 
#
# 1 0.011036 -0.004894 -0.000323 0.000000 0.008225 0.000000
# 2 -0.004894 0.019916 -0.002824 0.000000 -0.003364 0.000000
# 3 -0.000323 -0.002824 0.011024 0.000000 0.004971 0.000000
# 4 0.000000 0.000000 0.000000 0.014134 0.000000 -0.004789
# 5 0.008225 -0.003364 0.004971 0.000000 0.028314 0.000000
# 6 0.000000 0.000000 0.000000 -0.004789 0.000000 0.024274
#
#
# Mechanical properties :
#
#
# Convention : Reuss Voigt Hill
#
# Bulk Modulus (GPa) = 38.62098 51.37007 44.99553
# Shear Modulus (GPa) = 37.47831 49.13017 43.30424
#
# Velocity S-wave (km/s) = 3.87496 4.43661 4.16526
# Velocity P-wave (km/s) = 5.95764 6.84292 6.41557
#
# Compressibility (1/GPa) = 0.02589266
#
# Stress axis : x y z
#
# Youngs Moduli (GPa) = 90.61519 50.21113 90.71510
#
# Poissons Ratio (x) = 0.24574 0.02930
# Poissons Ratio (y) = 0.44348 0.25620
# Poissons Ratio (z) = 0.02926 0.14181
#
# Static dielectric constant tensor:
#      x y z
#    x 2.008660 0.000000 0.011520 
#    y 0.000000 1.980760 0.000000 
#    z 0.011520 0.000000 1.999370 
# 
# From -- ./inp_files/2680.got.cif
#   From: 2010.05.17/outbox.cif.g08.bks.cpg/sg3_2_cif.got.tgz:2680.got - 2010.06.03 18:33:08.
