data_PCOD9113121
_publ_section_title
;
Structure prediction by ZEFSAII (Michael W. Deem and Ramdas Pophale) SiO2 
 PCOD9113121
Probable space group: P 2
;
_chemical_formula_sum "Si O2"
_cell_formula_units_Z 13
_cell_length_a 11.448075
_cell_length_b 9.213605
_cell_length_c 8.225704
_cell_angle_alpha 90.000000
_cell_angle_beta 39.684213
_cell_angle_gamma 90.000000
_cell_volume 554.030897
_symmetry_space_group_name_H-M "P 2"
_symmetry_group_IT_number 3
_symmetry_cell_setting 'monoclinic'
loop_
_space_group_symop_operation_xyz
x,y,z
-x,y,-z
loop_
_atom_site_type_symbol
_atom_site_label
_atom_site_fract_x
_atom_site_fract_y
_atom_site_fract_z
Si Si1 0.394271 0.108240 0.777892
Si Si2 0.186584 0.754407 0.397961
Si Si3 0.410139 0.471144 0.257162
Si Si4 0.670744 0.645566 0.210360
Si Si5 0.063796 0.914877 0.106376
Si Si6 0.210760 0.354165 0.771504
Si Si7 0.500000 0.974943 0.000000
O O1 0.500000 0.049184 0.500000
O O2 0.329392 0.265047 0.776535
O O3 0.502843 0.069783 0.828929
O O4 0.195636 0.038776 0.030181
O O5 0.269932 0.600544 0.359948
O O6 0.000000 0.728337 0.500000
O O7 0.118471 0.857929 0.615170
O O8 0.334374 0.859049 0.156724
O O9 0.575097 0.561259 0.164990
O O10 0.309569 0.360354 0.488647
O O11 0.500000 0.403126 0.000000
O O12 0.500000 0.697436 0.500000
O O13 0.779181 0.522051 0.189810
O O14 0.805325 0.775151 0.035880
O O15 0.000000 0.964149 0.000000
O O16 0.000000 0.307375 0.000000
#
# Coordination Sequence:
#
# PCOD9113121 Si02
#       7
#     2   2   2   2   2   2   1
#     4  12  26  49  75 107 153 211 264 316 394 473
#     4  12  23  43  73 118 157 194 259 333 400 463
#     4  11  22  41  75 110 157 203 253 334 401 461
#     4  10  20  40  67 106 149 195 255 317 391 460
#     4  12  22  38  71 112 151 190 256 324 393 458
#     4  11  25  48  72 106 155 209 271 317 384 480
#     4  12  26  50  78 110 158 208 260 330 392 472
#
# _framework density 23.464395
#
# number of rings (size 3 to 8) (size 9 to 14) (size 15 to 20)
#    0.000    0.615    2.308    8.308    0.000    0.000 
#    5.538    0.000    0.000    0.000    0.000    0.000 
#    0.000    0.000    0.000    0.000    0.000    0.000 
#
# Total GULP energy -72568.870994 kJ/mol
# GULP energy per Si atom -5582.220846 kJ/mol
# Density = 2.341099 g / cm^3
# Si number density = 23.464395 Si / 1000 Ang^3
#
#
#
# Elastic Constant Matrix: (Units=GPa)
#
#
# Indices 1 2 3 4 5 6 
#
# 1 136.0962 21.6699 41.4641 0.0000 -1.5954 0.0000
# 2 21.6699 111.5421 44.5364 0.0000 -0.9845 0.0000
# 3 41.4641 44.5364 106.4394 0.0000 1.0475 0.0000
# 4 0.0000 0.0000 0.0000 72.7125 0.0000 -24.0357
# 5 -1.5954 -0.9845 1.0475 0.0000 43.6777 0.0000
# 6 0.0000 0.0000 0.0000 -24.0357 0.0000 39.5261
#
#
#
# Elastic Compliance Matrix: (Units=1/GPa)
#
#
# Indices 1 2 3 4 5 6 
#
# 1 0.008357 -0.000383 -0.003099 0.000000 0.000371 0.000000
# 2 -0.000383 0.010786 -0.004367 0.000000 0.000334 0.000000
# 3 -0.003099 -0.004367 0.012435 0.000000 -0.000510 0.000000
# 4 0.000000 0.000000 0.000000 0.017213 0.000000 0.010467
# 5 0.000371 0.000334 -0.000510 0.000000 0.022928 0.000000
# 6 0.000000 0.000000 0.000000 0.010467 0.000000 0.031665
#
#
# Mechanical properties :
#
#
# Convention : Reuss Voigt Hill
#
# Bulk Modulus (GPa) = 62.97377 63.26871 63.12124
# Shear Modulus (GPa) = 40.20076 47.61042 43.90559
#
# Velocity S-wave (km/s) = 4.14365 4.50938 4.33038
# Velocity P-wave (km/s) = 7.05616 7.35765 7.20848
#
# Compressibility (1/GPa) = 0.01587963
#
# Stress axis : x y z
#
# Youngs Moduli (GPa) = 119.65667 92.70971 80.42040
#
# Poissons Ratio (x) = 0.03550 0.24923
# Poissons Ratio (y) = 0.04582 0.35122
# Poissons Ratio (z) = 0.37082 0.40489
#
# Static dielectric constant tensor:
#      x y z
#    x 1.924640 0.000000 0.143240 
#    y 0.000000 1.877670 0.000000 
#    z 0.143240 0.000000 1.702830 
# 
# From -- ./inp_files/7324.got.cif
#   From: 2010.05.17/outbox.cif.g08.bks.cpg/sg3_4_cif.got.tgz:7324.got - 2010.06.03 18:33:08.
