data_PCOD9113526
_publ_section_title
;
Structure prediction by ZEFSAII (Michael W. Deem and Ramdas Pophale) SiO2 
 PCOD9113526
Probable space group: P 2
;
_chemical_formula_sum "Si O2"
_cell_formula_units_Z 12
_cell_length_a 7.016089
_cell_length_b 6.939113
_cell_length_c 10.685510
_cell_angle_alpha 90.000000
_cell_angle_beta 62.273381
_cell_angle_gamma 90.000000
_cell_volume 460.494773
_symmetry_space_group_name_H-M "P 2"
_symmetry_group_IT_number 3
_symmetry_cell_setting 'monoclinic'
loop_
_space_group_symop_operation_xyz
x,y,z
-x,y,-z
loop_
_atom_site_type_symbol
_atom_site_label
_atom_site_fract_x
_atom_site_fract_y
_atom_site_fract_z
Si Si1 0.971401 0.642520 0.839587
Si Si2 0.823827 0.882145 0.658378
Si Si3 0.893694 0.221578 0.798083
Si Si4 0.390606 0.147580 0.661780
Si Si5 0.311075 0.947988 0.951943
Si Si6 0.475399 0.580542 0.655409
O O1 0.225959 0.602947 0.771761
O O2 0.854908 0.446159 0.831532
O O3 0.952474 0.789265 0.732306
O O4 0.825298 0.753189 0.986099
O O5 0.000000 0.907099 0.500000
O O6 0.775334 0.096620 0.727106
O O7 0.361330 0.011465 0.793627
O O8 0.643001 0.723673 0.674241
O O9 0.828265 0.121595 0.948060
O O10 0.147400 0.200404 0.697475
O O11 0.500000 0.067124 0.500000
O O12 0.509527 0.349733 0.657848
O O13 0.500000 0.927138 0.000000
O O14 0.500000 0.619852 0.500000
#
# Coordination Sequence:
#
# PCOD9113526 Si02
#       6
#     2   2   2   2   2   2
#     4  10  24  50  77 114 168 224 290 344 434 507
#     4  11  23  44  77 125 171 221 280 354 432 508
#     4  10  25  51  77 119 161 219 284 355 417 509
#     4  10  24  51  86 124 167 224 287 348 431 512
#     4  11  26  51  80 120 163 226 285 350 432 509
#     4  10  21  47  83 123 171 233 278 353 434 513
#
# _framework density 26.058927000000001
#
# number of rings (size 3 to 8) (size 9 to 14) (size 15 to 20)
#    0.000    1.667    1.667    0.500    2.333    4.000 
#   27.000    8.333    0.000    0.000    0.000    0.000 
#    0.000    0.000    0.000    0.000    0.000    0.000 
#
# Total GULP energy -67035.974882 kJ/mol
# GULP energy per Si atom -5586.331240 kJ/mol
# Density = 2.599962 g / cm^3
# Si number density = 26.058927 Si / 1000 Ang^3
#
#
#
# Elastic Constant Matrix: (Units=GPa)
#
#
# Indices 1 2 3 4 5 6 
#
# 1 118.9679 54.7588 47.8620 0.0000 8.7849 0.0000
# 2 54.7588 215.1334 73.1926 0.0000 20.0374 0.0000
# 3 47.8620 73.1926 193.0815 0.0000 44.5634 0.0000
# 4 0.0000 0.0000 0.0000 122.6413 0.0000 99.1421
# 5 8.7849 20.0374 44.5634 0.0000 43.8152 0.0000
# 6 0.0000 0.0000 0.0000 99.1421 0.0000 168.3056
#
#
#
# Elastic Compliance Matrix: (Units=1/GPa)
#
#
# Indices 1 2 3 4 5 6 
#
# 1 0.010030 -0.001974 -0.001937 0.000000 0.000862 0.000000
# 2 -0.001974 0.005734 -0.001529 0.000000 -0.000671 0.000000
# 3 -0.001937 -0.001529 0.007825 0.000000 -0.006871 0.000000
# 4 0.000000 0.000000 0.000000 0.015566 0.000000 -0.009170
# 5 0.000862 -0.000671 -0.006871 0.000000 0.029945 0.000000
# 6 0.000000 0.000000 0.000000 -0.009170 0.000000 0.011343
#
#
# Mechanical properties :
#
#
# Convention : Reuss Voigt Hill
#
# Bulk Modulus (GPa) = 78.69266 97.64550 88.16908
# Shear Modulus (GPa) = 52.32359 90.37705 71.35032
#
# Velocity S-wave (km/s) = 4.48582 5.89551 5.23830
# Velocity P-wave (km/s) = 7.55603 9.15943 8.39609
#
# Compressibility (1/GPa) = 0.01270766
#
# Stress axis : x y z
#
# Youngs Moduli (GPa) = 99.70189 174.41172 127.80048
#
# Poissons Ratio (x) = 0.34434 0.24752
# Poissons Ratio (y) = 0.19684 0.19543
# Poissons Ratio (z) = 0.19310 0.26671
#
# Static dielectric constant tensor:
#      x y z
#    x 2.032480 0.000000 0.052810 
#    y 0.000000 2.072590 0.000000 
#    z 0.052810 0.000000 2.056280 
# 
# From -- ./inp_files/15238.got.cif
#   From: 2010.05.17/outbox.cif.g08.bks.cpg/sg3_8_cif.got.tgz:15238.got - 2010.06.03 18:33:08.
