data_PCOD9113278
_publ_section_title
;
Structure prediction by ZEFSAII (Michael W. Deem and Ramdas Pophale) SiO2 
 PCOD9113278
Probable space group: P 2
;
_chemical_formula_sum "Si O2"
_cell_formula_units_Z 16
_cell_length_a 8.398561
_cell_length_b 21.993019
_cell_length_c 6.489402
_cell_angle_alpha 90.000000
_cell_angle_beta 139.805796
_cell_angle_gamma 90.000000
_cell_volume 773.588836
_symmetry_space_group_name_H-M "P 2"
_symmetry_group_IT_number 3
_symmetry_cell_setting 'monoclinic'
loop_
_space_group_symop_operation_xyz
x,y,z
-x,y,-z
loop_
_atom_site_type_symbol
_atom_site_label
_atom_site_fract_x
_atom_site_fract_y
_atom_site_fract_z
Si Si1 0.751339 0.159110 0.618390
Si Si2 0.748377 0.900433 0.376243
Si Si3 0.103955 0.412331 0.354056
Si Si4 0.748728 0.538610 0.623972
Si Si5 0.750953 0.779329 0.626710
Si Si6 0.253766 0.285696 0.623606
Si Si7 0.247452 0.026096 0.384468
Si Si8 0.749498 0.659789 0.371973
O O1 0.500000 0.157054 0.500000
O O2 0.737380 0.221223 0.480836
O O3 0.759318 0.092877 0.516729
O O4 0.000000 0.161781 0.000000
O O5 0.740577 0.848534 0.540994
O O6 0.000000 0.890100 0.500000
O O7 0.753194 0.968523 0.467946
O O8 0.500000 0.892617 0.000000
O O9 0.226335 0.478682 0.492793
O O10 0.242539 0.347692 0.480167
O O11 0.000000 0.407729 0.500000
O O12 0.000000 0.414661 0.000000
O O13 0.500000 0.526745 0.500000
O O14 0.726818 0.605981 0.512867
O O15 0.000000 0.540757 0.000000
O O16 0.500000 0.766057 0.500000
O O17 0.765692 0.728725 0.465650
O O18 0.000000 0.771324 0.000000
O O19 0.000000 0.282770 0.500000
O O20 0.500000 0.290585 0.000000
O O21 0.500000 0.022467 0.500000
O O22 0.000000 0.022059 0.000000
O O23 0.000000 0.646089 0.500000
O O24 0.500000 0.655300 0.000000
#
# Coordination Sequence:
#
# PCOD9113278 Si02
#       8
#     2   2   2   2   2   2   2   2
#     4  10  21  38  62  88 122 165 213 264 322 391
#     4  12  24  39  60  89 120 155 203 262 323 386
#     4  10  24  46  71 102 139 182 231 286 346 412
#     4  11  24  43  67  97 132 175 221 269 327 398
#     4  12  24  42  64  87 121 164 209 259 319 393
#     4  11  24  40  63  94 131 171 219 272 333 397
#     4  10  21  39  60  86 119 162 207 254 316 386
#     4  12  24  41  65  95 130 166 211 268 324 387
#
# _framework density 20.682822000000002
#
# number of rings (size 3 to 8) (size 9 to 14) (size 15 to 20)
#    0.000    1.000    0.000    6.750    0.000    8.000 
#    0.000    0.000    0.000    0.000    0.000    0.000 
#    0.000    0.000    0.000    0.000    0.000    0.000 
#
# Total GULP energy -89087.949016 kJ/mol
# GULP energy per Si atom -5567.996813 kJ/mol
# Density = 2.063575 g / cm^3
# Si number density = 20.682822 Si / 1000 Ang^3
#
#
#
# Elastic Constant Matrix: (Units=GPa)
#
#
# Indices 1 2 3 4 5 6 
#
# 1 85.0746 -2.6935 35.5866 0.0000 24.6023 0.0000
# 2 -2.6935 93.2306 6.9496 0.0000 -0.5827 0.0000
# 3 35.5866 6.9496 114.0267 0.0000 36.7399 0.0000
# 4 0.0000 0.0000 0.0000 121.5012 0.0000 -1.2704
# 5 24.6023 -0.5827 36.7399 0.0000 33.2316 0.0000
# 6 0.0000 0.0000 0.0000 -1.2704 0.0000 49.7999
#
#
#
# Elastic Compliance Matrix: (Units=1/GPa)
#
#
# Indices 1 2 3 4 5 6 
#
# 1 0.015198 0.000515 -0.001790 0.000000 -0.009264 0.000000
# 2 0.000515 0.010836 -0.001180 0.000000 0.001113 0.000000
# 3 -0.001790 -0.001180 0.013949 0.000000 -0.014117 0.000000
# 4 0.000000 0.000000 0.000000 0.008233 0.000000 0.000210
# 5 -0.009264 0.001113 -0.014117 0.000000 0.052577 0.000000
# 6 0.000000 0.000000 0.000000 0.000210 0.000000 0.020086
#
#
# Mechanical properties :
#
#
# Convention : Reuss Voigt Hill
#
# Bulk Modulus (GPa) = 28.51150 41.33526 34.92338
# Shear Modulus (GPa) = 36.36902 57.73917 47.05410
#
# Velocity S-wave (km/s) = 4.19790 5.28934 4.77490
# Velocity P-wave (km/s) = 6.10831 7.57176 6.87906
#
# Compressibility (1/GPa) = 0.03507357
#
# Stress axis : x y z
#
# Youngs Moduli (GPa) = 65.79666 92.28626 71.68994
#
# Poissons Ratio (x) = -0.04749 0.12830
# Poissons Ratio (y) = -0.03386 0.08457
# Poissons Ratio (z) = 0.11775 0.10887
#
# Static dielectric constant tensor:
#      x y z
#    x 1.747330 0.000000 -0.063340 
#    y 0.000000 1.718630 0.000000 
#    z -0.063340 0.000000 1.735820 
# 
# From -- ./inp_files/1769.got.cif
#   From: 2010.05.17/outbox.cif.g08.bks.cpg/sg3_1_cif.got.tgz:1769.got - 2010.06.03 18:33:08.
