data_PCOD9113130
_publ_section_title
;
Structure prediction by ZEFSAII (Michael W. Deem and Ramdas Pophale) SiO2 
 PCOD9113130
Probable space group: P 2
;
_chemical_formula_sum "Si O2"
_cell_formula_units_Z 10
_cell_length_a 7.842378
_cell_length_b 8.214650
_cell_length_c 13.805139
_cell_angle_alpha 90.000000
_cell_angle_beta 33.881303
_cell_angle_gamma 90.000000
_cell_volume 495.795308
_symmetry_space_group_name_H-M "P 2"
_symmetry_group_IT_number 3
_symmetry_cell_setting 'monoclinic'
loop_
_space_group_symop_operation_xyz
x,y,z
-x,y,-z
loop_
_atom_site_type_symbol
_atom_site_label
_atom_site_fract_x
_atom_site_fract_y
_atom_site_fract_z
Si Si1 0.000000 0.362190 0.500000
Si Si2 0.690425 0.046003 0.687408
Si Si3 0.000000 0.621242 0.000000
Si Si4 0.713638 0.065533 0.309675
Si Si5 0.314525 0.851003 0.003432
Si Si6 0.435733 0.445841 0.638078
O O1 0.765863 0.445203 0.536957
O O2 0.782780 0.234108 0.659644
O O3 0.566756 0.972099 0.842134
O O4 0.000000 0.967155 0.500000
O O5 0.441920 0.029524 0.720318
O O6 0.216684 0.732188 0.963965
O O7 0.203288 0.526122 0.824433
O O8 0.500000 0.014839 0.500000
O O9 0.704143 0.263724 0.315202
O O10 0.024730 0.963363 0.167839
O O11 0.500000 0.759999 0.000000
O O12 0.500000 0.517354 0.500000
#
# Coordination Sequence:
#
# PCOD9113130 Si02
#       6
#     1   2   1   2   2   2
#     4   8  20  40  66 100 124 164 224 280 338 374
#     4   9  18  37  64  97 126 157 214 284 331 371
#     4  12  28  46  60  98 148 184 214 262 340 426
#     4  10  20  40  70 100 127 165 231 289 327 377
#     4  12  25  42  64 100 134 178 226 273 337 397
#     4  10  24  44  69  97 133 178 224 275 335 399
#
# _framework density 20.169613999999999
#
# number of rings (size 3 to 8) (size 9 to 14) (size 15 to 20)
#    0.600    1.200    2.000    1.200    8.400    2.400 
#    5.400    1.000    0.000    0.000    0.000    0.000 
#    0.000    0.000    0.000    0.000    0.000    0.000 
#
# Total GULP energy -55677.190936 kJ/mol
# GULP energy per Si atom -5567.719094 kJ/mol
# Density = 2.012371 g / cm^3
# Si number density = 20.169614 Si / 1000 Ang^3
#
#
#
# Elastic Constant Matrix: (Units=GPa)
#
#
# Indices 1 2 3 4 5 6 
#
# 1 114.2293 36.0097 41.1806 0.0000 -3.5748 0.0000
# 2 36.0097 36.2191 35.2900 0.0000 6.3587 0.0000
# 3 41.1806 35.2900 133.5036 0.0000 9.2297 0.0000
# 4 0.0000 0.0000 0.0000 41.2699 0.0000 -1.2575
# 5 -3.5748 6.3587 9.2297 0.0000 31.4801 0.0000
# 6 0.0000 0.0000 0.0000 -1.2575 0.0000 9.5408
#
#
#
# Elastic Compliance Matrix: (Units=1/GPa)
#
#
# Indices 1 2 3 4 5 6 
#
# 1 0.013388 -0.013158 -0.000960 0.000000 0.004460 0.000000
# 2 -0.013158 0.050822 -0.008739 0.000000 -0.009198 0.000000
# 3 -0.000960 -0.008739 0.010189 0.000000 -0.001331 0.000000
# 4 0.000000 0.000000 0.000000 0.024328 0.000000 0.003207
# 5 0.004460 -0.009198 -0.001331 0.000000 0.034521 0.000000
# 6 0.000000 0.000000 0.000000 0.003207 0.000000 0.105235
#
#
# Mechanical properties :
#
#
# Convention : Reuss Voigt Hill
#
# Bulk Modulus (GPa) = 34.86324 56.54583 45.70453
# Shear Modulus (GPa) = 17.02078 27.88962 22.45520
#
# Velocity S-wave (km/s) = 2.90812 3.72257 3.34026
# Velocity P-wave (km/s) = 5.34778 6.82442 6.13072
#
# Compressibility (1/GPa) = 0.02868351
#
# Stress axis : x y z
#
# Youngs Moduli (GPa) = 74.69436 19.67657 98.14853
#
# Poissons Ratio (x) = 0.25891 0.09420
# Poissons Ratio (y) = 0.98285 0.85776
# Poissons Ratio (z) = 0.07169 0.17196
#
# Static dielectric constant tensor:
#      x y z
#    x 1.781030 0.000000 0.003790 
#    y 0.000000 1.740000 0.000000 
#    z 0.003790 0.000000 1.733140 
# 
# From -- ./inp_files/13447.got.cif
#   From: 2010.05.17/outbox.cif.g08.bks.cpg/sg3_7_cif.got.tgz:13447.got - 2010.06.03 18:33:08.
