data_PCOD9113060
_publ_section_title
;
Structure prediction by ZEFSAII (Michael W. Deem and Ramdas Pophale) SiO2 
 PCOD9113060
Probable space group: P 2
;
_chemical_formula_sum "Si O2"
_cell_formula_units_Z 11
_cell_length_a 8.138511
_cell_length_b 5.348832
_cell_length_c 10.909936
_cell_angle_alpha 90.000000
_cell_angle_beta 66.338013
_cell_angle_gamma 90.000000
_cell_volume 434.998697
_symmetry_space_group_name_H-M "P 2"
_symmetry_group_IT_number 3
_symmetry_cell_setting 'monoclinic'
loop_
_space_group_symop_operation_xyz
x,y,z
-x,y,-z
loop_
_atom_site_type_symbol
_atom_site_label
_atom_site_fract_x
_atom_site_fract_y
_atom_site_fract_z
Si Si1 0.817795 0.182890 0.480433
Si Si2 0.955673 0.399161 0.759411
Si Si3 0.545492 0.331302 0.843546
Si Si4 0.627403 0.834549 0.208779
Si Si5 0.000000 0.660182 0.000000
Si Si6 0.261185 0.682979 0.556179
O O1 0.895227 0.188211 0.316375
O O2 0.000000 0.219988 0.500000
O O3 0.688485 0.420225 0.520335
O O4 0.734749 0.918626 0.532535
O O5 0.761155 0.325773 0.771255
O O6 0.052065 0.624376 0.654858
O O7 0.949570 0.485142 0.900276
O O8 0.477414 0.605711 0.825323
O O9 0.454567 0.105294 0.795922
O O10 0.500000 0.290514 0.000000
O O11 0.641938 0.755151 0.347407
O O12 0.827930 0.819311 0.091423
#
# Coordination Sequence:
#
# PCOD9113060 Si02
#       6
#     2   2   2   2   1   2
#     4  10  20  38  66  93 116 154 211 267 302 352
#     4   9  23  37  63  90 125 159 204 252 305 369
#     4  12  24  37  58  89 131 165 202 248 318 360
#     4  11  24  38  59  87 127 166 203 252 298 377
#     4  10  20  44  60  92 124 172 210 246 300 376
#     4   9  21  38  62  87 117 158 205 252 304 363
#
# _framework density 25.287431000000002
#
# number of rings (size 3 to 8) (size 9 to 14) (size 15 to 20)
#    1.091    0.727    1.818    2.182    2.545    2.182 
#    0.000    0.000    0.000    6.545    0.000    0.000 
#    0.000    0.000    0.000    0.000    0.000    0.000 
#
# Total GULP energy -61544.161687 kJ/mol
# GULP energy per Si atom -5594.923790 kJ/mol
# Density = 2.522988 g / cm^3
# Si number density = 25.287431 Si / 1000 Ang^3
#
#
#
# Elastic Constant Matrix: (Units=GPa)
#
#
# Indices 1 2 3 4 5 6 
#
# 1 143.0527 50.6839 13.7841 0.0000 -7.0829 0.0000
# 2 50.6839 180.2673 8.9698 0.0000 18.6869 0.0000
# 3 13.7841 8.9698 80.4409 0.0000 7.0819 0.0000
# 4 0.0000 0.0000 0.0000 30.0687 0.0000 11.4664
# 5 -7.0829 18.6869 7.0819 0.0000 44.6621 0.0000
# 6 0.0000 0.0000 0.0000 11.4664 0.0000 49.7416
#
#
#
# Elastic Compliance Matrix: (Units=1/GPa)
#
#
# Indices 1 2 3 4 5 6 
#
# 1 0.008124 -0.002481 -0.001339 0.000000 0.002539 0.000000
# 2 -0.002481 0.006572 -0.000031 0.000000 -0.003138 0.000000
# 3 -0.001339 -0.000031 0.012862 0.000000 -0.002239 0.000000
# 4 0.000000 0.000000 0.000000 0.036462 0.000000 -0.008405
# 5 0.002539 -0.003138 -0.002239 0.000000 0.024461 0.000000
# 6 0.000000 0.000000 0.000000 -0.008405 0.000000 0.022041
#
#
# Mechanical properties :
#
#
# Convention : Reuss Voigt Hill
#
# Bulk Modulus (GPa) = 50.36518 61.18182 55.77350
# Shear Modulus (GPa) = 40.05043 46.91601 43.48322
#
# Velocity S-wave (km/s) = 3.98403 4.31200 4.15125
# Velocity P-wave (km/s) = 6.41277 7.00273 6.71423
#
# Compressibility (1/GPa) = 0.01985499
#
# Stress axis : x y z
#
# Youngs Moduli (GPa) = 123.09112 152.16876 77.75127
#
# Poissons Ratio (x) = 0.37748 0.10411
# Poissons Ratio (y) = 0.30535 0.00244
# Poissons Ratio (z) = 0.16482 0.00478
#
# Static dielectric constant tensor:
#      x y z
#    x 1.965940 0.000000 -0.028780 
#    y 0.000000 2.001440 0.000000 
#    z -0.028780 0.000000 2.063790 
# 
# From -- ./inp_files/10180.got.cif
#   From: 2010.05.17/outbox.cif.g08.bks.cpg/sg3_6_cif.got.tgz:10180.got - 2010.06.03 18:33:08.
