data_PCOD9113245
_publ_section_title
;
Structure prediction by ZEFSAII (Michael W. Deem and Ramdas Pophale) SiO2 
 PCOD9113245
Probable space group: P 2
;
_chemical_formula_sum "Si O2"
_cell_formula_units_Z 12
_cell_length_a 19.109739
_cell_length_b 6.330395
_cell_length_c 9.629791
_cell_angle_alpha 90.000000
_cell_angle_beta 29.194236
_cell_angle_gamma 90.000000
_cell_volume 568.223448
_symmetry_space_group_name_H-M "P 2"
_symmetry_group_IT_number 3
_symmetry_cell_setting 'monoclinic'
loop_
_space_group_symop_operation_xyz
x,y,z
-x,y,-z
loop_
_atom_site_type_symbol
_atom_site_label
_atom_site_fract_x
_atom_site_fract_y
_atom_site_fract_z
Si Si1 0.923423 0.196640 0.991114
Si Si2 0.664255 0.447145 0.353668
Si Si3 0.422559 0.409814 0.985879
Si Si4 0.113744 0.495906 0.469220
Si Si5 0.857034 0.815736 0.908240
Si Si6 0.274119 0.185108 0.019264
O O1 0.032165 0.330938 0.708561
O O2 0.881163 0.983848 0.987926
O O3 0.782515 0.341052 0.249391
O O4 0.000000 0.149246 0.000000
O O5 0.528641 0.500717 0.683811
O O6 0.651812 0.275893 0.249140
O O7 0.732874 0.653451 0.166160
O O8 0.727018 0.539639 0.744419
O O9 0.370018 0.197653 0.992811
O O10 0.500000 0.384197 0.000000
O O11 0.006190 0.689301 0.637003
O O12 0.155411 0.365609 0.258445
O O13 0.799577 0.962579 0.882794
#
# Coordination Sequence:
#
# PCOD9113245 Si02
#       6
#     2   2   2   2   2   2
#     4  10  21  37  60  97 133 176 226 279 335 395
#     4  10  21  40  68  90 134 174 227 281 332 400
#     4  10  21  42  68  97 139 183 213 273 350 403
#     4   9  22  39  66  97 132 173 222 287 332 392
#     4  10  22  41  68  97 130 177 235 278 335 397
#     4   9  22  41  67  98 129 177 227 280 335 398
#
# _framework density 21.118452999999999
#
# number of rings (size 3 to 8) (size 9 to 14) (size 15 to 20)
#    1.000    1.333    0.000    1.500    0.000   12.667 
#    0.000   10.000    3.667    8.000    0.000    0.000 
#    0.000    0.000    0.000    0.000    0.000    0.000 
#
# Total GULP energy -66883.161428 kJ/mol
# GULP energy per Si atom -5573.596786 kJ/mol
# Density = 2.107039 g / cm^3
# Si number density = 21.118453 Si / 1000 Ang^3
#
#
#
# Elastic Constant Matrix: (Units=GPa)
#
#
# Indices 1 2 3 4 5 6 
#
# 1 148.1697 47.7106 34.1837 0.0000 -3.3853 0.0000
# 2 47.7106 115.4173 42.8273 0.0000 -8.7223 0.0000
# 3 34.1837 42.8273 95.1250 0.0000 -16.2477 0.0000
# 4 0.0000 0.0000 0.0000 13.6584 0.0000 3.1596
# 5 -3.3853 -8.7223 -16.2477 0.0000 32.4021 0.0000
# 6 0.0000 0.0000 0.0000 3.1596 0.0000 12.6266
#
#
#
# Elastic Compliance Matrix: (Units=1/GPa)
#
#
# Indices 1 2 3 4 5 6 
#
# 1 0.008017 -0.002707 -0.001798 0.000000 -0.000792 0.000000
# 2 -0.002707 0.011323 -0.003995 0.000000 0.000762 0.000000
# 3 -0.001798 -0.003995 0.013935 0.000000 0.005724 0.000000
# 4 0.000000 0.000000 0.000000 0.077713 0.000000 -0.019446
# 5 -0.000792 0.000762 0.005724 0.000000 0.033855 0.000000
# 6 0.000000 0.000000 0.000000 -0.019446 0.000000 0.084064
#
#
# Mechanical properties :
#
#
# Convention : Reuss Voigt Hill
#
# Bulk Modulus (GPa) = 61.44017 67.57281 64.50649
# Shear Modulus (GPa) = 19.89402 27.33679 23.61540
#
# Velocity S-wave (km/s) = 3.07256 3.60175 3.34763
# Velocity P-wave (km/s) = 6.46095 7.02590 6.74934
#
# Compressibility (1/GPa) = 0.01627600
#
# Stress axis : x y z
#
# Youngs Moduli (GPa) = 124.73034 88.31423 71.76243
#
# Poissons Ratio (x) = 0.23906 0.12901
# Poissons Ratio (y) = 0.33764 0.28669
# Poissons Ratio (z) = 0.22423 0.35282
#
# Static dielectric constant tensor:
#      x y z
#    x 1.818290 0.000000 -0.030950 
#    y 0.000000 1.731610 0.000000 
#    z -0.030950 0.000000 1.832480 
# 
# From -- ./inp_files/8791.got.cif
#   From: 2010.05.17/outbox.cif.g08.bks.cpg/sg3_5_cif.got.tgz:8791.got - 2010.06.03 18:33:08.
