data_PCOD9113732
_publ_section_title
;
Structure prediction by ZEFSAII (Michael W. Deem and Ramdas Pophale) SiO2 
 PCOD9113732
Probable space group: P 2
;
_chemical_formula_sum "Si O2"
_cell_formula_units_Z 11
_cell_length_a 8.224485
_cell_length_b 5.314088
_cell_length_c 14.736324
_cell_angle_alpha 90.000000
_cell_angle_beta 137.215896
_cell_angle_gamma 90.000000
_cell_volume 437.470133
_symmetry_space_group_name_H-M "P 2"
_symmetry_group_IT_number 3
_symmetry_cell_setting 'monoclinic'
loop_
_space_group_symop_operation_xyz
x,y,z
-x,y,-z
loop_
_atom_site_type_symbol
_atom_site_label
_atom_site_fract_x
_atom_site_fract_y
_atom_site_fract_z
Si Si1 0.500000 0.283350 0.000000
Si Si2 0.516820 0.061153 0.359570
Si Si3 0.847995 0.602298 0.269235
Si Si4 0.747517 0.542083 0.707785
Si Si5 0.000000 0.268595 0.500000
Si Si6 0.426575 0.956092 0.127118
Si Si7 0.000000 0.587690 0.000000
O O1 0.670904 0.445979 0.131972
O O2 0.355235 0.107921 0.009467
O O3 0.393065 0.282423 0.365387
O O4 0.800731 0.101312 0.469314
O O5 0.429184 0.779814 0.346541
O O6 0.430182 0.111664 0.220534
O O7 0.886585 0.451585 0.377838
O O8 0.695884 0.853340 0.225047
O O9 0.089213 0.622066 0.310255
O O10 0.909127 0.489996 0.864278
O O11 0.233525 0.742126 0.064173
#
# Coordination Sequence:
#
# PCOD9113732 Si02
#       7
#     1   2   2   2   1   2   1
#     4  12  24  44  78 114 156 198 270 310 402 458
#     4  11  27  49  76 111 153 204 257 322 384 463
#     4  12  28  49  79 116 158 209 259 327 389 469
#     4  11  27  46  76 117 152 203 259 321 390 460
#     4  12  26  56  78 110 158 212 262 320 392 470
#     4  11  25  45  74 116 150 208 255 325 385 463
#     4  10  22  42  74 108 160 192 258 316 394 448
#
# _framework density 25.144577000000002
#
# number of rings (size 3 to 8) (size 9 to 14) (size 15 to 20)
#    0.000    0.727    1.818    4.909   10.182    4.364 
#    0.000    3.636    0.000    0.000    0.000    0.000 
#    0.000    0.000    0.000    0.000    0.000    0.000 
#
# Total GULP energy -61622.316564 kJ/mol
# GULP energy per Si atom -5602.028779 kJ/mol
# Density = 2.508735 g / cm^3
# Si number density = 25.144577 Si / 1000 Ang^3
#
#
#
# Elastic Constant Matrix: (Units=GPa)
#
#
# Indices 1 2 3 4 5 6 
#
# 1 124.1106 38.9332 28.3948 0.0000 9.5970 0.0000
# 2 38.9332 88.5916 31.3902 0.0000 4.4370 0.0000
# 3 28.3948 31.3902 133.1182 0.0000 -14.4207 0.0000
# 4 0.0000 0.0000 0.0000 29.7510 0.0000 -14.8217
# 5 9.5970 4.4370 -14.4207 0.0000 50.8808 0.0000
# 6 0.0000 0.0000 0.0000 -14.8217 0.0000 65.0434
#
#
#
# Elastic Compliance Matrix: (Units=1/GPa)
#
#
# Indices 1 2 3 4 5 6 
#
# 1 0.009674 -0.003657 -0.001407 0.000000 -0.001905 0.000000
# 2 -0.003657 0.013891 -0.002633 0.000000 -0.001268 0.000000
# 3 -0.001407 -0.002633 0.008756 0.000000 0.002977 0.000000
# 4 0.000000 0.000000 0.000000 0.037917 0.000000 0.008640
# 5 -0.001905 -0.001268 0.002977 0.000000 0.020967 0.000000
# 6 0.000000 0.000000 0.000000 0.008640 0.000000 0.017343
#
#
# Mechanical properties :
#
#
# Convention : Reuss Voigt Hill
#
# Bulk Modulus (GPa) = 59.08164 60.36184 59.72174
# Shear Modulus (GPa) = 38.58463 45.60853 42.09658
#
# Velocity S-wave (km/s) = 3.92153 4.26355 4.09612
# Velocity P-wave (km/s) = 6.63719 6.94948 6.79513
#
# Compressibility (1/GPa) = 0.01692573
#
# Stress axis : x y z
#
# Youngs Moduli (GPa) = 103.37107 71.98691 114.21207
#
# Poissons Ratio (x) = 0.26328 0.16074
# Poissons Ratio (y) = 0.37806 0.30071
# Poissons Ratio (z) = 0.14548 0.18954
#
# Static dielectric constant tensor:
#      x y z
#    x 1.960360 0.000000 0.013020 
#    y 0.000000 1.964930 0.000000 
#    z 0.013020 0.000000 1.969580 
# 
# From -- ./inp_files/8019.got.cif
#   From: 2010.05.17/outbox.cif.g08.bks.cpg/sg3_5_cif.got.tgz:8019.got - 2010.06.03 18:33:08.
