data_PCOD9113265
_publ_section_title
;
Structure prediction by ZEFSAII (Michael W. Deem and Ramdas Pophale) SiO2 
 PCOD9113265
Probable space group: P 2
;
_chemical_formula_sum "Si O2"
_cell_formula_units_Z 14
_cell_length_a 9.065734
_cell_length_b 17.009575
_cell_length_c 7.413834
_cell_angle_alpha 90.000000
_cell_angle_beta 145.760556
_cell_angle_gamma 90.000000
_cell_volume 643.249779
_symmetry_space_group_name_H-M "P 2"
_symmetry_group_IT_number 3
_symmetry_cell_setting 'monoclinic'
loop_
_space_group_symop_operation_xyz
x,y,z
-x,y,-z
loop_
_atom_site_type_symbol
_atom_site_label
_atom_site_fract_x
_atom_site_fract_y
_atom_site_fract_z
Si Si1 0.246962 0.630860 0.621117
Si Si2 0.027684 0.472069 0.308463
Si Si3 0.472806 0.388012 0.191945
Si Si4 0.619544 0.211973 0.920533
Si Si5 0.251345 0.954534 0.382924
Si Si6 0.122488 0.119532 0.321687
Si Si7 0.255663 0.782242 0.385387
O O1 0.157167 0.556841 0.408332
O O2 0.288204 0.709562 0.551125
O O3 0.000000 0.645307 0.500000
O O4 0.500000 0.610636 0.000000
O O5 0.234050 0.407236 0.450205
O O6 0.000000 0.467530 0.500000
O O7 0.735559 0.452458 0.951667
O O8 0.364002 0.301967 0.126711
O O9 0.500000 0.392101 0.000000
O O10 0.390982 0.167304 0.583919
O O11 0.500000 0.214309 0.000000
O O12 0.894373 0.166121 0.195823
O O13 0.500000 0.967677 0.500000
O O14 0.264668 0.868678 0.486939
O O15 0.201395 0.030630 0.456755
O O16 0.000000 0.947664 0.000000
O O17 0.000000 0.112667 0.000000
O O18 0.500000 0.782497 0.500000
O O19 0.000000 0.773300 0.000000
#
# Coordination Sequence:
#
# PCOD9113265 Si02
#       7
#     2   2   2   2   2   2   2
#     4  11  21  35  57  88 117 140 180 235 282 321
#     4   9  16  29  50  76 104 140 181 219 258 316
#     4   9  17  30  50  75 103 140 183 220 259 317
#     4  11  22  36  56  85 114 141 182 237 284 322
#     4   9  18  35  58  81 104 144 195 225 253 328
#     4  11  21  37  59  81 109 148 188 227 275 332
#     4  10  21  38  60  82 110 149 188 223 270 334
#
# _framework density 21.764485000000001
#
# number of rings (size 3 to 8) (size 9 to 14) (size 15 to 20)
#    0.000    2.000    0.000    6.429    0.000    2.286 
#    0.000    2.143    0.000    8.571    0.000    0.000 
#    0.000    0.000    0.000    0.000    0.000    0.000 
#
# Total GULP energy -78129.175245 kJ/mol
# GULP energy per Si atom -5580.655375 kJ/mol
# Density = 2.171495 g / cm^3
# Si number density = 21.764485 Si / 1000 Ang^3
#
#
#
# Elastic Constant Matrix: (Units=GPa)
#
#
# Indices 1 2 3 4 5 6 
#
# 1 34.4477 33.9927 18.3193 0.0000 14.4192 0.0000
# 2 33.9927 185.9946 38.1589 0.0000 24.2363 0.0000
# 3 18.3193 38.1589 106.7262 0.0000 36.7129 0.0000
# 4 0.0000 0.0000 0.0000 29.6844 0.0000 11.8382
# 5 14.4192 24.2363 36.7129 0.0000 35.1583 0.0000
# 6 0.0000 0.0000 0.0000 11.8382 0.0000 25.1160
#
#
#
# Elastic Compliance Matrix: (Units=1/GPa)
#
#
# Indices 1 2 3 4 5 6 
#
# 1 0.039863 -0.005599 -0.000850 0.000000 -0.011602 0.000000
# 2 -0.005599 0.006779 -0.001007 0.000000 -0.001325 0.000000
# 3 -0.000850 -0.001007 0.014852 0.000000 -0.014466 0.000000
# 4 0.000000 0.000000 0.000000 0.041486 0.000000 -0.019554
# 5 -0.011602 -0.001325 -0.014466 0.000000 0.049220 0.000000
# 6 0.000000 0.000000 0.000000 -0.019554 0.000000 0.049032
#
#
# Mechanical properties :
#
#
# Convention : Reuss Voigt Hill
#
# Bulk Modulus (GPa) = 21.46724 56.45672 38.96198
# Shear Modulus (GPa) = 21.58236 33.77157 27.67696
#
# Velocity S-wave (km/s) = 3.15244 3.94341 3.56990
# Velocity P-wave (km/s) = 4.80992 6.83595 5.91039
#
# Compressibility (1/GPa) = 0.04658260
#
# Stress axis : x y z
#
# Youngs Moduli (GPa) = 25.08594 147.51195 67.33213
#
# Poissons Ratio (x) = 0.82597 0.05720
# Poissons Ratio (y) = 0.14047 0.06778
# Poissons Ratio (z) = 0.02131 0.14850
#
# Static dielectric constant tensor:
#      x y z
#    x 1.822860 0.000000 -0.039590 
#    y 0.000000 1.869580 0.000000 
#    z -0.039590 0.000000 1.772750 
# 
# From -- ./inp_files/6253.got.cif
#   From: 2010.05.17/outbox.cif.g08.bks.cpg/sg3_4_cif.got.tgz:6253.got - 2010.06.03 18:33:08.
