data_PCOD9113856
_publ_section_title
;
Structure prediction by ZEFSAII (Michael W. Deem and Ramdas Pophale) SiO2 
 PCOD9113856
Probable space group: P 2
;
_chemical_formula_sum "Si O2"
_cell_formula_units_Z 13
_cell_length_a 8.108226
_cell_length_b 7.161450
_cell_length_c 12.490976
_cell_angle_alpha 90.000000
_cell_angle_beta 123.410876
_cell_angle_gamma 90.000000
_cell_volume 605.447031
_symmetry_space_group_name_H-M "P 2"
_symmetry_group_IT_number 3
_symmetry_cell_setting 'monoclinic'
loop_
_space_group_symop_operation_xyz
x,y,z
-x,y,-z
loop_
_atom_site_type_symbol
_atom_site_label
_atom_site_fract_x
_atom_site_fract_y
_atom_site_fract_z
Si Si1 0.394068 0.234340 0.700147
Si Si2 0.745864 0.912768 0.191843
Si Si3 0.457420 0.901765 0.338355
Si Si4 0.787242 0.856296 0.965000
Si Si5 0.000000 0.445024 0.500000
Si Si6 0.462780 0.542978 0.100267
Si Si7 0.164022 0.769893 0.418129
O O1 0.186070 0.317671 0.591674
O O2 0.513212 0.405041 0.793324
O O3 0.347556 0.082672 0.775988
O O4 0.506550 0.125250 0.645096
O O5 0.744795 0.952049 0.063689
O O6 0.621615 0.716947 0.159280
O O7 0.969134 0.886168 0.315810
O O8 0.314370 0.800359 0.372187
O O9 0.682752 0.826822 0.431664
O O10 0.348768 0.879604 0.187236
O O11 0.751911 0.638020 0.978215
O O12 0.000000 0.907357 0.000000
O O13 0.070183 0.576688 0.426318
O O14 0.500000 0.445932 0.000000
#
# Coordination Sequence:
#
# PCOD9113856 Si02
#       7
#     2   2   2   2   1   2   2
#     4  12  24  42  72 109 135 182 243 300 344 435
#     4  11  22  43  73  99 143 186 239 286 364 425
#     4  11  24  42  71 101 147 185 235 288 373 417
#     4  11  22  44  70  97 140 194 224 287 364 431
#     4  12  24  44  76 108 140 186 254 296 362 426
#     4  10  23  40  67 102 137 182 234 291 350 423
#     4  11  23  46  71 102 142 196 227 298 361 438
#
# _framework density 21.471737999999998
#
# number of rings (size 3 to 8) (size 9 to 14) (size 15 to 20)
#    0.000    0.923    4.615    2.769    2.154    0.000 
#    0.000   14.615    0.000    0.000    0.000    0.000 
#    0.000    0.000    0.000    0.000    0.000    0.000 
#
# Total GULP energy -72412.255987 kJ/mol
# GULP energy per Si atom -5570.173537 kJ/mol
# Density = 2.142287 g / cm^3
# Si number density = 21.471738 Si / 1000 Ang^3
#
#
#
# Elastic Constant Matrix: (Units=GPa)
#
#
# Indices 1 2 3 4 5 6 
#
# 1 104.7302 26.2147 28.4467 0.0000 -13.2099 0.0000
# 2 26.2147 56.7572 2.3685 0.0000 -20.9476 0.0000
# 3 28.4467 2.3685 110.1519 0.0000 -13.0797 0.0000
# 4 0.0000 0.0000 0.0000 17.0790 0.0000 -0.7613
# 5 -13.2099 -20.9476 -13.0797 0.0000 22.6454 0.0000
# 6 0.0000 0.0000 0.0000 -0.7613 0.0000 8.6525
#
#
#
# Elastic Compliance Matrix: (Units=1/GPa)
#
#
# Indices 1 2 3 4 5 6 
#
# 1 0.011654 -0.005105 -0.002849 0.000000 0.000431 0.000000
# 2 -0.005105 0.029666 0.003849 0.000000 0.026687 0.000000
# 3 -0.002849 0.003849 0.010690 0.000000 0.008073 0.000000
# 4 0.000000 0.000000 0.000000 0.058782 0.000000 0.005172
# 5 0.000431 0.026687 0.008073 0.000000 0.073759 0.000000
# 6 0.000000 0.000000 0.000000 0.005172 0.000000 0.116029
#
#
# Mechanical properties :
#
#
# Convention : Reuss Voigt Hill
#
# Bulk Modulus (GPa) = 22.83058 42.85544 32.84301
# Shear Modulus (GPa) = 15.46124 23.98266 19.72195
#
# Velocity S-wave (km/s) = 2.68633 3.34569 3.03398
# Velocity P-wave (km/s) = 4.50308 5.90992 5.25381
#
# Compressibility (1/GPa) = 0.04380091
#
# Stress axis : x y z
#
# Youngs Moduli (GPa) = 85.80554 33.70918 93.54581
#
# Poissons Ratio (x) = 0.17208 0.26649
# Poissons Ratio (y) = 0.43803 -0.36009
# Poissons Ratio (z) = 0.24444 -0.12976
#
# Static dielectric constant tensor:
#      x y z
#    x 1.860200 0.000000 -0.054760 
#    y 0.000000 1.806480 0.000000 
#    z -0.054760 0.000000 1.906850 
# 
# From -- ./inp_files/13383.got.cif
#   From: 2010.05.17/outbox.cif.g08.bks.cpg/sg3_7_cif.got.tgz:13383.got - 2010.06.03 18:33:08.
