data_PCOD9113709
_publ_section_title
;
Structure prediction by ZEFSAII (Michael W. Deem and Ramdas Pophale) SiO2 
 PCOD9113709
Probable space group: P 2
;
_chemical_formula_sum "Si O2"
_cell_formula_units_Z 13
_cell_length_a 5.297645
_cell_length_b 18.011013
_cell_length_c 5.241812
_cell_angle_alpha 90.000000
_cell_angle_beta 86.536611
_cell_angle_gamma 90.000000
_cell_volume 499.239011
_symmetry_space_group_name_H-M "P 2"
_symmetry_group_IT_number 3
_symmetry_cell_setting 'monoclinic'
loop_
_space_group_symop_operation_xyz
x,y,z
-x,y,-z
loop_
_atom_site_type_symbol
_atom_site_label
_atom_site_fract_x
_atom_site_fract_y
_atom_site_fract_z
Si Si1 0.159764 0.887160 0.228941
Si Si2 0.261103 0.419267 0.329641
Si Si3 0.648020 0.042026 0.739401
Si Si4 0.836010 0.578955 0.769325
Si Si5 0.333183 0.251740 0.247652
Si Si6 0.728515 0.733787 0.659099
Si Si7 0.000000 0.139215 0.000000
O O1 0.241554 0.803182 0.155049
O O2 0.000000 0.882280 0.500000
O O3 0.356048 0.952871 0.264566
O O4 0.000000 0.913629 0.000000
O O5 0.500000 0.425985 0.500000
O O6 0.261516 0.495915 0.172844
O O7 0.278978 0.338845 0.202847
O O8 0.000000 0.416462 0.500000
O O9 0.500000 0.070270 0.500000
O O10 0.922258 0.074480 0.789695
O O11 0.500000 0.068448 0.000000
O O12 0.657626 0.650126 0.745207
O O13 0.000000 0.572003 0.500000
O O14 0.000000 0.601479 0.000000
O O15 0.500000 0.245544 0.500000
O O16 0.500000 0.224477 0.000000
O O17 0.083236 0.203824 0.208806
O O18 0.500000 0.760355 0.500000
O O19 0.000000 0.725993 0.500000
#
# Coordination Sequence:
#
# PCOD9113709 Si02
#       7
#     2   2   2   2   2   2   1
#     4  11  23  45  72 103 140 188 236 293 360 432
#     4  10  24  46  74 106 146 191 241 297 360 433
#     4  12  27  47  73 107 140 187 243 298 365 440
#     4  10  22  42  69 103 143 189 239 295 354 424
#     4  11  28  48  74 106 142 189 244 297 370 443
#     4  10  22  43  69 104 144 190 240 297 355 425
#     4  12  28  48  78 100 148 184 236 312 364 448
#
# _framework density 26.039632000000001
#
# number of rings (size 3 to 8) (size 9 to 14) (size 15 to 20)
#    0.000    1.231    0.769    3.231    5.385    4.923 
#    0.000   15.385    0.000    0.000    0.000    0.000 
#    0.000    0.000    0.000    0.000    0.000    0.000 
#
# Total GULP energy -72410.969292 kJ/mol
# GULP energy per Si atom -5570.074561 kJ/mol
# Density = 2.598036 g / cm^3
# Si number density = 26.039632 Si / 1000 Ang^3
#
#
#
# Elastic Constant Matrix: (Units=GPa)
#
#
# Indices 1 2 3 4 5 6 
#
# 1 89.6655 -9.2497 39.4517 0.0000 7.7115 0.0000
# 2 -9.2497 241.1218 9.5167 0.0000 15.3694 0.0000
# 3 39.4517 9.5167 168.9029 0.0000 26.1838 0.0000
# 4 0.0000 0.0000 0.0000 36.0252 0.0000 33.1715
# 5 7.7115 15.3694 26.1838 0.0000 63.1626 0.0000
# 6 0.0000 0.0000 0.0000 33.1715 0.0000 60.7561
#
#
#
# Elastic Compliance Matrix: (Units=1/GPa)
#
#
# Indices 1 2 3 4 5 6 
#
# 1 0.012529 0.000625 -0.002886 0.000000 -0.000485 0.000000
# 2 0.000625 0.004245 -0.000228 0.000000 -0.001015 0.000000
# 3 -0.002886 -0.000228 0.006994 0.000000 -0.002491 0.000000
# 4 0.000000 0.000000 0.000000 0.055822 0.000000 -0.030477
# 5 -0.000485 -0.001015 -0.002491 0.000000 0.017171 0.000000
# 6 0.000000 0.000000 0.000000 -0.030477 0.000000 0.033099
#
#
# Mechanical properties :
#
#
# Convention : Reuss Voigt Hill
#
# Bulk Modulus (GPa) = 53.22054 64.34752 58.78403
# Shear Modulus (GPa) = 35.43571 62.65354 49.04462
#
# Velocity S-wave (km/s) = 3.69296 4.91051 4.34459
# Velocity P-wave (km/s) = 6.21824 7.54426 6.91312
#
# Compressibility (1/GPa) = 0.01878974
#
# Stress axis : x y z
#
# Youngs Moduli (GPa) = 79.81602 235.57368 142.98315
#
# Poissons Ratio (x) = -0.14734 0.41271
# Poissons Ratio (y) = -0.04992 0.03259
# Poissons Ratio (z) = 0.23038 0.05370
#
# Static dielectric constant tensor:
#      x y z
#    x 2.260210 0.000000 -0.093930 
#    y 0.000000 2.057740 0.000000 
#    z -0.093930 0.000000 1.924850 
# 
# From -- ./inp_files/626.got.cif
#   From: 2010.05.17/outbox.cif.g08.bks.cpg/sg3_1_cif.got.tgz:626.got - 2010.06.03 18:33:08.
