data_PCOD9113225
_publ_section_title
;
Structure prediction by ZEFSAII (Michael W. Deem and Ramdas Pophale) SiO2 
 PCOD9113225
Probable space group: P 2
;
_chemical_formula_sum "Si O2"
_cell_formula_units_Z 16
_cell_length_a 12.751188
_cell_length_b 12.610593
_cell_length_c 5.076485
_cell_angle_alpha 90.000000
_cell_angle_beta 102.130932
_cell_angle_gamma 90.000000
_cell_volume 798.070987
_symmetry_space_group_name_H-M "P 2"
_symmetry_group_IT_number 3
_symmetry_cell_setting 'monoclinic'
loop_
_space_group_symop_operation_xyz
x,y,z
-x,y,-z
loop_
_atom_site_type_symbol
_atom_site_label
_atom_site_fract_x
_atom_site_fract_y
_atom_site_fract_z
Si Si1 0.807100 0.383960 0.367793
Si Si2 0.428154 0.635606 0.705768
Si Si3 0.871934 0.511277 0.919496
Si Si4 0.198755 0.717600 0.771874
Si Si5 0.114593 0.823808 0.192041
Si Si6 0.569858 0.382182 0.297806
Si Si7 0.881732 0.166961 0.233924
Si Si8 0.878176 0.074155 0.719996
O O1 0.840796 0.471995 0.606133
O O2 0.689615 0.339207 0.360625
O O3 0.883285 0.283403 0.359265
O O4 0.806907 0.435045 0.078841
O O5 0.500000 0.675671 0.500000
O O6 0.312488 0.685139 0.706307
O O7 0.411896 0.509472 0.655583
O O8 0.500000 0.648841 0.000000
O O9 0.846004 0.622201 0.059042
O O10 0.000000 0.496975 0.000000
O O11 0.133221 0.759556 0.477655
O O12 0.200796 0.805100 0.003544
O O13 0.113707 0.949526 0.236008
O O14 0.000000 0.794550 0.000000
O O15 0.500000 0.341524 0.500000
O O16 0.500000 0.368255 0.000000
O O17 0.822535 0.094533 0.414122
O O18 0.000752 0.119573 0.253067
O O19 0.829840 0.147252 0.923332
#
# Coordination Sequence:
#
# PCOD9113225 Si02
#       8
#     2   2   2   2   2   2   2   2
#     4  12  24  40  65  92 128 175 215 254 320 390
#     4  10  21  39  63  88 121 163 214 274 314 362
#     4  12  27  41  54  89 141 176 208 243 303 399
#     4  12  25  41  62  94 127 177 218 253 327 390
#     4  12  24  40  65  91 131 174 216 265 318 383
#     4  10  21  38  64  88 120 162 213 269 312 359
#     4  10  21  36  61  88 122 161 207 268 315 370
#     4  10  21  39  60  90 124 158 220 273 310 365
#
# _framework density 20.048342999999999
#
# number of rings (size 3 to 8) (size 9 to 14) (size 15 to 20)
#    0.000    1.000    2.500    4.875   10.500    1.000 
#    0.000    0.000    0.000    0.000    0.000   17.500 
#    0.000    0.000    0.000    0.000    0.000    0.000 
#
# Total GULP energy -89080.202475 kJ/mol
# GULP energy per Si atom -5567.512655 kJ/mol
# Density = 2.000271 g / cm^3
# Si number density = 20.048343 Si / 1000 Ang^3
#
#
#
# Elastic Constant Matrix: (Units=GPa)
#
#
# Indices 1 2 3 4 5 6 
#
# 1 63.6084 8.8160 24.7619 0.0000 -11.1332 0.0000
# 2 8.8160 77.7482 38.1655 0.0000 -3.9853 0.0000
# 3 24.7619 38.1655 110.1946 0.0000 -34.1198 0.0000
# 4 0.0000 0.0000 0.0000 16.3106 0.0000 -13.9352
# 5 -11.1332 -3.9853 -34.1198 0.0000 34.0129 0.0000
# 6 0.0000 0.0000 0.0000 -13.9352 0.0000 15.9240
#
#
#
# Elastic Compliance Matrix: (Units=1/GPa)
#
#
# Indices 1 2 3 4 5 6 
#
# 1 0.017391 -0.000393 -0.002935 0.000000 0.002702 0.000000
# 2 -0.000393 0.016160 -0.007198 0.000000 -0.005456 0.000000
# 3 -0.002935 -0.007198 0.016926 0.000000 0.015175 0.000000
# 4 0.000000 0.000000 0.000000 0.242972 0.000000 0.212627
# 5 0.002702 -0.005456 0.015175 0.000000 0.044869 0.000000
# 6 0.000000 0.000000 0.000000 0.212627 0.000000 0.248871
#
#
# Mechanical properties :
#
#
# Convention : Reuss Voigt Hill
#
# Bulk Modulus (GPa) = 33.98405 43.89310 38.93857
# Shear Modulus (GPa) = 8.08997 25.23670 16.66333
#
# Velocity S-wave (km/s) = 2.01097 3.55180 2.88611
# Velocity P-wave (km/s) = 4.73073 6.22587 5.52907
#
# Compressibility (1/GPa) = 0.02942557
#
# Stress axis : x y z
#
# Youngs Moduli (GPa) = 57.50027 61.87984 59.07980
#
# Poissons Ratio (x) = 0.02429 0.17343
# Poissons Ratio (y) = 0.02257 0.42526
# Poissons Ratio (z) = 0.16879 0.44542
#
# Static dielectric constant tensor:
#      x y z
#    x 2.501470 0.000000 0.205900 
#    y 0.000000 1.813210 0.000000 
#    z 0.205900 0.000000 1.851530 
# 
# From -- ./inp_files/2516.got.cif
#   From: 2010.05.17/outbox.cif.g08.bks.cpg/sg3_2_cif.got.tgz:2516.got - 2010.06.03 18:33:08.
