data_PCOD9113788
_publ_section_title
;
Structure prediction by ZEFSAII (Michael W. Deem and Ramdas Pophale) SiO2 
 PCOD9113788
Probable space group: P 2
;
_chemical_formula_sum "Si O2"
_cell_formula_units_Z 13
_cell_length_a 13.332465
_cell_length_b 7.738644
_cell_length_c 9.212336
_cell_angle_alpha 90.000000
_cell_angle_beta 146.503090
_cell_angle_gamma 90.000000
_cell_volume 524.564865
_symmetry_space_group_name_H-M "P 2"
_symmetry_group_IT_number 3
_symmetry_cell_setting 'monoclinic'
loop_
_space_group_symop_operation_xyz
x,y,z
-x,y,-z
loop_
_atom_site_type_symbol
_atom_site_label
_atom_site_fract_x
_atom_site_fract_y
_atom_site_fract_z
Si Si1 0.000000 0.541410 0.500000
Si Si2 0.612551 0.556722 0.278422
Si Si3 0.222344 0.136818 0.239596
Si Si4 0.318748 0.195147 0.682991
Si Si5 0.841685 0.773863 0.924203
Si Si6 0.154504 0.835780 0.508165
Si Si7 0.715296 0.435749 0.917579
O O1 0.142823 0.686117 0.612653
O O2 0.120504 0.437686 0.764549
O O3 0.708945 0.735144 0.438159
O O4 0.471148 0.475146 0.222184
O O5 0.744858 0.395331 0.396281
O O6 0.500000 0.600462 0.000000
O O7 0.319428 0.160380 0.511511
O O8 0.267198 0.942117 0.249809
O O9 0.274071 0.270152 0.174920
O O10 0.000000 0.147991 0.000000
O O11 0.211838 0.028774 0.615039
O O12 0.500000 0.199940 0.000000
O O13 0.043481 0.839891 0.798696
O O14 0.743462 0.600157 0.847688
O O15 0.000000 0.733330 0.000000
#
# Coordination Sequence:
#
# PCOD9113788 Si02
#       7
#     1   2   2   2   2   2   2
#     4  10  24  42  74 112 132 194 254 294 368 430
#     4  11  25  46  66 102 143 190 241 292 373 428
#     4  11  24  46  71 107 147 192 247 301 364 433
#     4  11  26  44  71 102 142 197 235 294 369 438
#     4  10  22  44  72 106 136 189 247 295 366 425
#     4  11  22  46  73  99 146 183 241 305 358 432
#     4  11  25  43  72 104 150 192 243 308 353 441
#
# _framework density 24.782442
#
# number of rings (size 3 to 8) (size 9 to 14) (size 15 to 20)
#    0.000    1.231    4.615    0.923    6.462    1.846 
#    8.308    1.538    0.000    0.000    0.000    0.000 
#    0.000    0.000    0.000    0.000    0.000    0.000 
#
# Total GULP energy -72572.069286 kJ/mol
# GULP energy per Si atom -5582.466868 kJ/mol
# Density = 2.472604 g / cm^3
# Si number density = 24.782442 Si / 1000 Ang^3
#
#
#
# Elastic Constant Matrix: (Units=GPa)
#
#
# Indices 1 2 3 4 5 6 
#
# 1 88.5307 39.9413 34.7842 0.0000 -5.7045 0.0000
# 2 39.9413 171.9176 29.3104 0.0000 -5.5228 0.0000
# 3 34.7842 29.3104 88.6465 0.0000 -23.7033 0.0000
# 4 0.0000 0.0000 0.0000 31.6756 0.0000 -10.3910
# 5 -5.7045 -5.5228 -23.7033 0.0000 45.5126 0.0000
# 6 0.0000 0.0000 0.0000 -10.3910 0.0000 21.6919
#
#
#
# Elastic Compliance Matrix: (Units=1/GPa)
#
#
# Indices 1 2 3 4 5 6 
#
# 1 0.014360 -0.002501 -0.005121 0.000000 -0.001171 0.000000
# 2 -0.002501 0.006605 -0.001246 0.000000 -0.000161 0.000000
# 3 -0.005121 -0.001246 0.015673 0.000000 0.007369 0.000000
# 4 0.000000 0.000000 0.000000 0.037456 0.000000 0.017942
# 5 -0.001171 -0.000161 0.007369 0.000000 0.025644 0.000000
# 6 0.000000 0.000000 0.000000 0.017942 0.000000 0.054695
#
#
# Mechanical properties :
#
#
# Convention : Reuss Voigt Hill
#
# Bulk Modulus (GPa) = 52.90139 61.90739 57.40439
# Shear Modulus (GPa) = 28.01619 36.11330 32.06475
#
# Velocity S-wave (km/s) = 3.36592 3.82149 3.60091
# Velocity P-wave (km/s) = 6.04140 6.67130 6.36415
#
# Compressibility (1/GPa) = 0.01890309
#
# Stress axis : x y z
#
# Youngs Moduli (GPa) = 69.63569 151.40159 63.80582
#
# Poissons Ratio (x) = 0.37863 0.32675
# Poissons Ratio (y) = 0.17415 0.07947
# Poissons Ratio (z) = 0.35661 0.18857
#
# Static dielectric constant tensor:
#      x y z
#    x 2.308220 0.000000 -0.049310 
#    y 0.000000 1.926290 0.000000 
#    z -0.049310 0.000000 2.068310 
# 
# From -- ./inp_files/7561.got.cif
#   From: 2010.05.17/outbox.cif.g08.bks.cpg/sg3_4_cif.got.tgz:7561.got - 2010.06.03 18:33:08.
