data_PCOD9113504
_publ_section_title
;
Structure prediction by ZEFSAII (Michael W. Deem and Ramdas Pophale) SiO2 
 PCOD9113504
Probable space group: P 2
;
_chemical_formula_sum "Si O2"
_cell_formula_units_Z 16
_cell_length_a 25.082893
_cell_length_b 5.308292
_cell_length_c 5.107525
_cell_angle_alpha 90.000000
_cell_angle_beta 59.690635
_cell_angle_gamma 90.000000
_cell_volume 587.098876
_symmetry_space_group_name_H-M "P 2"
_symmetry_group_IT_number 3
_symmetry_cell_setting 'monoclinic'
loop_
_space_group_symop_operation_xyz
x,y,z
-x,y,-z
loop_
_atom_site_type_symbol
_atom_site_label
_atom_site_fract_x
_atom_site_fract_y
_atom_site_fract_z
Si Si1 0.066521 0.333770 0.798687
Si Si2 0.279450 0.105573 0.110423
Si Si3 0.543331 0.930680 0.147044
Si Si4 0.225710 0.744979 0.627525
Si Si5 0.672288 0.593993 0.258135
Si Si6 0.571892 0.431332 0.895304
Si Si7 0.902045 0.639418 0.793046
Si Si8 0.151768 0.967655 0.403229
O O1 0.078878 0.444931 0.479683
O O2 0.122568 0.139623 0.705333
O O3 0.067481 0.554771 0.014659
O O4 0.000000 0.210882 0.000000
O O5 0.260572 0.005650 0.447607
O O6 0.211213 0.108840 0.141337
O O7 0.307633 0.377175 0.992182
O O8 0.317709 0.875127 0.882686
O O9 0.500000 0.989208 0.500000
O O10 0.500000 0.897489 0.000000
O O11 0.575527 0.660484 0.090632
O O12 0.588944 0.159472 0.969083
O O13 0.281293 0.586720 0.606981
O O14 0.184981 0.726693 0.461549
O O15 0.170793 0.683587 0.965554
O O16 0.608221 0.518706 0.551236
O O17 0.500000 0.395431 0.000000
O O18 0.907384 0.904030 0.627536
#
# Coordination Sequence:
#
# PCOD9113504 Si02
#       8
#     2   2   2   2   2   2   2   2
#     4  12  28  47  77 117 159 209 269 327 401 493
#     4  10  25  42  73 115 149 205 262 336 396 480
#     4  10  21  44  70  98 139 194 256 302 369 467
#     4  10  23  45  73 114 143 208 263 331 408 471
#     4  12  23  47  72 112 161 196 274 337 403 483
#     4  10  23  44  70 106 150 210 251 322 399 484
#     4  12  24  50  76 107 153 212 255 331 403 477
#     4  10  25  47  75 109 155 203 257 329 407 472
#
# _framework density 27.252645999999999
#
# number of rings (size 3 to 8) (size 9 to 14) (size 15 to 20)
#    0.750    0.500    2.500    2.250    3.500    2.500 
#   15.750    0.000    0.000    0.000    0.000    0.000 
#    0.000    0.000    0.000    0.000    0.000    0.000 
#
# Total GULP energy -89295.154886 kJ/mol
# GULP energy per Si atom -5580.947180 kJ/mol
# Density = 2.719062 g / cm^3
# Si number density = 27.252646 Si / 1000 Ang^3
#
#
#
# Elastic Constant Matrix: (Units=GPa)
#
#
# Indices 1 2 3 4 5 6 
#
# 1 63.7149 12.0531 37.1611 0.0000 3.5693 0.0000
# 2 12.0531 154.1017 37.6565 0.0000 2.4281 0.0000
# 3 37.1611 37.6565 163.4339 0.0000 8.2296 0.0000
# 4 0.0000 0.0000 0.0000 47.9900 0.0000 -2.8628
# 5 3.5693 2.4281 8.2296 0.0000 55.9357 0.0000
# 6 0.0000 0.0000 0.0000 -2.8628 0.0000 29.1148
#
#
#
# Elastic Compliance Matrix: (Units=1/GPa)
#
#
# Indices 1 2 3 4 5 6 
#
# 1 0.018139 -0.000433 -0.003997 0.000000 -0.000551 0.000000
# 2 -0.000433 0.006887 -0.001486 0.000000 -0.000053 0.000000
# 3 -0.003997 -0.001486 0.007409 0.000000 -0.000770 0.000000
# 4 0.000000 0.000000 0.000000 0.020961 0.000000 0.002061
# 5 -0.000551 -0.000053 -0.000770 0.000000 0.018028 0.000000
# 6 0.000000 0.000000 0.000000 0.002061 0.000000 0.034549
#
#
# Mechanical properties :
#
#
# Convention : Reuss Voigt Hill
#
# Bulk Modulus (GPa) = 48.53716 61.66578 55.10147
# Shear Modulus (GPa) = 40.10523 46.23342 43.16932
#
# Velocity S-wave (km/s) = 3.84032 4.12330 3.98432
# Velocity P-wave (km/s) = 6.12477 6.73389 6.43654
#
# Compressibility (1/GPa) = 0.02060277
#
# Stress axis : x y z
#
# Youngs Moduli (GPa) = 55.13039 145.20163 134.97924
#
# Poissons Ratio (x) = 0.06293 0.53948
# Poissons Ratio (y) = 0.02389 0.20053
# Poissons Ratio (z) = 0.22034 0.21571
#
# Static dielectric constant tensor:
#      x y z
#    x 0.894150 0.000000 0.345800 
#    y 0.000000 2.281770 0.000000 
#    z 0.345800 0.000000 2.205120 
# 
# From -- ./inp_files/4013.got.cif
#   From: 2010.05.17/outbox.cif.g08.bks.cpg/sg3_3_cif.got.tgz:4013.got - 2010.06.03 18:33:08.
