data_PCOD9113058
_publ_section_title
;
Structure prediction by ZEFSAII (Michael W. Deem and Ramdas Pophale) SiO2 
 PCOD9113058
Probable space group: P 2
;
_chemical_formula_sum "Si O2"
_cell_formula_units_Z 14
_cell_length_a 9.234812
_cell_length_b 6.120264
_cell_length_c 15.975892
_cell_angle_alpha 90.000000
_cell_angle_beta 46.675139
_cell_angle_gamma 90.000000
_cell_volume 656.873087
_symmetry_space_group_name_H-M "P 2"
_symmetry_group_IT_number 3
_symmetry_cell_setting 'monoclinic'
loop_
_space_group_symop_operation_xyz
x,y,z
-x,y,-z
loop_
_atom_site_type_symbol
_atom_site_label
_atom_site_fract_x
_atom_site_fract_y
_atom_site_fract_z
Si Si1 0.735007 0.916070 0.795238
Si Si2 0.180089 0.926140 0.878004
Si Si3 0.423851 0.283472 0.873773
Si Si4 0.697137 0.586866 0.472356
Si Si5 0.872034 0.926938 0.291821
Si Si6 0.500000 0.584211 0.000000
Si Si7 0.500000 0.176865 0.500000
Si Si8 0.404019 0.663491 0.300622
O O1 0.665035 0.740684 0.892314
O O2 0.741281 0.784793 0.705849
O O3 0.563468 0.093264 0.853826
O O4 0.939368 0.033035 0.737956
O O5 0.243368 0.153185 0.899597
O O6 0.092690 0.936801 0.819940
O O7 0.383408 0.788256 0.788728
O O8 0.000000 0.817775 0.000000
O O9 0.400879 0.443735 0.963460
O O10 0.541598 0.424181 0.756777
O O11 0.500000 0.655179 0.500000
O O12 0.650673 0.329068 0.493906
O O13 0.686301 0.669569 0.570897
O O14 0.859336 0.693501 0.346518
O O15 0.659680 0.044233 0.384505
#
# Coordination Sequence:
#
# PCOD9113058 Si02
#       8
#     2   2   2   2   2   1   1   2
#     4  10  25  40  67  94 133 175 218 267 329 398
#     4  11  24  38  63  97 132 166 220 272 325 389
#     4  10  23  42  65  93 130 178 219 270 321 396
#     4  10  21  41  66  91 124 171 217 268 330 378
#     4  12  23  42  66  97 130 171 216 269 332 388
#     4  10  22  44  68  86 136 182 214 268 330 390
#     4  10  20  38  66  92 124 168 214 276 318 386
#     4  10  21  45  63  91 130 174 218 273 325 384
#
# _framework density 21.313096000000002
#
# number of rings (size 3 to 8) (size 9 to 14) (size 15 to 20)
#    0.429    1.143    2.143    1.286    8.000    4.571 
#    0.000    0.000    0.000    0.000    0.000    0.000 
#    0.000    0.000    0.000    0.000    0.000    0.000 
#
# Total GULP energy -77940.103183 kJ/mol
# GULP energy per Si atom -5567.150227 kJ/mol
# Density = 2.126459 g / cm^3
# Si number density = 21.313096 Si / 1000 Ang^3
#
#
#
# Elastic Constant Matrix: (Units=GPa)
#
#
# Indices 1 2 3 4 5 6 
#
# 1 94.0568 11.4587 23.7361 0.0000 17.2198 0.0000
# 2 11.4587 65.4088 12.4221 0.0000 13.6032 0.0000
# 3 23.7361 12.4221 87.2774 0.0000 32.7318 0.0000
# 4 0.0000 0.0000 0.0000 61.0189 0.0000 17.6647
# 5 17.2198 13.6032 32.7318 0.0000 34.7097 0.0000
# 6 0.0000 0.0000 0.0000 17.6647 0.0000 18.2310
#
#
#
# Elastic Compliance Matrix: (Units=1/GPa)
#
#
# Indices 1 2 3 4 5 6 
#
# 1 0.011885 -0.000942 -0.001586 0.000000 -0.004031 0.000000
# 2 -0.000942 0.016721 0.000246 0.000000 -0.006317 0.000000
# 3 -0.001586 0.000246 0.017940 0.000000 -0.016227 0.000000
# 4 0.000000 0.000000 0.000000 0.022778 0.000000 -0.022070
# 5 -0.004031 -0.006317 -0.016227 0.000000 0.048588 0.000000
# 6 0.000000 0.000000 0.000000 -0.022070 0.000000 0.076236
#
#
# Mechanical properties :
#
#
# Convention : Reuss Voigt Hill
#
# Bulk Modulus (GPa) = 23.82160 37.99743 30.90952
# Shear Modulus (GPa) = 23.50657 36.06699 29.78678
#
# Velocity S-wave (km/s) = 3.32462 4.11815 3.74248
# Velocity P-wave (km/s) = 5.09301 6.36232 5.76272
#
# Compressibility (1/GPa) = 0.04197871
#
# Stress axis : x y z
#
# Youngs Moduli (GPa) = 84.13959 59.80614 55.74232
#
# Poissons Ratio (x) = 0.05637 0.08843
# Poissons Ratio (y) = 0.07930 -0.01369
# Poissons Ratio (z) = 0.13348 -0.01469
#
# Static dielectric constant tensor:
#      x y z
#    x 1.667500 0.000000 0.165400 
#    y 0.000000 1.883420 0.000000 
#    z 0.165400 0.000000 1.692710 
# 
# From -- ./inp_files/10283.got.cif
#   From: 2010.05.17/outbox.cif.g08.bks.cpg/sg3_6_cif.got.tgz:10283.got - 2010.06.03 18:33:08.
