data_PCOD9113199
_publ_section_title
;
Structure prediction by ZEFSAII (Michael W. Deem and Ramdas Pophale) SiO2 
 PCOD9113199
Probable space group: P 2
;
_chemical_formula_sum "Si O2"
_cell_formula_units_Z 14
_cell_length_a 9.188854
_cell_length_b 5.321562
_cell_length_c 17.480904
_cell_angle_alpha 90.000000
_cell_angle_beta 139.769679
_cell_angle_gamma 90.000000
_cell_volume 552.082478
_symmetry_space_group_name_H-M "P 2"
_symmetry_group_IT_number 3
_symmetry_cell_setting 'monoclinic'
loop_
_space_group_symop_operation_xyz
x,y,z
-x,y,-z
loop_
_atom_site_type_symbol
_atom_site_label
_atom_site_fract_x
_atom_site_fract_y
_atom_site_fract_z
Si Si1 0.839392 0.787950 0.839019
Si Si2 0.013913 0.443737 0.793201
Si Si3 0.681833 0.954433 0.936981
Si Si4 0.000000 0.563162 0.500000
Si Si5 0.711895 0.205345 0.292498
Si Si6 0.500000 0.615560 0.000000
Si Si7 0.382168 0.933338 0.593267
Si Si8 0.926550 0.953486 0.664925
O O1 0.638987 0.858459 0.701989
O O2 0.928849 0.523169 0.843238
O O3 0.721851 0.796176 0.874717
O O4 0.058988 0.969662 0.930109
O O5 0.935464 0.185189 0.726771
O O6 0.283480 0.444787 0.901344
O O7 0.950800 0.684658 0.714935
O O8 0.526438 0.191143 0.848818
O O9 0.552656 0.796244 0.949412
O O10 0.894507 0.420981 0.383364
O O11 0.789278 0.721012 0.445840
O O12 0.862754 0.998551 0.308975
O O13 0.650455 0.145778 0.355849
O O14 0.294440 0.988961 0.474630
#
# Coordination Sequence:
#
# PCOD9113199 Si02
#       8
#     2   2   2   1   2   1   2   2
#     4   9  22  46  71 103 151 211 245 316 387 477
#     4  11  26  45  73 107 155 195 256 306 396 447
#     4   9  19  42  79 104 154 193 263 309 391 460
#     4  12  20  38  68 116 154 194 264 320 392 462
#     4  11  21  38  69 112 142 194 245 324 381 448
#     4  10  20  44  80 110 146 198 254 326 368 460
#     4  11  23  42  72 105 155 195 263 316 389 465
#     4  12  23  43  71 110 147 197 250 323 372 454
#
# _framework density 25.358526999999999
#
# number of rings (size 3 to 8) (size 9 to 14) (size 15 to 20)
#    0.000    1.429    4.286    0.857    0.000    1.143 
#    5.143    2.857    0.000    0.000    0.000    0.000 
#    0.000    0.000    0.000    0.000    0.000    0.000 
#
# Total GULP energy -78304.206080 kJ/mol
# GULP energy per Si atom -5593.157577 kJ/mol
# Density = 2.530081 g / cm^3
# Si number density = 25.358527 Si / 1000 Ang^3
#
#
#
# Elastic Constant Matrix: (Units=GPa)
#
#
# Indices 1 2 3 4 5 6 
#
# 1 134.9641 25.3479 48.9032 0.0000 1.4822 0.0000
# 2 25.3479 94.7326 62.8788 0.0000 -7.6877 0.0000
# 3 48.9032 62.8788 243.0865 0.0000 16.0452 0.0000
# 4 0.0000 0.0000 0.0000 23.3531 0.0000 -14.1892
# 5 1.4822 -7.6877 16.0452 0.0000 43.3602 0.0000
# 6 0.0000 0.0000 0.0000 -14.1892 0.0000 26.8536
#
#
#
# Elastic Compliance Matrix: (Units=1/GPa)
#
#
# Indices 1 2 3 4 5 6 
#
# 1 0.008125 -0.001320 -0.001291 0.000000 -0.000034 0.000000
# 2 -0.001320 0.013520 -0.003478 0.000000 0.003729 0.000000
# 3 -0.001291 -0.003478 0.005444 0.000000 -0.002587 0.000000
# 4 0.000000 0.000000 0.000000 0.063069 0.000000 0.033325
# 5 -0.000034 0.003729 -0.002587 0.000000 0.024682 0.000000
# 6 0.000000 0.000000 0.000000 0.033325 0.000000 0.054848
#
#
# Mechanical properties :
#
#
# Convention : Reuss Voigt Hill
#
# Bulk Modulus (GPa) = 67.06067 83.00476 75.03271
# Shear Modulus (GPa) = 26.76135 41.09027 33.92581
#
# Velocity S-wave (km/s) = 3.25209 4.02975 3.66163
# Velocity P-wave (km/s) = 6.37212 7.37939 6.89418
#
# Compressibility (1/GPa) = 0.01491187
#
# Stress axis : x y z
#
# Youngs Moduli (GPa) = 123.07031 73.96280 183.69395
#
# Poissons Ratio (x) = 0.09763 0.23714
# Poissons Ratio (y) = 0.16246 0.63886
# Poissons Ratio (z) = 0.15888 0.25723
#
# Static dielectric constant tensor:
#      x y z
#    x 2.066010 0.000000 -0.035270 
#    y 0.000000 2.019600 0.000000 
#    z -0.035270 0.000000 2.069430 
# 
# From -- ./inp_files/14911.got.cif
#   From: 2010.05.17/outbox.cif.g08.bks.cpg/sg3_8_cif.got.tgz:14911.got - 2010.06.03 18:33:08.
