data_PCOD9113402
_publ_section_title
;
Structure prediction by ZEFSAII (Michael W. Deem and Ramdas Pophale) SiO2 
 PCOD9113402
Probable space group: P 2
;
_chemical_formula_sum "Si O2"
_cell_formula_units_Z 12
_cell_length_a 8.391542
_cell_length_b 7.800222
_cell_length_c 8.032435
_cell_angle_alpha 90.000000
_cell_angle_beta 113.751157
_cell_angle_gamma 90.000000
_cell_volume 481.239211
_symmetry_space_group_name_H-M "P 2"
_symmetry_group_IT_number 3
_symmetry_cell_setting 'monoclinic'
loop_
_space_group_symop_operation_xyz
x,y,z
-x,y,-z
loop_
_atom_site_type_symbol
_atom_site_label
_atom_site_fract_x
_atom_site_fract_y
_atom_site_fract_z
Si Si1 0.100154 0.927470 0.183817
Si Si2 0.314783 0.456988 0.390784
Si Si3 0.648493 0.429497 0.955387
Si Si4 0.674210 0.788056 0.460088
Si Si5 0.536270 0.045328 0.828827
Si Si6 0.968298 0.257634 0.287139
O O1 0.150488 0.830315 0.369590
O O2 0.285659 0.987137 0.185952
O O3 0.971399 0.078993 0.187817
O O4 0.000000 0.824826 0.000000
O O5 0.500000 0.368064 0.500000
O O6 0.314303 0.531537 0.200317
O O7 0.298271 0.583405 0.544247
O O8 0.150887 0.338297 0.312664
O O9 0.558579 0.250267 0.855295
O O10 0.500000 0.522665 0.000000
O O11 0.810464 0.370014 0.140866
O O12 0.500000 0.776260 0.500000
O O13 0.625504 0.953373 0.331297
O O14 0.500000 0.983502 0.000000
O O15 0.000000 0.237592 0.500000
#
# Coordination Sequence:
#
# PCOD9113402 Si02
#       6
#     2   2   2   2   2   2
#     4  11  21  39  62  97 131 174 222 278 338 392
#     4  11  23  44  67  99 139 183 218 276 351 409
#     4  11  23  41  71 106 132 179 231 290 341 397
#     4   9  23  41  64  97 135 180 222 268 342 413
#     4  10  21  40  68 100 134 174 229 284 331 404
#     4  12  25  41  66 103 139 174 234 285 341 407
#
# _framework density 24.935623
#
# number of rings (size 3 to 8) (size 9 to 14) (size 15 to 20)
#    0.000    1.333    3.333    1.500    7.000    1.333 
#    0.000   15.000    0.000    0.000    0.000    0.000 
#    0.000    0.000    0.000    0.000    0.000    0.000 
#
# Total GULP energy -66829.589477 kJ/mol
# GULP energy per Si atom -5569.132456 kJ/mol
# Density = 2.487887 g / cm^3
# Si number density = 24.935623 Si / 1000 Ang^3
#
#
#
# Elastic Constant Matrix: (Units=GPa)
#
#
# Indices 1 2 3 4 5 6 
#
# 1 75.9710 -4.2468 29.8520 0.0000 3.0214 0.0000
# 2 -4.2468 41.3535 28.5544 0.0000 14.0474 0.0000
# 3 29.8520 28.5544 177.7305 0.0000 24.8355 0.0000
# 4 0.0000 0.0000 0.0000 19.6741 0.0000 12.4660
# 5 3.0214 14.0474 24.8355 0.0000 51.1611 0.0000
# 6 0.0000 0.0000 0.0000 12.4660 0.0000 -5.0292
#
#
#
# Elastic Compliance Matrix: (Units=1/GPa)
#
#
# Indices 1 2 3 4 5 6 
#
# 1 0.014557 0.003698 -0.002979 0.000000 -0.000429 0.000000
# 2 0.003698 0.029803 -0.004544 0.000000 -0.006196 0.000000
# 3 -0.002979 -0.004544 0.007142 0.000000 -0.002044 0.000000
# 4 0.000000 0.000000 0.000000 0.019773 0.000000 0.049012
# 5 -0.000429 -0.006196 -0.002044 0.000000 0.022265 0.000000
# 6 0.000000 0.000000 0.000000 0.049012 0.000000 -0.077352
#
#
# Mechanical properties :
#
#
# Convention : Reuss Voigt Hill
#
# Bulk Modulus (GPa) = 22.80335 44.81937 33.81136
# Shear Modulus (GPa) = 130.01514 29.22090 79.61802
#
# Velocity S-wave (km/s) = 7.22866 3.42695 5.65674
# Velocity P-wave (km/s) = 8.87897 5.80273 7.50026
#
# Compressibility (1/GPa) = 0.04385321
#
# Stress axis : x y z
#
# Youngs Moduli (GPa) = 68.69387 33.55312 140.00780
#
# Poissons Ratio (x) = -0.12407 0.41712
# Poissons Ratio (y) = -0.25401 0.63613
# Poissons Ratio (z) = 0.20466 0.15245
#
# Static dielectric constant tensor:
#      x y z
#    x 2.012290 0.000000 -0.096240 
#    y 0.000000 2.098410 0.000000 
#    z -0.096240 0.000000 2.142140 
# 
# From -- ./inp_files/5622.got.cif
#   From: 2010.05.17/outbox.cif.g08.bks.cpg/sg3_3_cif.got.tgz:5622.got - 2010.06.03 18:33:08.
