data_PCOD9113442
_publ_section_title
;
Structure prediction by ZEFSAII (Michael W. Deem and Ramdas Pophale) SiO2 
 PCOD9113442
Probable space group: P 2
;
_chemical_formula_sum "Si O2"
_cell_formula_units_Z 13
_cell_length_a 9.498621
_cell_length_b 7.756583
_cell_length_c 8.616577
_cell_angle_alpha 90.000000
_cell_angle_beta 59.454376
_cell_angle_gamma 90.000000
_cell_volume 546.741795
_symmetry_space_group_name_H-M "P 2"
_symmetry_group_IT_number 3
_symmetry_cell_setting 'monoclinic'
loop_
_space_group_symop_operation_xyz
x,y,z
-x,y,-z
loop_
_atom_site_type_symbol
_atom_site_label
_atom_site_fract_x
_atom_site_fract_y
_atom_site_fract_z
Si Si1 0.608151 0.152750 0.249362
Si Si2 0.031050 0.375667 0.153960
Si Si3 0.000000 0.189478 0.500000
Si Si4 0.666249 0.862132 0.006330
Si Si5 0.730791 0.023435 0.481844
Si Si6 0.022320 0.762601 0.807037
Si Si7 0.398390 0.495875 0.898292
O O1 0.715769 0.155570 0.344084
O O2 0.456562 0.021530 0.362198
O O3 0.540851 0.342058 0.246936
O O4 0.699064 0.048175 0.063726
O O5 0.008575 0.285500 0.331108
O O6 0.938893 0.559741 0.213383
O O7 0.219575 0.429000 0.038914
O O8 0.000000 0.295567 0.000000
O O9 0.165427 0.083508 0.429777
O O10 0.623424 0.694901 0.139768
O O11 0.500000 0.881216 0.000000
O O12 0.841937 0.803100 0.835365
O O13 0.831574 0.864513 0.356001
O O14 0.000000 0.814572 0.000000
O O15 0.500000 0.498366 0.000000
#
# Coordination Sequence:
#
# PCOD9113442 Si02
#       7
#     2   2   1   2   2   2   2
#     4  11  23  44  64  96 143 187 230 296 363 428
#     4  10  23  43  71 101 140 189 235 294 365 423
#     4  12  26  42  66 110 140 182 238 298 356 438
#     4  10  22  39  70 100 127 185 244 286 356 434
#     4  11  26  41  63 102 140 181 232 297 363 419
#     4  10  21  44  69  97 138 191 242 290 360 437
#     4  10  21  41  68  98 132 181 244 286 350 443
#
# _framework density 23.777217
#
# number of rings (size 3 to 8) (size 9 to 14) (size 15 to 20)
#    0.000    1.538    1.538    2.308    4.308    1.231 
#    8.308    1.538    0.000    0.000    0.000    0.000 
#    0.000    0.000    0.000    0.000    0.000    0.000 
#
# Total GULP energy -72498.892405 kJ/mol
# GULP energy per Si atom -5576.837877 kJ/mol
# Density = 2.372310 g / cm^3
# Si number density = 23.777217 Si / 1000 Ang^3
#
#
#
# Elastic Constant Matrix: (Units=GPa)
#
#
# Indices 1 2 3 4 5 6 
#
# 1 136.5345 26.7721 21.2802 0.0000 20.5918 0.0000
# 2 26.7721 123.7109 40.2734 0.0000 20.6045 0.0000
# 3 21.2802 40.2734 80.6568 0.0000 16.3032 0.0000
# 4 0.0000 0.0000 0.0000 48.3726 0.0000 -2.0891
# 5 20.5918 20.6045 16.3032 0.0000 35.9001 0.0000
# 6 0.0000 0.0000 0.0000 -2.0891 0.0000 35.4101
#
#
#
# Elastic Compliance Matrix: (Units=1/GPa)
#
#
# Indices 1 2 3 4 5 6 
#
# 1 0.008211 -0.000824 -0.000989 0.000000 -0.003788 0.000000
# 2 -0.000824 0.010200 -0.004171 0.000000 -0.003488 0.000000
# 3 -0.000989 -0.004171 0.015573 0.000000 -0.004111 0.000000
# 4 0.000000 0.000000 0.000000 0.020726 0.000000 0.001223
# 5 -0.003788 -0.003488 -0.004111 0.000000 0.033896 0.000000
# 6 0.000000 0.000000 0.000000 0.001223 0.000000 0.028313
#
#
# Mechanical properties :
#
#
# Convention : Reuss Voigt Hill
#
# Bulk Modulus (GPa) = 45.42207 57.50597 51.46402
# Shear Modulus (GPa) = 36.70376 40.77498 38.73937
#
# Velocity S-wave (km/s) = 3.93320 4.14560 4.04079
# Velocity P-wave (km/s) = 6.30646 6.86677 6.59257
#
# Compressibility (1/GPa) = 0.02201573
#
# Stress axis : x y z
#
# Youngs Moduli (GPa) = 121.78528 98.03559 64.21488
#
# Poissons Ratio (x) = 0.08079 0.06353
# Poissons Ratio (y) = 0.10036 0.26783
# Poissons Ratio (z) = 0.12049 0.40889
#
# Static dielectric constant tensor:
#      x y z
#    x 1.919530 0.000000 -0.020740 
#    y 0.000000 1.985940 0.000000 
#    z -0.020740 0.000000 1.881790 
# 
# From -- ./inp_files/5477.got.cif
#   From: 2010.05.17/outbox.cif.g08.bks.cpg/sg3_3_cif.got.tgz:5477.got - 2010.06.03 18:33:08.
