data_PCOD9113175
_publ_section_title
;
Structure prediction by ZEFSAII (Michael W. Deem and Ramdas Pophale) SiO2 
 PCOD9113175
Probable space group: P 2
;
_chemical_formula_sum "Si O2"
_cell_formula_units_Z 12
_cell_length_a 13.976673
_cell_length_b 5.082633
_cell_length_c 19.992571
_cell_angle_alpha 90.000000
_cell_angle_beta 161.865520
_cell_angle_gamma 90.000000
_cell_volume 442.046858
_symmetry_space_group_name_H-M "P 2"
_symmetry_group_IT_number 3
_symmetry_cell_setting 'monoclinic'
loop_
_space_group_symop_operation_xyz
x,y,z
-x,y,-z
loop_
_atom_site_type_symbol
_atom_site_label
_atom_site_fract_x
_atom_site_fract_y
_atom_site_fract_z
Si Si1 0.506998 0.729480 0.082679
Si Si2 0.272939 0.919820 0.526451
Si Si3 0.500000 0.529410 0.500000
Si Si4 0.049102 0.386367 0.308730
Si Si5 0.000000 0.493880 0.500000
Si Si6 0.856815 0.913940 0.837591
Si Si7 0.437596 0.100722 0.155353
O O1 0.838447 0.655566 0.332734
O O2 0.388813 0.956503 0.052724
O O3 0.500000 0.791574 0.000000
O O4 0.278310 0.482687 0.936096
O O5 0.028319 0.147343 0.347009
O O6 0.560393 0.039922 0.675369
O O7 0.396155 0.899094 0.682859
O O8 0.184405 0.644160 0.435831
O O9 0.272971 0.357668 0.394300
O O10 0.722991 0.715185 0.693330
O O11 0.705168 0.320032 0.328307
O O12 0.000000 0.777320 0.000000
O O13 0.103334 0.115098 0.968972
#
# Coordination Sequence:
#
# PCOD9113175 Si02
#       7
#     2   2   1   2   1   2   2
#     4  12  29  49  74 109 153 205 267 320 381 450
#     4  10  25  46  79 118 154 195 251 316 387 465
#     4  10  20  42  74 112 154 198 244 308 390 460
#     4  11  25  46  78 113 158 198 254 314 385 459
#     4  12  30  46  74 108 148 210 262 324 378 452
#     4   9  20  44  71 113 148 196 247 313 382 465
#     4  11  25  50  76 104 154 203 257 317 385 454
#
# _framework density 27.146445
#
# number of rings (size 3 to 8) (size 9 to 14) (size 15 to 20)
#    0.000    1.333    1.667    1.500    9.333    4.667 
#    0.000    6.667    0.000    0.000    0.000    0.000 
#    0.000    0.000    0.000    0.000    0.000    0.000 
#
# Total GULP energy -67148.379947 kJ/mol
# GULP energy per Si atom -5595.698329 kJ/mol
# Density = 2.708466 g / cm^3
# Si number density = 27.146445 Si / 1000 Ang^3
#
#
#
# Elastic Constant Matrix: (Units=GPa)
#
#
# Indices 1 2 3 4 5 6 
#
# 1 145.6362 23.2478 48.5005 0.0000 -20.4124 0.0000
# 2 23.2478 82.5035 20.8643 0.0000 -21.7003 0.0000
# 3 48.5005 20.8643 142.7881 0.0000 -29.4213 0.0000
# 4 0.0000 0.0000 0.0000 38.7204 0.0000 -3.5498
# 5 -20.4124 -21.7003 -29.4213 0.0000 78.4069 0.0000
# 6 0.0000 0.0000 0.0000 -3.5498 0.0000 7.5082
#
#
#
# Elastic Compliance Matrix: (Units=1/GPa)
#
#
# Indices 1 2 3 4 5 6 
#
# 1 0.007988 -0.001449 -0.002336 0.000000 0.000802 0.000000
# 2 -0.001449 0.013549 -0.000859 0.000000 0.003050 0.000000
# 3 -0.002336 -0.000859 0.008397 0.000000 0.002305 0.000000
# 4 0.000000 0.000000 0.000000 0.026996 0.000000 0.012764
# 5 0.000802 0.003050 0.002305 0.000000 0.014672 0.000000
# 6 0.000000 0.000000 0.000000 0.012764 0.000000 0.139222
#
#
# Mechanical properties :
#
#
# Convention : Reuss Voigt Hill
#
# Bulk Modulus (GPa) = 48.43757 61.79479 55.11618
# Shear Modulus (GPa) = 22.02691 43.48145 32.75418
#
# Velocity S-wave (km/s) = 2.85162 4.00651 3.47734
# Velocity P-wave (km/s) = 5.35949 6.64949 6.03903
#
# Compressibility (1/GPa) = 0.02064513
#
# Stress axis : x y z
#
# Youngs Moduli (GPa) = 125.18448 73.80872 119.08389
#
# Poissons Ratio (x) = 0.10696 0.27822
# Poissons Ratio (y) = 0.18141 0.10229
# Poissons Ratio (z) = 0.29248 0.06340
#
# Static dielectric constant tensor:
#      x y z
#    x 2.190730 0.000000 0.071460 
#    y 0.000000 2.058830 0.000000 
#    z 0.071460 0.000000 2.206380 
# 
# From -- ./inp_files/15995.got.cif
#   From: 2010.05.17/outbox.cif.g08.bks.cpg/sg3_8_cif.got.tgz:15995.got - 2010.06.03 18:33:08.
