data_PCOD9113048
_publ_section_title
;
Structure prediction by ZEFSAII (Michael W. Deem and Ramdas Pophale) SiO2 
 PCOD9113048
Probable space group: P 2
;
_chemical_formula_sum "Si O2"
_cell_formula_units_Z 13
_cell_length_a 10.834629
_cell_length_b 5.941607
_cell_length_c 7.950704
_cell_angle_alpha 90.000000
_cell_angle_beta 94.850782
_cell_angle_gamma 90.000000
_cell_volume 509.994214
_symmetry_space_group_name_H-M "P 2"
_symmetry_group_IT_number 3
_symmetry_cell_setting 'monoclinic'
loop_
_space_group_symop_operation_xyz
x,y,z
-x,y,-z
loop_
_atom_site_type_symbol
_atom_site_label
_atom_site_fract_x
_atom_site_fract_y
_atom_site_fract_z
Si Si1 0.779600 0.672990 0.969060
Si Si2 0.346059 0.304763 0.862780
Si Si3 0.259419 0.527935 0.394965
Si Si4 0.500000 0.776386 0.500000
Si Si5 0.000000 0.677424 0.500000
Si Si6 0.115505 0.027735 0.773779
Si Si7 0.591428 0.152066 0.762791
Si Si8 0.000000 0.323634 0.000000
O O1 0.745985 0.688748 0.771698
O O2 0.881486 0.477242 0.984654
O O3 0.676080 0.556707 0.071960
O O4 0.840232 0.885029 0.060578
O O5 0.231981 0.191200 0.747805
O O6 0.469452 0.304272 0.770121
O O7 0.364111 0.152215 0.036236
O O8 0.119863 0.537144 0.451102
O O9 0.306644 0.285451 0.334302
O O10 0.372874 0.634881 0.514183
O O11 0.535059 0.937688 0.661167
O O12 0.063640 0.846591 0.640108
O O13 0.006298 0.181561 0.831238
#
# Coordination Sequence:
#
# PCOD9113048 Si02
#       8
#     2   2   2   1   1   2   2   1
#     4  10  21  41  67  95 128 173 224 273 327 392
#     4   9  21  41  68  96 126 173 224 274 328 392
#     4  11  25  44  65  96 137 177 222 272 330 397
#     4  12  24  42  68  98 136 176 212 274 344 396
#     4  12  26  42  66 100 136 180 220 274 342 390
#     4  11  22  40  65  96 134 173 225 275 325 398
#     4  10  22  42  67  98 132 169 220 275 334 398
#     4  10  20  38  64  92 130 178 222 270 324 388
#
# _framework density 25.490483999999999
#
# number of rings (size 3 to 8) (size 9 to 14) (size 15 to 20)
#    0.000    1.538    0.000    4.615    0.000    6.154 
#    0.000   13.846    0.000    0.000    0.000    0.000 
#    0.000    0.000    0.000    0.000    0.000    0.000 
#
# Total GULP energy -72695.318692 kJ/mol
# GULP energy per Si atom -5591.947592 kJ/mol
# Density = 2.543247 g / cm^3
# Si number density = 25.490484 Si / 1000 Ang^3
#
#
#
# Elastic Constant Matrix: (Units=GPa)
#
#
# Indices 1 2 3 4 5 6 
#
# 1 184.9936 43.3692 37.3569 0.0000 -16.4516 0.0000
# 2 43.3692 41.8022 26.3321 0.0000 11.0983 0.0000
# 3 37.3569 26.3321 90.7390 0.0000 22.5016 0.0000
# 4 0.0000 0.0000 0.0000 32.2680 0.0000 1.6334
# 5 -16.4516 11.0983 22.5016 0.0000 36.5939 0.0000
# 6 0.0000 0.0000 0.0000 1.6334 0.0000 -6.5729
#
#
#
# Elastic Compliance Matrix: (Units=1/GPa)
#
#
# Indices 1 2 3 4 5 6 
#
# 1 0.009182 -0.009958 -0.003142 0.000000 0.009080 0.000000
# 2 -0.009958 0.040660 -0.004167 0.000000 -0.014246 0.000000
# 3 -0.003142 -0.004167 0.016000 0.000000 -0.009987 0.000000
# 4 0.000000 0.000000 0.000000 0.030605 0.000000 0.007606
# 5 0.009080 -0.014246 -0.009987 0.000000 0.041871 0.000000
# 6 0.000000 0.000000 0.000000 0.007606 0.000000 -0.150250
#
#
# Mechanical properties :
#
#
# Convention : Reuss Voigt Hill
#
# Bulk Modulus (GPa) = 31.94031 59.07238 45.50634
# Shear Modulus (GPa) = 151.33374 26.48959 88.91166
#
# Velocity S-wave (km/s) = 7.71347 3.22715 5.91236
# Velocity P-wave (km/s) = 9.58580 6.09185 8.03113
#
# Compressibility (1/GPa) = 0.03130840
#
# Stress axis : x y z
#
# Youngs Moduli (GPa) = 108.90789 24.59395 62.49890
#
# Poissons Ratio (x) = 0.24490 0.19639
# Poissons Ratio (y) = 1.08447 0.26045
# Poissons Ratio (z) = 0.34222 0.10249
#
# Static dielectric constant tensor:
#      x y z
#    x 2.153410 0.000000 0.030060 
#    y 0.000000 2.045940 0.000000 
#    z 0.030060 0.000000 2.121740 
# 
# From -- ./inp_files/6755.got.cif
#   From: 2010.05.17/outbox.cif.g08.bks.cpg/sg3_4_cif.got.tgz:6755.got - 2010.06.03 18:33:08.
