data_PCOD9113446
_publ_section_title
;
Structure prediction by ZEFSAII (Michael W. Deem and Ramdas Pophale) SiO2 
 PCOD9113446
Probable space group: P 2
;
_chemical_formula_sum "Si O2"
_cell_formula_units_Z 14
_cell_length_a 7.395764
_cell_length_b 14.017135
_cell_length_c 5.423381
_cell_angle_alpha 90.000000
_cell_angle_beta 78.167316
_cell_angle_gamma 90.000000
_cell_volume 550.280909
_symmetry_space_group_name_H-M "P 2"
_symmetry_group_IT_number 3
_symmetry_cell_setting 'monoclinic'
loop_
_space_group_symop_operation_xyz
x,y,z
-x,y,-z
loop_
_atom_site_type_symbol
_atom_site_label
_atom_site_fract_x
_atom_site_fract_y
_atom_site_fract_z
Si Si1 0.205162 0.094770 0.053944
Si Si2 0.213279 0.419511 0.428078
Si Si3 0.775956 0.729076 0.037018
Si Si4 0.000000 0.989021 0.500000
Si Si5 0.224701 0.625507 0.467267
Si Si6 0.500000 0.406922 0.000000
Si Si7 0.325859 0.919253 0.731198
Si Si8 0.648804 0.255458 0.303074
O O1 0.275025 0.198037 0.950474
O O2 0.330617 0.018692 0.877848
O O3 0.000000 0.088778 0.000000
O O4 0.156873 0.059289 0.339720
O O5 0.289482 0.518207 0.523428
O O6 0.218787 0.313816 0.553356
O O7 0.000000 0.437689 0.500000
O O8 0.295288 0.438985 0.129188
O O9 0.713572 0.687498 0.317609
O O10 0.699737 0.836348 0.060648
O O11 0.714411 0.669226 0.814011
O O12 0.000000 0.729643 0.000000
O O13 0.872059 0.924179 0.360416
O O14 0.000000 0.630408 0.500000
O O15 0.468930 0.343039 0.770007
O O16 0.500000 0.908006 0.500000
O O17 0.500000 0.195118 0.500000
#
# Coordination Sequence:
#
# PCOD9113446 Si02
#       8
#     2   2   2   1   2   1   2   2
#     4  10  23  42  67 100 136 182 234 290 358 432
#     4  10  23  43  69  98 134 186 237 295 367 432
#     4  10  21  41  70 101 141 183 236 297 361 435
#     4  10  24  44  70  96 144 194 230 300 368 428
#     4   9  21  40  69 102 136 183 238 294 366 433
#     4  10  24  40  64  98 138 180 228 298 358 424
#     4  11  25  44  68 103 141 183 243 293 364 442
#     4  10  23  43  65  98 138 177 235 291 358 428
#
# _framework density 25.441549999999999
#
# number of rings (size 3 to 8) (size 9 to 14) (size 15 to 20)
#    0.000    2.000    0.000    1.714    9.000    6.286 
#    3.857    0.000    0.000    0.000    0.000    0.000 
#    0.000    0.000    0.000    0.000    0.000    0.000 
#
# Total GULP energy -77984.353900 kJ/mol
# GULP energy per Si atom -5570.310993 kJ/mol
# Density = 2.538364 g / cm^3
# Si number density = 25.441550 Si / 1000 Ang^3
#
#
#
# Elastic Constant Matrix: (Units=GPa)
#
#
# Indices 1 2 3 4 5 6 
#
# 1 84.9866 -2.2874 23.1980 0.0000 -6.3466 0.0000
# 2 -2.2874 109.4987 28.5858 0.0000 9.9924 0.0000
# 3 23.1980 28.5858 131.6171 0.0000 -9.9640 0.0000
# 4 0.0000 0.0000 0.0000 34.5447 0.0000 -12.9683
# 5 -6.3466 9.9924 -9.9640 0.0000 35.0813 0.0000
# 6 0.0000 0.0000 0.0000 -12.9683 0.0000 -0.2964
#
#
#
# Elastic Compliance Matrix: (Units=1/GPa)
#
#
# Indices 1 2 3 4 5 6 
#
# 1 0.012507 0.000720 -0.002254 0.000000 0.001417 0.000000
# 2 0.000720 0.010144 -0.002595 0.000000 -0.003496 0.000000
# 3 -0.002254 -0.002595 0.008772 0.000000 0.002823 0.000000
# 4 0.000000 0.000000 0.000000 0.001661 0.000000 -0.072685
# 5 0.001417 -0.003496 0.002823 0.000000 0.030559 0.000000
# 6 0.000000 0.000000 0.000000 -0.072685 0.000000 -0.193616
#
#
# Mechanical properties :
#
#
# Convention : Reuss Voigt Hill
#
# Bulk Modulus (GPa) = 43.16478 47.23281 45.19879
# Shear Modulus (GPa) = -43.86195 32.30631 -5.77782
#
# Velocity S-wave (km/s) = -4.15665 3.56733 -1.50862
# Velocity P-wave (km/s) = 2.45639 5.96433 3.84314
#
# Compressibility (1/GPa) = 0.02316704
#
# Stress axis : x y z
#
# Youngs Moduli (GPa) = 79.95580 98.58045 113.99582
#
# Poissons Ratio (x) = -0.07100 0.25689
# Poissons Ratio (y) = -0.05759 0.29579
# Poissons Ratio (z) = 0.18018 0.25579
#
# Static dielectric constant tensor:
#      x y z
#    x 2.219030 0.000000 -0.175260 
#    y 0.000000 2.038880 0.000000 
#    z -0.175260 0.000000 2.215000 
# 
# From -- ./inp_files/1421.got.cif
#   From: 2010.05.17/outbox.cif.g08.bks.cpg/sg3_1_cif.got.tgz:1421.got - 2010.06.03 18:33:08.
