data_PCOD9113814
_publ_section_title
;
Structure prediction by ZEFSAII (Michael W. Deem and Ramdas Pophale) SiO2 
 PCOD9113814
Probable space group: P 2
;
_chemical_formula_sum "Si O2"
_cell_formula_units_Z 9
_cell_length_a 9.480711
_cell_length_b 9.030169
_cell_length_c 5.018908
_cell_angle_alpha 90.000000
_cell_angle_beta 84.636699
_cell_angle_gamma 90.000000
_cell_volume 427.799746
_symmetry_space_group_name_H-M "P 2"
_symmetry_group_IT_number 3
_symmetry_cell_setting 'monoclinic'
loop_
_space_group_symop_operation_xyz
x,y,z
-x,y,-z
loop_
_atom_site_type_symbol
_atom_site_label
_atom_site_fract_x
_atom_site_fract_y
_atom_site_fract_z
Si Si1 0.158311 0.141130 0.466664
Si Si2 0.500000 0.398133 0.500000
Si Si3 0.659951 0.585457 0.864420
Si Si4 0.905018 0.816163 0.749580
Si Si5 0.296923 0.279688 0.939717
O O1 0.212586 0.174290 0.752211
O O2 0.000000 0.207116 0.500000
O O3 0.141305 0.972314 0.373510
O O4 0.262631 0.214181 0.234306
O O5 0.622111 0.505726 0.591427
O O6 0.444674 0.299146 0.753365
O O7 0.764535 0.722128 0.831537
O O8 0.500000 0.619314 0.000000
O O9 0.736322 0.454665 0.018192
O O10 0.000000 0.741707 0.500000
O O11 0.000000 0.836342 0.000000
#
# Coordination Sequence:
#
# PCOD9113814 Si02
#       5
#     2   1   2   2   2
#     4  11  23  43  66  98 139 177 220 282 345 412
#     4  10  22  46  66 100 138 176 226 302 332 404
#     4  10  24  45  72 100 140 179 232 290 343 410
#     4  11  26  46  70 102 144 182 228 285 351 414
#     4  11  22  42  69  95 134 173 228 279 346 393
#
# _framework density 21.037880000000001
#
# number of rings (size 3 to 8) (size 9 to 14) (size 15 to 20)
#    0.000    1.333    2.222    3.333    6.222    2.667 
#    4.000    0.000    0.000    0.000    0.000    0.000 
#    0.000    0.000    0.000    0.000    0.000    0.000 
#
# Total GULP energy -50116.296561 kJ/mol
# GULP energy per Si atom -5568.477396 kJ/mol
# Density = 2.099000 g / cm^3
# Si number density = 21.037880 Si / 1000 Ang^3
#
#
#
# Elastic Constant Matrix: (Units=GPa)
#
#
# Indices 1 2 3 4 5 6 
#
# 1 92.3657 60.9582 20.6479 0.0000 1.8301 0.0000
# 2 60.9582 91.8637 22.9929 0.0000 -3.3057 0.0000
# 3 20.6479 22.9929 112.7003 0.0000 8.2196 0.0000
# 4 0.0000 0.0000 0.0000 27.7462 0.0000 -7.1880
# 5 1.8301 -3.3057 8.2196 0.0000 44.7455 0.0000
# 6 0.0000 0.0000 0.0000 -7.1880 0.0000 36.8158
#
#
#
# Elastic Compliance Matrix: (Units=1/GPa)
#
#
# Indices 1 2 3 4 5 6 
#
# 1 0.019473 -0.012766 -0.000848 0.000000 -0.001584 0.000000
# 2 -0.012766 0.019916 -0.001895 0.000000 0.002342 0.000000
# 3 -0.000848 -0.001895 0.009551 0.000000 -0.001860 0.000000
# 4 0.000000 0.000000 0.000000 0.037961 0.000000 0.007412
# 5 -0.001584 0.002342 -0.001860 0.000000 0.022928 0.000000
# 6 0.000000 0.000000 0.000000 0.007412 0.000000 0.028609
#
#
# Mechanical properties :
#
#
# Convention : Reuss Voigt Hill
#
# Bulk Modulus (GPa) = 55.79988 56.23641 56.01815
# Shear Modulus (GPa) = 28.50153 34.68355 31.59254
#
# Velocity S-wave (km/s) = 3.68472 4.06473 3.87938
# Velocity P-wave (km/s) = 6.68461 6.98702 6.83748
#
# Compressibility (1/GPa) = 0.01792118
#
# Stress axis : x y z
#
# Youngs Moduli (GPa) = 51.35363 50.21156 104.70531
#
# Poissons Ratio (x) = 0.64103 0.08874
# Poissons Ratio (y) = 0.65561 0.19842
# Poissons Ratio (z) = 0.04352 0.09515
#
# Static dielectric constant tensor:
#      x y z
#    x 1.851060 0.000000 0.016530 
#    y 0.000000 1.735950 0.000000 
#    z 0.016530 0.000000 1.821970 
# 
# From -- ./inp_files/860.got.cif
#   From: 2010.05.17/outbox.cif.g08.bks.cpg/sg3_1_cif.got.tgz:860.got - 2010.06.03 18:33:08.
