data_PCOD9113608
_publ_section_title
;
Structure prediction by ZEFSAII (Michael W. Deem and Ramdas Pophale) SiO2 
 PCOD9113608
Probable space group: P 2
;
_chemical_formula_sum "Si O2"
_cell_formula_units_Z 14
_cell_length_a 21.429827
_cell_length_b 4.918285
_cell_length_c 5.673550
_cell_angle_alpha 90.000000
_cell_angle_beta 59.426323
_cell_angle_gamma 90.000000
_cell_volume 514.847002
_symmetry_space_group_name_H-M "P 2"
_symmetry_group_IT_number 3
_symmetry_cell_setting 'monoclinic'
loop_
_space_group_symop_operation_xyz
x,y,z
-x,y,-z
loop_
_atom_site_type_symbol
_atom_site_label
_atom_site_fract_x
_atom_site_fract_y
_atom_site_fract_z
Si Si1 0.356973 0.644490 0.991483
Si Si2 0.431448 0.262672 0.236619
Si Si3 0.286479 0.280069 0.725751
Si Si4 0.761726 0.809849 0.464940
Si Si5 0.920317 0.138915 0.774711
Si Si6 0.000000 0.432807 0.000000
Si Si7 0.112205 0.637906 0.433786
Si Si8 0.500000 0.649308 0.500000
O O1 0.426480 0.787462 0.735056
O O2 0.394792 0.450054 0.109510
O O3 0.259568 0.527022 0.614832
O O4 0.302961 0.855369 0.219263
O O5 0.362614 0.139244 0.499179
O O6 0.467817 0.459717 0.357713
O O7 0.500000 0.098028 0.000000
O O8 0.308962 0.444995 0.917895
O O9 0.233065 0.037033 0.748725
O O10 0.831211 0.759415 0.491961
O O11 0.871332 0.345907 0.714459
O O12 0.000000 0.157659 0.500000
O O13 0.896459 0.835635 0.770848
O O14 0.937183 0.248475 0.002386
O O15 0.961700 0.608823 0.274646
#
# Coordination Sequence:
#
# PCOD9113608 Si02
#       8
#     2   2   2   2   2   1   2   1
#     4   9  19  37  63  93 130 171 220 281 333 395
#     4   8  15  32  59  89 123 164 215 275 329 389
#     4  10  22  40  62  91 127 172 221 268 337 404
#     4  11  24  43  64  93 133 173 220 276 330 398
#     4  10  22  42  69 101 134 174 225 274 331 400
#     4  10  24  46  72 100 140 178 218 284 336 390
#     4  11  24  43  68 101 136 177 227 273 333 403
#     4   8  14  32  64  94 124 170 224 270 340 400
#
# _framework density 27.192544000000002
#
# number of rings (size 3 to 8) (size 9 to 14) (size 15 to 20)
#    0.000    2.286    0.000    2.143    0.000    8.571 
#    0.000   12.857    0.000   40.286    0.000    0.000 
#    0.000    0.000    0.000    0.000    0.000    0.000 
#
# Total GULP energy -78317.000654 kJ/mol
# GULP energy per Si atom -5594.071475 kJ/mol
# Density = 2.713065 g / cm^3
# Si number density = 27.192544 Si / 1000 Ang^3
#
#
#
# Elastic Constant Matrix: (Units=GPa)
#
#
# Indices 1 2 3 4 5 6 
#
# 1 151.8290 41.6144 33.3563 0.0000 48.2390 0.0000
# 2 41.6144 111.0172 30.0488 0.0000 11.2610 0.0000
# 3 33.3563 30.0488 86.7981 0.0000 2.5385 0.0000
# 4 0.0000 0.0000 0.0000-5358.8718 0.0000-1205.9063
# 5 48.2390 11.2610 2.5385 0.0000 46.3009 0.0000
# 6 0.0000 0.0000 0.0000-1205.9063 0.0000 -240.6886
#
#
#
# Elastic Compliance Matrix: (Units=1/GPa)
#
#
# Indices 1 2 3 4 5 6 
#
# 1 0.011516 -0.002279 -0.003307 0.000000 -0.011262 0.000000
# 2 -0.002279 0.010626 -0.002801 0.000000 -0.000056 0.000000
# 3 -0.003307 -0.002801 0.013663 0.000000 0.003378 0.000000
# 4 0.000000 0.000000 0.000000 0.001464 0.000000 -0.007336
# 5 -0.011262 -0.000056 0.003378 0.000000 0.033160 0.000000
# 6 0.000000 0.000000 0.000000 -0.007336 0.000000 0.032598
#
#
# Mechanical properties :
#
#
# Convention : Reuss Voigt Hill
#
# Bulk Modulus (GPa) = 52.54906 62.18702 57.36804
# Shear Modulus (GPa) = 39.63698 -1094.34359 -527.35330
#
# Velocity S-wave (km/s) = 3.82205 -20.08273 -13.94109
# Velocity P-wave (km/s) = 6.23251 22.69000 15.42712
#
# Compressibility (1/GPa) = 0.01902984
#
# Stress axis : x y z
#
# Youngs Moduli (GPa) = 86.83702 94.11048 73.19136
#
# Poissons Ratio (x) = 0.21449 0.24205
# Poissons Ratio (y) = 0.19792 0.20501
# Poissons Ratio (z) = 0.28718 0.26361
#
# Static dielectric constant tensor:
#      x y z
#    x 3.898480 0.000000 -0.500370 
#    y 0.000000 2.050900 0.000000 
#    z -0.500370 0.000000 2.334390 
# 
# From -- ./inp_files/3837.got.cif
#   From: 2010.05.17/outbox.cif.g08.bks.cpg/sg3_2_cif.got.tgz:3837.got - 2010.06.03 18:33:08.
