data_PCOD9113808
_publ_section_title
;
Structure prediction by ZEFSAII (Michael W. Deem and Ramdas Pophale) SiO2 
 PCOD9113808
Probable space group: P 2
;
_chemical_formula_sum "Si O2"
_cell_formula_units_Z 8
_cell_length_a 5.084404
_cell_length_b 11.959143
_cell_length_c 5.361571
_cell_angle_alpha 90.000000
_cell_angle_beta 90.192229
_cell_angle_gamma 90.000000
_cell_volume 326.009104
_symmetry_space_group_name_H-M "P 2"
_symmetry_group_IT_number 3
_symmetry_cell_setting 'monoclinic'
loop_
_space_group_symop_operation_xyz
x,y,z
-x,y,-z
loop_
_atom_site_type_symbol
_atom_site_label
_atom_site_fract_x
_atom_site_fract_y
_atom_site_fract_z
Si Si1 0.746763 0.281820 0.821683
Si Si2 0.500000 0.859599 0.500000
Si Si3 0.168756 0.032598 0.255526
Si Si4 0.000000 0.712362 0.500000
Si Si5 0.247473 0.518960 0.176015
O O1 0.500000 0.290045 0.000000
O O2 0.734320 0.160173 0.700747
O O3 0.739420 0.400159 0.675802
O O4 0.000000 0.276079 0.000000
O O5 0.754488 0.788361 0.407288
O O6 0.397144 0.940942 0.279521
O O7 0.000000 0.008981 0.500000
O O8 0.000000 0.025888 0.000000
O O9 0.833698 0.627682 0.672594
O O10 0.500000 0.536030 0.000000
O O11 0.000000 0.501489 0.000000
#
# Coordination Sequence:
#
# PCOD9113808 Si02
#       5
#     2   1   2   1   2
#     4   9  21  41  73 108 149 187 246 315 394 462
#     4  12  28  50  70 114 152 212 264 314 382 462
#     4  11  27  51  79 115 157 201 257 323 392 463
#     4  12  26  48  74 106 154 206 264 314 382 456
#     4  10  22  45  72 109 146 196 252 318 387 459
#
# _framework density 24.539193000000001
#
# number of rings (size 3 to 8) (size 9 to 14) (size 15 to 20)
#    0.000    1.500    1.250    1.500    8.750    1.000 
#    9.000    1.250    0.000    0.000    0.000    0.000 
#    0.000    0.000    0.000    0.000    0.000    0.000 
#
# Total GULP energy -44654.585136 kJ/mol
# GULP energy per Si atom -5581.823142 kJ/mol
# Density = 2.448334 g / cm^3
# Si number density = 24.539193 Si / 1000 Ang^3
#
#
#
# Elastic Constant Matrix: (Units=GPa)
#
#
# Indices 1 2 3 4 5 6 
#
# 1 201.9624 81.8740 55.5638 0.0000 -11.8220 0.0000
# 2 81.8740 241.8865 54.1874 0.0000 -0.7918 0.0000
# 3 55.5638 54.1874 89.9352 0.0000 0.4276 0.0000
# 4 0.0000 0.0000 0.0000 29.9018 0.0000 -12.1016
# 5 -11.8220 -0.7918 0.4276 0.0000 53.6022 0.0000
# 6 0.0000 0.0000 0.0000 -12.1016 0.0000 66.3748
#
#
#
# Elastic Compliance Matrix: (Units=1/GPa)
#
#
# Indices 1 2 3 4 5 6 
#
# 1 0.006501 -0.001496 -0.003122 0.000000 0.001437 0.000000
# 2 -0.001496 0.005124 -0.002162 0.000000 -0.000237 0.000000
# 3 -0.003122 -0.002162 0.014354 0.000000 -0.000835 0.000000
# 4 0.000000 0.000000 0.000000 0.036107 0.000000 0.006583
# 5 0.001437 -0.000237 -0.000835 0.000000 0.018976 0.000000
# 6 0.000000 0.000000 0.000000 0.006583 0.000000 0.016266
#
#
# Mechanical properties :
#
#
# Convention : Reuss Voigt Hill
#
# Bulk Modulus (GPa) = 80.51726 101.89272 91.20499
# Shear Modulus (GPa) = 43.46764 52.78634 48.12699
#
# Velocity S-wave (km/s) = 4.21331 4.64303 4.43338
# Velocity P-wave (km/s) = 7.52012 8.38786 7.96582
#
# Compressibility (1/GPa) = 0.01241970
#
# Stress axis : x y z
#
# Youngs Moduli (GPa) = 153.82301 195.15286 69.66613
#
# Poissons Ratio (x) = 0.29204 0.21747
# Poissons Ratio (y) = 0.23019 0.15060
# Poissons Ratio (z) = 0.48018 0.42187
#
# Static dielectric constant tensor:
#      x y z
#    x 1.946530 0.000000 0.012610 
#    y 0.000000 2.165450 0.000000 
#    z 0.012610 0.000000 1.946390 
# 
# From -- ./inp_files/148.got.cif
#   From: 2010.05.17/outbox.cif.g08.bks.cpg/sg3_1_cif.got.tgz:148.got - 2010.06.03 18:33:08.
