data_PCOD9113803
_publ_section_title
;
Structure prediction by ZEFSAII (Michael W. Deem and Ramdas Pophale) SiO2 
 PCOD9113803
Probable space group: P 2
;
_chemical_formula_sum "Si O2"
_cell_formula_units_Z 12
_cell_length_a 12.575430
_cell_length_b 7.702910
_cell_length_c 9.031944
_cell_angle_alpha 90.000000
_cell_angle_beta 144.927004
_cell_angle_gamma 90.000000
_cell_volume 502.735241
_symmetry_space_group_name_H-M "P 2"
_symmetry_group_IT_number 3
_symmetry_cell_setting 'monoclinic'
loop_
_space_group_symop_operation_xyz
x,y,z
-x,y,-z
loop_
_atom_site_type_symbol
_atom_site_label
_atom_site_fract_x
_atom_site_fract_y
_atom_site_fract_z
Si Si1 0.416031 0.286730 0.140969
Si Si2 0.662313 0.786533 0.283401
Si Si3 0.977736 0.737772 0.144833
Si Si4 0.568578 0.668508 0.743107
Si Si5 0.078111 0.155179 0.929595
Si Si6 0.754900 0.168990 0.352086
O O1 0.479888 0.479108 0.253143
O O2 0.603199 0.190575 0.308266
O O3 0.285926 0.210363 0.122865
O O4 0.299604 0.275397 0.854887
O O5 0.845496 0.693649 0.552569
O O6 0.540816 0.814887 0.292317
O O7 0.734057 0.963500 0.289189
O O8 0.500000 0.701448 0.000000
O O9 0.951941 0.946838 0.106866
O O10 0.000000 0.676183 0.000000
O O11 0.788814 0.674561 0.000702
O O12 0.500000 0.685011 0.500000
O O13 0.947615 0.216515 0.646074
O O14 0.000000 0.216594 0.000000
#
# Coordination Sequence:
#
# PCOD9113803 Si02
#       6
#     2   2   2   2   2   2
#     4  11  24  43  64  97 139 182 219 278 348 408
#     4  11  23  45  73 102 130 180 235 289 336 400
#     4  10  22  45  69  97 135 181 230 286 335 400
#     4  12  27  43  68 101 142 186 225 281 350 419
#     4  10  23  41  71 102 128 177 238 287 340 399
#     4  10  23  46  69  94 136 179 232 288 332 409
#
# _framework density 23.869423999999999
#
# number of rings (size 3 to 8) (size 9 to 14) (size 15 to 20)
#    0.000    1.333    3.333    1.500    4.667    2.667 
#    3.000    0.000    0.000    0.000    0.000    0.000 
#    0.000    0.000    0.000    0.000    0.000    0.000 
#
# Total GULP energy -67046.147660 kJ/mol
# GULP energy per Si atom -5587.178972 kJ/mol
# Density = 2.381510 g / cm^3
# Si number density = 23.869424 Si / 1000 Ang^3
#
#
#
# Elastic Constant Matrix: (Units=GPa)
#
#
# Indices 1 2 3 4 5 6 
#
# 1 87.0011 6.4442 3.1311 0.0000 14.8448 0.0000
# 2 6.4442 24.1152 -5.6132 0.0000 -7.1165 0.0000
# 3 3.1311 -5.6132 106.1776 0.0000 14.8250 0.0000
# 4 0.0000 0.0000 0.0000-3315.2154 0.0000 2931.5596
# 5 14.8448 -7.1165 14.8250 0.0000 50.6120 0.0000
# 6 0.0000 0.0000 0.0000 2931.5596 0.0000-2567.0699
#
#
#
# Elastic Compliance Matrix: (Units=1/GPa)
#
#
# Indices 1 2 3 4 5 6 
#
# 1 0.012579 -0.004644 -0.000011 0.000000 -0.004339 0.000000
# 2 -0.004644 0.045208 0.001511 0.000000 0.007276 0.000000
# 3 -0.000011 0.001511 0.009872 0.000000 -0.002676 0.000000
# 4 0.000000 0.000000 0.000000 0.030688 0.000000 0.035045
# 5 -0.004339 0.007276 -0.002676 0.000000 0.022838 0.000000
# 6 0.000000 0.000000 0.000000 0.035045 0.000000 0.039631
#
#
# Mechanical properties :
#
#
# Convention : Reuss Voigt Hill
#
# Bulk Modulus (GPa) = 16.29447 25.02424 20.65935
# Shear Modulus (GPa) = 26.65809 -1152.11255 -562.72723
#
# Velocity S-wave (km/s) = 3.34553 -21.99365 -15.37089
# Velocity P-wave (km/s) = 4.66527 25.18838 17.50271
#
# Compressibility (1/GPa) = 0.06137051
#
# Stress axis : x y z
#
# Youngs Moduli (GPa) = 79.49796 22.12011 101.29632
#
# Poissons Ratio (x) = 0.10274 0.00107
# Poissons Ratio (y) = 0.36923 -0.15306
# Poissons Ratio (z) = 0.00084 -0.03342
#
# Static dielectric constant tensor:
#      x y z
#    x 7.559210 0.000000 -4.462280 
#    y 0.000000 1.912590 0.000000 
#    z -4.462280 0.000000 5.420340 
# 
# From -- ./inp_files/7537.got.cif
#   From: 2010.05.17/outbox.cif.g08.bks.cpg/sg3_4_cif.got.tgz:7537.got - 2010.06.03 18:33:08.
