data_PCOD9113958
_publ_section_title
;
Structure prediction by ZEFSAII (Michael W. Deem and Ramdas Pophale) SiO2 
 PCOD9113958
Probable space group: P 2
;
_chemical_formula_sum "Si O2"
_cell_formula_units_Z 13
_cell_length_a 9.876265
_cell_length_b 5.855132
_cell_length_c 11.969728
_cell_angle_alpha 90.000000
_cell_angle_beta 47.952676
_cell_angle_gamma 90.000000
_cell_volume 514.000939
_symmetry_space_group_name_H-M "P 2"
_symmetry_group_IT_number 3
_symmetry_cell_setting 'monoclinic'
loop_
_space_group_symop_operation_xyz
x,y,z
-x,y,-z
loop_
_atom_site_type_symbol
_atom_site_label
_atom_site_fract_x
_atom_site_fract_y
_atom_site_fract_z
Si Si1 0.854586 0.065290 0.258541
Si Si2 0.184016 0.719789 0.037298
Si Si3 0.760182 0.440059 0.497952
Si Si4 0.000000 0.349394 0.000000
Si Si5 0.000000 0.756518 0.500000
Si Si6 0.500000 0.862940 0.000000
Si Si7 0.666755 0.077521 0.703431
Si Si8 0.436268 0.778421 0.677367
O O1 0.823781 0.249108 0.373887
O O2 0.696134 0.875051 0.344658
O O3 0.845667 0.196310 0.143752
O O4 0.046865 0.929115 0.142207
O O5 0.330912 0.708808 0.054548
O O6 0.301745 0.735648 0.857164
O O7 0.065142 0.501346 0.068507
O O8 0.566685 0.562906 0.581787
O O9 0.919470 0.618257 0.439098
O O10 0.729092 0.326506 0.637095
O O11 0.160108 0.919806 0.370916
O O12 0.537549 0.032404 0.877379
O O13 0.566667 0.978044 0.650010
#
# Coordination Sequence:
#
# PCOD9113958 Si02
#       8
#     2   2   2   1   1   1   2   2
#     4  12  26  48  80 118 156 216 276 344 411 490
#     4  11  24  48  77 114 161 200 275 335 397 494
#     4  11  27  46  81 112 159 219 267 335 427 468
#     4  12  24  46  84 108 158 214 274 330 412 482
#     4  10  24  48  72 110 160 204 268 334 398 508
#     4  10  26  46  80 114 156 210 258 344 392 478
#     4  10  24  47  74 105 160 202 268 331 394 486
#     4  10  23  51  68 112 158 203 269 340 386 495
#
# _framework density 25.291785999999998
#
# number of rings (size 3 to 8) (size 9 to 14) (size 15 to 20)
#    0.000    1.231    3.077    0.462    8.615    1.846 
#    5.538    7.692    0.000    0.000    0.000    0.000 
#    0.000    0.000    0.000    0.000    0.000    0.000 
#
# Total GULP energy -72732.813104 kJ/mol
# GULP energy per Si atom -5594.831777 kJ/mol
# Density = 2.523422 g / cm^3
# Si number density = 25.291786 Si / 1000 Ang^3
#
#
#
# Elastic Constant Matrix: (Units=GPa)
#
#
# Indices 1 2 3 4 5 6 
#
# 1 141.2117 48.3381 44.4277 0.0000 -14.6090 0.0000
# 2 48.3381 96.8674 50.9736 0.0000 -11.4479 0.0000
# 3 44.4277 50.9736 120.6852 0.0000 2.2607 0.0000
# 4 0.0000 0.0000 0.0000 45.9693 0.0000 -6.3770
# 5 -14.6090 -11.4479 2.2607 0.0000 47.8966 0.0000
# 6 0.0000 0.0000 0.0000 -6.3770 0.0000 -4.2216
#
#
#
# Elastic Compliance Matrix: (Units=1/GPa)
#
#
# Indices 1 2 3 4 5 6 
#
# 1 0.009025 -0.003200 -0.002010 0.000000 0.002083 0.000000
# 2 -0.003200 0.015000 -0.005211 0.000000 0.002855 0.000000
# 3 -0.002010 -0.005211 0.011272 0.000000 -0.002391 0.000000
# 4 0.000000 0.000000 0.000000 0.017985 0.000000 -0.027168
# 5 0.002083 0.002855 -0.002391 0.000000 0.022309 0.000000
# 6 0.000000 0.000000 0.000000 -0.027168 0.000000 -0.195840
#
#
# Mechanical properties :
#
#
# Convention : Reuss Voigt Hill
#
# Bulk Modulus (GPa) = 69.18024 71.80479 70.49252
# Shear Modulus (GPa) = -52.85913 32.26386 -10.29764
#
# Velocity S-wave (km/s) = -4.57658 3.57552 -2.01999
# Velocity P-wave (km/s) = 0.71733 6.74522 4.74254
#
# Compressibility (1/GPa) = 0.01445499
#
# Stress axis : x y z
#
# Youngs Moduli (GPa) = 110.80790 66.66854 88.71856
#
# Poissons Ratio (x) = 0.21332 0.17831
# Poissons Ratio (y) = 0.35455 0.46231
# Poissons Ratio (z) = 0.22270 0.34741
#
# Static dielectric constant tensor:
#      x y z
#    x 1.999650 0.000000 0.000530 
#    y 0.000000 2.057020 0.000000 
#    z 0.000530 0.000000 2.113150 
# 
# From -- ./inp_files/13652.got.cif
#   From: 2010.05.17/outbox.cif.g08.bks.cpg/sg3_7_cif.got.tgz:13652.got - 2010.06.03 18:33:08.
