data_PCOD9113156
_publ_section_title
;
Structure prediction by ZEFSAII (Michael W. Deem and Ramdas Pophale) SiO2 
 PCOD9113156
Probable space group: P 2
;
_chemical_formula_sum "Si O2"
_cell_formula_units_Z 16
_cell_length_a 5.091963
_cell_length_b 11.667413
_cell_length_c 11.486808
_cell_angle_alpha 90.000000
_cell_angle_beta 96.554702
_cell_angle_gamma 90.000000
_cell_volume 677.970834
_symmetry_space_group_name_H-M "P 2"
_symmetry_group_IT_number 3
_symmetry_cell_setting 'monoclinic'
loop_
_space_group_symop_operation_xyz
x,y,z
-x,y,-z
loop_
_atom_site_type_symbol
_atom_site_label
_atom_site_fract_x
_atom_site_fract_y
_atom_site_fract_z
Si Si1 0.648257 0.012290 0.620756
Si Si2 0.051437 0.767182 0.867581
Si Si3 0.156139 0.508320 0.393446
Si Si4 0.196577 0.993580 0.766543
Si Si5 0.928050 0.225116 0.121677
Si Si6 0.460697 0.642949 0.235867
Si Si7 0.633131 0.277535 0.665343
Si Si8 0.289913 0.429125 0.798663
O O1 0.500000 0.964497 0.500000
O O2 0.614301 0.150573 0.615700
O O3 0.957391 0.989936 0.659196
O O4 0.475463 0.969362 0.720771
O O5 0.287840 0.709540 0.804520
O O6 0.115218 0.901340 0.858453
O O7 0.782473 0.726691 0.794899
O O8 0.000000 0.735231 0.000000
O O9 0.398253 0.588472 0.361446
O O10 0.250198 0.376310 0.411902
O O11 0.000000 0.547114 0.500000
O O12 0.950891 0.497969 0.273982
O O13 0.211309 0.121085 0.818817
O O14 0.776063 0.345198 0.100176
O O15 0.175964 0.260598 0.213613
O O16 0.000000 0.179806 0.000000
O O17 0.483543 0.521743 0.167532
O O18 0.373997 0.337320 0.703823
#
# Coordination Sequence:
#
# PCOD9113156 Si02
#       8
#     2   2   2   2   2   2   2   2
#     4  11  23  41  70 100 142 177 218 278 349 402
#     4  12  26  49  75  97 130 188 238 291 349 401
#     4  10  22  40  69  99 139 187 230 283 348 407
#     4  11  24  46  69 100 137 172 238 285 326 429
#     4  10  21  39  62  98 137 178 216 280 354 401
#     4  11  24  46  68 101 136 169 242 291 335 418
#     4   9  21  35  59  99 138 183 227 270 321 436
#     4  10  20  42  61  97 142 172 225 281 336 418
#
# _framework density 23.599834999999999
#
# number of rings (size 3 to 8) (size 9 to 14) (size 15 to 20)
#    0.000    1.500    2.500    1.875    1.750    2.500 
#    6.750    3.750    0.000    0.000    0.000    0.000 
#    0.000    0.000    0.000    0.000    0.000    0.000 
#
# Total GULP energy -89249.407986 kJ/mol
# GULP energy per Si atom -5578.087999 kJ/mol
# Density = 2.354612 g / cm^3
# Si number density = 23.599835 Si / 1000 Ang^3
#
#
#
# Elastic Constant Matrix: (Units=GPa)
#
#
# Indices 1 2 3 4 5 6 
#
# 1 103.9915 33.5795 20.2150 0.0000 -30.3269 0.0000
# 2 33.5795 95.3973 18.0216 0.0000 -10.0586 0.0000
# 3 20.2150 18.0216 67.9441 0.0000 -16.8166 0.0000
# 4 0.0000 0.0000 0.0000 9.2784 0.0000 -9.7448
# 5 -30.3269 -10.0586 -16.8166 0.0000 24.5921 0.0000
# 6 0.0000 0.0000 0.0000 -9.7448 0.0000 38.5465
#
#
#
# Elastic Compliance Matrix: (Units=1/GPa)
#
#
# Indices 1 2 3 4 5 6 
#
# 1 0.016259 -0.003884 0.000917 0.000000 0.019089 0.000000
# 2 -0.003884 0.012153 -0.002435 0.000000 -0.001484 0.000000
# 3 0.000917 -0.002435 0.018206 0.000000 0.012585 0.000000
# 4 0.000000 0.000000 0.000000 0.146740 0.000000 0.037097
# 5 0.019089 -0.001484 0.012585 0.000000 0.072203 0.000000
# 6 0.000000 0.000000 0.000000 0.037097 0.000000 0.035321
#
#
# Mechanical properties :
#
#
# Convention : Reuss Voigt Hill
#
# Bulk Modulus (GPa) = 27.92148 45.66279 36.79213
# Shear Modulus (GPa) = 15.45010 27.51784 21.48397
#
# Velocity S-wave (km/s) = 2.56143 3.41841 3.02046
# Velocity P-wave (km/s) = 4.53925 5.91367 5.27144
#
# Compressibility (1/GPa) = 0.03581472
#
# Stress axis : x y z
#
# Youngs Moduli (GPa) = 61.50507 82.28351 54.92765
#
# Poissons Ratio (x) = 0.31956 -0.05039
# Poissons Ratio (y) = 0.23886 0.13376
# Poissons Ratio (z) = -0.05642 0.20038
#
# Static dielectric constant tensor:
#      x y z
#    x 1.962940 0.000000 -0.004450 
#    y 0.000000 1.907400 0.000000 
#    z -0.004450 0.000000 1.938680 
# 
# From -- ./inp_files/9992.got.cif
#   From: 2010.05.17/outbox.cif.g08.bks.cpg/sg3_5_cif.got.tgz:9992.got - 2010.06.03 18:33:08.
