data_PCOD9113755
_publ_section_title
;
Structure prediction by ZEFSAII (Michael W. Deem and Ramdas Pophale) SiO2 
 PCOD9113755
Probable space group: P 2
;
_chemical_formula_sum "Si O2"
_cell_formula_units_Z 13
_cell_length_a 18.141212
_cell_length_b 4.861884
_cell_length_c 5.435520
_cell_angle_alpha 90.000000
_cell_angle_beta 108.999728
_cell_angle_gamma 90.000000
_cell_volume 453.296916
_symmetry_space_group_name_H-M "P 2"
_symmetry_group_IT_number 3
_symmetry_cell_setting 'monoclinic'
loop_
_space_group_symop_operation_xyz
x,y,z
-x,y,-z
loop_
_atom_site_type_symbol
_atom_site_label
_atom_site_fract_x
_atom_site_fract_y
_atom_site_fract_z
Si Si1 0.500000 0.718030 0.500000
Si Si2 0.084533 0.242751 0.099842
Si Si3 0.371482 0.039585 0.055093
Si Si4 0.784531 0.366598 0.551250
Si Si5 0.379134 0.555594 0.733563
Si Si6 0.194044 0.024076 0.913306
Si Si7 0.083413 0.730638 0.476489
O O1 0.452219 0.525679 0.636487
O O2 0.561636 0.916927 0.701127
O O3 0.190910 0.181202 0.190041
O O4 0.074991 0.986917 0.281645
O O5 0.000000 0.387279 0.000000
O O6 0.096367 0.143415 0.831652
O O7 0.381100 0.871188 0.813090
O O8 0.287918 0.941920 0.067338
O O9 0.378979 0.355819 0.972698
O O10 0.703761 0.509309 0.491052
O O11 0.873492 0.503491 0.669354
O O12 0.783391 0.198769 0.306705
O O13 0.155600 0.739486 0.750603
O O14 0.000000 0.661191 0.500000
#
# Coordination Sequence:
#
# PCOD9113755 Si02
#       7
#     1   2   2   2   2   2   2
#     4  12  30  52  84 120 154 204 268 328 406 480
#     4  10  23  43  68 106 148 197 252 308 379 451
#     4  11  27  52  81 116 156 206 261 328 400 472
#     4   9  23  46  66 104 152 192 253 317 370 461
#     4  11  26  53  81 112 160 206 257 327 402 471
#     4  11  23  47  73 100 152 206 249 316 390 452
#     4  10  22  43  71 107 150 198 254 317 374 454
#
# _framework density 28.678775999999999
#
# number of rings (size 3 to 8) (size 9 to 14) (size 15 to 20)
#    0.923    0.615    1.538    1.385    2.154    9.846 
#    8.308    1.538    0.000    0.000    0.000    0.000 
#    0.000    0.000    0.000    0.000    0.000    0.000 
#
# Total GULP energy -72583.828333 kJ/mol
# GULP energy per Si atom -5583.371410 kJ/mol
# Density = 2.861350 g / cm^3
# Si number density = 28.678776 Si / 1000 Ang^3
#
#
#
# Elastic Constant Matrix: (Units=GPa)
#
#
# Indices 1 2 3 4 5 6 
#
# 1 236.6575 35.7665 92.1071 0.0000 56.1556 0.0000
# 2 35.7665 106.6965 41.6376 0.0000 8.9421 0.0000
# 3 92.1071 41.6376 145.3030 0.0000 12.9906 0.0000
# 4 0.0000 0.0000 0.0000 36.9556 0.0000 7.2746
# 5 56.1556 8.9421 12.9906 0.0000 56.5067 0.0000
# 6 0.0000 0.0000 0.0000 7.2746 0.0000 44.0828
#
#
#
# Elastic Compliance Matrix: (Units=1/GPa)
#
#
# Indices 1 2 3 4 5 6 
#
# 1 0.007324 -0.000377 -0.003971 0.000000 -0.006306 0.000000
# 2 -0.000377 0.010627 -0.002746 0.000000 -0.000676 0.000000
# 3 -0.003971 -0.002746 0.010000 0.000000 0.002082 0.000000
# 4 0.000000 0.000000 0.000000 0.027968 0.000000 -0.004615
# 5 -0.006306 -0.000676 0.002082 0.000000 0.023592 0.000000
# 6 0.000000 0.000000 0.000000 -0.004615 0.000000 0.023446
#
#
# Mechanical properties :
#
#
# Convention : Reuss Voigt Hill
#
# Bulk Modulus (GPa) = 72.65530 91.96440 82.30985
# Shear Modulus (GPa) = 41.07316 48.78541 44.92928
#
# Velocity S-wave (km/s) = 3.78852 4.12891 3.96237
# Velocity P-wave (km/s) = 6.67281 7.40724 7.04959
#
# Compressibility (1/GPa) = 0.01376362
#
# Stress axis : x y z
#
# Youngs Moduli (GPa) = 136.52877 94.10052 99.99878
#
# Poissons Ratio (x) = 0.03548 0.39710
# Poissons Ratio (y) = 0.05148 0.27458
# Poissons Ratio (z) = 0.54217 0.25838
#
# Static dielectric constant tensor:
#      x y z
#    x 2.449060 0.000000 0.031070 
#    y 0.000000 2.605280 0.000000 
#    z 0.031070 0.000000 2.356200 
# 
# From -- ./inp_files/3530.got.cif
#   From: 2010.05.17/outbox.cif.g08.bks.cpg/sg3_2_cif.got.tgz:3530.got - 2010.06.03 18:33:08.
