data_PCOD9113296
_publ_section_title
;
Structure prediction by ZEFSAII (Michael W. Deem and Ramdas Pophale) SiO2 
 PCOD9113296
Probable space group: P 2
;
_chemical_formula_sum "Si O2"
_cell_formula_units_Z 14
_cell_length_a 10.528063
_cell_length_b 11.312466
_cell_length_c 7.816203
_cell_angle_alpha 90.000000
_cell_angle_beta 46.637741
_cell_angle_gamma 90.000000
_cell_volume 676.787287
_symmetry_space_group_name_H-M "P 2"
_symmetry_group_IT_number 3
_symmetry_cell_setting 'monoclinic'
loop_
_space_group_symop_operation_xyz
x,y,z
-x,y,-z
loop_
_atom_site_type_symbol
_atom_site_label
_atom_site_fract_x
_atom_site_fract_y
_atom_site_fract_z
Si Si1 0.963231 0.614850 0.229498
Si Si2 0.000000 0.206143 0.500000
Si Si3 0.342857 0.065163 0.266970
Si Si4 0.500000 0.707525 0.000000
Si Si5 0.078006 0.366076 0.121036
Si Si6 0.467852 0.281790 0.730410
Si Si7 0.428205 0.534340 0.371732
Si Si8 0.835193 0.839790 0.554493
O O1 0.776422 0.553255 0.419458
O O2 0.931396 0.735319 0.361313
O O3 0.092000 0.505853 0.158925
O O4 0.000000 0.646143 0.000000
O O5 0.822933 0.127861 0.671641
O O6 0.024646 0.291308 0.642081
O O7 0.440574 0.167470 0.279768
O O8 0.263816 0.951437 0.439512
O O9 0.500000 0.020746 0.000000
O O10 0.493964 0.628716 0.832988
O O11 0.681365 0.779534 0.809608
O O12 0.263199 0.300891 0.946122
O O13 0.000000 0.363936 0.000000
O O14 0.500000 0.280659 0.500000
O O15 0.546528 0.404043 0.725946
O O16 0.500000 0.544087 0.500000
O O17 0.000000 0.893367 0.500000
#
# Coordination Sequence:
#
# PCOD9113296 Si02
#       8
#     2   1   2   1   2   2   2   2
#     4  10  22  41  63 100 134 171 225 279 342 414
#     4  12  24  42  70 104 134 182 224 280 358 406
#     4  12  24  46  66  97 134 181 242 278 333 403
#     4  10  24  40  66 100 134 172 236 268 346 416
#     4  11  23  40  67 105 145 172 218 288 350 420
#     4  11  23  41  67 101 139 178 224 285 346 411
#     4  10  21  38  64  99 138 174 208 285 351 408
#     4  11  25  43  68  93 131 186 229 288 325 399
#
# _framework density 20.685967000000002
#
# number of rings (size 3 to 8) (size 9 to 14) (size 15 to 20)
#    0.000    1.143    2.857    5.143    6.000    1.143 
#    0.000    6.429    0.000    0.000    0.000    0.000 
#    0.000    0.000    0.000    0.000    0.000    0.000 
#
# Total GULP energy -78050.063112 kJ/mol
# GULP energy per Si atom -5575.004508 kJ/mol
# Density = 2.063888 g / cm^3
# Si number density = 20.685967 Si / 1000 Ang^3
#
#
#
# Elastic Constant Matrix: (Units=GPa)
#
#
# Indices 1 2 3 4 5 6 
#
# 1 59.4797 51.1802 30.1779 0.0000 -16.7712 0.0000
# 2 51.1802 140.7215 54.2925 0.0000 -5.6566 0.0000
# 3 30.1779 54.2925 104.3921 0.0000 -5.1537 0.0000
# 4 0.0000 0.0000 0.0000 52.3575 0.0000 -13.9745
# 5 -16.7712 -5.6566 -5.1537 0.0000 28.6247 0.0000
# 6 0.0000 0.0000 0.0000 -13.9745 0.0000 19.6213
#
#
#
# Elastic Compliance Matrix: (Units=1/GPa)
#
#
# Indices 1 2 3 4 5 6 
#
# 1 0.030969 -0.009354 -0.003313 0.000000 0.015700 0.000000
# 2 -0.009354 0.011740 -0.003590 0.000000 -0.003807 0.000000
# 3 -0.003313 -0.003590 0.012383 0.000000 -0.000421 0.000000
# 4 0.000000 0.000000 0.000000 0.023582 0.000000 0.016796
# 5 0.015700 -0.003807 -0.000421 0.000000 0.043305 0.000000
# 6 0.000000 0.000000 0.000000 0.016796 0.000000 0.062927
#
#
# Mechanical properties :
#
#
# Convention : Reuss Voigt Hill
#
# Bulk Modulus (GPa) = 44.28834 63.98829 54.13832
# Shear Modulus (GPa) = 22.22753 31.38354 26.80554
#
# Velocity S-wave (km/s) = 3.28155 3.89928 3.60367
# Velocity P-wave (km/s) = 5.98451 7.16050 6.59876
#
# Compressibility (1/GPa) = 0.02257930
#
# Stress axis : x y z
#
# Youngs Moduli (GPa) = 32.29043 85.17668 80.75559
#
# Poissons Ratio (x) = 0.79676 0.26750
# Poissons Ratio (y) = 0.30205 0.28989
# Poissons Ratio (z) = 0.10696 0.30576
#
# Static dielectric constant tensor:
#      x y z
#    x 1.699100 0.000000 -0.060580 
#    y 0.000000 1.801170 0.000000 
#    z -0.060580 0.000000 1.721420 
# 
# From -- ./inp_files/7340.got.cif
#   From: 2010.05.17/outbox.cif.g08.bks.cpg/sg3_4_cif.got.tgz:7340.got - 2010.06.03 18:33:08.
