data_PCOD9113299
_publ_section_title
;
Structure prediction by ZEFSAII (Michael W. Deem and Ramdas Pophale) SiO2 
 PCOD9113299
Probable space group: P 2
;
_chemical_formula_sum "Si O2"
_cell_formula_units_Z 9
_cell_length_a 9.405538
_cell_length_b 8.595598
_cell_length_c 10.114836
_cell_angle_alpha 90.000000
_cell_angle_beta 29.244710
_cell_angle_gamma 90.000000
_cell_volume 399.502333
_symmetry_space_group_name_H-M "P 2"
_symmetry_group_IT_number 3
_symmetry_cell_setting 'monoclinic'
loop_
_space_group_symop_operation_xyz
x,y,z
-x,y,-z
loop_
_atom_site_type_symbol
_atom_site_label
_atom_site_fract_x
_atom_site_fract_y
_atom_site_fract_z
Si Si1 0.500000 0.125000 0.500000
Si Si2 0.978051 0.706084 0.857414
Si Si3 0.691735 0.417766 0.958596
Si Si4 0.543339 0.904084 0.682491
Si Si5 0.790454 0.218523 0.505877
O O1 0.742781 0.214417 0.384576
O O2 0.371185 0.010931 0.715306
O O3 0.255444 0.782713 0.560733
O O4 0.899878 0.536990 0.864649
O O5 0.700377 0.811944 0.042993
O O6 0.000000 0.701521 0.000000
O O7 0.464761 0.329663 0.235966
O O8 0.500000 0.497815 0.000000
O O9 0.894499 0.287961 0.725320
O O10 0.734094 0.039995 0.595200
#
# Coordination Sequence:
#
# PCOD9113299 Si02
#       5
#     1   2   2   2   2
#     4   8  20  36  70 100 118 144 206 280 298 354
#     4  12  21  38  64  94 122 158 201 254 312 362
#     4  12  27  42  58  90 134 168 203 248 302 368
#     4  10  21  38  65  95 121 148 204 266 308 355
#     4  10  22  41  67  86 127 157 208 251 312 351
#
# _framework density 22.528027999999999
#
# number of rings (size 3 to 8) (size 9 to 14) (size 15 to 20)
#    1.333    0.000    2.222    3.333    3.111    1.778 
#    0.000    6.667    0.000    0.000    0.000    0.000 
#    0.000    0.000    0.000    0.000    0.000    0.000 
#
# Total GULP energy -50181.209856 kJ/mol
# GULP energy per Si atom -5575.689984 kJ/mol
# Density = 2.247675 g / cm^3
# Si number density = 22.528028 Si / 1000 Ang^3
#
#
#
# Elastic Constant Matrix: (Units=GPa)
#
#
# Indices 1 2 3 4 5 6 
#
# 1 63.1328 30.9474 7.1938 0.0000 -13.3768 0.0000
# 2 30.9474 90.6358 18.1033 0.0000 -4.5428 0.0000
# 3 7.1938 18.1033 95.3796 0.0000 -17.3787 0.0000
# 4 0.0000 0.0000 0.0000 23.9020 0.0000 -10.0491
# 5 -13.3768 -4.5428 -17.3787 0.0000 21.0697 0.0000
# 6 0.0000 0.0000 0.0000 -10.0491 0.0000 21.2655
#
#
#
# Elastic Compliance Matrix: (Units=1/GPa)
#
#
# Indices 1 2 3 4 5 6 
#
# 1 0.022235 -0.007337 0.002353 0.000000 0.014476 0.000000
# 2 -0.007337 0.013900 -0.002810 0.000000 -0.003978 0.000000
# 3 0.002353 -0.002810 0.012948 0.000000 0.011568 0.000000
# 4 0.000000 0.000000 0.000000 0.052210 0.000000 0.024672
# 5 0.014476 -0.003978 0.011568 0.000000 0.065335 0.000000
# 6 0.000000 0.000000 0.000000 0.024672 0.000000 0.058683
#
#
# Mechanical properties :
#
#
# Convention : Reuss Voigt Hill
#
# Bulk Modulus (GPa) = 29.85407 40.18192 35.01800
# Shear Modulus (GPa) = 19.83623 26.10770 22.97197
#
# Velocity S-wave (km/s) = 2.97056 3.40795 3.19675
# Velocity P-wave (km/s) = 5.00464 5.77587 5.40403
#
# Compressibility (1/GPa) = 0.03349627
#
# Stress axis : x y z
#
# Youngs Moduli (GPa) = 44.97422 71.94238 77.23214
#
# Poissons Ratio (x) = 0.52781 -0.18173
# Poissons Ratio (y) = 0.32995 0.21701
# Poissons Ratio (z) = -0.10582 0.20214
#
# Static dielectric constant tensor:
#      x y z
#    x 1.941030 0.000000 0.018840 
#    y 0.000000 1.858400 0.000000 
#    z 0.018840 0.000000 1.801380 
# 
# From -- ./inp_files/5025.got.cif
#   From: 2010.05.17/outbox.cif.g08.bks.cpg/sg3_3_cif.got.tgz:5025.got - 2010.06.03 18:33:08.
