data_PCOD9113414
_publ_section_title
;
Structure prediction by ZEFSAII (Michael W. Deem and Ramdas Pophale) SiO2 
 PCOD9113414
Probable space group: P 2
;
_chemical_formula_sum "Si O2"
_cell_formula_units_Z 15
_cell_length_a 16.156928
_cell_length_b 8.785673
_cell_length_c 7.744182
_cell_angle_alpha 90.000000
_cell_angle_beta 145.421985
_cell_angle_gamma 90.000000
_cell_volume 623.873530
_symmetry_space_group_name_H-M "P 2"
_symmetry_group_IT_number 3
_symmetry_cell_setting 'monoclinic'
loop_
_space_group_symop_operation_xyz
x,y,z
-x,y,-z
loop_
_atom_site_type_symbol
_atom_site_label
_atom_site_fract_x
_atom_site_fract_y
_atom_site_fract_z
Si Si1 0.066520 0.485860 0.291702
Si Si2 0.148367 0.829515 0.433119
Si Si3 0.500000 0.539756 0.500000
Si Si4 0.664251 0.334888 0.342115
Si Si5 0.332215 0.004114 0.470605
Si Si6 0.439655 0.774920 0.091552
Si Si7 0.787147 0.396892 0.909911
Si Si8 0.910881 0.057915 0.170894
O O1 0.104169 0.658559 0.319067
O O2 0.209232 0.383333 0.576749
O O3 0.000000 0.415699 0.000000
O O4 0.929133 0.498494 0.184526
O O5 0.239650 0.893384 0.431774
O O6 0.266619 0.802672 0.788137
O O7 0.021007 0.951472 0.249490
O O8 0.492282 0.652250 0.321316
O O9 0.643199 0.432674 0.771334
O O10 0.715410 0.427568 0.598411
O O11 0.669808 0.163607 0.428576
O O12 0.500000 0.364785 0.000000
O O13 0.491917 0.937434 0.741880
O O14 0.251174 0.995467 0.147532
O O15 0.500000 0.736097 0.000000
O O16 0.868180 0.233165 0.054778
O O17 0.000000 0.061463 0.500000
#
# Coordination Sequence:
#
# PCOD9113414 Si02
#       8
#     2   2   1   2   2   2   2   2
#     4  10  22  38  70 108 143 190 242 310 379 452
#     4  11  23  40  73 106 140 186 243 305 379 458
#     4  12  28  48  76 106 158 200 262 318 388 444
#     4  10  21  40  73 106 146 196 248 304 381 459
#     4  10  22  45  67 104 146 186 245 306 375 450
#     4  10  26  44  76 115 147 197 252 315 386 460
#     4  10  26  46  65 101 148 198 246 320 377 451
#     4  11  25  45  68  98 141 192 245 307 376 456
#
# _framework density 24.043333000000001
#
# number of rings (size 3 to 8) (size 9 to 14) (size 15 to 20)
#    0.000    1.600    0.000    3.200   13.067    3.200 
#    7.200    0.000    2.933    0.000    0.000    0.000 
#    0.000    0.000    0.000    0.000    0.000    0.000 
#
# Total GULP energy -83547.359106 kJ/mol
# GULP energy per Si atom -5569.823940 kJ/mol
# Density = 2.398861 g / cm^3
# Si number density = 24.043333 Si / 1000 Ang^3
#
#
#
# Elastic Constant Matrix: (Units=GPa)
#
#
# Indices 1 2 3 4 5 6 
#
# 1 47.1805 30.5626 49.8405 0.0000 9.4190 0.0000
# 2 30.5626 105.3781 58.4053 0.0000 25.8834 0.0000
# 3 49.8405 58.4053 193.6406 0.0000 7.5779 0.0000
# 4 0.0000 0.0000 0.0000 3.8018 0.0000 -50.7652
# 5 9.4190 25.8834 7.5779 0.0000 49.1683 0.0000
# 6 0.0000 0.0000 0.0000 -50.7652 0.0000 -106.4962
#
#
#
# Elastic Compliance Matrix: (Units=1/GPa)
#
#
# Indices 1 2 3 4 5 6 
#
# 1 0.031899 -0.004981 -0.006611 0.000000 -0.002470 0.000000
# 2 -0.004981 0.013872 -0.002670 0.000000 -0.005937 0.000000
# 3 -0.006611 -0.002670 0.007613 0.000000 0.001499 0.000000
# 4 0.000000 0.000000 0.000000 0.035713 0.000000 -0.017024
# 5 -0.002470 -0.005937 0.001499 0.000000 0.023706 0.000000
# 6 0.000000 0.000000 0.000000 -0.017024 0.000000 -0.001275
#
#
# Mechanical properties :
#
#
# Convention : Reuss Voigt Hill
#
# Bulk Modulus (GPa) = 40.22554 69.31289 54.76921
# Shear Modulus (GPa) = 33.70688 3.12084 18.41386
#
# Velocity S-wave (km/s) = 3.74829 1.14054 2.77042
# Velocity P-wave (km/s) = 5.95816 5.53402 5.75000
#
# Compressibility (1/GPa) = 0.02485983
#
# Stress axis : x y z
#
# Youngs Moduli (GPa) = 31.34923 72.08693 131.36274
#
# Poissons Ratio (x) = 0.35903 0.86850
# Poissons Ratio (y) = 0.15614 0.35071
# Poissons Ratio (z) = 0.20726 0.19246
#
# Static dielectric constant tensor:
#      x y z
#    x 2.186500 0.000000 -0.074740 
#    y 0.000000 1.948430 0.000000 
#    z -0.074740 0.000000 2.141460 
# 
# From -- ./inp_files/9156.got.cif
#   From: 2010.05.17/outbox.cif.g08.bks.cpg/sg3_5_cif.got.tgz:9156.got - 2010.06.03 18:33:08.
