data_PCOD9113679
_publ_section_title
;
Structure prediction by ZEFSAII (Michael W. Deem and Ramdas Pophale) SiO2 
 PCOD9113679
Probable space group: P 2
;
_chemical_formula_sum "Si O2"
_cell_formula_units_Z 14
_cell_length_a 7.092041
_cell_length_b 6.154932
_cell_length_c 15.653273
_cell_angle_alpha 90.000000
_cell_angle_beta 71.176629
_cell_angle_gamma 90.000000
_cell_volume 646.738045
_symmetry_space_group_name_H-M "P 2"
_symmetry_group_IT_number 3
_symmetry_cell_setting 'monoclinic'
loop_
_space_group_symop_operation_xyz
x,y,z
-x,y,-z
loop_
_atom_site_type_symbol
_atom_site_label
_atom_site_fract_x
_atom_site_fract_y
_atom_site_fract_z
Si Si1 0.000000 0.958660 0.500000
Si Si2 0.964781 0.465175 0.104290
Si Si3 0.662190 0.882964 0.784694
Si Si4 0.970320 0.643199 0.343415
Si Si5 0.000000 0.879077 0.000000
Si Si6 0.382160 0.550470 0.731410
Si Si7 0.246679 0.263644 0.359522
Si Si8 0.297556 0.150722 0.058004
O O1 0.044514 0.805580 0.574289
O O2 0.816327 0.114379 0.551816
O O3 0.970227 0.725257 0.087710
O O4 0.758623 0.416641 0.181815
O O5 0.143047 0.326449 0.119610
O O6 0.000000 0.404093 0.000000
O O7 0.859350 0.737510 0.743858
O O8 0.483740 0.743357 0.770637
O O9 0.699742 0.096302 0.722868
O O10 0.640777 0.968041 0.883074
O O11 0.057435 0.413932 0.363513
O O12 0.768753 0.625574 0.319924
O O13 0.189801 0.022147 0.996894
O O14 0.562177 0.418155 0.662130
O O15 0.500000 0.267051 0.000000
#
# Coordination Sequence:
#
# PCOD9113679 Si02
#       8
#     1   2   2   2   1   2   2   2
#     4  10  22  46  70 104 140 172 222 272 348 406
#     4  10  24  41  63  94 136 178 237 283 330 392
#     4  10  24  40  65  98 130 176 225 283 335 400
#     4  10  22  45  69  99 138 177 220 278 341 405
#     4  10  22  42  58  88 126 174 224 292 334 384
#     4  11  23  44  68  98 136 184 225 277 346 395
#     4  10  23  43  71  98 134 176 219 279 332 413
#     4  12  24  40  64  93 128 175 232 283 338 394
#
# _framework density 21.647096000000001
#
# number of rings (size 3 to 8) (size 9 to 14) (size 15 to 20)
#    0.429    1.143    0.714    3.000    2.000    6.286 
#    0.000   17.143    0.000    0.000    0.000    0.000 
#    0.000    0.000    0.000    0.000    0.000    0.000 
#
# Total GULP energy -78110.668590 kJ/mol
# GULP energy per Si atom -5579.333471 kJ/mol
# Density = 2.159783 g / cm^3
# Si number density = 21.647096 Si / 1000 Ang^3
#
#
#
# Elastic Constant Matrix: (Units=GPa)
#
#
# Indices 1 2 3 4 5 6 
#
# 1 169.0081 70.5609 57.9844 0.0000 3.2793 0.0000
# 2 70.5609 102.9140 32.0646 0.0000 2.7264 0.0000
# 3 57.9844 32.0646 100.6982 0.0000 -0.2603 0.0000
# 4 0.0000 0.0000 0.0000 18.9506 0.0000 -4.0162
# 5 3.2793 2.7264 -0.2603 0.0000 19.4172 0.0000
# 6 0.0000 0.0000 0.0000 -4.0162 0.0000 21.5740
#
#
#
# Elastic Compliance Matrix: (Units=1/GPa)
#
#
# Indices 1 2 3 4 5 6 
#
# 1 0.009419 -0.005266 -0.003749 0.000000 -0.000902 0.000000
# 2 -0.005266 0.013779 -0.001358 0.000000 -0.001063 0.000000
# 3 -0.003749 -0.001358 0.012525 0.000000 0.000992 0.000000
# 4 0.000000 0.000000 0.000000 0.054936 0.000000 0.010227
# 5 -0.000902 -0.001063 0.000992 0.000000 0.051816 0.000000
# 6 0.000000 0.000000 0.000000 0.010227 0.000000 0.048256
#
#
# Mechanical properties :
#
#
# Convention : Reuss Voigt Hill
#
# Bulk Modulus (GPa) = 66.77370 77.09335 71.93352
# Shear Modulus (GPa) = 23.09802 26.12239 24.61021
#
# Velocity S-wave (km/s) = 3.27008 3.47758 3.37543
# Velocity P-wave (km/s) = 6.72096 7.19832 6.96373
#
# Compressibility (1/GPa) = 0.01497596
#
# Stress axis : x y z
#
# Youngs Moduli (GPa) = 106.16478 72.57595 79.84310
#
# Poissons Ratio (x) = 0.38219 0.29936
# Poissons Ratio (y) = 0.55907 0.10841
# Poissons Ratio (z) = 0.39805 0.09855
#
# Static dielectric constant tensor:
#      x y z
#    x 1.786400 0.000000 0.006380 
#    y 0.000000 1.819890 0.000000 
#    z 0.006380 0.000000 1.812530 
# 
# From -- ./inp_files/14588.got.cif
#   From: 2010.05.17/outbox.cif.g08.bks.cpg/sg3_8_cif.got.tgz:14588.got - 2010.06.03 18:33:08.
