data_PCOD9113338
_publ_section_title
;
Structure prediction by ZEFSAII (Michael W. Deem and Ramdas Pophale) SiO2 
 PCOD9113338
Probable space group: P 2
;
_chemical_formula_sum "Si O2"
_cell_formula_units_Z 16
_cell_length_a 7.100706
_cell_length_b 5.261887
_cell_length_c 19.670039
_cell_angle_alpha 90.000000
_cell_angle_beta 82.735000
_cell_angle_gamma 90.000000
_cell_volume 729.033742
_symmetry_space_group_name_H-M "P 2"
_symmetry_group_IT_number 3
_symmetry_cell_setting 'monoclinic'
loop_
_space_group_symop_operation_xyz
x,y,z
-x,y,-z
loop_
_atom_site_type_symbol
_atom_site_label
_atom_site_fract_x
_atom_site_fract_y
_atom_site_fract_z
Si Si1 0.119798 0.098200 0.438713
Si Si2 0.850653 0.196895 0.067664
Si Si3 0.556501 0.450615 0.568005
Si Si4 0.810928 0.719016 0.669075
Si Si5 0.767067 0.120421 0.220531
Si Si6 0.483761 0.622029 0.787702
Si Si7 0.389663 0.696691 0.936568
Si Si8 0.854744 0.363492 0.354675
O O1 0.320207 0.200932 0.456093
O O2 0.000000 0.936304 0.500000
O O3 0.951321 0.287005 0.422277
O O4 0.170747 0.998295 0.361203
O O5 0.896181 0.150511 0.146188
O O6 0.773760 0.484350 0.064758
O O7 0.691090 0.981894 0.061767
O O8 0.000000 0.158915 0.000000
O O9 0.500000 0.581098 0.500000
O O10 0.704404 0.594058 0.609011
O O11 0.365402 0.409257 0.618951
O O12 0.672666 0.670502 0.737125
O O13 0.017759 0.604184 0.671433
O O14 0.608863 0.345497 0.220136
O O15 0.860163 0.177841 0.289082
O O16 0.667171 0.844879 0.223979
O O17 0.522198 0.655199 0.865511
O O18 0.500000 0.648234 0.000000
#
# Coordination Sequence:
#
# PCOD9113338 Si02
#       8
#     2   2   2   2   2   2   2   2
#     4  11  25  41  60  93 126 161 219 271 323 395
#     4  10  21  39  63  96 130 170 216 266 315 381
#     4  11  23  43  64  85 126 169 206 271 331 385
#     4  11  26  39  64  94 125 163 221 273 320 394
#     4  10  22  42  67  90 131 177 215 264 329 387
#     4  10  22  43  65  92 132 174 216 265 327 386
#     4  10  21  39  64  94 130 175 211 262 323 381
#     4  11  24  42  64  91 123 169 218 260 331 388
#
# _framework density 21.946859
#
# number of rings (size 3 to 8) (size 9 to 14) (size 15 to 20)
#    0.000    1.500    2.500    1.500    5.250    2.500 
#    2.250    0.000    0.000    0.000    0.000    0.000 
#    0.000    0.000    0.000    0.000    0.000    0.000 
#
# Total GULP energy -89190.708931 kJ/mol
# GULP energy per Si atom -5574.419308 kJ/mol
# Density = 2.189691 g / cm^3
# Si number density = 21.946859 Si / 1000 Ang^3
#
#
#
# Elastic Constant Matrix: (Units=GPa)
#
#
# Indices 1 2 3 4 5 6 
#
# 1 82.1013 0.4748 43.9225 0.0000 -0.9188 0.0000
# 2 0.4748 46.4864 -10.0646 0.0000 3.8033 0.0000
# 3 43.9225 -10.0646 148.2032 0.0000 -12.8058 0.0000
# 4 0.0000 0.0000 0.0000 24.9734 0.0000 -1.7617
# 5 -0.9188 3.8033 -12.8058 0.0000 46.0468 0.0000
# 6 0.0000 0.0000 0.0000 -1.7617 0.0000 10.8948
#
#
#
# Elastic Compliance Matrix: (Units=1/GPa)
#
#
# Indices 1 2 3 4 5 6 
#
# 1 0.014563 -0.001044 -0.004462 0.000000 -0.000864 0.000000
# 2 -0.001044 0.021999 0.001685 0.000000 -0.001369 0.000000
# 3 -0.004462 0.001685 0.008366 0.000000 0.002098 0.000000
# 4 0.000000 0.000000 0.000000 0.040505 0.000000 0.006550
# 5 -0.000864 -0.001369 0.002098 0.000000 0.022396 0.000000
# 6 0.000000 0.000000 0.000000 0.006550 0.000000 0.092846
#
#
# Mechanical properties :
#
#
# Convention : Reuss Voigt Hill
#
# Bulk Modulus (GPa) = 26.81910 38.38404 32.60157
# Shear Modulus (GPa) = 22.65052 32.54686 27.59869
#
# Velocity S-wave (km/s) = 3.21606 3.85513 3.55000
# Velocity P-wave (km/s) = 5.10267 6.11094 5.62942
#
# Compressibility (1/GPa) = 0.03728686
#
# Stress axis : x y z
#
# Youngs Moduli (GPa) = 68.66566 45.45617 119.53842
#
# Poissons Ratio (x) = 0.04746 0.53334
# Poissons Ratio (y) = 0.07169 -0.20143
# Poissons Ratio (z) = 0.30636 -0.07660
#
# Static dielectric constant tensor:
#      x y z
#    x 1.773040 0.000000 0.013510 
#    y 0.000000 1.915190 0.000000 
#    z 0.013510 0.000000 1.861640 
# 
# From -- ./inp_files/15573.got.cif
#   From: 2010.05.17/outbox.cif.g08.bks.cpg/sg3_8_cif.got.tgz:15573.got - 2010.06.03 18:33:08.
