data_PCOD9113792
_publ_section_title
;
Structure prediction by ZEFSAII (Michael W. Deem and Ramdas Pophale) SiO2 
 PCOD9113792
Probable space group: P 2
;
_chemical_formula_sum "Si O2"
_cell_formula_units_Z 12
_cell_length_a 5.726836
_cell_length_b 7.117444
_cell_length_c 14.517342
_cell_angle_alpha 90.000000
_cell_angle_beta 81.257238
_cell_angle_gamma 90.000000
_cell_volume 584.857655
_symmetry_space_group_name_H-M "P 2"
_symmetry_group_IT_number 3
_symmetry_cell_setting 'monoclinic'
loop_
_space_group_symop_operation_xyz
x,y,z
-x,y,-z
loop_
_atom_site_type_symbol
_atom_site_label
_atom_site_fract_x
_atom_site_fract_y
_atom_site_fract_z
Si Si1 0.535228 0.688020 0.394369
Si Si2 0.296747 0.065736 0.212784
Si Si3 0.033378 0.909833 0.392637
Si Si4 0.630205 0.393433 0.231241
Si Si5 0.404611 0.684867 0.104664
Si Si6 0.081762 0.348556 0.097744
O O1 0.500000 0.617307 0.500000
O O2 0.282755 0.789366 0.384843
O O3 0.580632 0.520118 0.321740
O O4 0.782071 0.808547 0.382954
O O5 0.094924 0.042285 0.302493
O O6 0.368838 0.859117 0.174244
O O7 0.493273 0.197794 0.246491
O O8 0.249786 0.181953 0.121666
O O9 0.000000 0.984854 0.500000
O O10 0.556642 0.526521 0.148745
O O11 0.894388 0.345508 0.190832
O O12 0.176298 0.560727 0.094567
O O13 0.500000 0.746971 0.000000
O O14 0.000000 0.306488 0.000000
#
# Coordination Sequence:
#
# PCOD9113792 Si02
#       6
#     2   2   2   2   2   2
#     4  10  22  44  73  98 135 183 224 276 343 406
#     4  11  26  40  67 100 130 174 225 283 338 402
#     4  10  22  45  72 100 135 180 227 277 339 410
#     4  11  24  43  65  95 133 169 225 280 331 408
#     4  11  23  42  66  90 130 177 220 273 340 402
#     4  11  25  42  62  96 134 173 224 280 334 404
#
# _framework density 20.517813
#
# number of rings (size 3 to 8) (size 9 to 14) (size 15 to 20)
#    0.000    1.333    3.333    1.000    7.000    2.000 
#    3.000    0.000    0.000    0.000    0.000    0.000 
#    0.000    0.000    0.000    0.000    0.000    0.000 
#
# Total GULP energy -66807.034440 kJ/mol
# GULP energy per Si atom -5567.252870 kJ/mol
# Density = 2.047111 g / cm^3
# Si number density = 20.517813 Si / 1000 Ang^3
#
#
#
# Elastic Constant Matrix: (Units=GPa)
#
#
# Indices 1 2 3 4 5 6 
#
# 1 65.6669 14.6077 17.8076 0.0000 -4.7698 0.0000
# 2 14.6077 82.0894 39.9370 0.0000 0.1753 0.0000
# 3 17.8076 39.9370 145.7828 0.0000 -6.6943 0.0000
# 4 0.0000 0.0000 0.0000 56.7245 0.0000 -57.2401
# 5 -4.7698 0.1753 -6.6943 0.0000 32.5447 0.0000
# 6 0.0000 0.0000 0.0000 -57.2401 0.0000 122.7583
#
#
#
# Elastic Compliance Matrix: (Units=1/GPa)
#
#
# Indices 1 2 3 4 5 6 
#
# 1 0.016232 -0.002280 -0.001260 0.000000 0.002132 0.000000
# 2 -0.002280 0.014400 -0.003720 0.000000 -0.001177 0.000000
# 3 -0.001260 -0.003720 0.008102 0.000000 0.001502 0.000000
# 4 0.000000 0.000000 0.000000 0.033295 0.000000 0.015525
# 5 0.002132 -0.001177 0.001502 0.000000 0.031355 0.000000
# 6 0.000000 0.000000 0.000000 0.015525 0.000000 0.015385
#
#
# Mechanical properties :
#
#
# Convention : Reuss Voigt Hill
#
# Bulk Modulus (GPa) = 41.30081 48.69375 44.99728
# Shear Modulus (GPa) = 35.37045 57.15129 46.26087
#
# Velocity S-wave (km/s) = 4.15648 5.28346 4.75349
# Velocity P-wave (km/s) = 6.57328 7.81050 7.21845
#
# Compressibility (1/GPa) = 0.02421260
#
# Stress axis : x y z
#
# Youngs Moduli (GPa) = 61.60599 69.44410 123.43182
#
# Poissons Ratio (x) = 0.15833 0.15556
# Poissons Ratio (y) = 0.14046 0.45922
# Poissons Ratio (z) = 0.07764 0.25836
#
# Static dielectric constant tensor:
#      x y z
#    x 1.842260 0.000000 0.056490 
#    y 0.000000 1.709230 0.000000 
#    z 0.056490 0.000000 1.605480 
# 
# From -- ./inp_files/2682.got.cif
#   From: 2010.05.17/outbox.cif.g08.bks.cpg/sg3_2_cif.got.tgz:2682.got - 2010.06.03 18:33:08.
