data_PCOD9113160
_publ_section_title
;
Structure prediction by ZEFSAII (Michael W. Deem and Ramdas Pophale) SiO2 
 PCOD9113160
Probable space group: P 2
;
_chemical_formula_sum "Si O2"
_cell_formula_units_Z 8
_cell_length_a 13.027357
_cell_length_b 6.183925
_cell_length_c 6.336614
_cell_angle_alpha 90.000000
_cell_angle_beta 132.824769
_cell_angle_gamma 90.000000
_cell_volume 374.403627
_symmetry_space_group_name_H-M "P 2"
_symmetry_group_IT_number 3
_symmetry_cell_setting 'monoclinic'
loop_
_space_group_symop_operation_xyz
x,y,z
-x,y,-z
loop_
_atom_site_type_symbol
_atom_site_label
_atom_site_fract_x
_atom_site_fract_y
_atom_site_fract_z
Si Si1 0.612057 0.771870 0.494493
Si Si2 0.247143 0.394684 0.567689
Si Si3 0.500000 0.104076 0.000000
Si Si4 0.000000 0.318258 0.500000
Si Si5 0.867222 0.053799 0.936825
O O1 0.500000 0.675872 0.500000
O O2 0.676695 0.597674 0.427429
O O3 0.742277 0.885921 0.792504
O O4 0.534514 0.954120 0.247638
O O5 0.364899 0.253258 0.850104
O O6 0.117645 0.449906 0.538071
O O7 0.187391 0.242488 0.296980
O O8 0.079194 0.164968 0.776814
O O9 0.000000 0.950938 0.000000
#
# Coordination Sequence:
#
# PCOD9113160 Si02
#       5
#     2   2   1   1   2
#     4  11  23  39  63  92 122 158 200 246 298 359
#     4  10  22  39  62  93 122 155 201 249 299 354
#     4  10  22  42  62  88 122 158 200 246 302 356
#     4  10  20  42  66  84 122 164 196 248 302 350
#     4   9  21  40  61  89 122 157 201 250 298 351
#
# _framework density 21.367314
#
# number of rings (size 3 to 8) (size 9 to 14) (size 15 to 20)
#    0.000    2.000    0.000    2.250    0.000   11.000 
#    0.000   12.500    0.000    0.000    0.000    0.000 
#    0.000    0.000    0.000    0.000    0.000    0.000 
#
# Total GULP energy -44737.025508 kJ/mol
# GULP energy per Si atom -5592.128189 kJ/mol
# Density = 2.131868 g / cm^3
# Si number density = 21.367314 Si / 1000 Ang^3
#
#
#
# Elastic Constant Matrix: (Units=GPa)
#
#
# Indices 1 2 3 4 5 6 
#
# 1 203.7380 66.7673 45.3998 0.0000 18.5683 0.0000
# 2 66.7673 68.3768 22.1618 0.0000 15.0013 0.0000
# 3 45.3998 22.1618 107.4584 0.0000 22.0810 0.0000
# 4 0.0000 0.0000 0.0000 -1.0025 0.0000 -2.5061
# 5 18.5683 15.0013 22.0810 0.0000 23.7203 0.0000
# 6 0.0000 0.0000 0.0000 -2.5061 0.0000 17.6468
#
#
#
# Elastic Compliance Matrix: (Units=1/GPa)
#
#
# Indices 1 2 3 4 5 6 
#
# 1 0.007524 -0.006780 -0.001795 0.000000 0.000069 0.000000
# 2 -0.006780 0.023317 -0.000006 0.000000 -0.009433 0.000000
# 3 -0.001795 -0.000006 0.012088 0.000000 -0.009844 0.000000
# 4 0.000000 0.000000 0.000000 -0.736151 0.000000 -0.104544
# 5 0.000069 -0.009433 -0.009844 0.000000 0.057234 0.000000
# 6 0.000000 0.000000 0.000000 -0.104544 0.000000 0.041821
#
#
# Mechanical properties :
#
#
# Convention : Reuss Voigt Hill
#
# Bulk Modulus (GPa) = 38.80834 72.02567 55.41700
# Shear Modulus (GPa) = -8.79636 24.42253 7.81308
#
# Velocity S-wave (km/s) = -2.03118 3.38447 1.91429
# Velocity P-wave (km/s) = 3.56385 7.00389 5.55677
#
# Compressibility (1/GPa) = 0.02576766
#
# Stress axis : x y z
#
# Youngs Moduli (GPa) = 132.91121 42.88737 82.72562
#
# Poissons Ratio (x) = 0.29078 0.14845
# Poissons Ratio (y) = 0.90116 0.00049
# Poissons Ratio (z) = 0.23851 0.00025
#
# Static dielectric constant tensor:
#      x y z
#    x 1.781320 0.000000 0.012460 
#    y 0.000000 1.733030 0.000000 
#    z 0.012460 0.000000 1.762290 
# 
# From -- ./inp_files/739.got.cif
#   From: 2010.05.17/outbox.cif.g08.bks.cpg/sg3_1_cif.got.tgz:739.got - 2010.06.03 18:33:08.
