data_PCOD9113403
_publ_section_title
;
Structure prediction by ZEFSAII (Michael W. Deem and Ramdas Pophale) SiO2 
 PCOD9113403
Probable space group: P 2
;
_chemical_formula_sum "Si O2"
_cell_formula_units_Z 13
_cell_length_a 17.701351
_cell_length_b 5.533963
_cell_length_c 4.959807
_cell_angle_alpha 90.000000
_cell_angle_beta 85.214320
_cell_angle_gamma 90.000000
_cell_volume 484.162038
_symmetry_space_group_name_H-M "P 2"
_symmetry_group_IT_number 3
_symmetry_cell_setting 'monoclinic'
loop_
_space_group_symop_operation_xyz
x,y,z
-x,y,-z
loop_
_atom_site_type_symbol
_atom_site_label
_atom_site_fract_x
_atom_site_fract_y
_atom_site_fract_z
Si Si1 0.612207 0.429580 0.385084
Si Si2 0.744473 0.943800 0.941318
Si Si3 0.714343 0.445417 0.842657
Si Si4 0.000000 0.852910 0.000000
Si Si5 0.080710 0.466466 0.339749
Si Si6 0.430061 0.927802 0.820813
Si Si7 0.872689 0.174553 0.202397
O O1 0.641916 0.474360 0.674378
O O2 0.564552 0.662477 0.310455
O O3 0.575402 0.166622 0.363228
O O4 0.684876 0.428528 0.160166
O O5 0.765579 0.684161 0.812272
O O6 0.747041 0.184048 0.761655
O O7 0.654507 0.921923 0.025882
O O8 0.797956 0.012162 0.175610
O O9 0.057751 0.704952 0.175924
O O10 0.943934 0.996651 0.217001
O O11 0.000000 0.410275 0.500000
O O12 0.132204 0.393431 0.583450
O O13 0.106206 0.289977 0.093009
O O14 0.500000 0.962016 0.000000
#
# Coordination Sequence:
#
# PCOD9113403 Si02
#       7
#     2   2   2   1   2   2   2
#     4  10  21  40  68  96 135 184 239 294 356 429
#     4  10  25  46  68 109 145 192 245 305 369 440
#     4  10  22  43  68  95 145 180 237 296 360 428
#     4  12  26  48  80 104 150 202 248 318 392 460
#     4  12  25  47  72 105 145 185 254 299 380 456
#     4  10  21  43  71 103 145 193 242 302 364 436
#     4  12  28  46  75 108 148 194 249 315 375 461
#
# _framework density 26.850518999999998
#
# number of rings (size 3 to 8) (size 9 to 14) (size 15 to 20)
#    0.000    1.231    3.077    1.385    4.308    4.923 
#    0.000   20.000    0.000    0.000    0.000    0.000 
#    0.000    0.000    0.000    0.000    0.000    0.000 
#
# Total GULP energy -72652.786556 kJ/mol
# GULP energy per Si atom -5588.675889 kJ/mol
# Density = 2.678941 g / cm^3
# Si number density = 26.850519 Si / 1000 Ang^3
#
#
#
# Elastic Constant Matrix: (Units=GPa)
#
#
# Indices 1 2 3 4 5 6 
#
# 1 89.3564 10.9816 26.0782 0.0000 6.9168 0.0000
# 2 10.9816 207.4856 44.9543 0.0000 15.5442 0.0000
# 3 26.0782 44.9543 97.4381 0.0000 2.2119 0.0000
# 4 0.0000 0.0000 0.0000 78.3988 0.0000 1.4931
# 5 6.9168 15.5442 2.2119 0.0000 49.0777 0.0000
# 6 0.0000 0.0000 0.0000 1.4931 0.0000 24.9838
#
#
#
# Elastic Compliance Matrix: (Units=1/GPa)
#
#
# Indices 1 2 3 4 5 6 
#
# 1 0.012268 0.000197 -0.003337 0.000000 -0.001641 0.000000
# 2 0.000197 0.005484 -0.002545 0.000000 -0.001650 0.000000
# 3 -0.003337 -0.002545 0.012314 0.000000 0.000721 0.000000
# 4 0.000000 0.000000 0.000000 0.012770 0.000000 -0.000763
# 5 -0.001641 -0.001650 0.000721 0.000000 0.021097 0.000000
# 6 0.000000 0.000000 0.000000 -0.000763 0.000000 0.040072
#
#
# Mechanical properties :
#
#
# Convention : Reuss Voigt Hill
#
# Bulk Modulus (GPa) = 53.49069 62.03428 57.76248
# Shear Modulus (GPa) = 41.11585 51.30978 46.21282
#
# Velocity S-wave (km/s) = 3.91741 4.37617 4.15313
# Velocity P-wave (km/s) = 6.35817 6.97770 6.67513
#
# Compressibility (1/GPa) = 0.01869484
#
# Stress axis : x y z
#
# Youngs Moduli (GPa) = 81.51407 182.33806 81.20865
#
# Poissons Ratio (x) = -0.03584 0.27098
# Poissons Ratio (y) = -0.01602 0.20671
# Poissons Ratio (z) = 0.27200 0.46413
#
# Static dielectric constant tensor:
#      x y z
#    x 2.177190 0.000000 0.016100 
#    y 0.000000 2.164990 0.000000 
#    z 0.016100 0.000000 2.013030 
# 
# From -- ./inp_files/3521.got.cif
#   From: 2010.05.17/outbox.cif.g08.bks.cpg/sg3_2_cif.got.tgz:3521.got - 2010.06.03 18:33:08.
