data_PCOD9113715
_publ_section_title
;
Structure prediction by ZEFSAII (Michael W. Deem and Ramdas Pophale) SiO2 
 PCOD9113715
Probable space group: P 2
;
_chemical_formula_sum "Si O2"
_cell_formula_units_Z 14
_cell_length_a 20.293363
_cell_length_b 5.507348
_cell_length_c 5.020155
_cell_angle_alpha 90.000000
_cell_angle_beta 82.504924
_cell_angle_gamma 90.000000
_cell_volume 556.271933
_symmetry_space_group_name_H-M "P 2"
_symmetry_group_IT_number 3
_symmetry_cell_setting 'monoclinic'
loop_
_space_group_symop_operation_xyz
x,y,z
-x,y,-z
loop_
_atom_site_type_symbol
_atom_site_label
_atom_site_fract_x
_atom_site_fract_y
_atom_site_fract_z
Si Si1 0.069578 0.879260 0.863905
Si Si2 0.566093 0.818295 0.365251
Si Si3 0.500000 0.444746 0.000000
Si Si4 0.324803 0.498423 0.516656
Si Si5 0.179769 0.510534 0.668689
Si Si6 0.366510 0.207797 0.020570
Si Si7 0.000000 0.254604 0.500000
Si Si8 0.869700 0.260699 0.792245
O O1 0.119679 0.701527 0.688677
O O2 0.042263 0.089192 0.681746
O O3 0.000000 0.768448 0.000000
O O4 0.110088 0.004588 0.085796
O O5 0.500000 0.963941 0.500000
O O6 0.615914 0.958828 0.139901
O O7 0.615968 0.695567 0.553756
O O8 0.528151 0.611703 0.218533
O O9 0.438156 0.279051 0.101302
O O10 0.252245 0.616885 0.574391
O O11 0.341582 0.376647 0.791355
O O12 0.322518 0.285274 0.296268
O O13 0.167784 0.294049 0.464699
O O14 0.172802 0.400868 0.966082
O O15 0.057605 0.381196 0.300975
#
# Coordination Sequence:
#
# PCOD9113715 Si02
#       8
#     2   2   1   2   2   2   1   2
#     4  10  25  45  72 110 142 184 250 310 363 438
#     4  11  24  44  77 106 144 197 244 313 385 423
#     4  10  22  42  70 110 144 166 252 308 354 454
#     4  11  27  48  64 110 149 185 251 304 352 469
#     4  12  27  44  76 100 146 202 238 293 385 435
#     4  11  25  43  74 102 144 190 239 303 376 432
#     4  10  22  48  68 108 144 172 244 318 352 434
#     4  11  25  45  70 106 141 187 239 303 363 434
#
# _framework density 25.167546000000002
#
# number of rings (size 3 to 8) (size 9 to 14) (size 15 to 20)
#    0.000    1.143    2.857    1.286   10.000    2.286 
#    0.000    0.000    0.000    0.000    0.000    0.000 
#    0.000    0.000    0.000    0.000    0.000    0.000 
#
# Total GULP energy -78178.142253 kJ/mol
# GULP energy per Si atom -5584.153018 kJ/mol
# Density = 2.511026 g / cm^3
# Si number density = 25.167546 Si / 1000 Ang^3
#
#
#
# Elastic Constant Matrix: (Units=GPa)
#
#
# Indices 1 2 3 4 5 6 
#
# 1 140.0200 26.7891 34.7483 0.0000 -33.6962 0.0000
# 2 26.7891 51.2016 16.3706 0.0000 0.6185 0.0000
# 3 34.7483 16.3706 124.0074 0.0000 -0.6732 0.0000
# 4 0.0000 0.0000 0.0000 11.3777 0.0000 -13.3869
# 5 -33.6962 0.6185 -0.6732 0.0000 39.7597 0.0000
# 6 0.0000 0.0000 0.0000 -13.3869 0.0000 9.7033
#
#
#
# Elastic Compliance Matrix: (Units=1/GPa)
#
#
# Indices 1 2 3 4 5 6 
#
# 1 0.010936 -0.005085 -0.002343 0.000000 0.009308 0.000000
# 2 -0.005085 0.022761 -0.001605 0.000000 -0.004691 0.000000
# 3 -0.002343 -0.001605 0.008923 0.000000 -0.001809 0.000000
# 4 0.000000 0.000000 0.000000 -0.141022 0.000000 -0.194557
# 5 0.009308 -0.004691 -0.001809 0.000000 0.033082 0.000000
# 6 0.000000 0.000000 0.000000 -0.194557 0.000000 -0.165357
#
#
# Mechanical properties :
#
#
# Convention : Reuss Voigt Hill
#
# Bulk Modulus (GPa) = 40.72730 52.33834 46.53282
# Shear Modulus (GPa) = -24.45865 27.98953 1.76544
#
# Velocity S-wave (km/s) = -3.12081 3.33848 0.83845
# Velocity P-wave (km/s) = 1.79769 5.97509 4.41211
#
# Compressibility (1/GPa) = 0.02455355
#
# Stress axis : x y z
#
# Youngs Moduli (GPa) = 91.44082 43.93434 112.07563
#
# Poissons Ratio (x) = 0.22342 0.26254
# Poissons Ratio (y) = 0.46500 0.17991
# Poissons Ratio (z) = 0.21420 0.07053
#
# Static dielectric constant tensor:
#      x y z
#    x 2.016000 0.000000 -0.125500 
#    y 0.000000 2.043300 0.000000 
#    z -0.125500 0.000000 2.130240 
# 
# From -- ./inp_files/3451.got.cif
#   From: 2010.05.17/outbox.cif.g08.bks.cpg/sg3_2_cif.got.tgz:3451.got - 2010.06.03 18:33:08.
