data_PCOD9113308
_publ_section_title
;
Structure prediction by ZEFSAII (Michael W. Deem and Ramdas Pophale) SiO2 
 PCOD9113308
Probable space group: P 2
;
_chemical_formula_sum "Si O2"
_cell_formula_units_Z 16
_cell_length_a 8.615910
_cell_length_b 5.445294
_cell_length_c 20.826064
_cell_angle_alpha 90.000000
_cell_angle_beta 126.576928
_cell_angle_gamma 90.000000
_cell_volume 784.650630
_symmetry_space_group_name_H-M "P 2"
_symmetry_group_IT_number 3
_symmetry_cell_setting 'monoclinic'
loop_
_space_group_symop_operation_xyz
x,y,z
-x,y,-z
loop_
_atom_site_type_symbol
_atom_site_label
_atom_site_fract_x
_atom_site_fract_y
_atom_site_fract_z
Si Si1 0.823322 0.367350 0.003767
Si Si2 0.698589 0.755864 0.073009
Si Si3 0.323247 0.361847 0.680444
Si Si4 0.304858 0.345897 0.321902
Si Si5 0.417978 0.350528 0.852489
Si Si6 0.191804 0.859670 0.589698
Si Si7 0.434505 0.845454 0.411057
Si Si8 0.066852 0.127122 0.835931
O O1 0.756519 0.612563 0.022961
O O2 0.885615 0.204517 0.079689
O O3 0.636626 0.268527 0.919978
O O4 0.000000 0.402335 0.000000
O O5 0.625254 0.582595 0.112428
O O6 0.912817 0.837526 0.151376
O O7 0.500000 0.897648 0.000000
O O8 0.516375 0.355213 0.684087
O O9 0.382574 0.388762 0.768942
O O10 0.200490 0.601631 0.629857
O O11 0.216514 0.103010 0.639656
O O12 0.306589 0.611242 0.356884
O O13 0.112732 0.266935 0.236709
O O14 0.339517 0.113941 0.378017
O O15 0.257329 0.165740 0.839583
O O16 0.376150 0.850650 0.587548
O O17 0.000000 0.878298 0.500000
O O18 0.500000 0.809132 0.500000
#
# Coordination Sequence:
#
# PCOD9113308 Si02
#       8
#     2   2   2   2   2   2   2   2
#     4  10  21  39  59  86 120 163 207 253 309 365
#     4   9  20  38  57  85 120 162 203 257 303 363
#     4  10  22  41  60  93 123 164 205 258 305 367
#     4  10  23  39  63  91 125 163 206 256 306 371
#     4  10  22  37  59  86 124 159 209 256 305 364
#     4  10  22  40  64  89 124 159 205 254 312 370
#     4  10  22  41  63  90 124 159 205 253 312 369
#     4  11  22  37  61  86 124 157 210 253 312 358
#
# _framework density 20.391238999999999
#
# number of rings (size 3 to 8) (size 9 to 14) (size 15 to 20)
#    0.000    2.000    0.000    3.375    5.250    2.500 
#    2.250    0.000    0.000    0.000    0.000    0.000 
#    0.000    0.000    0.000    0.000    0.000    0.000 
#
# Total GULP energy -89101.935045 kJ/mol
# GULP energy per Si atom -5568.870940 kJ/mol
# Density = 2.034483 g / cm^3
# Si number density = 20.391239 Si / 1000 Ang^3
#
#
#
# Elastic Constant Matrix: (Units=GPa)
#
#
# Indices 1 2 3 4 5 6 
#
# 1 60.3380 20.9824 34.0900 0.0000 -3.2690 0.0000
# 2 20.9824 106.4616 68.8315 0.0000 1.3564 0.0000
# 3 34.0900 68.8315 178.4343 0.0000 -5.5733 0.0000
# 4 0.0000 0.0000 0.0000 -1.6277 0.0000 42.7776
# 5 -3.2690 1.3564 -5.5733 0.0000 40.4182 0.0000
# 6 0.0000 0.0000 0.0000 42.7776 0.0000 -35.1434
#
#
#
# Elastic Compliance Matrix: (Units=1/GPa)
#
#
# Indices 1 2 3 4 5 6 
#
# 1 0.018905 -0.001906 -0.002839 0.000000 0.001201 0.000000
# 2 -0.001906 0.012754 -0.004594 0.000000 -0.001216 0.000000
# 3 -0.002839 -0.004594 0.007951 0.000000 0.001021 0.000000
# 4 0.000000 0.000000 0.000000 0.019825 0.000000 0.024131
# 5 0.001201 -0.001216 0.001021 0.000000 0.025020 0.000000
# 6 0.000000 0.000000 0.000000 0.024131 0.000000 0.000918
#
#
# Mechanical properties :
#
#
# Convention : Reuss Voigt Hill
#
# Bulk Modulus (GPa) = 47.77221 65.89354 56.83287
# Shear Modulus (GPa) = 45.03370 15.48477 30.25923
#
# Velocity S-wave (km/s) = 4.70455 2.75868 3.85636
# Velocity P-wave (km/s) = 7.27936 6.52165 6.91089
#
# Compressibility (1/GPa) = 0.02093267
#
# Stress axis : x y z
#
# Youngs Moduli (GPa) = 52.89550 78.40527 125.77478
#
# Poissons Ratio (x) = 0.14941 0.35710
# Poissons Ratio (y) = 0.10080 0.57779
# Poissons Ratio (z) = 0.15018 0.36018
#
# Static dielectric constant tensor:
#      x y z
#    x 1.701040 0.000000 0.022330 
#    y 0.000000 1.852630 0.000000 
#    z 0.022330 0.000000 1.719090 
# 
# From -- ./inp_files/15732.got.cif
#   From: 2010.05.17/outbox.cif.g08.bks.cpg/sg3_8_cif.got.tgz:15732.got - 2010.06.03 18:33:08.
