data_PCOD9113911
_publ_section_title
;
Structure prediction by ZEFSAII (Michael W. Deem and Ramdas Pophale) SiO2 
 PCOD9113911
Probable space group: P 2
;
_chemical_formula_sum "Si O2"
_cell_formula_units_Z 12
_cell_length_a 8.131827
_cell_length_b 16.083593
_cell_length_c 6.149736
_cell_angle_alpha 90.000000
_cell_angle_beta 137.592129
_cell_angle_gamma 90.000000
_cell_volume 542.434999
_symmetry_space_group_name_H-M "P 2"
_symmetry_group_IT_number 3
_symmetry_cell_setting 'monoclinic'
loop_
_space_group_symop_operation_xyz
x,y,z
-x,y,-z
loop_
_atom_site_type_symbol
_atom_site_label
_atom_site_fract_x
_atom_site_fract_y
_atom_site_fract_z
Si Si1 0.755470 0.982950 0.630779
Si Si2 0.251921 0.145800 0.631969
Si Si3 0.253800 0.465622 0.626417
Si Si4 0.758181 0.636975 0.621331
Si Si5 0.622778 0.812408 0.362524
Si Si6 0.752020 0.303935 0.630342
O O1 0.500000 0.976244 0.500000
O O2 0.742642 0.903701 0.456620
O O3 0.756553 0.079443 0.567841
O O4 0.000000 0.966968 0.000000
O O5 0.246590 0.243183 0.573741
O O6 0.000000 0.125919 0.500000
O O7 0.500000 0.127114 0.000000
O O8 0.255530 0.561513 0.560738
O O9 0.254838 0.401240 0.428663
O O10 0.000000 0.448151 0.500000
O O11 0.500000 0.447573 0.000000
O O12 0.500000 0.633197 0.500000
O O13 0.780782 0.728695 0.541063
O O14 0.000000 0.622206 0.000000
O O15 0.500000 0.812445 0.500000
O O16 0.500000 0.800930 0.000000
O O17 0.500000 0.281215 0.500000
O O18 0.000000 0.284885 0.000000
#
# Coordination Sequence:
#
# PCOD9113911 Si02
#       6
#     2   2   2   2   2   2
#     4  11  23  43  66  97 133 177 224 278 342 415
#     4  12  24  41  64  95 129 170 220 280 342 414
#     4  12  24  41  64  95 129 170 220 280 342 414
#     4  11  23  43  66  97 133 177 224 278 342 415
#     4  10  23  44  70 102 140 184 234 290 350 416
#     4  12  24  42  64  90 126 172 220 278 342 416
#
# _framework density 22.122468000000001
#
# number of rings (size 3 to 8) (size 9 to 14) (size 15 to 20)
#    0.000    0.667    0.000    8.500    0.000    2.667 
#    0.000    7.500    0.000    0.000    0.000    0.000 
#    0.000    0.000    0.000    0.000    0.000    0.000 
#
# Total GULP energy -66843.494987 kJ/mol
# GULP energy per Si atom -5570.291249 kJ/mol
# Density = 2.207212 g / cm^3
# Si number density = 22.122468 Si / 1000 Ang^3
#
#
#
# Elastic Constant Matrix: (Units=GPa)
#
#
# Indices 1 2 3 4 5 6 
#
# 1 86.7190 -9.6197 38.7278 0.0000 34.3417 0.0000
# 2 -9.6197 75.8752 -16.8847 0.0000 1.7778 0.0000
# 3 38.7278 -16.8847 137.4551 0.0000 32.9378 0.0000
# 4 0.0000 0.0000 0.0000 92.2965 0.0000 2.3122
# 5 34.3417 1.7778 32.9378 0.0000 38.5418 0.0000
# 6 0.0000 0.0000 0.0000 2.3122 0.0000 -25.0242
#
#
#
# Elastic Compliance Matrix: (Units=1/GPa)
#
#
# Indices 1 2 3 4 5 6 
#
# 1 0.018505 0.002450 -0.001175 0.000000 -0.015597 0.000000
# 2 0.002450 0.014081 0.002161 0.000000 -0.004679 0.000000
# 3 -0.001175 0.002161 0.009613 0.000000 -0.007268 0.000000
# 4 0.000000 0.000000 0.000000 0.010810 0.000000 0.000999
# 5 -0.015597 -0.004679 -0.007268 0.000000 0.046270 0.000000
# 6 0.000000 0.000000 0.000000 0.000999 0.000000 -0.039869
#
#
# Mechanical properties :
#
#
# Convention : Reuss Voigt Hill
#
# Bulk Modulus (GPa) = 20.37962 36.05512 28.21737
# Shear Modulus (GPa) = 72.57465 40.35121 56.46293
#
# Velocity S-wave (km/s) = 5.73385 4.27546 5.05750
# Velocity P-wave (km/s) = 7.28480 6.38013 6.84742
#
# Compressibility (1/GPa) = 0.04906864
#
# Stress axis : x y z
#
# Youngs Moduli (GPa) = 54.04053 71.01988 104.02360
#
# Poissons Ratio (x) = -0.17400 0.12227
# Poissons Ratio (y) = -0.13240 -0.22474
# Poissons Ratio (z) = 0.06352 -0.15344
#
# Static dielectric constant tensor:
#      x y z
#    x 1.832390 0.000000 -0.103810 
#    y 0.000000 1.745710 0.000000 
#    z -0.103810 0.000000 1.723790 
# 
# From -- ./inp_files/1482.got.cif
#   From: 2010.05.17/outbox.cif.g08.bks.cpg/sg3_1_cif.got.tgz:1482.got - 2010.06.03 18:33:08.
