data_PCOD9113804
_publ_section_title
;
Structure prediction by ZEFSAII (Michael W. Deem and Ramdas Pophale) SiO2 
 PCOD9113804
Probable space group: P 2
;
_chemical_formula_sum "Si O2"
_cell_formula_units_Z 15
_cell_length_a 10.842289
_cell_length_b 9.453510
_cell_length_c 9.132507
_cell_angle_alpha 90.000000
_cell_angle_beta 50.410945
_cell_angle_gamma 90.000000
_cell_volume 721.361246
_symmetry_space_group_name_H-M "P 2"
_symmetry_group_IT_number 3
_symmetry_cell_setting 'monoclinic'
loop_
_space_group_symop_operation_xyz
x,y,z
-x,y,-z
loop_
_atom_site_type_symbol
_atom_site_label
_atom_site_fract_x
_atom_site_fract_y
_atom_site_fract_z
Si Si1 0.137903 0.180980 0.791381
Si Si2 0.768829 0.485083 0.307591
Si Si3 0.773774 0.902231 0.832062
Si Si4 0.253559 0.992696 0.475302
Si Si5 0.070805 0.781052 0.784665
Si Si6 0.500000 0.669428 0.000000
Si Si7 0.519255 0.451537 0.246629
Si Si8 0.598658 0.129196 0.172141
O O1 0.122765 0.347630 0.788730
O O2 0.301715 0.146738 0.753197
O O3 0.144761 0.115311 0.626594
O O4 0.000000 0.123588 0.000000
O O5 0.874317 0.619495 0.267520
O O6 0.670574 0.502898 0.230075
O O7 0.632999 0.448041 0.530019
O O8 0.798295 0.948511 0.646552
O O9 0.932349 0.837806 0.783376
O O10 0.645983 0.774849 0.922185
O O11 0.700543 0.034406 0.980442
O O12 0.226668 0.869498 0.615557
O O13 0.434285 0.046995 0.325116
O O14 0.000000 0.803077 0.000000
O O15 0.480985 0.565089 0.151603
O O16 0.558391 0.292427 0.159529
#
# Coordination Sequence:
#
# PCOD9113804 Si02
#       8
#     2   2   2   2   2   1   2   2
#     4  11  23  41  70 101 134 178 232 285 344 405
#     4  10  22  45  69  98 136 177 231 283 342 406
#     4  12  26  45  68 103 141 186 225 288 346 416
#     4  12  23  42  68 100 135 181 229 284 339 411
#     4  12  26  45  69  99 140 183 229 282 349 412
#     4  12  24  40  66 102 138 176 232 276 356 410
#     4  10  23  41  71 102 131 183 232 285 344 413
#     4  11  23  45  70  99 136 185 235 290 340 414
#
# _framework density 20.79402
#
# number of rings (size 3 to 8) (size 9 to 14) (size 15 to 20)
#    0.000    0.800    2.667    4.800    1.867    1.067 
#    4.800    0.000    2.933    0.000    0.000    0.000 
#    0.000    0.000    0.000    0.000    0.000    0.000 
#
# Total GULP energy -83855.525039 kJ/mol
# GULP energy per Si atom -5590.368336 kJ/mol
# Density = 2.074669 g / cm^3
# Si number density = 20.794020 Si / 1000 Ang^3
#
#
#
# Elastic Constant Matrix: (Units=GPa)
#
#
# Indices 1 2 3 4 5 6 
#
# 1 61.3531 54.1432 22.4963 0.0000 -8.7522 0.0000
# 2 54.1432 162.9630 56.7508 0.0000 2.6205 0.0000
# 3 22.4963 56.7508 106.8640 0.0000 3.9562 0.0000
# 4 0.0000 0.0000 0.0000 21.9656 0.0000 12.0322
# 5 -8.7522 2.6205 3.9562 0.0000 30.3437 0.0000
# 6 0.0000 0.0000 0.0000 12.0322 0.0000 20.5010
#
#
#
# Elastic Compliance Matrix: (Units=1/GPa)
#
#
# Indices 1 2 3 4 5 6 
#
# 1 0.024960 -0.007961 -0.001325 0.000000 0.008060 0.000000
# 2 -0.007961 0.010068 -0.003571 0.000000 -0.002700 0.000000
# 3 -0.001325 -0.003571 0.011592 0.000000 -0.001585 0.000000
# 4 0.000000 0.000000 0.000000 0.067097 0.000000 -0.039380
# 5 0.008060 -0.002700 -0.001585 0.000000 0.035720 0.000000
# 6 0.000000 0.000000 0.000000 -0.039380 0.000000 0.071890
#
#
# Mechanical properties :
#
#
# Convention : Reuss Voigt Hill
#
# Bulk Modulus (GPa) = 47.83299 66.44008 57.13654
# Shear Modulus (GPa) = 19.68423 27.74806 23.71614
#
# Velocity S-wave (km/s) = 3.08007 3.65694 3.38083
# Velocity P-wave (km/s) = 5.97514 7.06058 6.54042
#
# Compressibility (1/GPa) = 0.02090607
#
# Stress axis : x y z
#
# Youngs Moduli (GPa) = 40.06392 99.32140 86.26843
#
# Poissons Ratio (x) = 0.79069 0.11431
# Poissons Ratio (y) = 0.31895 0.30806
# Poissons Ratio (z) = 0.05309 0.35468
#
# Static dielectric constant tensor:
#      x y z
#    x 1.742270 0.000000 -0.019270 
#    y 0.000000 1.762920 0.000000 
#    z -0.019270 0.000000 1.766910 
# 
# From -- ./inp_files/7409.got.cif
#   From: 2010.05.17/outbox.cif.g08.bks.cpg/sg3_4_cif.got.tgz:7409.got - 2010.06.03 18:33:08.
