data_PCOD9113893
_publ_section_title
;
Structure prediction by ZEFSAII (Michael W. Deem and Ramdas Pophale) SiO2 
 PCOD9113893
Probable space group: P 2
;
_chemical_formula_sum "Si O2"
_cell_formula_units_Z 12
_cell_length_a 16.043590
_cell_length_b 4.997237
_cell_length_c 9.361389
_cell_angle_alpha 90.000000
_cell_angle_beta 140.214543
_cell_angle_gamma 90.000000
_cell_volume 480.279291
_symmetry_space_group_name_H-M "P 2"
_symmetry_group_IT_number 3
_symmetry_cell_setting 'monoclinic'
loop_
_space_group_symop_operation_xyz
x,y,z
-x,y,-z
loop_
_atom_site_type_symbol
_atom_site_label
_atom_site_fract_x
_atom_site_fract_y
_atom_site_fract_z
Si Si1 0.125473 0.407160 0.079772
Si Si2 0.430713 0.965768 0.045300
Si Si3 0.798919 0.108553 0.442222
Si Si4 0.667637 0.788867 0.507486
Si Si5 0.374202 0.137811 0.285336
Si Si6 0.044843 0.626922 0.397023
O O1 0.214769 0.586895 0.304264
O O2 0.232088 0.235350 0.137565
O O3 0.000000 0.290213 0.000000
O O4 0.058653 0.561058 0.861386
O O5 0.537406 0.740109 0.237236
O O6 0.398488 0.105539 0.151026
O O7 0.500000 0.107920 0.000000
O O8 0.288974 0.946801 0.789223
O O9 0.732053 0.038369 0.505568
O O10 0.928701 0.937926 0.598821
O O11 0.833841 0.416430 0.462798
O O12 0.620563 0.884772 0.600147
O O13 0.500000 0.309536 0.500000
O O14 0.000000 0.590094 0.500000
#
# Coordination Sequence:
#
# PCOD9113893 Si02
#       6
#     2   2   2   2   2   2
#     4  12  25  43  71 111 150 205 245 326 381 477
#     4   9  21  46  74 105 147 200 256 327 384 461
#     4  11  24  48  69 106 149 199 258 311 386 460
#     4  10  23  43  69 105 145 195 252 310 386 456
#     4  10  23  43  72 106 147 195 260 317 382 459
#     4  12  27  44  72 106 149 202 256 314 388 459
#
# _framework density 24.985462999999999
#
# number of rings (size 3 to 8) (size 9 to 14) (size 15 to 20)
#    0.000    1.333    1.667    2.500    4.667    2.667 
#    6.000    2.500    0.000    0.000    0.000    0.000 
#    0.000    0.000    0.000    0.000    0.000    0.000 
#
# Total GULP energy -66829.918642 kJ/mol
# GULP energy per Si atom -5569.159887 kJ/mol
# Density = 2.492860 g / cm^3
# Si number density = 24.985463 Si / 1000 Ang^3
#
#
#
# Elastic Constant Matrix: (Units=GPa)
#
#
# Indices 1 2 3 4 5 6 
#
# 1 213.0890 23.7380 48.4311 0.0000 -24.1620 0.0000
# 2 23.7380 62.5345 27.1655 0.0000 -6.0936 0.0000
# 3 48.4311 27.1655 152.9901 0.0000 -3.5210 0.0000
# 4 0.0000 0.0000 0.0000 -87.0781 0.0000 -68.8883
# 5 -24.1620 -6.0936 -3.5210 0.0000 55.1809 0.0000
# 6 0.0000 0.0000 0.0000 -68.8883 0.0000 -40.4679
#
#
#
# Elastic Compliance Matrix: (Units=1/GPa)
#
#
# Indices 1 2 3 4 5 6 
#
# 1 0.005399 -0.001214 -0.001444 0.000000 0.002138 0.000000
# 2 -0.001214 0.017765 -0.002741 0.000000 0.001255 0.000000
# 3 -0.001444 -0.002741 0.007470 0.000000 -0.000459 0.000000
# 4 0.000000 0.000000 0.000000 0.033124 0.000000 -0.056386
# 5 0.002138 0.001255 -0.000459 0.000000 0.019168 0.000000
# 6 0.000000 0.000000 0.000000 -0.056386 0.000000 0.071275
#
#
# Mechanical properties :
#
#
# Convention : Reuss Voigt Hill
#
# Bulk Modulus (GPa) = 50.41597 69.69809 60.05703
# Shear Modulus (GPa) = 29.13586 7.47891 18.30738
#
# Velocity S-wave (km/s) = 3.41854 1.73199 2.70982
# Velocity P-wave (km/s) = 5.98363 5.65294 5.82064
#
# Compressibility (1/GPa) = 0.01983499
#
# Stress axis : x y z
#
# Youngs Moduli (GPa) = 185.22834 56.29029 133.87221
#
# Poissons Ratio (x) = 0.06831 0.19336
# Poissons Ratio (y) = 0.22479 0.36699
# Poissons Ratio (z) = 0.26753 0.15431
#
# Static dielectric constant tensor:
#      x y z
#    x 2.135320 0.000000 0.503590 
#    y 0.000000 2.016420 0.000000 
#    z 0.503590 0.000000 3.373890 
# 
# From -- ./inp_files/8145.got.cif
#   From: 2010.05.17/outbox.cif.g08.bks.cpg/sg3_5_cif.got.tgz:8145.got - 2010.06.03 18:33:08.
