data_PCOD9113482
_publ_section_title
;
Structure prediction by ZEFSAII (Michael W. Deem and Ramdas Pophale) SiO2 
 PCOD9113482
Probable space group: P 2
;
_chemical_formula_sum "Si O2"
_cell_formula_units_Z 10
_cell_length_a 8.991863
_cell_length_b 7.167837
_cell_length_c 9.744195
_cell_angle_alpha 90.000000
_cell_angle_beta 45.834733
_cell_angle_gamma 90.000000
_cell_volume 450.510212
_symmetry_space_group_name_H-M "P 2"
_symmetry_group_IT_number 3
_symmetry_cell_setting 'monoclinic'
loop_
_space_group_symop_operation_xyz
x,y,z
-x,y,-z
loop_
_atom_site_type_symbol
_atom_site_label
_atom_site_fract_x
_atom_site_fract_y
_atom_site_fract_z
Si Si1 0.652686 0.069800 0.515544
Si Si2 0.282453 0.479199 0.567107
Si Si3 0.601646 0.981180 0.080369
Si Si4 0.367366 0.603841 0.209787
Si Si5 0.988739 0.798583 0.737325
O O1 0.500000 0.984070 0.500000
O O2 0.750773 0.258611 0.392185
O O3 0.497620 0.109991 0.740921
O O4 0.831779 0.927163 0.441715
O O5 0.500000 0.522271 0.500000
O O6 0.300023 0.500593 0.390251
O O7 0.109134 0.625113 0.728925
O O8 0.514440 0.772806 0.163928
O O9 0.500000 0.034442 0.000000
O O10 0.845805 0.942658 0.914864
O O11 0.169108 0.700602 0.266307
O O12 0.500000 0.509119 0.000000
#
# Coordination Sequence:
#
# PCOD9113482 Si02
#       5
#     2   2   2   2   2
#     4  11  24  42  64  95 133 169 210 265 323 380
#     4  11  23  41  65  95 132 169 209 265 324 381
#     4   9  21  40  66  91 125 167 210 265 319 374
#     4   9  20  41  64  93 123 161 216 260 314 378
#     4  10  21  43  66  91 126 168 219 256 315 381
#
# _framework density 22.197054000000001
#
# number of rings (size 3 to 8) (size 9 to 14) (size 15 to 20)
#    0.000    2.400    2.000    1.200    2.800    1.600 
#   25.200    0.000    0.000    0.000    0.000    0.000 
#    0.000    0.000    0.000    0.000    0.000    0.000 
#
# Total GULP energy -55738.386380 kJ/mol
# GULP energy per Si atom -5573.838638 kJ/mol
# Density = 2.214653 g / cm^3
# Si number density = 22.197054 Si / 1000 Ang^3
#
#
#
# Elastic Constant Matrix: (Units=GPa)
#
#
# Indices 1 2 3 4 5 6 
#
# 1 80.4705 19.7288 33.6929 0.0000 -18.8703 0.0000
# 2 19.7288 72.4854 21.3559 0.0000 -18.2315 0.0000
# 3 33.6929 21.3559 113.6159 0.0000 -23.1653 0.0000
# 4 0.0000 0.0000 0.0000 -17.4000 0.0000 15.8878
# 5 -18.8703 -18.2315 -23.1653 0.0000 27.7038 0.0000
# 6 0.0000 0.0000 0.0000 15.8878 0.0000 8.8285
#
#
#
# Elastic Compliance Matrix: (Units=1/GPa)
#
#
# Indices 1 2 3 4 5 6 
#
# 1 0.015728 -0.001609 -0.002885 0.000000 0.007241 0.000000
# 2 -0.001609 0.016806 -0.000784 0.000000 0.009308 0.000000
# 3 -0.002885 -0.000784 0.011210 0.000000 0.006892 0.000000
# 4 0.000000 0.000000 0.000000 -0.021743 0.000000 0.039129
# 5 0.007241 0.009308 0.006892 0.000000 0.052917 0.000000
# 6 0.000000 0.000000 0.000000 0.039129 0.000000 0.042853
#
#
# Mechanical properties :
#
#
# Convention : Reuss Voigt Hill
#
# Bulk Modulus (GPa) = 30.13247 46.23634 38.18440
# Shear Modulus (GPa) = 35.87074 16.61275 26.24175
#
# Velocity S-wave (km/s) = 4.02433 2.73870 3.44207
# Velocity P-wave (km/s) = 5.93280 5.55660 5.74778
#
# Compressibility (1/GPa) = 0.03318679
#
# Stress axis : x y z
#
# Youngs Moduli (GPa) = 63.58287 59.50236 89.20775
#
# Poissons Ratio (x) = 0.09576 0.25737
# Poissons Ratio (y) = 0.10233 0.06992
# Poissons Ratio (z) = 0.18344 0.04664
#
# Static dielectric constant tensor:
#      x y z
#    x 1.846470 0.000000 0.058900 
#    y 0.000000 1.811780 0.000000 
#    z 0.058900 0.000000 1.916530 
# 
# From -- ./inp_files/10303.got.cif
#   From: 2010.05.17/outbox.cif.g08.bks.cpg/sg3_6_cif.got.tgz:10303.got - 2010.06.03 18:33:08.
