data_PCOD9113009
_publ_section_title
;
Structure prediction by ZEFSAII (Michael W. Deem and Ramdas Pophale) SiO2 
 PCOD9113009
Probable space group: P 2
;
_chemical_formula_sum "Si O2"
_cell_formula_units_Z 11
_cell_length_a 14.012712
_cell_length_b 7.305091
_cell_length_c 5.290408
_cell_angle_alpha 90.000000
_cell_angle_beta 111.253585
_cell_angle_gamma 90.000000
_cell_volume 504.714758
_symmetry_space_group_name_H-M "P 2"
_symmetry_group_IT_number 3
_symmetry_cell_setting 'monoclinic'
loop_
_space_group_symop_operation_xyz
x,y,z
-x,y,-z
loop_
_atom_site_type_symbol
_atom_site_label
_atom_site_fract_x
_atom_site_fract_y
_atom_site_fract_z
Si Si1 0.704059 0.622500 0.468315
Si Si2 0.629838 0.321306 0.997152
Si Si3 0.500000 0.500986 0.500000
Si Si4 0.184861 0.314873 0.211465
Si Si5 0.248454 0.018919 0.679263
Si Si6 0.937688 0.050330 0.180860
O O1 0.602666 0.614616 0.547254
O O2 0.803953 0.519518 0.675342
O O3 0.727926 0.828510 0.425530
O O4 0.671777 0.491801 0.201958
O O5 0.523902 0.373198 0.763307
O O6 0.709437 0.297235 0.840919
O O7 0.648366 0.129999 0.154984
O O8 0.189608 0.164820 0.440715
O O9 0.093804 0.256044 0.939288
O O10 0.174639 0.975826 0.848219
O O11 0.000000 0.039182 0.500000
O O12 0.000000 0.971273 0.000000
#
# Coordination Sequence:
#
# PCOD9113009 Si02
#       6
#     2   2   1   2   2   2
#     4  10  21  40  64  93 130 173 219 270 323 389
#     4   9  20  38  60  88 125 172 212 272 326 385
#     4  10  20  38  58  88 136 172 224 268 316 390
#     4   9  20  39  66  90 124 171 205 274 329 387
#     4  10  21  40  68  92 130 174 213 270 337 380
#     4  11  21  39  71  96 133 174 222 267 328 398
#
# _framework density 21.794488999999999
#
# number of rings (size 3 to 8) (size 9 to 14) (size 15 to 20)
#    0.000    2.182    1.818    0.545    0.000    5.818 
#    0.000   21.818   16.000    0.000    0.000    0.000 
#    0.000    0.000    0.000    0.000    0.000    0.000 
#
# Total GULP energy -61273.133547 kJ/mol
# GULP energy per Si atom -5570.284868 kJ/mol
# Density = 2.174488 g / cm^3
# Si number density = 21.794489 Si / 1000 Ang^3
#
#
#
# Elastic Constant Matrix: (Units=GPa)
#
#
# Indices 1 2 3 4 5 6 
#
# 1 86.8092 20.2751 -1.5749 0.0000 -24.3349 0.0000
# 2 20.2751 135.4821 16.2343 0.0000 -10.9031 0.0000
# 3 -1.5749 16.2343 78.1876 0.0000 -8.8703 0.0000
# 4 0.0000 0.0000 0.0000 16.4890 0.0000 -8.0885
# 5 -24.3349 -10.9031 -8.8703 0.0000 32.6573 0.0000
# 6 0.0000 0.0000 0.0000 -8.0885 0.0000 16.4472
#
#
#
# Elastic Compliance Matrix: (Units=1/GPa)
#
#
# Indices 1 2 3 4 5 6 
#
# 1 0.015068 -0.001580 0.001904 0.000000 0.011218 0.000000
# 2 -0.001580 0.007887 -0.001552 0.000000 0.001034 0.000000
# 3 0.001904 -0.001552 0.013674 0.000000 0.004615 0.000000
# 4 0.000000 0.000000 0.000000 0.079928 0.000000 0.039307
# 5 0.011218 0.001034 0.004615 0.000000 0.040579 0.000000
# 6 0.000000 0.000000 0.000000 0.039307 0.000000 0.080131
#
#
# Mechanical properties :
#
#
# Convention : Reuss Voigt Hill
#
# Bulk Modulus (GPa) = 29.26370 41.14978 35.20674
# Shear Modulus (GPa) = 19.91132 30.82166 25.36649
#
# Velocity S-wave (km/s) = 3.02585 3.76466 3.41529
# Velocity P-wave (km/s) = 5.06596 6.14969 5.63394
#
# Compressibility (1/GPa) = 0.03417202
#
# Stress axis : x y z
#
# Youngs Moduli (GPa) = 66.36698 126.79515 73.13194
#
# Poissons Ratio (x) = 0.20038 -0.13926
# Poissons Ratio (y) = 0.10488 0.11351
# Poissons Ratio (z) = -0.12638 0.19680
#
# Static dielectric constant tensor:
#      x y z
#    x 1.906890 0.000000 -0.011430 
#    y 0.000000 1.751420 0.000000 
#    z -0.011430 0.000000 1.924780 
# 
# From -- ./inp_files/2780.got.cif
#   From: 2010.05.17/outbox.cif.g08.bks.cpg/sg3_2_cif.got.tgz:2780.got - 2010.06.03 18:33:08.
