data_PCOD9113249
_publ_section_title
;
Structure prediction by ZEFSAII (Michael W. Deem and Ramdas Pophale) SiO2 
 PCOD9113249
Probable space group: P 2
;
_chemical_formula_sum "Si O2"
_cell_formula_units_Z 14
_cell_length_a 16.569748
_cell_length_b 7.299069
_cell_length_c 8.648418
_cell_angle_alpha 90.000000
_cell_angle_beta 35.161405
_cell_angle_gamma 90.000000
_cell_volume 602.356165
_symmetry_space_group_name_H-M "P 2"
_symmetry_group_IT_number 3
_symmetry_cell_setting 'monoclinic'
loop_
_space_group_symop_operation_xyz
x,y,z
-x,y,-z
loop_
_atom_site_type_symbol
_atom_site_label
_atom_site_fract_x
_atom_site_fract_y
_atom_site_fract_z
Si Si1 0.964174 0.661130 0.378571
Si Si2 0.358050 0.167712 0.162205
Si Si3 0.875641 0.179430 0.274712
Si Si4 0.650290 0.124130 0.194048
Si Si5 0.217537 0.842611 0.795392
Si Si6 0.659645 0.742738 0.708771
Si Si7 0.047391 0.239169 0.260615
O O1 0.801646 0.688117 0.581140
O O2 0.000000 0.722959 0.500000
O O3 0.992178 0.443754 0.335037
O O4 0.081817 0.742212 0.077275
O O5 0.246747 0.275680 0.442075
O O6 0.349428 0.959957 0.237274
O O7 0.500000 0.249122 0.000000
O O8 0.351662 0.148981 0.988162
O O9 0.825156 0.021080 0.240997
O O10 0.037180 0.102489 0.717169
O O11 0.000000 0.294341 0.000000
O O12 0.500000 0.176797 0.500000
O O13 0.690248 0.925725 0.206708
O O14 0.787267 0.240638 0.025890
O O15 0.304396 0.726281 0.531453
O O16 0.500000 0.675343 0.000000
O O17 0.000000 0.170812 0.500000
#
# Coordination Sequence:
#
# PCOD9113249 Si02
#       7
#     2   2   2   2   2   2   2
#     4  11  25  44  67  96 138 185 225 275 338 410
#     4  10  21  37  62  98 134 166 220 283 334 387
#     4  11  20  36  62  94 126 166 223 269 320 385
#     4  12  23  40  67 101 134 176 226 283 339 393
#     4  11  23  40  68 102 130 174 226 279 335 398
#     4  10  21  41  65 100 136 170 225 284 339 396
#     4  11  25  44  64  93 135 182 225 269 335 409
#
# _framework density 23.242063000000002
#
# number of rings (size 3 to 8) (size 9 to 14) (size 15 to 20)
#    0.000    1.143    2.857    5.571    0.000    1.714 
#    0.000    4.286    0.000    0.000    0.000    0.000 
#    0.000    0.000    0.000    0.000    0.000    0.000 
#
# Total GULP energy -77951.931128 kJ/mol
# GULP energy per Si atom -5567.995081 kJ/mol
# Density = 2.318916 g / cm^3
# Si number density = 23.242063 Si / 1000 Ang^3
#
#
#
# Elastic Constant Matrix: (Units=GPa)
#
#
# Indices 1 2 3 4 5 6 
#
# 1 133.0213 10.8989 85.7098 0.0000 4.3858 0.0000
# 2 10.8989 42.7019 16.6677 0.0000 -4.6666 0.0000
# 3 85.7098 16.6677 250.8669 0.0000 -16.4499 0.0000
# 4 0.0000 0.0000 0.0000 13.0516 0.0000 1.1111
# 5 4.3858 -4.6666 -16.4499 0.0000 59.1604 0.0000
# 6 0.0000 0.0000 0.0000 1.1111 0.0000 22.8104
#
#
#
# Elastic Compliance Matrix: (Units=1/GPa)
#
#
# Indices 1 2 3 4 5 6 
#
# 1 0.009882 -0.001390 -0.003401 0.000000 -0.001788 0.000000
# 2 -0.001390 0.024365 -0.001030 0.000000 0.001739 0.000000
# 3 -0.003401 -0.001030 0.005325 0.000000 0.001652 0.000000
# 4 0.000000 0.000000 0.000000 0.076938 0.000000 -0.003748
# 5 -0.001788 0.001739 0.001652 0.000000 0.017632 0.000000
# 6 0.000000 0.000000 0.000000 -0.003748 0.000000 0.044022
#
#
# Mechanical properties :
#
#
# Convention : Reuss Voigt Hill
#
# Bulk Modulus (GPa) = 35.80417 72.57141 54.18779
# Shear Modulus (GPa) = 25.11099 39.89205 32.50152
#
# Velocity S-wave (km/s) = 3.29053 4.14741 3.74357
# Velocity P-wave (km/s) = 5.46581 7.36387 6.48466
#
# Compressibility (1/GPa) = 0.02792971
#
# Stress axis : x y z
#
# Youngs Moduli (GPa) = 101.19570 41.04254 187.79746
#
# Poissons Ratio (x) = 0.05705 0.63871
# Poissons Ratio (y) = 0.14067 0.19341
# Poissons Ratio (z) = 0.34417 0.04227
#
# Static dielectric constant tensor:
#      x y z
#    x 2.009020 0.000000 -0.005390 
#    y 0.000000 1.867300 0.000000 
#    z -0.005390 0.000000 2.143630 
# 
# From -- ./inp_files/7382.got.cif
#   From: 2010.05.17/outbox.cif.g08.bks.cpg/sg3_4_cif.got.tgz:7382.got - 2010.06.03 18:33:08.
