data_PCOD9113964
_publ_section_title
;
Structure prediction by ZEFSAII (Michael W. Deem and Ramdas Pophale) SiO2 
 PCOD9113964
Probable space group: P 2
;
_chemical_formula_sum "Si O2"
_cell_formula_units_Z 15
_cell_length_a 5.906156
_cell_length_b 8.384579
_cell_length_c 17.530789
_cell_angle_alpha 90.000000
_cell_angle_beta 134.290294
_cell_angle_gamma 90.000000
_cell_volume 621.421146
_symmetry_space_group_name_H-M "P 2"
_symmetry_group_IT_number 3
_symmetry_cell_setting 'monoclinic'
loop_
_space_group_symop_operation_xyz
x,y,z
-x,y,-z
loop_
_atom_site_type_symbol
_atom_site_label
_atom_site_fract_x
_atom_site_fract_y
_atom_site_fract_z
Si Si1 0.315558 0.281000 0.611724
Si Si2 0.192104 0.751909 0.214155
Si Si3 0.269807 0.148601 0.118187
Si Si4 0.418359 0.483113 0.185115
Si Si5 0.148755 0.925020 0.617635
Si Si6 0.500000 0.374843 0.500000
Si Si7 0.780792 0.048136 0.125570
Si Si8 0.928863 0.642670 0.660205
O O1 0.471455 0.391447 0.711476
O O2 0.518194 0.267266 0.581018
O O3 0.000000 0.351688 0.500000
O O4 0.198661 0.115829 0.622980
O O5 0.163266 0.618272 0.143258
O O6 0.504045 0.859101 0.279518
O O7 0.267109 0.660442 0.309615
O O8 0.894040 0.865620 0.152509
O O9 0.309079 0.336046 0.109595
O O10 0.613186 0.084904 0.168096
O O11 0.093987 0.133275 0.160724
O O12 0.000000 0.073132 0.000000
O O13 0.727438 0.580090 0.233238
O O14 0.936952 0.817867 0.624404
O O15 0.000000 0.883636 0.500000
O O16 0.782650 0.502779 0.575765
O O17 0.500000 0.079866 0.000000
#
# Coordination Sequence:
#
# PCOD9113964 Si02
#       8
#     2   2   2   2   2   1   2   2
#     4  11  23  40  60  89 127 170 227 283 334 406
#     4  11  24  41  64  97 134 177 226 284 352 413
#     4  10  24  48  74 102 139 181 231 288 353 418
#     4  11  24  40  64  99 132 177 224 285 350 417
#     4  10  24  40  61  90 128 173 232 281 336 412
#     4  12  22  40  66  88 134 182 228 284 354 398
#     4  10  24  47  74 102 136 183 229 286 350 423
#     4  11  24  38  62  90 130 179 218 282 345 417
#
# _framework density 24.138217999999998
#
# number of rings (size 3 to 8) (size 9 to 14) (size 15 to 20)
#    0.000    1.333    2.667    1.600    9.333    3.200 
#    2.400    0.000    0.000    0.000    0.000    0.000 
#    0.000    0.000    0.000    0.000    0.000    0.000 
#
# Total GULP energy -83519.493617 kJ/mol
# GULP energy per Si atom -5567.966241 kJ/mol
# Density = 2.408328 g / cm^3
# Si number density = 24.138218 Si / 1000 Ang^3
#
#
#
# Elastic Constant Matrix: (Units=GPa)
#
#
# Indices 1 2 3 4 5 6 
#
# 1 111.7225 42.7068 10.9003 0.0000 3.2138 0.0000
# 2 42.7068 92.0809 0.0699 0.0000 6.9374 0.0000
# 3 10.9003 0.0699 19.9243 0.0000 2.5121 0.0000
# 4 0.0000 0.0000 0.0000 22.2444 0.0000 -7.2373
# 5 3.2138 6.9374 2.5121 0.0000 29.7695 0.0000
# 6 0.0000 0.0000 0.0000 -7.2373 0.0000 31.8190
#
#
#
# Elastic Compliance Matrix: (Units=1/GPa)
#
#
# Indices 1 2 3 4 5 6 
#
# 1 0.011638 -0.005435 -0.006418 0.000000 0.000552 0.000000
# 2 -0.005435 0.013593 0.003286 0.000000 -0.002858 0.000000
# 3 -0.006418 0.003286 0.054276 0.000000 -0.004653 0.000000
# 4 0.000000 0.000000 0.000000 0.048548 0.000000 0.011042
# 5 0.000552 -0.002858 -0.004653 0.000000 0.034591 0.000000
# 6 0.000000 0.000000 0.000000 0.011042 0.000000 0.033939
#
#
# Mechanical properties :
#
#
# Convention : Reuss Voigt Hill
#
# Bulk Modulus (GPa) = 16.03204 36.78688 26.40946
# Shear Modulus (GPa) = 21.32105 28.10331 24.71218
#
# Velocity S-wave (km/s) = 2.97524 3.41584 3.20312
# Velocity P-wave (km/s) = 4.29639 5.55252 4.96434
#
# Compressibility (1/GPa) = 0.06237511
#
# Stress axis : x y z
#
# Youngs Moduli (GPa) = 85.92228 73.56518 18.42432
#
# Poissons Ratio (x) = 0.39979 0.11824
# Poissons Ratio (y) = 0.46695 -0.06054
# Poissons Ratio (z) = 0.55142 -0.24172
#
# Static dielectric constant tensor:
#      x y z
#    x 2.110500 0.000000 -0.016430 
#    y 0.000000 1.958410 0.000000 
#    z -0.016430 0.000000 1.955120 
# 
# From -- ./inp_files/3210.got.cif
#   From: 2010.05.17/outbox.cif.g08.bks.cpg/sg3_2_cif.got.tgz:3210.got - 2010.06.03 18:33:08.
