data_PCOD9113452
_publ_section_title
;
Structure prediction by ZEFSAII (Michael W. Deem and Ramdas Pophale) SiO2 
 PCOD9113452
Probable space group: P 2
;
_chemical_formula_sum "Si O2"
_cell_formula_units_Z 16
_cell_length_a 9.566462
_cell_length_b 8.430162
_cell_length_c 19.983165
_cell_angle_alpha 90.000000
_cell_angle_beta 27.384281
_cell_angle_gamma 90.000000
_cell_volume 741.255655
_symmetry_space_group_name_H-M "P 2"
_symmetry_group_IT_number 3
_symmetry_cell_setting 'monoclinic'
loop_
_space_group_symop_operation_xyz
x,y,z
-x,y,-z
loop_
_atom_site_type_symbol
_atom_site_label
_atom_site_fract_x
_atom_site_fract_y
_atom_site_fract_z
Si Si1 0.771887 0.457580 0.537524
Si Si2 0.003505 0.301832 0.311688
Si Si3 0.496505 0.801832 0.688308
Si Si4 0.728119 0.957581 0.462473
Si Si5 0.402651 0.116445 0.967271
Si Si6 0.867287 0.335344 0.217564
Si Si7 0.367289 0.835344 0.217562
Si Si8 0.097344 0.616446 0.032732
O O1 0.653808 0.636529 0.598502
O O2 0.472328 0.348174 0.665373
O O3 0.000000 0.417429 0.500000
O O4 0.937286 0.428934 0.396874
O O5 0.357170 0.257546 0.150722
O O6 0.846203 0.136530 0.401494
O O7 0.867334 0.348001 0.297775
O O8 0.632670 0.848000 0.702224
O O9 0.142838 0.757546 0.849274
O O10 0.562727 0.928933 0.603122
O O11 0.500000 0.917436 0.500000
O O12 0.027675 0.848172 0.334624
O O13 0.455702 0.983005 0.890115
O O14 0.500000 0.057021 0.000000
O O15 0.062967 0.181726 0.115722
O O16 0.044294 0.483004 0.109887
O O17 0.562972 0.681728 0.115718
O O18 0.000000 0.557023 0.000000
#
# Coordination Sequence:
#
# PCOD9113452 Si02
#       8
#     2   2   2   2   2   2   2   2
#     4  11  23  40  63  91 125 160 201 250 302 360
#     4  10  23  42  62  89 125 161 202 251 301 359
#     4  10  23  42  62  89 125 161 202 251 301 359
#     4  11  23  40  63  91 125 160 201 250 302 360
#     4   9  21  40  62  92 124 157 202 252 302 358
#     4  10  21  42  65  88 124 162 200 251 303 357
#     4  10  21  42  65  88 124 162 200 251 303 357
#     4   9  21  40  62  92 124 157 202 252 302 358
#
# _framework density 21.584994999999999
#
# number of rings (size 3 to 8) (size 9 to 14) (size 15 to 20)
#    0.000    2.000    0.000    2.250    0.000   12.000 
#    0.000   16.250    0.000    0.000    0.000    0.000 
#    0.000    0.000    0.000    0.000    0.000    0.000 
#
# Total GULP energy -89500.191122 kJ/mol
# GULP energy per Si atom -5593.761945 kJ/mol
# Density = 2.153587 g / cm^3
# Si number density = 21.584995 Si / 1000 Ang^3
#
#
#
# Elastic Constant Matrix: (Units=GPa)
#
#
# Indices 1 2 3 4 5 6 
#
# 1 118.3914 62.2893 83.9685 0.0000 3.9481 0.0000
# 2 62.2893 55.5808 39.6857 0.0000 7.7699 0.0000
# 3 83.9685 39.6857 111.0800 0.0000 16.0983 0.0000
# 4 0.0000 0.0000 0.0000 52.0305 0.0000 16.7692
# 5 3.9481 7.7699 16.0983 0.0000 42.1787 0.0000
# 6 0.0000 0.0000 0.0000 16.7692 0.0000 26.3075
#
#
#
# Elastic Compliance Matrix: (Units=1/GPa)
#
#
# Indices 1 2 3 4 5 6 
#
# 1 0.036603 -0.028986 -0.018620 0.000000 0.009020 0.000000
# 2 -0.028986 0.047168 0.006273 0.000000 -0.008370 0.000000
# 3 -0.018620 0.006273 0.021967 0.000000 -0.007797 0.000000
# 4 0.000000 0.000000 0.000000 0.024189 0.000000 -0.015419
# 5 0.009020 -0.008370 -0.007797 0.000000 0.027382 0.000000
# 6 0.000000 0.000000 0.000000 -0.015419 0.000000 0.047840
#
#
# Mechanical properties :
#
#
# Convention : Reuss Voigt Hill
#
# Bulk Modulus (GPa) = 43.34634 72.99324 58.16979
# Shear Modulus (GPa) = 16.92014 30.71061 23.81538
#
# Velocity S-wave (km/s) = 2.80283 3.77606 3.32524
# Velocity P-wave (km/s) = 5.53171 7.27335 6.46148
#
# Compressibility (1/GPa) = 0.02307000
#
# Stress axis : x y z
#
# Youngs Moduli (GPa) = 27.32042 21.20091 45.52289
#
# Poissons Ratio (x) = 0.61454 0.84765
# Poissons Ratio (y) = 0.79192 -0.28556
# Poissons Ratio (z) = 0.50871 -0.13299
#
# Static dielectric constant tensor:
#      x y z
#    x 1.742480 0.000000 -0.022340 
#    y 0.000000 1.781470 0.000000 
#    z -0.022340 0.000000 1.803070 
# 
# From -- ./inp_files/15041.got.cif
#   From: 2010.05.17/outbox.cif.g08.bks.cpg/sg3_8_cif.got.tgz:15041.got - 2010.06.03 18:33:08.
