data_PCOD9113462
_publ_section_title
;
Structure prediction by ZEFSAII (Michael W. Deem and Ramdas Pophale) SiO2 
 PCOD9113462
Probable space group: P 2
;
_chemical_formula_sum "Si O2"
_cell_formula_units_Z 14
_cell_length_a 8.258266
_cell_length_b 6.302786
_cell_length_c 13.519480
_cell_angle_alpha 90.000000
_cell_angle_beta 123.556483
_cell_angle_gamma 90.000000
_cell_volume 586.413997
_symmetry_space_group_name_H-M "P 2"
_symmetry_group_IT_number 3
_symmetry_cell_setting 'monoclinic'
loop_
_space_group_symop_operation_xyz
x,y,z
-x,y,-z
loop_
_atom_site_type_symbol
_atom_site_label
_atom_site_fract_x
_atom_site_fract_y
_atom_site_fract_z
Si Si1 0.318298 0.390380 0.871398
Si Si2 0.532040 0.096671 0.259415
Si Si3 0.311852 0.448761 0.308003
Si Si4 0.307752 0.724875 0.561962
Si Si5 0.074066 0.721783 0.675181
Si Si6 0.986297 0.121993 0.753002
Si Si7 0.825247 0.817729 0.864713
O O1 0.387794 0.248598 0.800863
O O2 0.191894 0.595732 0.798198
O O3 0.162249 0.235261 0.869676
O O4 0.500000 0.445046 0.000000
O O5 0.419021 0.261768 0.287923
O O6 0.654349 0.962355 0.383269
O O7 0.380323 0.916485 0.167256
O O8 0.491053 0.607968 0.392911
O O9 0.196466 0.583195 0.186667
O O10 0.163247 0.310391 0.326516
O O11 0.187883 0.640985 0.616486
O O12 0.156647 0.700076 0.421451
O O13 0.077833 0.974071 0.698268
O O14 0.882477 0.958339 0.789524
O O15 0.000000 0.830034 0.000000
#
# Coordination Sequence:
#
# PCOD9113462 Si02
#       7
#     2   2   2   2   2   2   2
#     4  12  25  42  69 106 143 181 234 294 359 419
#     4  10  21  42  67  97 132 185 234 283 349 418
#     4  10  22  43  68  97 135 179 233 284 354 413
#     4  10  22  46  71  99 138 186 241 292 345 427
#     4  11  24  44  71 104 139 183 241 296 351 413
#     4  11  24  44  64 105 143 179 234 292 356 415
#     4  10  22  41  67  94 139 189 233 285 351 429
#
# _framework density 23.873915
#
# number of rings (size 3 to 8) (size 9 to 14) (size 15 to 20)
#    0.000    1.429    2.857    1.714    0.000    6.286 
#    0.000   17.143    0.000    0.000    0.000    0.000 
#    0.000    0.000    0.000    0.000    0.000    0.000 
#
# Total GULP energy -78010.119250 kJ/mol
# GULP energy per Si atom -5572.151375 kJ/mol
# Density = 2.381958 g / cm^3
# Si number density = 23.873915 Si / 1000 Ang^3
#
#
#
# Elastic Constant Matrix: (Units=GPa)
#
#
# Indices 1 2 3 4 5 6 
#
# 1 77.5796 38.6429 33.1531 0.0000 16.8412 0.0000
# 2 38.6429 136.6757 73.5126 0.0000 10.9568 0.0000
# 3 33.1531 73.5126 132.9356 0.0000 27.6847 0.0000
# 4 0.0000 0.0000 0.0000 7.1890 0.0000 11.8500
# 5 16.8412 10.9568 27.6847 0.0000 28.6445 0.0000
# 6 0.0000 0.0000 0.0000 11.8500 0.0000 52.6518
#
#
#
# Elastic Compliance Matrix: (Units=1/GPa)
#
#
# Indices 1 2 3 4 5 6 
#
# 1 0.016717 -0.003899 -0.000347 0.000000 -0.008002 0.000000
# 2 -0.003899 0.011414 -0.006144 0.000000 0.003865 0.000000
# 3 -0.000347 -0.006144 0.013114 0.000000 -0.010121 0.000000
# 4 0.000000 0.000000 0.000000 0.221140 0.000000 -0.049771
# 5 -0.008002 0.003865 -0.010121 0.000000 0.047919 0.000000
# 6 0.000000 0.000000 0.000000 -0.049771 0.000000 0.030194
#
#
# Mechanical properties :
#
#
# Convention : Reuss Voigt Hill
#
# Bulk Modulus (GPa) = 48.86097 70.86757 59.86427
# Shear Modulus (GPa) = 13.58326 31.15590 22.36958
#
# Velocity S-wave (km/s) = 2.38787 3.61642 3.06435
# Velocity P-wave (km/s) = 5.30219 6.86925 6.13595
#
# Compressibility (1/GPa) = 0.02046623
#
# Stress axis : x y z
#
# Youngs Moduli (GPa) = 59.81863 87.61299 76.25171
#
# Poissons Ratio (x) = 0.34156 0.02644
# Poissons Ratio (y) = 0.23320 0.46852
# Poissons Ratio (z) = 0.02074 0.53833
#
# Static dielectric constant tensor:
#      x y z
#    x 2.073540 0.000000 0.045860 
#    y 0.000000 1.900040 0.000000 
#    z 0.045860 0.000000 1.906470 
# 
# From -- ./inp_files/6611.got.cif
#   From: 2010.05.17/outbox.cif.g08.bks.cpg/sg3_4_cif.got.tgz:6611.got - 2010.06.03 18:33:08.
