data_PCOD9113618
_publ_section_title
;
Structure prediction by ZEFSAII (Michael W. Deem and Ramdas Pophale) SiO2 
 PCOD9113618
Probable space group: P 2
;
_chemical_formula_sum "Si O2"
_cell_formula_units_Z 14
_cell_length_a 6.032541
_cell_length_b 6.482609
_cell_length_c 17.405230
_cell_angle_alpha 90.000000
_cell_angle_beta 74.360875
_cell_angle_gamma 90.000000
_cell_volume 655.460555
_symmetry_space_group_name_H-M "P 2"
_symmetry_group_IT_number 3
_symmetry_cell_setting 'monoclinic'
loop_
_space_group_symop_operation_xyz
x,y,z
-x,y,-z
loop_
_atom_site_type_symbol
_atom_site_label
_atom_site_fract_x
_atom_site_fract_y
_atom_site_fract_z
Si Si1 0.040040 0.887960 0.789976
Si Si2 0.500000 0.209936 0.500000
Si Si3 0.939347 0.210659 0.922962
Si Si4 0.673882 0.550478 0.143612
Si Si5 0.407112 0.887415 0.633599
Si Si6 0.500000 0.490119 0.000000
Si Si7 0.276716 0.609733 0.287284
Si Si8 0.117184 0.546400 0.567864
O O1 0.190190 0.736067 0.829317
O O2 0.220104 0.977453 0.710966
O O3 0.856718 0.753988 0.760420
O O4 0.921249 0.052198 0.855618
O O5 0.281239 0.356191 0.532906
O O6 0.520837 0.063173 0.571886
O O7 0.711458 0.346305 0.954340
O O8 0.149881 0.364208 0.884775
O O9 0.000000 0.111114 0.000000
O O10 0.466665 0.489284 0.220244
O O11 0.578690 0.611140 0.068480
O O12 0.589056 0.753118 0.664436
O O13 0.268242 0.727863 0.591911
O O14 0.083003 0.488611 0.352808
O O15 0.000000 0.618964 0.500000
#
# Coordination Sequence:
#
# PCOD9113618 Si02
#       8
#     2   1   2   2   2   1   2   2
#     4  10  23  41  64  91 124 166 208 253 307 365
#     4  12  24  40  66  94 124 164 206 252 308 368
#     4  10  23  41  61  92 129 162 205 256 306 367
#     4  10  22  42  64  91 126 164 206 257 309 363
#     4  10  24  44  62  91 129 161 204 256 306 368
#     4  10  22  40  64  92 128 164 202 256 310 366
#     4  10  22  43  66  89 125 166 205 255 307 363
#     4  11  24  42  65  93 125 162 204 255 309 366
#
# _framework density 21.359027999999999
#
# number of rings (size 3 to 8) (size 9 to 14) (size 15 to 20)
#    0.000    1.714    0.000    3.000    0.000   16.000 
#    0.000    4.286    0.000    0.000    0.000    0.000 
#    0.000    0.000    0.000    0.000    0.000    0.000 
#
# Total GULP energy -78308.023435 kJ/mol
# GULP energy per Si atom -5593.430245 kJ/mol
# Density = 2.131041 g / cm^3
# Si number density = 21.359028 Si / 1000 Ang^3
#
#
#
# Elastic Constant Matrix: (Units=GPa)
#
#
# Indices 1 2 3 4 5 6 
#
# 1 127.8357 30.0702 78.6387 0.0000 -3.9124 0.0000
# 2 30.0702 39.5587 61.1835 0.0000 -7.5553 0.0000
# 3 78.6387 61.1835 170.9647 0.0000 -6.9410 0.0000
# 4 0.0000 0.0000 0.0000 67.0968 0.0000 -13.6131
# 5 -3.9124 -7.5553 -6.9410 0.0000 62.8611 0.0000
# 6 0.0000 0.0000 0.0000 -13.6131 0.0000 7.0871
#
#
#
# Elastic Compliance Matrix: (Units=1/GPa)
#
#
# Indices 1 2 3 4 5 6 
#
# 1 0.010935 -0.001185 -0.004604 0.000000 0.000030 0.000000
# 2 -0.001185 0.058093 -0.020054 0.000000 0.004694 0.000000
# 3 -0.004604 -0.020054 0.015102 0.000000 -0.001029 0.000000
# 4 0.000000 0.000000 0.000000 0.024421 0.000000 0.046909
# 5 0.000030 0.004694 -0.001029 0.000000 0.016360 0.000000
# 6 0.000000 0.000000 0.000000 0.046909 0.000000 0.231207
#
#
# Mechanical properties :
#
#
# Convention : Reuss Voigt Hill
#
# Bulk Modulus (GPa) = 30.82353 75.34932 53.08642
# Shear Modulus (GPa) = 11.94403 38.64011 25.29207
#
# Velocity S-wave (km/s) = 2.36731 4.25794 3.44487
# Velocity P-wave (km/s) = 4.68345 7.71540 6.38209
#
# Compressibility (1/GPa) = 0.03244275
#
# Stress axis : x y z
#
# Youngs Moduli (GPa) = 91.45346 17.21376 66.21588
#
# Poissons Ratio (x) = 0.02039 0.30488
# Poissons Ratio (y) = 0.10835 1.32792
# Poissons Ratio (z) = 0.42108 0.34521
#
# Static dielectric constant tensor:
#      x y z
#    x 1.769480 0.000000 -0.012520 
#    y 0.000000 1.729080 0.000000 
#    z -0.012520 0.000000 1.791730 
# 
# From -- ./inp_files/14586.got.cif
#   From: 2010.05.17/outbox.cif.g08.bks.cpg/sg3_8_cif.got.tgz:14586.got - 2010.06.03 18:33:08.
