data_PCOD9113861
_publ_section_title
;
Structure prediction by ZEFSAII (Michael W. Deem and Ramdas Pophale) SiO2 
 PCOD9113861
Probable space group: P 2
;
_chemical_formula_sum "Si O2"
_cell_formula_units_Z 14
_cell_length_a 14.779118
_cell_length_b 5.403871
_cell_length_c 10.326444
_cell_angle_alpha 90.000000
_cell_angle_beta 133.088702
_cell_angle_gamma 90.000000
_cell_volume 602.287428
_symmetry_space_group_name_H-M "P 2"
_symmetry_group_IT_number 3
_symmetry_cell_setting 'monoclinic'
loop_
_space_group_symop_operation_xyz
x,y,z
-x,y,-z
loop_
_atom_site_type_symbol
_atom_site_label
_atom_site_fract_x
_atom_site_fract_y
_atom_site_fract_z
Si Si1 0.974053 0.203210 0.121840
Si Si2 0.604552 0.058460 0.996732
Si Si3 0.807051 0.491288 0.554006
Si Si4 0.255108 0.547752 0.799778
Si Si5 0.060121 0.703889 0.804194
Si Si6 0.391392 0.975997 0.287958
Si Si7 0.350171 0.476468 0.345213
O O1 0.915539 0.478619 0.071691
O O2 0.104391 0.259078 0.323579
O O3 0.902765 0.979860 0.121157
O O4 0.000000 0.132386 0.000000
O O5 0.690914 0.301306 0.081217
O O6 0.667702 0.798076 0.097975
O O7 0.500000 0.109469 0.000000
O O8 0.556581 0.023761 0.803662
O O9 0.749184 0.485516 0.356122
O O10 0.709137 0.521635 0.572828
O O11 0.910828 0.705844 0.652226
O O12 0.122267 0.611253 0.732958
O O13 0.500000 0.955573 0.500000
O O14 0.310433 0.210326 0.252035
O O15 0.324800 0.712004 0.230066
O O16 0.500000 0.456027 0.500000
#
# Coordination Sequence:
#
# PCOD9113861 Si02
#       7
#     2   2   2   2   2   2   2
#     4  10  23  43  71 102 144 184 238 295 356 424
#     4  12  29  47  76 105 147 189 245 299 361 424
#     4  10  27  43  75 103 145 190 236 295 362 422
#     4  12  27  47  75 104 147 190 242 294 361 432
#     4  10  24  46  69 105 141 186 238 287 363 419
#     4  10  24  45  70  99 141 184 239 292 359 419
#     4  10  23  40  72 100 139 180 242 287 354 421
#
# _framework density 23.244713000000001
#
# number of rings (size 3 to 8) (size 9 to 14) (size 15 to 20)
#    0.857    0.571    0.000    3.000   12.000    3.429 
#    2.571    0.000    0.000    0.000    0.000    0.000 
#    0.000    0.000    0.000    0.000    0.000    0.000 
#
# Total GULP energy -78213.362461 kJ/mol
# GULP energy per Si atom -5586.668747 kJ/mol
# Density = 2.319181 g / cm^3
# Si number density = 23.244713 Si / 1000 Ang^3
#
#
#
# Elastic Constant Matrix: (Units=GPa)
#
#
# Indices 1 2 3 4 5 6 
#
# 1 146.8450 23.1692 28.3645 0.0000 -21.3514 0.0000
# 2 23.1692 164.5029 28.5285 0.0000 0.8670 0.0000
# 3 28.3645 28.5285 85.8723 0.0000 -10.5181 0.0000
# 4 0.0000 0.0000 0.0000 13.2183 0.0000 0.7783
# 5 -21.3514 0.8670 -10.5181 0.0000 41.8212 0.0000
# 6 0.0000 0.0000 0.0000 0.7783 0.0000 20.7276
#
#
#
# Elastic Compliance Matrix: (Units=1/GPa)
#
#
# Indices 1 2 3 4 5 6 
#
# 1 0.007812 -0.000792 -0.001885 0.000000 0.003531 0.000000
# 2 -0.000792 0.006550 -0.002044 0.000000 -0.001054 0.000000
# 3 -0.001885 -0.002044 0.013242 0.000000 0.002410 0.000000
# 4 0.000000 0.000000 0.000000 0.075821 0.000000 -0.002847
# 5 0.003531 -0.001054 0.002410 0.000000 0.026342 0.000000
# 6 0.000000 0.000000 0.000000 -0.002847 0.000000 0.048352
#
#
# Mechanical properties :
#
#
# Convention : Reuss Voigt Hill
#
# Bulk Modulus (GPa) = 55.05532 61.92720 58.49126
# Shear Modulus (GPa) = 25.82445 36.29727 31.06086
#
# Velocity S-wave (km/s) = 3.33676 3.95590 3.65945
# Velocity P-wave (km/s) = 6.21142 6.89673 6.56302
#
# Compressibility (1/GPa) = 0.01816355
#
# Stress axis : x y z
#
# Youngs Moduli (GPa) = 128.00254 152.66117 75.51729
#
# Poissons Ratio (x) = 0.12091 0.14234
# Poissons Ratio (y) = 0.10138 0.15433
# Poissons Ratio (z) = 0.24127 0.31199
#
# Static dielectric constant tensor:
#      x y z
#    x 1.973850 0.000000 0.330730 
#    y 0.000000 1.907430 0.000000 
#    z 0.330730 0.000000 2.506590 
# 
# From -- ./inp_files/8382.got.cif
#   From: 2010.05.17/outbox.cif.g08.bks.cpg/sg3_5_cif.got.tgz:8382.got - 2010.06.03 18:33:08.
