data_PCOD9113458
_publ_section_title
;
Structure prediction by ZEFSAII (Michael W. Deem and Ramdas Pophale) SiO2 
 PCOD9113458
Probable space group: P 2
;
_chemical_formula_sum "Si O2"
_cell_formula_units_Z 16
_cell_length_a 5.184879
_cell_length_b 12.983242
_cell_length_c 12.652803
_cell_angle_alpha 90.000000
_cell_angle_beta 99.931561
_cell_angle_gamma 90.000000
_cell_volume 838.979086
_symmetry_space_group_name_H-M "P 2"
_symmetry_group_IT_number 3
_symmetry_cell_setting 'monoclinic'
loop_
_space_group_symop_operation_xyz
x,y,z
-x,y,-z
loop_
_atom_site_type_symbol
_atom_site_label
_atom_site_fract_x
_atom_site_fract_y
_atom_site_fract_z
Si Si1 0.274120 0.118970 0.570663
Si Si2 0.278528 0.911711 0.074742
Si Si3 0.485590 0.510838 0.252343
Si Si4 0.716515 0.680387 0.924624
Si Si5 0.448378 0.306872 0.873305
Si Si6 0.937922 0.482886 0.617435
Si Si7 0.370132 0.102145 0.227616
Si Si8 0.005268 0.263856 0.696484
O O1 0.500000 0.124373 0.500000
O O2 0.395270 0.061891 0.680555
O O3 0.216535 0.228139 0.623633
O O4 0.000000 0.084075 0.500000
O O5 0.299724 0.796347 0.122895
O O6 0.278066 0.004058 0.157454
O O7 0.500000 0.926111 0.000000
O O8 0.000000 0.914063 0.000000
O O9 0.371331 0.594880 0.164343
O O10 0.440659 0.399194 0.192037
O O11 0.319712 0.529195 0.347259
O O12 0.796198 0.512592 0.299750
O O13 0.500000 0.677220 0.000000
O O14 0.000000 0.663673 0.000000
O O15 0.550724 0.193618 0.847696
O O16 0.146138 0.299099 0.814472
O O17 0.500000 0.326762 0.000000
O O18 0.000000 0.503218 0.500000
O O19 0.879647 0.361487 0.632568
O O20 0.166390 0.164213 0.287665
#
# Coordination Sequence:
#
# PCOD9113458 Si02
#       8
#     2   2   2   2   2   2   2   2
#     4  11  22  36  57  80 111 159 204 250 291 343
#     4  10  24  40  63  91 121 161 203 247 301 361
#     4  11  22  40  60  91 117 157 203 247 299 361
#     4  10  21  42  66  92 120 159 204 248 301 364
#     4  10  22  34  52  87 126 162 189 238 300 371
#     4  11  23  38  60  87 123 157 203 250 299 360
#     4  11  22  37  57  87 123 157 203 244 302 361
#     4  10  22  36  54  85 120 162 203 234 302 354
#
# _framework density 19.070796999999999
#
# number of rings (size 3 to 8) (size 9 to 14) (size 15 to 20)
#    0.000    1.500    2.500    2.250    5.250    1.000 
#    0.000    0.000    0.000    2.250    0.000    0.000 
#    0.000    0.000    0.000    0.000    0.000    0.000 
#
# Total GULP energy -89150.164691 kJ/mol
# GULP energy per Si atom -5571.885293 kJ/mol
# Density = 1.902739 g / cm^3
# Si number density = 19.070797 Si / 1000 Ang^3
#
#
#
# Elastic Constant Matrix: (Units=GPa)
#
#
# Indices 1 2 3 4 5 6 
#
# 1 104.9767 21.2594 18.5934 0.0000 0.6149 0.0000
# 2 21.2594 96.2096 34.9975 0.0000 14.3867 0.0000
# 3 18.5934 34.9975 68.7125 0.0000 7.3075 0.0000
# 4 0.0000 0.0000 0.0000 15.5435 0.0000 3.5741
# 5 0.6149 14.3867 7.3075 0.0000 23.6957 0.0000
# 6 0.0000 0.0000 0.0000 3.5741 0.0000 21.1002
#
#
#
# Elastic Compliance Matrix: (Units=1/GPa)
#
#
# Indices 1 2 3 4 5 6 
#
# 1 0.010229 -0.001731 -0.002037 0.000000 0.001413 0.000000
# 2 -0.001731 0.013913 -0.005918 0.000000 -0.006577 0.000000
# 3 -0.002037 -0.005918 0.018332 0.000000 -0.002007 0.000000
# 4 0.000000 0.000000 0.000000 0.066943 0.000000 -0.011339
# 5 0.001413 -0.006577 -0.002007 0.000000 0.046777 0.000000
# 6 0.000000 0.000000 0.000000 -0.011339 0.000000 0.049314
#
#
# Mechanical properties :
#
#
# Convention : Reuss Voigt Hill
#
# Bulk Modulus (GPa) = 43.28565 46.62216 44.95391
# Shear Modulus (GPa) = 21.49792 25.07110 23.28451
#
# Velocity S-wave (km/s) = 3.36112 3.62972 3.49800
# Velocity P-wave (km/s) = 6.14894 6.48587 6.31965
#
# Compressibility (1/GPa) = 0.02310234
#
# Stress axis : x y z
#
# Youngs Moduli (GPa) = 97.76236 71.87610 54.54807
#
# Poissons Ratio (x) = 0.12440 0.11110
# Poissons Ratio (y) = 0.16920 0.32284
# Poissons Ratio (z) = 0.19911 0.42540
#
# Static dielectric constant tensor:
#      x y z
#    x 1.746420 0.000000 0.005380 
#    y 0.000000 1.664830 0.000000 
#    z 0.005380 0.000000 1.680990 
# 
# From -- ./inp_files/10011.got.cif
#   From: 2010.05.17/outbox.cif.g08.bks.cpg/sg3_6_cif.got.tgz:10011.got - 2010.06.03 18:33:08.
