data_PCOD9113208
_publ_section_title
;
Structure prediction by ZEFSAII (Michael W. Deem and Ramdas Pophale) SiO2 
 PCOD9113208
Probable space group: P 2
;
_chemical_formula_sum "Si O2"
_cell_formula_units_Z 14
_cell_length_a 18.420034
_cell_length_b 5.202289
_cell_length_c 5.932466
_cell_angle_alpha 90.000000
_cell_angle_beta 73.492849
_cell_angle_gamma 90.000000
_cell_volume 545.055925
_symmetry_space_group_name_H-M "P 2"
_symmetry_group_IT_number 3
_symmetry_cell_setting 'monoclinic'
loop_
_space_group_symop_operation_xyz
x,y,z
-x,y,-z
loop_
_atom_site_type_symbol
_atom_site_label
_atom_site_fract_x
_atom_site_fract_y
_atom_site_fract_z
Si Si1 0.430533 0.972520 0.679050
Si Si2 0.290976 0.962945 0.034120
Si Si3 0.500000 0.344470 0.000000
Si Si4 0.000000 0.164734 0.500000
Si Si5 0.931256 0.533322 0.187620
Si Si6 0.215123 0.311216 0.720415
Si Si7 0.849290 0.913420 0.590436
Si Si8 0.642316 0.336576 0.638678
O O1 0.500000 0.825608 0.500000
O O2 0.465426 0.159004 0.838310
O O3 0.394025 0.155100 0.521084
O O4 0.361796 0.820089 0.855841
O O5 0.325021 0.147457 0.197303
O O6 0.220267 0.812755 0.199907
O O7 0.253138 0.138239 0.876699
O O8 0.571794 0.484734 0.818359
O O9 0.026574 0.326097 0.692890
O O10 0.074813 0.012075 0.355587
O O11 0.861106 0.428234 0.104306
O O12 0.883491 0.703512 0.398392
O O13 0.000000 0.668837 0.000000
O O14 0.284971 0.470529 0.544419
O O15 0.183436 0.136572 0.543185
#
# Coordination Sequence:
#
# PCOD9113208 Si02
#       8
#     2   2   1   1   2   2   2   2
#     4   8  13  22  41  73 108 139 177 220 262 314
#     4   9  16  30  49  70 106 144 174 222 272 313
#     4   8  12  20  40  72 108 138 172 220 266 308
#     4  10  22  40  58  78 108 140 178 224 274 328
#     4  11  23  37  56  80 106 141 182 225 275 328
#     4   9  19  34  51  74 106 140 178 222 270 323
#     4  10  21  35  54  79 105 137 180 223 269 326
#     4   8  14  25  44  72 103 138 179 219 261 316
#
# _framework density 25.685438999999999
#
# number of rings (size 3 to 8) (size 9 to 14) (size 15 to 20)
#    0.000    2.857    0.000    1.286    0.000    4.571 
#    0.000    0.000    0.000    0.000    0.000   15.000 
#    0.000  178.286    0.000    0.000    0.000    0.000 
#
# Total GULP energy -78143.786976 kJ/mol
# GULP energy per Si atom -5581.699070 kJ/mol
# Density = 2.562698 g / cm^3
# Si number density = 25.685439 Si / 1000 Ang^3
#
#
#
# Elastic Constant Matrix: (Units=GPa)
#
#
# Indices 1 2 3 4 5 6 
#
# 1 203.2220 27.5356 99.7609 0.0000 -40.8450 0.0000
# 2 27.5356 18.9423 7.9648 0.0000 -2.9424 0.0000
# 3 99.7609 7.9648 105.8805 0.0000 -43.5675 0.0000
# 4 0.0000 0.0000 0.0000 16.8956 0.0000 32.5369
# 5 -40.8450 -2.9424 -43.5675 0.0000 86.1168 0.0000
# 6 0.0000 0.0000 0.0000 32.5369 0.0000 4.8390
#
#
#
# Elastic Compliance Matrix: (Units=1/GPa)
#
#
# Indices 1 2 3 4 5 6 
#
# 1 0.011448 -0.012502 -0.009835 0.000000 0.000027 0.000000
# 2 -0.012502 0.068174 0.006529 0.000000 -0.000297 0.000000
# 3 -0.009835 0.006529 0.020702 0.000000 0.006032 0.000000
# 4 0.000000 0.000000 0.000000 -0.004953 0.000000 0.033307
# 5 0.000027 -0.000297 0.006032 0.000000 0.014666 0.000000
# 6 0.000000 0.000000 0.000000 0.033307 0.000000 -0.017295
#
#
# Mechanical properties :
#
#
# Convention : Reuss Voigt Hill
#
# Bulk Modulus (GPa) = 14.55437 66.50747 40.53092
# Shear Modulus (GPa) = 33.95357 34.42251 34.18804
#
# Velocity S-wave (km/s) = 3.63974 3.66479 3.65228
# Velocity P-wave (km/s) = 4.83139 6.62245 5.79651
#
# Compressibility (1/GPa) = 0.06870788
#
# Stress axis : x y z
#
# Youngs Moduli (GPa) = 87.35202 14.66832 48.30519
#
# Poissons Ratio (x) = 0.18338 0.47507
# Poissons Ratio (y) = 1.09207 -0.31537
# Poissons Ratio (z) = 0.85908 -0.09576
#
# Static dielectric constant tensor:
#      x y z
#    x 1.751420 0.000000 -0.129300 
#    y 0.000000 2.076990 0.000000 
#    z -0.129300 0.000000 2.070160 
# 
# From -- ./inp_files/3473.got.cif
#   From: 2010.05.17/outbox.cif.g08.bks.cpg/sg3_2_cif.got.tgz:3473.got - 2010.06.03 18:33:08.
