data_PCOD9113497
_publ_section_title
;
Structure prediction by ZEFSAII (Michael W. Deem and Ramdas Pophale) SiO2 
 PCOD9113497
Probable space group: P 2
;
_chemical_formula_sum "Si O2"
_cell_formula_units_Z 7
_cell_length_a 5.504304
_cell_length_b 6.635086
_cell_length_c 7.334576
_cell_angle_alpha 90.000000
_cell_angle_beta 97.272157
_cell_angle_gamma 90.000000
_cell_volume 265.715214
_symmetry_space_group_name_H-M "P 2"
_symmetry_group_IT_number 3
_symmetry_cell_setting 'monoclinic'
loop_
_space_group_symop_operation_xyz
x,y,z
-x,y,-z
loop_
_atom_site_type_symbol
_atom_site_label
_atom_site_fract_x
_atom_site_fract_y
_atom_site_fract_z
Si Si1 0.266549 0.875000 0.586364
Si Si2 0.270931 0.255955 0.117749
Si Si3 0.500000 0.471386 0.500000
Si Si4 0.750312 0.828502 0.010753
O O1 0.500000 0.957077 0.500000
O O2 0.307462 0.632074 0.571177
O O3 0.000000 0.935206 0.500000
O O4 0.256915 0.930983 0.794791
O O5 0.354829 0.358750 0.319349
O O6 0.252149 0.010517 0.132155
O O7 0.500000 0.286159 0.000000
O O8 0.000000 0.302653 0.000000
O O9 0.500000 0.706471 0.000000
O O10 0.000000 0.715041 0.000000
#
# Coordination Sequence:
#
# PCOD9113497 Si02
#       4
#     2   2   1   2
#     4  10  23  42  67 103 138 180 233 284 353 417
#     4  10  24  45  70 102 141 184 237 286 351 419
#     4  10  26  46  72 100 148 186 228 290 362 426
#     4  10  21  44  66 103 133 180 233 292 334 415
#
# _framework density 26.343997000000002
#
# number of rings (size 3 to 8) (size 9 to 14) (size 15 to 20)
#    0.857    1.143    0.000    1.714    4.000    1.143 
#   30.857    0.000    0.000    0.000    0.000    0.000 
#    0.000    0.000    0.000    0.000    0.000    0.000 
#
# Total GULP energy -38971.427977 kJ/mol
# GULP energy per Si atom -5567.346854 kJ/mol
# Density = 2.628404 g / cm^3
# Si number density = 26.343997 Si / 1000 Ang^3
#
#
#
# Elastic Constant Matrix: (Units=GPa)
#
#
# Indices 1 2 3 4 5 6 
#
# 1 315.5245 10.1837 68.5111 0.0000 -2.6317 0.0000
# 2 10.1837 104.3778 7.2098 0.0000 -4.7348 0.0000
# 3 68.5111 7.2098 164.3183 0.0000 11.2287 0.0000
# 4 0.0000 0.0000 0.0000 395.0872 0.0000 -15.9578
# 5 -2.6317 -4.7348 11.2287 0.0000 48.3008 0.0000
# 6 0.0000 0.0000 0.0000 -15.9578 0.0000 -21.0522
#
#
#
# Elastic Compliance Matrix: (Units=1/GPa)
#
#
# Indices 1 2 3 4 5 6 
#
# 1 0.003503 -0.000216 -0.001486 0.000000 0.000515 0.000000
# 2 -0.000216 0.009676 -0.000405 0.000000 0.001031 0.000000
# 3 -0.001486 -0.000405 0.006840 0.000000 -0.001711 0.000000
# 4 0.000000 0.000000 0.000000 0.002456 0.000000 -0.001862
# 5 0.000515 0.001031 -0.001711 0.000000 0.021230 0.000000
# 6 0.000000 0.000000 0.000000 -0.001862 0.000000 -0.046090
#
#
# Mechanical properties :
#
#
# Convention : Reuss Voigt Hill
#
# Bulk Modulus (GPa) = 63.26951 84.00331 73.63641
# Shear Modulus (GPa) = 704.29496 117.68825 410.99161
#
# Velocity S-wave (km/s) = 16.36844 6.69109 12.50393
# Velocity P-wave (km/s) = 19.52699 9.57343 15.37781
#
# Compressibility (1/GPa) = 0.01580540
#
# Stress axis : x y z
#
# Youngs Moduli (GPa) = 285.44166 103.34445 146.19483
#
# Poissons Ratio (x) = 0.02230 0.21731
# Poissons Ratio (y) = 0.06159 0.05922
# Poissons Ratio (z) = 0.42429 0.04186
#
# Static dielectric constant tensor:
#      x y z
#    x 2.212540 0.000000 0.112470 
#    y 0.000000 2.031170 0.000000 
#    z 0.112470 0.000000 1.924360 
# 
# From -- ./inp_files/91.got.cif
#   From: 2010.05.17/outbox.cif.g08.bks.cpg/sg3_1_cif.got.tgz:91.got - 2010.06.03 18:33:08.
