data_PCOD9113916
_publ_section_title
;
Structure prediction by ZEFSAII (Michael W. Deem and Ramdas Pophale) SiO2 
 PCOD9113916
Probable space group: P 2
;
_chemical_formula_sum "Si O2"
_cell_formula_units_Z 10
_cell_length_a 8.592895
_cell_length_b 4.760766
_cell_length_c 16.674684
_cell_angle_alpha 90.000000
_cell_angle_beta 144.275008
_cell_angle_gamma 90.000000
_cell_volume 398.298795
_symmetry_space_group_name_H-M "P 2"
_symmetry_group_IT_number 3
_symmetry_cell_setting 'monoclinic'
loop_
_space_group_symop_operation_xyz
x,y,z
-x,y,-z
loop_
_atom_site_type_symbol
_atom_site_label
_atom_site_fract_x
_atom_site_fract_y
_atom_site_fract_z
Si Si1 0.923071 0.830660 0.288641
Si Si2 0.341201 0.934056 0.590959
Si Si3 0.204602 0.361064 0.866410
Si Si4 0.370033 0.435576 0.705799
Si Si5 0.873801 0.147101 0.871602
O O1 0.989926 0.602106 0.248360
O O2 0.742056 0.624768 0.269626
O O3 0.779264 0.094288 0.186892
O O4 0.175154 0.961585 0.440927
O O5 0.262750 0.127192 0.636263
O O6 0.655911 0.994348 0.723879
O O7 0.298873 0.613768 0.597438
O O8 0.096385 0.256987 0.905638
O O9 0.500000 0.483094 0.000000
O O10 0.686804 0.383256 0.836286
O O11 0.000000 0.986321 0.000000
#
# Coordination Sequence:
#
# PCOD9113916 Si02
#       5
#     2   2   2   2   2
#     4  12  25  47  76 110 157 186 264 314 381 452
#     4  10  24  45  76 107 143 200 248 308 374 445
#     4  12  28  47  75 112 152 204 248 322 387 443
#     4  10  23  44  72 108 142 197 249 298 379 443
#     4  10  26  49  75 107 155 199 259 302 382 463
#
# _framework density 25.106777000000001
#
# number of rings (size 3 to 8) (size 9 to 14) (size 15 to 20)
#    1.200    0.000    0.000    4.800    5.600    3.200 
#    0.000    0.000    0.000    0.000    0.000    0.000 
#    0.000    0.000    0.000    0.000    0.000    0.000 
#
# Total GULP energy -55787.774214 kJ/mol
# GULP energy per Si atom -5578.777421 kJ/mol
# Density = 2.504963 g / cm^3
# Si number density = 25.106777 Si / 1000 Ang^3
#
#
#
# Elastic Constant Matrix: (Units=GPa)
#
#
# Indices 1 2 3 4 5 6 
#
# 1 93.4216 10.2828 57.1059 0.0000 8.8241 0.0000
# 2 10.2828 124.0027 32.5992 0.0000 -10.4613 0.0000
# 3 57.1059 32.5992 153.3568 0.0000 -8.0276 0.0000
# 4 0.0000 0.0000 0.0000 42.8616 0.0000 -0.0323
# 5 8.8241 -10.4613 -8.0276 0.0000 31.4255 0.0000
# 6 0.0000 0.0000 0.0000 -0.0323 0.0000 25.6018
#
#
#
# Elastic Compliance Matrix: (Units=1/GPa)
#
#
# Indices 1 2 3 4 5 6 
#
# 1 0.014785 -0.000191 -0.005763 0.000000 -0.005687 0.000000
# 2 -0.000191 0.008728 -0.001652 0.000000 0.002537 0.000000
# 3 -0.005763 -0.001652 0.009197 0.000000 0.003418 0.000000
# 4 0.000000 0.000000 0.000000 0.023331 0.000000 0.000029
# 5 -0.005687 0.002537 0.003418 0.000000 0.035136 0.000000
# 6 0.000000 0.000000 0.000000 0.000029 0.000000 0.039060
#
#
# Mechanical properties :
#
#
# Convention : Reuss Voigt Hill
#
# Bulk Modulus (GPa) = 57.14342 63.41742 60.28042
# Shear Modulus (GPa) = 33.05139 38.03067 35.54103
#
# Velocity S-wave (km/s) = 3.63220 3.89621 3.76652
# Velocity P-wave (km/s) = 6.35611 6.74941 6.55571
#
# Compressibility (1/GPa) = 0.01749983
#
# Stress axis : x y z
#
# Youngs Moduli (GPa) = 67.63685 114.56863 108.73664
#
# Poissons Ratio (x) = 0.02187 0.62660
# Poissons Ratio (y) = 0.01291 0.17958
# Poissons Ratio (z) = 0.38976 0.18921
#
# Static dielectric constant tensor:
#      x y z
#    x 2.038320 0.000000 0.012090 
#    y 0.000000 1.966370 0.000000 
#    z 0.012090 0.000000 2.040610 
# 
# From -- ./inp_files/10141.got.cif
#   From: 2010.05.17/outbox.cif.g08.bks.cpg/sg3_6_cif.got.tgz:10141.got - 2010.06.03 18:33:08.
