data_PCOD9113100
_publ_section_title
;
Structure prediction by ZEFSAII (Michael W. Deem and Ramdas Pophale) SiO2 
 PCOD9113100
Probable space group: P 2
;
_chemical_formula_sum "Si O2"
_cell_formula_units_Z 13
_cell_length_a 9.618603
_cell_length_b 7.618377
_cell_length_c 9.903895
_cell_angle_alpha 90.000000
_cell_angle_beta 127.983865
_cell_angle_gamma 90.000000
_cell_volume 572.015973
_symmetry_space_group_name_H-M "P 2"
_symmetry_group_IT_number 3
_symmetry_cell_setting 'monoclinic'
loop_
_space_group_symop_operation_xyz
x,y,z
-x,y,-z
loop_
_atom_site_type_symbol
_atom_site_label
_atom_site_fract_x
_atom_site_fract_y
_atom_site_fract_z
Si Si1 0.073302 0.217140 0.690012
Si Si2 0.317184 0.918712 0.968993
Si Si3 0.149735 0.267846 0.181263
Si Si4 0.689122 0.610355 0.849839
Si Si5 0.500000 0.801025 0.500000
Si Si6 0.503156 0.104180 0.328274
Si Si7 0.608682 0.390219 0.197504
O O1 0.195204 0.390770 0.740830
O O2 0.000000 0.170721 0.500000
O O3 0.937002 0.270786 0.724191
O O4 0.189333 0.048608 0.809696
O O5 0.500000 0.873049 0.000000
O O6 0.235617 0.747128 0.994922
O O7 0.386023 0.030260 0.135825
O O8 0.193735 0.442497 0.119159
O O9 0.345647 0.190255 0.320958
O O10 0.000000 0.171234 0.000000
O O11 0.634526 0.695179 0.673423
O O12 0.504683 0.546325 0.807525
O O13 0.590948 0.935717 0.448857
O O14 0.616386 0.250334 0.323473
O O15 0.500000 0.329576 0.000000
#
# Coordination Sequence:
#
# PCOD9113100 Si02
#       7
#     2   2   2   2   1   2   2
#     4  12  25  38  71 108 142 172 228 287 356 405
#     4  11  20  44  70 102 129 182 235 287 332 409
#     4  11  23  44  67  97 134 187 226 272 339 431
#     4  10  25  41  73  94 134 180 232 283 339 399
#     4  10  24  40  62 102 128 166 234 284 330 376
#     4  10  20  39  70  91 125 178 238 269 320 411
#     4  11  20  43  71  95 123 184 236 274 322 421
#
# _framework density 22.726638999999999
#
# number of rings (size 3 to 8) (size 9 to 14) (size 15 to 20)
#    0.000    1.231    4.615    1.385    4.308    1.231 
#    5.538    0.000    0.000    3.692    0.000    0.000 
#    0.000    0.000    0.000    0.000    0.000    0.000 
#
# Total GULP energy -72445.646741 kJ/mol
# GULP energy per Si atom -5572.742057 kJ/mol
# Density = 2.267491 g / cm^3
# Si number density = 22.726639 Si / 1000 Ang^3
#
#
#
# Elastic Constant Matrix: (Units=GPa)
#
#
# Indices 1 2 3 4 5 6 
#
# 1 152.3753 21.5186 36.8978 0.0000 -19.3533 0.0000
# 2 21.5186 62.5231 21.2734 0.0000 -0.8641 0.0000
# 3 36.8978 21.2734 105.7644 0.0000 -9.8560 0.0000
# 4 0.0000 0.0000 0.0000 34.0952 0.0000 -12.6567
# 5 -19.3533 -0.8641 -9.8560 0.0000 28.4165 0.0000
# 6 0.0000 0.0000 0.0000 -12.6567 0.0000 8.8836
#
#
#
# Elastic Compliance Matrix: (Units=1/GPa)
#
#
# Indices 1 2 3 4 5 6 
#
# 1 0.007902 -0.002002 -0.001920 0.000000 0.004655 0.000000
# 2 -0.002002 0.017690 -0.003035 0.000000 -0.001878 0.000000
# 3 -0.001920 -0.003035 0.010959 0.000000 0.002401 0.000000
# 4 0.000000 0.000000 0.000000 0.062256 0.000000 0.088698
# 5 0.004655 -0.001878 0.002401 0.000000 0.039136 0.000000
# 6 0.000000 0.000000 0.000000 0.088698 0.000000 0.238939
#
#
# Mechanical properties :
#
#
# Convention : Reuss Voigt Hill
#
# Bulk Modulus (GPa) = 44.17590 53.33803 48.75697
# Shear Modulus (GPa) = 12.55205 30.34393 21.44799
#
# Velocity S-wave (km/s) = 2.35267 3.65796 3.07536
# Velocity P-wave (km/s) = 5.18268 6.43127 5.84044
#
# Compressibility (1/GPa) = 0.02263678
#
# Stress axis : x y z
#
# Youngs Moduli (GPa) = 126.55654 56.53022 91.24895
#
# Poissons Ratio (x) = 0.11316 0.17522
# Poissons Ratio (y) = 0.25334 0.27691
# Poissons Ratio (z) = 0.24302 0.17155
#
# Static dielectric constant tensor:
#      x y z
#    x 1.959030 0.000000 -0.008720 
#    y 0.000000 1.897570 0.000000 
#    z -0.008720 0.000000 1.910090 
# 
# From -- ./inp_files/5478.got.cif
#   From: 2010.05.17/outbox.cif.g08.bks.cpg/sg3_3_cif.got.tgz:5478.got - 2010.06.03 18:33:08.
