data_PCOD9113495
_publ_section_title
;
Structure prediction by ZEFSAII (Michael W. Deem and Ramdas Pophale) SiO2 
 PCOD9113495
Probable space group: P 2
;
_chemical_formula_sum "Si O2"
_cell_formula_units_Z 16
_cell_length_a 8.836163
_cell_length_b 8.888568
_cell_length_c 11.414948
_cell_angle_alpha 90.000000
_cell_angle_beta 54.190974
_cell_angle_gamma 90.000000
_cell_volume 727.068170
_symmetry_space_group_name_H-M "P 2"
_symmetry_group_IT_number 3
_symmetry_cell_setting 'monoclinic'
loop_
_space_group_symop_operation_xyz
x,y,z
-x,y,-z
loop_
_atom_site_type_symbol
_atom_site_label
_atom_site_fract_x
_atom_site_fract_y
_atom_site_fract_z
Si Si1 0.903545 0.688540 0.670416
Si Si2 0.219240 0.467438 0.596176
Si Si3 0.544229 0.927629 0.606575
Si Si4 0.778434 0.011295 0.824445
Si Si5 0.219890 0.414621 0.869565
Si Si6 0.108468 0.147520 0.569352
Si Si7 0.595786 0.105793 0.137512
Si Si8 0.556744 0.610780 0.709543
O O1 0.723287 0.584223 0.726321
O O2 0.000000 0.718938 0.500000
O O3 0.058380 0.594934 0.670621
O O4 0.838971 0.844950 0.756365
O O5 0.242499 0.409549 0.717955
O O6 0.162570 0.320247 0.548873
O O7 0.383473 0.535948 0.441265
O O8 0.500000 0.863528 0.500000
O O9 0.568640 0.788354 0.681426
O O10 0.718792 0.035574 0.505459
O O11 0.394306 0.031857 0.738975
O O12 0.619167 0.087531 0.812311
O O13 0.962146 0.112640 0.736969
O O14 0.702693 0.013536 0.989844
O O15 0.318713 0.271463 0.886826
O O16 0.354510 0.555319 0.840664
O O17 0.000000 0.425676 0.000000
O O18 0.000000 0.111903 0.500000
#
# Coordination Sequence:
#
# PCOD9113495 Si02
#       8
#     2   2   2   2   2   2   2   2
#     4  10  21  43  75 110 140 176 239 304 358 429
#     4  11  24  41  70 106 139 184 226 297 360 432
#     4  12  24  42  70 104 138 189 235 294 361 427
#     4  11  23  43  71 102 138 183 241 301 360 416
#     4  12  27  48  62  96 143 191 238 289 365 438
#     4  12  21  39  68 103 134 177 240 290 352 425
#     4  11  25  44  67  96 141 185 239 300 359 428
#     4  11  23  45  69 100 141 182 235 298 357 423
#
# _framework density 22.00619
#
# number of rings (size 3 to 8) (size 9 to 14) (size 15 to 20)
#    0.000    0.750    2.500    6.375    1.750    1.000 
#    0.000    0.625    0.000    0.000    0.000    0.000 
#    0.000    0.000    0.000    0.000    0.000    0.000 
#
# Total GULP energy -89374.959673 kJ/mol
# GULP energy per Si atom -5585.934980 kJ/mol
# Density = 2.195610 g / cm^3
# Si number density = 22.006190 Si / 1000 Ang^3
#
#
#
# Elastic Constant Matrix: (Units=GPa)
#
#
# Indices 1 2 3 4 5 6 
#
# 1 61.7145 35.3999 26.9286 0.0000 -10.5757 0.0000
# 2 35.3999 113.4492 34.0210 0.0000 -25.1533 0.0000
# 3 26.9286 34.0210 89.0743 0.0000 -27.9535 0.0000
# 4 0.0000 0.0000 0.0000 30.0344 0.0000 -4.4531
# 5 -10.5757 -25.1533 -27.9535 0.0000 37.0866 0.0000
# 6 0.0000 0.0000 0.0000 -4.4531 0.0000 31.9180
#
#
#
# Elastic Compliance Matrix: (Units=1/GPa)
#
#
# Indices 1 2 3 4 5 6 
#
# 1 0.021182 -0.005470 -0.004693 0.000000 -0.001207 0.000000
# 2 -0.005470 0.012159 -0.001168 0.000000 0.005806 0.000000
# 3 -0.004693 -0.001168 0.016272 0.000000 0.010134 0.000000
# 4 0.000000 0.000000 0.000000 0.033998 0.000000 0.004743
# 5 -0.001207 0.005806 0.010134 0.000000 0.038196 0.000000
# 6 0.000000 0.000000 0.000000 0.004743 0.000000 0.031992
#
#
# Mechanical properties :
#
#
# Convention : Reuss Voigt Hill
#
# Bulk Modulus (GPa) = 37.10522 50.77079 43.93801
# Shear Modulus (GPa) = 26.96206 31.00036 28.98121
#
# Velocity S-wave (km/s) = 3.50409 3.75735 3.63293
# Velocity P-wave (km/s) = 5.76796 6.47648 6.13246
#
# Compressibility (1/GPa) = 0.02695038
#
# Stress axis : x y z
#
# Youngs Moduli (GPa) = 47.20953 82.24434 61.45547
#
# Poissons Ratio (x) = 0.44985 0.28843
# Poissons Ratio (y) = 0.25822 0.07180
# Poissons Ratio (z) = 0.22157 0.09608
#
# Static dielectric constant tensor:
#      x y z
#    x 1.879530 0.000000 -0.032020 
#    y 0.000000 1.784950 0.000000 
#    z -0.032020 0.000000 1.828500 
# 
# From -- ./inp_files/10703.got.cif
#   From: 2010.05.17/outbox.cif.g08.bks.cpg/sg3_6_cif.got.tgz:10703.got - 2010.06.03 18:33:08.
