data_PCOD9113449
_publ_section_title
;
Structure prediction by ZEFSAII (Michael W. Deem and Ramdas Pophale) SiO2 
 PCOD9113449
Probable space group: P 2
;
_chemical_formula_sum "Si O2"
_cell_formula_units_Z 15
_cell_length_a 20.830618
_cell_length_b 5.334181
_cell_length_c 7.554400
_cell_angle_alpha 90.000000
_cell_angle_beta 44.318353
_cell_angle_gamma 90.000000
_cell_volume 586.443429
_symmetry_space_group_name_H-M "P 2"
_symmetry_group_IT_number 3
_symmetry_cell_setting 'monoclinic'
loop_
_space_group_symop_operation_xyz
x,y,z
-x,y,-z
loop_
_atom_site_type_symbol
_atom_site_label
_atom_site_fract_x
_atom_site_fract_y
_atom_site_fract_z
Si Si1 0.762009 0.546660 0.492967
Si Si2 0.679248 0.313740 0.157114
Si Si3 0.425824 0.037685 0.925712
Si Si4 0.143891 0.549106 0.080095
Si Si5 0.500000 0.655494 0.500000
Si Si6 0.142870 0.038092 0.607010
Si Si7 0.611426 0.224154 0.650257
Si Si8 0.049583 0.043278 0.181797
O O1 0.808325 0.565819 0.207830
O O2 0.807779 0.305692 0.496104
O O3 0.657977 0.458940 0.657461
O O4 0.789650 0.800092 0.537286
O O5 0.653231 0.133448 0.048495
O O6 0.772330 0.468516 0.959510
O O7 0.593250 0.501323 0.340915
O O8 0.674771 0.166876 0.354562
O O9 0.506803 0.245597 0.791491
O O10 0.478963 0.824838 0.713603
O O11 0.391771 0.009465 0.193265
O O12 0.075609 0.313582 0.206966
O O13 0.093190 0.812005 0.202849
O O14 0.096511 0.031945 0.894294
O O15 0.058499 0.018626 0.638984
#
# Coordination Sequence:
#
# PCOD9113449 Si02
#       8
#     2   2   2   2   1   2   2   2
#     4   9  18  31  50  82 114 162 199 262 309 385
#     4  11  22  42  59  90 126 168 208 275 320 384
#     4  11  23  42  60  88 123 170 211 269 328 383
#     4   9  19  29  54  81 117 157 209 251 315 380
#     4  12  22  40  66  88 124 172 222 274 332 386
#     4   9  16  29  50  77 123 152 199 254 322 370
#     4  10  21  42  59  86 126 163 219 258 328 389
#     4   9  16  29  48  84 114 158 199 255 310 390
#
# _framework density 25.577915000000001
#
# number of rings (size 3 to 8) (size 9 to 14) (size 15 to 20)
#    0.000    2.133    2.667    0.800    1.867    6.400 
#    7.200    0.000    0.000    0.000    0.000    5.600 
#    0.000    0.000    0.000    0.000    0.000    0.000 
#
# Total GULP energy -83935.743770 kJ/mol
# GULP energy per Si atom -5595.716251 kJ/mol
# Density = 2.551970 g / cm^3
# Si number density = 25.577915 Si / 1000 Ang^3
#
#
#
# Elastic Constant Matrix: (Units=GPa)
#
#
# Indices 1 2 3 4 5 6 
#
# 1 121.4554 44.0273 47.9453 0.0000 -13.6333 0.0000
# 2 44.0273 128.2100 29.1740 0.0000 -7.4023 0.0000
# 3 47.9453 29.1740 81.6128 0.0000 19.8870 0.0000
# 4 0.0000 0.0000 0.0000 2.3111 0.0000 -13.8444
# 5 -13.6333 -7.4023 19.8870 0.0000 59.1861 0.0000
# 6 0.0000 0.0000 0.0000 -13.8444 0.0000 21.9726
#
#
#
# Elastic Compliance Matrix: (Units=1/GPa)
#
#
# Indices 1 2 3 4 5 6 
#
# 1 0.012831 -0.002267 -0.008036 0.000000 0.005372 0.000000
# 2 -0.002267 0.009180 -0.002290 0.000000 0.001395 0.000000
# 3 -0.008036 -0.002290 0.019947 0.000000 -0.008840 0.000000
# 4 0.000000 0.000000 0.000000 -0.155959 0.000000 -0.098266
# 5 0.005372 0.001395 -0.008840 0.000000 0.021278 0.000000
# 6 0.000000 0.000000 0.000000 -0.098266 0.000000 -0.016404
#
#
# Mechanical properties :
#
#
# Convention : Reuss Voigt Hill
#
# Bulk Modulus (GPa) = 59.62698 63.73014 61.67856
# Shear Modulus (GPa) = -63.81494 30.70273 -16.55610
#
# Velocity S-wave (km/s) = -5.00034 3.46838 -2.54693
# Velocity P-wave (km/s) = 3.15838 6.40388 3.93919
#
# Compressibility (1/GPa) = 0.01677093
#
# Stress axis : x y z
#
# Youngs Moduli (GPa) = 77.93767 108.93481 50.13407
#
# Poissons Ratio (x) = 0.24698 0.40289
# Poissons Ratio (y) = 0.17670 0.11478
# Poissons Ratio (z) = 0.62633 0.24941
#
# Static dielectric constant tensor:
#      x y z
#    x 2.036240 0.000000 0.057820 
#    y 0.000000 2.011120 0.000000 
#    z 0.057820 0.000000 2.054360 
# 
# From -- ./inp_files/8871.got.cif
#   From: 2010.05.17/outbox.cif.g08.bks.cpg/sg3_5_cif.got.tgz:8871.got - 2010.06.03 18:33:08.
