data_PCOD9113094
_publ_section_title
;
Structure prediction by ZEFSAII (Michael W. Deem and Ramdas Pophale) SiO2 
 PCOD9113094
Probable space group: P 2
;
_chemical_formula_sum "Si O2"
_cell_formula_units_Z 16
_cell_length_a 8.719308
_cell_length_b 11.830336
_cell_length_c 8.411678
_cell_angle_alpha 90.000000
_cell_angle_beta 113.363004
_cell_angle_gamma 90.000000
_cell_volume 796.543619
_symmetry_space_group_name_H-M "P 2"
_symmetry_group_IT_number 3
_symmetry_cell_setting 'monoclinic'
loop_
_space_group_symop_operation_xyz
x,y,z
-x,y,-z
loop_
_atom_site_type_symbol
_atom_site_label
_atom_site_fract_x
_atom_site_fract_y
_atom_site_fract_z
Si Si1 0.414872 0.961460 0.616997
Si Si2 0.028164 0.766084 0.320432
Si Si3 0.325205 0.606552 0.520317
Si Si4 0.523720 0.179639 0.823268
Si Si5 0.878588 0.235859 0.821623
Si Si6 0.083281 0.027350 0.359869
Si Si7 0.326178 0.345990 0.528459
Si Si8 0.662000 0.763570 0.177490
O O1 0.500000 0.901207 0.500000
O O2 0.278680 0.040200 0.475964
O O3 0.334903 0.876072 0.710025
O O4 0.520274 0.051060 0.757953
O O5 0.843678 0.746066 0.171449
O O6 0.000000 0.762103 0.500000
O O7 0.179703 0.676588 0.365411
O O8 0.068647 0.896796 0.299151
O O9 0.500000 0.610639 0.500000
O O10 0.283241 0.476482 0.540888
O O11 0.354844 0.665381 0.701202
O O12 0.704006 0.221426 0.841430
O O13 0.378878 0.261037 0.691188
O O14 0.500000 0.178463 0.000000
O O15 0.825439 0.299545 0.639760
O O16 0.961791 0.118948 0.791189
O O17 0.000000 0.291484 0.000000
O O18 0.000000 0.041114 0.500000
O O19 0.500000 0.346929 0.500000
O O20 0.500000 0.769965 0.000000
#
# Coordination Sequence:
#
# PCOD9113094 Si02
#       8
#     2   2   2   2   2   2   2   2
#     4  12  20  38  64  88 120 165 208 246 307 377
#     4   9  19  38  57  85 119 153 193 245 294 369
#     4  10  20  39  68  84 110 163 210 250 313 375
#     4  11  23  39  60  89 124 162 205 256 308 374
#     4  11  24  39  60  92 125 158 205 258 309 374
#     4  11  20  37  63  87 126 162 199 249 312 367
#     4   9  20  42  62  85 118 160 206 256 313 370
#     4  11  23  38  59  91 127 156 202 257 310 369
#
# _framework density 20.086784000000002
#
# number of rings (size 3 to 8) (size 9 to 14) (size 15 to 20)
#    0.000    1.500    6.250    1.125    1.750    1.500 
#    0.000   10.000    0.000    0.000    0.000    0.000 
#    0.000    0.000    0.000    0.000    0.000    0.000 
#
# Total GULP energy -89138.367921 kJ/mol
# GULP energy per Si atom -5571.147995 kJ/mol
# Density = 2.004107 g / cm^3
# Si number density = 20.086784 Si / 1000 Ang^3
#
#
#
# Elastic Constant Matrix: (Units=GPa)
#
#
# Indices 1 2 3 4 5 6 
#
# 1 62.9900 23.4086 31.1402 0.0000 8.5981 0.0000
# 2 23.4086 103.0720 38.8808 0.0000 0.6311 0.0000
# 3 31.1402 38.8808 108.7899 0.0000 13.3703 0.0000
# 4 0.0000 0.0000 0.0000 -30.0134 0.0000 202.7505
# 5 8.5981 0.6311 13.3703 0.0000 33.8194 0.0000
# 6 0.0000 0.0000 0.0000 202.7505 0.0000 -987.4458
#
#
#
# Elastic Compliance Matrix: (Units=1/GPa)
#
#
# Indices 1 2 3 4 5 6 
#
# 1 0.019420 -0.002825 -0.004151 0.000000 -0.003244 0.000000
# 2 -0.002825 0.011692 -0.003607 0.000000 0.001926 0.000000
# 3 -0.004151 -0.003607 0.012120 0.000000 -0.003669 0.000000
# 4 0.000000 0.000000 0.000000 0.086081 0.000000 0.017675
# 5 -0.003244 0.001926 -0.003669 0.000000 0.031808 0.000000
# 6 0.000000 0.000000 0.000000 0.017675 0.000000 0.002616
#
#
# Mechanical properties :
#
#
# Convention : Reuss Voigt Hill
#
# Bulk Modulus (GPa) = 45.31504 51.30126 48.30815
# Shear Modulus (GPa) = 26.00666 -184.63316 -79.31325
#
# Velocity S-wave (km/s) = 3.60212 -9.59777 -6.29055
# Velocity P-wave (km/s) = 6.31735 9.86042 5.35345
#
# Compressibility (1/GPa) = 0.02206773
#
# Stress axis : x y z
#
# Youngs Moduli (GPa) = 51.49325 85.52636 82.50764
#
# Poissons Ratio (x) = 0.24161 0.34245
# Poissons Ratio (y) = 0.14547 0.29759
# Poissons Ratio (z) = 0.21373 0.30848
#
# Static dielectric constant tensor:
#      x y z
#    x 2.040410 0.000000 -0.034480 
#    y 0.000000 1.742330 0.000000 
#    z -0.034480 0.000000 1.738090 
# 
# From -- ./inp_files/6022.got.cif
#   From: 2010.05.17/outbox.cif.g08.bks.cpg/sg3_4_cif.got.tgz:6022.got - 2010.06.03 18:33:08.
