data_PCOD9113517
_publ_section_title
;
Structure prediction by ZEFSAII (Michael W. Deem and Ramdas Pophale) SiO2 
 PCOD9113517
Probable space group: P 2
;
_chemical_formula_sum "Si O2"
_cell_formula_units_Z 9
_cell_length_a 4.537091
_cell_length_b 5.529565
_cell_length_c 12.691207
_cell_angle_alpha 90.000000
_cell_angle_beta 93.026454
_cell_angle_gamma 90.000000
_cell_volume 317.954691
_symmetry_space_group_name_H-M "P 2"
_symmetry_group_IT_number 3
_symmetry_cell_setting 'monoclinic'
loop_
_space_group_symop_operation_xyz
x,y,z
-x,y,-z
loop_
_atom_site_type_symbol
_atom_site_label
_atom_site_fract_x
_atom_site_fract_y
_atom_site_fract_z
Si Si1 0.794276 0.021480 0.601430
Si Si2 0.188698 0.526396 0.397532
Si Si3 0.000000 0.288383 0.000000
Si Si4 0.643964 0.034607 0.819875
Si Si5 0.276004 0.529918 0.804835
O O1 0.638547 0.277623 0.595566
O O2 0.884374 0.021660 0.727797
O O3 0.000000 0.018052 0.500000
O O4 0.622345 0.769808 0.599987
O O5 0.000000 0.529972 0.500000
O O6 0.959681 0.536451 0.295691
O O7 0.211154 0.104320 0.066888
O O8 0.874948 0.467539 0.086746
O O9 0.465042 0.283352 0.794300
O O10 0.465194 0.779898 0.817663
#
# Coordination Sequence:
#
# PCOD9113517 Si02
#       5
#     2   2   1   2   2
#     4  10  21  45  76 105 153 199 238 318 401 442
#     4  10  21  45  76 105 153 199 238 318 401 442
#     4  12  30  54  78 108 176 202 258 360 360 452
#     4  12  28  50  80 115 151 210 269 309 397 471
#     4  12  28  50  80 115 151 210 269 309 397 471
#
# _framework density 28.305921999999999
#
# number of rings (size 3 to 8) (size 9 to 14) (size 15 to 20)
#    0.000    0.889    2.222    3.333    0.000    5.333 
#    0.000   26.667    0.000    0.000    0.000    0.000 
#    0.000    0.000    0.000    0.000    0.000    0.000 
#
# Total GULP energy -50207.957573 kJ/mol
# GULP energy per Si atom -5578.661953 kJ/mol
# Density = 2.824150 g / cm^3
# Si number density = 28.305922 Si / 1000 Ang^3
#
#
#
# Elastic Constant Matrix: (Units=GPa)
#
#
# Indices 1 2 3 4 5 6 
#
# 1 98.7600 67.5143 111.0579 0.0000 20.3826 0.0000
# 2 67.5143 365.4424 46.7609 0.0000 24.8866 0.0000
# 3 111.0579 46.7609 327.3050 0.0000 -3.1225 0.0000
# 4 0.0000 0.0000 0.0000 40.8533 0.0000 -4.2577
# 5 20.3826 24.8866 -3.1225 0.0000 88.7086 0.0000
# 6 0.0000 0.0000 0.0000 -4.2577 0.0000 -2.8240
#
#
#
# Elastic Compliance Matrix: (Units=1/GPa)
#
#
# Indices 1 2 3 4 5 6 
#
# 1 0.020001 -0.002590 -0.006456 0.000000 -0.004096 0.000000
# 2 -0.002590 0.003180 0.000422 0.000000 -0.000282 0.000000
# 3 -0.006456 0.000422 0.005200 0.000000 0.001548 0.000000
# 4 0.000000 0.000000 0.000000 0.021154 0.000000 -0.031893
# 5 -0.004096 -0.000282 0.001548 0.000000 0.012348 0.000000
# 6 0.000000 0.000000 0.000000 -0.031893 0.000000 -0.306020
#
#
# Mechanical properties :
#
#
# Convention : Reuss Voigt Hill
#
# Bulk Modulus (GPa) = 89.81787 138.01930 113.91858
# Shear Modulus (GPa) = -22.40366 63.09254 20.34444
#
# Velocity S-wave (km/s) = -2.81638 4.72630 2.68383
# Velocity P-wave (km/s) = 4.60695 8.86846 7.06660
#
# Compressibility (1/GPa) = 0.01113364
#
# Stress axis : x y z
#
# Youngs Moduli (GPa) = 49.99719 314.44846 192.29985
#
# Poissons Ratio (x) = 0.81447 1.24141
# Poissons Ratio (y) = 0.12950 -0.08112
# Poissons Ratio (z) = 0.32276 -0.13264
#
# Static dielectric constant tensor:
#      x y z
#    x 2.191240 0.000000 -0.018470 
#    y 0.000000 2.188770 0.000000 
#    z -0.018470 0.000000 2.262180 
# 
# From -- ./inp_files/1908.got.cif
#   From: 2010.05.17/outbox.cif.g08.bks.cpg/sg3_1_cif.got.tgz:1908.got - 2010.06.03 18:33:08.
