data_PCOD9113493
_publ_section_title
;
Structure prediction by ZEFSAII (Michael W. Deem and Ramdas Pophale) SiO2 
 PCOD9113493
Probable space group: P 2
;
_chemical_formula_sum "Si O2"
_cell_formula_units_Z 14
_cell_length_a 12.827042
_cell_length_b 6.649707
_cell_length_c 9.023083
_cell_angle_alpha 90.000000
_cell_angle_beta 127.140843
_cell_angle_gamma 90.000000
_cell_volume 613.516240
_symmetry_space_group_name_H-M "P 2"
_symmetry_group_IT_number 3
_symmetry_cell_setting 'monoclinic'
loop_
_space_group_symop_operation_xyz
x,y,z
-x,y,-z
loop_
_atom_site_type_symbol
_atom_site_label
_atom_site_fract_x
_atom_site_fract_y
_atom_site_fract_z
Si Si1 0.117125 0.136600 0.209583
Si Si2 0.500000 0.562489 0.500000
Si Si3 0.559328 0.993399 0.207778
Si Si4 0.650620 0.244132 0.818138
Si Si5 0.786717 0.201884 0.253222
Si Si6 0.080507 0.470523 0.408452
Si Si7 0.273148 0.753153 0.448340
Si Si8 0.000000 0.855185 0.500000
O O1 0.238786 0.219002 0.213981
O O2 0.047789 0.279818 0.275047
O O3 0.179763 0.939915 0.336420
O O4 0.000000 0.080214 0.000000
O O5 0.550645 0.417706 0.676699
O O6 0.377293 0.708745 0.412992
O O7 0.449778 0.062752 0.229496
O O8 0.663475 0.168089 0.256865
O O9 0.641984 0.810214 0.337581
O O10 0.500000 0.939294 0.000000
O O11 0.730051 0.256638 0.042954
O O12 0.871287 0.383421 0.392360
O O13 0.878980 0.002635 0.352171
O O14 0.203632 0.546213 0.419288
O O15 0.016290 0.690304 0.381628
#
# Coordination Sequence:
#
# PCOD9113493 Si02
#       8
#     2   1   2   2   2   2   2   1
#     4  12  28  49  72 108 157 200 249 316 380 453
#     4  12  24  46  74 114 146 200 264 304 380 454
#     4  10  21  43  73 103 143 190 248 310 375 438
#     4  11  25  46  76 105 150 201 247 314 387 434
#     4  11  25  48  73 111 149 194 246 320 378 445
#     4  12  25  47  76 103 149 193 254 306 369 454
#     4  12  24  46  74 106 148 198 250 311 377 448
#     4  12  26  46  80 108 146 200 258 312 382 446
#
# _framework density 22.819282000000001
#
# number of rings (size 3 to 8) (size 9 to 14) (size 15 to 20)
#    0.000    0.571    4.286    3.000    6.000    1.714 
#    2.571    0.000    0.000    0.000    0.000    0.000 
#    0.000    0.000    0.000    0.000    0.000    0.000 
#
# Total GULP energy -78025.251652 kJ/mol
# GULP energy per Si atom -5573.232261 kJ/mol
# Density = 2.276734 g / cm^3
# Si number density = 22.819282 Si / 1000 Ang^3
#
#
#
# Elastic Constant Matrix: (Units=GPa)
#
#
# Indices 1 2 3 4 5 6 
#
# 1 78.9633 32.4950 17.1125 0.0000 -0.8621 0.0000
# 2 32.4950 92.1570 55.0111 0.0000 -2.5152 0.0000
# 3 17.1125 55.0111 100.1515 0.0000 16.4860 0.0000
# 4 0.0000 0.0000 0.0000 0.7204 0.0000 -9.7716
# 5 -0.8621 -2.5152 16.4860 0.0000 33.3582 0.0000
# 6 0.0000 0.0000 0.0000 -9.7716 0.0000 -32.3918
#
#
#
# Elastic Compliance Matrix: (Units=1/GPa)
#
#
# Indices 1 2 3 4 5 6 
#
# 1 0.014834 -0.005593 0.000592 0.000000 -0.000331 0.000000
# 2 -0.005593 0.019478 -0.010844 0.000000 0.006683 0.000000
# 3 0.000592 -0.010844 0.017386 0.000000 -0.009395 0.000000
# 4 0.000000 0.000000 0.000000 0.272615 0.000000 -0.082240
# 5 -0.000331 0.006683 -0.009395 0.000000 0.035116 0.000000
# 6 0.000000 0.000000 0.000000 -0.082240 0.000000 -0.006063
#
#
# Mechanical properties :
#
#
# Convention : Reuss Voigt Hill
#
# Bulk Modulus (GPa) = 49.97612 53.38989 51.68300
# Shear Modulus (GPa) = 12.76404 11.44755 12.10580
#
# Velocity S-wave (km/s) = 2.36763 2.24221 2.30577
# Velocity P-wave (km/s) = 5.42426 5.49099 5.45773
#
# Compressibility (1/GPa) = 0.02000956
#
# Stress axis : x y z
#
# Youngs Moduli (GPa) = 67.41370 51.33918 57.51640
#
# Poissons Ratio (x) = 0.28713 -0.03404
# Poissons Ratio (y) = 0.37703 0.62368
# Poissons Ratio (z) = -0.03990 0.55670
#
# Static dielectric constant tensor:
#      x y z
#    x 2.059970 0.000000 -0.018110 
#    y 0.000000 1.897670 0.000000 
#    z -0.018110 0.000000 1.804410 
# 
# From -- ./inp_files/8392.got.cif
#   From: 2010.05.17/outbox.cif.g08.bks.cpg/sg3_5_cif.got.tgz:8392.got - 2010.06.03 18:33:08.
