data_PCOD9113467
_publ_section_title
;
Structure prediction by ZEFSAII (Michael W. Deem and Ramdas Pophale) SiO2 
 PCOD9113467
Probable space group: P 2
;
_chemical_formula_sum "Si O2"
_cell_formula_units_Z 13
_cell_length_a 16.445110
_cell_length_b 6.851672
_cell_length_c 7.950132
_cell_angle_alpha 90.000000
_cell_angle_beta 41.068494
_cell_angle_gamma 90.000000
_cell_volume 588.500893
_symmetry_space_group_name_H-M "P 2"
_symmetry_group_IT_number 3
_symmetry_cell_setting 'monoclinic'
loop_
_space_group_symop_operation_xyz
x,y,z
-x,y,-z
loop_
_atom_site_type_symbol
_atom_site_label
_atom_site_fract_x
_atom_site_fract_y
_atom_site_fract_z
Si Si1 0.221093 0.790730 0.120029
Si Si2 0.922293 0.768043 0.325311
Si Si3 0.333194 0.607112 0.412433
Si Si4 0.511820 0.955001 0.272337
Si Si5 0.946277 0.103525 0.770369
Si Si6 0.836470 0.500309 0.049406
Si Si7 0.500000 0.289431 0.000000
O O1 0.115520 0.751958 0.420759
O O2 0.167113 0.955090 0.079999
O O3 0.350802 0.871637 0.979786
O O4 0.230906 0.590563 0.006808
O O5 0.793752 0.711049 0.444541
O O6 0.957001 0.994603 0.260244
O O7 0.045428 0.643112 0.096001
O O8 0.421538 0.779685 0.346302
O O9 0.276437 0.477039 0.648462
O O10 0.389372 0.450729 0.193570
O O11 0.500000 0.981026 0.500000
O O12 0.499365 0.146118 0.167195
O O13 0.000000 0.141325 0.500000
O O14 0.900302 0.298879 0.918905
#
# Coordination Sequence:
#
# PCOD9113467 Si02
#       7
#     2   2   2   2   2   2   1
#     4  10  21  42  69 100 137 187 242 298 365 445
#     4  10  22  42  67 102 143 186 229 300 378 439
#     4  12  27  48  70 105 149 194 250 315 372 448
#     4  12  27  51  76 105 152 206 252 320 384 442
#     4   9  20  38  68 105 137 177 235 297 361 440
#     4  11  22  40  70 104 139 184 239 298 369 445
#     4  12  30  48  74 112 148 202 268 310 380 452
#
# _framework density 22.090026999999999
#
# number of rings (size 3 to 8) (size 9 to 14) (size 15 to 20)
#    0.000    1.231    1.538    5.077    2.154    6.769 
#    0.000    4.615    0.000    0.000    0.000    0.000 
#    0.000    0.000    0.000    0.000    0.000    0.000 
#
# Total GULP energy -72417.315583 kJ/mol
# GULP energy per Si atom -5570.562737 kJ/mol
# Density = 2.203975 g / cm^3
# Si number density = 22.090027 Si / 1000 Ang^3
#
#
#
# Elastic Constant Matrix: (Units=GPa)
#
#
# Indices 1 2 3 4 5 6 
#
# 1 83.5830 39.0592 24.7341 0.0000 -15.9315 0.0000
# 2 39.0592 135.0829 47.7191 0.0000 -1.8937 0.0000
# 3 24.7341 47.7191 115.0235 0.0000 -5.2976 0.0000
# 4 0.0000 0.0000 0.0000 50.5057 0.0000 0.0506
# 5 -15.9315 -1.8937 -5.2976 0.0000 40.8225 0.0000
# 6 0.0000 0.0000 0.0000 0.0506 0.0000 2.9884
#
#
#
# Elastic Compliance Matrix: (Units=1/GPa)
#
#
# Indices 1 2 3 4 5 6 
#
# 1 0.015239 -0.003821 -0.001434 0.000000 0.005584 0.000000
# 2 -0.003821 0.009632 -0.003242 0.000000 -0.001465 0.000000
# 3 -0.001434 -0.003242 0.010377 0.000000 0.000636 0.000000
# 4 0.000000 0.000000 0.000000 0.019800 0.000000 -0.000335
# 5 0.005584 -0.001465 0.000636 0.000000 0.026690 0.000000
# 6 0.000000 0.000000 0.000000 -0.000335 0.000000 0.334628
#
#
# Mechanical properties :
#
#
# Convention : Reuss Voigt Hill
#
# Bulk Modulus (GPa) = 54.78691 61.85713 58.32202
# Shear Modulus (GPa) = 11.37798 33.67514 22.52656
#
# Velocity S-wave (km/s) = 2.27198 3.90866 3.19683
# Velocity P-wave (km/s) = 5.63365 6.95940 6.33132
#
# Compressibility (1/GPa) = 0.01825253
#
# Stress axis : x y z
#
# Youngs Moduli (GPa) = 65.62278 103.81539 96.37077
#
# Poissons Ratio (x) = 0.39671 0.13823
# Poissons Ratio (y) = 0.25076 0.31243
# Poissons Ratio (z) = 0.09413 0.33656
#
# Static dielectric constant tensor:
#      x y z
#    x 2.276890 0.000000 -0.375470 
#    y 0.000000 1.828470 0.000000 
#    z -0.375470 0.000000 2.589370 
# 
# From -- ./inp_files/8825.got.cif
#   From: 2010.05.17/outbox.cif.g08.bks.cpg/sg3_5_cif.got.tgz:8825.got - 2010.06.03 18:33:08.
