data_PCOD9113266
_publ_section_title
;
Structure prediction by ZEFSAII (Michael W. Deem and Ramdas Pophale) SiO2 
 PCOD9113266
Probable space group: P 2
;
_chemical_formula_sum "Si O2"
_cell_formula_units_Z 16
_cell_length_a 8.442153
_cell_length_b 12.417835
_cell_length_c 9.026650
_cell_angle_alpha 90.000000
_cell_angle_beta 124.100183
_cell_angle_gamma 90.000000
_cell_volume 783.586147
_symmetry_space_group_name_H-M "P 2"
_symmetry_group_IT_number 3
_symmetry_cell_setting 'monoclinic'
loop_
_space_group_symop_operation_xyz
x,y,z
-x,y,-z
loop_
_atom_site_type_symbol
_atom_site_label
_atom_site_fract_x
_atom_site_fract_y
_atom_site_fract_z
Si Si1 0.024406 0.038950 0.187355
Si Si2 0.454843 0.819932 0.800067
Si Si3 0.782691 0.037554 0.320458
Si Si4 0.312479 0.644572 0.504662
Si Si5 0.808503 0.405148 0.491049
Si Si6 0.832150 0.814897 0.795910
Si Si7 0.284720 0.239060 0.324035
Si Si8 0.523585 0.246031 0.186765
O O1 0.158017 0.137583 0.300167
O O2 0.122922 0.924408 0.268648
O O3 0.824311 0.043549 0.166274
O O4 0.000000 0.042483 0.000000
O O5 0.323928 0.925413 0.707269
O O6 0.358926 0.714379 0.675873
O O7 0.644230 0.832518 0.797833
O O8 0.500000 0.809542 0.000000
O O9 0.000000 0.041997 0.500000
O O10 0.650067 0.139360 0.288751
O O11 0.500000 0.624917 0.500000
O O12 0.224352 0.530808 0.501269
O O13 0.186966 0.719679 0.331489
O O14 0.805624 0.343508 0.647084
O O15 0.637900 0.348951 0.309546
O O16 0.000000 0.384119 0.500000
O O17 0.000000 0.793439 0.000000
O O18 0.500000 0.228203 0.500000
O O19 0.322429 0.242613 0.168478
O O20 0.500000 0.253111 0.000000
#
# Coordination Sequence:
#
# PCOD9113266 Si02
#       8
#     2   2   2   2   2   2   2   2
#     4  11  21  35  57  87 123 155 193 243 299 363
#     4  11  23  39  62  92 125 161 206 257 312 371
#     4  12  23  37  60  92 130 164 204 251 308 375
#     4  10  23  43  64  85 118 163 207 255 314 373
#     4  11  24  42  62  86 118 157 207 258 311 375
#     4  10  22  41  63  90 124 163 208 255 311 377
#     4  10  21  38  60  84 119 158 197 244 301 362
#     4  11  22  39  63  90 123 161 206 257 312 370
#
# _framework density 20.418942999999999
#
# number of rings (size 3 to 8) (size 9 to 14) (size 15 to 20)
#    0.000    1.250    0.000    7.875    0.000    4.500 
#    0.000    3.125    0.000    0.000    0.000    0.000 
#    0.000    0.000    0.000    0.000    0.000    0.000 
#
# Total GULP energy -89431.807329 kJ/mol
# GULP energy per Si atom -5589.487958 kJ/mol
# Density = 2.037247 g / cm^3
# Si number density = 20.418943 Si / 1000 Ang^3
#
#
#
# Elastic Constant Matrix: (Units=GPa)
#
#
# Indices 1 2 3 4 5 6 
#
# 1 116.2620 66.0740 28.6981 0.0000 -19.1038 0.0000
# 2 66.0740 146.8555 40.9126 0.0000 -3.6692 0.0000
# 3 28.6981 40.9126 92.9951 0.0000 -22.0577 0.0000
# 4 0.0000 0.0000 0.0000 11.6119 0.0000 -18.5447
# 5 -19.1038 -3.6692 -22.0577 0.0000 33.1858 0.0000
# 6 0.0000 0.0000 0.0000 -18.5447 0.0000 18.4333
#
#
#
# Elastic Compliance Matrix: (Units=1/GPa)
#
#
# Indices 1 2 3 4 5 6 
#
# 1 0.012933 -0.005689 0.000152 0.000000 0.006917 0.000000
# 2 -0.005689 0.010342 -0.003918 0.000000 -0.004735 0.000000
# 3 0.000152 -0.003918 0.014659 0.000000 0.009398 0.000000
# 4 0.000000 0.000000 0.000000 -0.141947 0.000000 -0.142805
# 5 0.006917 -0.004735 0.009398 0.000000 0.039838 0.000000
# 6 0.000000 0.000000 0.000000 -0.142805 0.000000 -0.089418
#
#
# Mechanical properties :
#
#
# Convention : Reuss Voigt Hill
#
# Bulk Modulus (GPa) = 52.55875 69.72022 61.13948
# Shear Modulus (GPa) = -38.95819 27.34138 -5.80841
#
# Velocity S-wave (km/s) = -4.37274 3.66323 -1.68843
# Velocity P-wave (km/s) = 0.54918 7.21882 5.11923
#
# Compressibility (1/GPa) = 0.01902633
#
# Stress axis : x y z
#
# Youngs Moduli (GPa) = 77.32000 96.69381 68.21819
#
# Poissons Ratio (x) = 0.55005 -0.01038
# Poissons Ratio (y) = 0.43984 0.26725
# Poissons Ratio (z) = -0.01177 0.37880
#
# Static dielectric constant tensor:
#      x y z
#    x 1.760050 0.000000 -0.025550 
#    y 0.000000 1.686150 0.000000 
#    z -0.025550 0.000000 1.798380 
# 
# From -- ./inp_files/6026.got.cif
#   From: 2010.05.17/outbox.cif.g08.bks.cpg/sg3_4_cif.got.tgz:6026.got - 2010.06.03 18:33:08.
