data_PCOD9113176
_publ_section_title
;
Structure prediction by ZEFSAII (Michael W. Deem and Ramdas Pophale) SiO2 
 PCOD9113176
Probable space group: P 2
;
_chemical_formula_sum "Si O2"
_cell_formula_units_Z 13
_cell_length_a 9.191829
_cell_length_b 3.471860
_cell_length_c 13.929449
_cell_angle_alpha 90.000000
_cell_angle_beta 123.162792
_cell_angle_gamma 90.000000
_cell_volume 372.122263
_symmetry_space_group_name_H-M "P 2"
_symmetry_group_IT_number 3
_symmetry_cell_setting 'monoclinic'
loop_
_space_group_symop_operation_xyz
x,y,z
-x,y,-z
loop_
_atom_site_type_symbol
_atom_site_label
_atom_site_fract_x
_atom_site_fract_y
_atom_site_fract_z
Si Si1 0.824431 0.759250 0.521992
Si Si2 0.782074 0.261377 0.358124
Si Si3 0.655225 0.519622 0.120559
Si Si4 0.886101 0.963662 0.046025
Si Si5 0.581630 0.977469 0.809689
Si Si6 0.805799 0.004611 0.718824
Si Si7 0.500000 0.464128 0.500000
O O1 0.834011 0.761608 0.398632
O O2 0.618710 0.713127 0.470123
O O3 0.857716 0.260212 0.506199
O O4 0.889547 0.793574 0.655666
O O5 0.782740 0.300311 0.242495
O O6 0.573273 0.220091 0.295508
O O7 0.775415 0.737174 0.086984
O O8 0.534295 0.754668 0.152829
O O9 0.500000 0.332638 0.000000
O O10 0.033481 0.173867 0.163019
O O11 0.734356 0.168821 0.928968
O O12 0.000000 0.778368 0.000000
O O13 0.695630 0.801232 0.764670
O O14 0.653892 0.252723 0.613285
#
# Coordination Sequence:
#
# PCOD9113176 Si02
#       7
#     2   2   2   2   2   2   1
#     4  12  24  40  70 115 149 204 259 321 369 465
#     4  12  23  43  75 109 150 196 263 315 385 459
#     4  10  23  44  76 113 157 203 261 322 399 473
#     4   9  22  46  79 118 159 206 258 335 398 476
#     4  10  20  42  74 113 158 202 262 320 387 465
#     4  11  22  42  75 115 162 205 271 319 398 454
#     4  12  22  40  72 116 160 208 262 326 382 458
#
# _framework density 34.934750999999999
#
# number of rings (size 3 to 8) (size 9 to 14) (size 15 to 20)
#    0.000    1.231    4.615    1.385    0.000    1.846 
#    0.000    5.385    3.385   14.769    0.000    0.000 
#    0.000    0.000    0.000    0.000    0.000    0.000 
#
# Total GULP energy -72442.644662 kJ/mol
# GULP energy per Si atom -5572.511128 kJ/mol
# Density = 3.485524 g / cm^3
# Si number density = 34.934751 Si / 1000 Ang^3
#
#
#
# Elastic Constant Matrix: (Units=GPa)
#
#
# Indices 1 2 3 4 5 6 
#
# 1 316.4316 109.6388 97.2247 0.0000 -55.2456 0.0000
# 2 109.6388 165.0173 127.0255 0.0000 -27.2734 0.0000
# 3 97.2247 127.0255 363.8390 0.0000 -33.4710 0.0000
# 4 0.0000 0.0000 0.0000 115.3728 0.0000 -15.6222
# 5 -55.2456 -27.2734 -33.4710 0.0000 101.8579 0.0000
# 6 0.0000 0.0000 0.0000 -15.6222 0.0000 120.2592
#
#
#
# Elastic Compliance Matrix: (Units=1/GPa)
#
#
# Indices 1 2 3 4 5 6 
#
# 1 0.004363 -0.002524 -0.000133 0.000000 0.001647 0.000000
# 2 -0.002524 0.009920 -0.002754 0.000000 0.000382 0.000000
# 3 -0.000133 -0.002754 0.003785 0.000000 0.000434 0.000000
# 4 0.000000 0.000000 0.000000 0.008823 0.000000 0.001146
# 5 0.001647 0.000382 0.000434 0.000000 0.010956 0.000000
# 6 0.000000 0.000000 0.000000 0.001146 0.000000 0.008464
#
#
# Mechanical properties :
#
#
# Convention : Reuss Voigt Hill
#
# Bulk Modulus (GPa) = 137.99816 168.11842 153.05829
# Shear Modulus (GPa) = 83.96410 101.59124 92.77767
#
# Velocity S-wave (km/s) = 4.90782 5.39846 5.15898
# Velocity P-wave (km/s) = 8.46777 9.33198 8.91036
#
# Compressibility (1/GPa) = 0.00724647
#
# Stress axis : x y z
#
# Youngs Moduli (GPa) = 229.18275 100.80675 264.17563
#
# Poissons Ratio (x) = 0.25447 0.03517
# Poissons Ratio (y) = 0.57854 0.72744
# Poissons Ratio (z) = 0.03051 0.27758
#
# Static dielectric constant tensor:
#      x y z
#    x 2.475160 0.000000 -0.029150 
#    y 0.000000 4.022810 0.000000 
#    z -0.029150 0.000000 2.481130 
# 
# From -- ./inp_files/13390.got.cif
#   From: 2010.05.17/outbox.cif.g08.bks.cpg/sg3_7_cif.got.tgz:13390.got - 2010.06.03 18:33:08.
