data_PCOD9113250
_publ_section_title
;
Structure prediction by ZEFSAII (Michael W. Deem and Ramdas Pophale) SiO2 
 PCOD9113250
Probable space group: P 2
;
_chemical_formula_sum "Si O2"
_cell_formula_units_Z 15
_cell_length_a 12.224413
_cell_length_b 4.964864
_cell_length_c 19.932918
_cell_angle_alpha 90.000000
_cell_angle_beta 151.562897
_cell_angle_gamma 90.000000
_cell_volume 576.089468
_symmetry_space_group_name_H-M "P 2"
_symmetry_group_IT_number 3
_symmetry_cell_setting 'monoclinic'
loop_
_space_group_symop_operation_xyz
x,y,z
-x,y,-z
loop_
_atom_site_type_symbol
_atom_site_label
_atom_site_fract_x
_atom_site_fract_y
_atom_site_fract_z
Si Si1 0.251885 0.583750 0.573587
Si Si2 0.979494 0.259825 0.909644
Si Si3 0.763554 0.765624 0.011906
Si Si4 0.747094 0.401350 0.135429
Si Si5 0.500000 0.593861 0.500000
Si Si6 0.182441 0.203103 0.414022
Si Si7 0.423227 0.886584 0.338199
Si Si8 0.758358 0.674055 0.286548
O O1 0.196821 0.335940 0.495271
O O2 0.494530 0.719893 0.682336
O O3 0.263728 0.496694 0.657359
O O4 0.023222 0.774754 0.439933
O O5 0.125103 0.053911 0.942463
O O6 0.719390 0.155551 0.752977
O O7 0.086322 0.554786 0.953060
O O8 0.000000 0.207452 0.000000
O O9 0.768856 0.612995 0.086682
O O10 0.492133 0.813254 0.848154
O O11 0.764257 0.547758 0.216347
O O12 0.942070 0.180234 0.248602
O O13 0.500000 0.266539 0.000000
O O14 0.331030 0.401418 0.449303
O O15 0.330858 0.731489 0.353093
O O16 0.326169 0.935961 0.494194
#
# Coordination Sequence:
#
# PCOD9113250 Si02
#       8
#     2   2   2   2   1   2   2   2
#     4   9  20  40  66  95 130 174 230 285 347 406
#     4  12  28  45  71 103 142 189 231 283 349 417
#     4  11  25  46  72 100 145 182 233 285 348 418
#     4   9  20  42  66  98 130 178 227 282 346 408
#     4  10  22  38  62  92 132 174 226 280 340 410
#     4  10  21  37  63  91 132 169 222 280 341 403
#     4  11  24  38  66  98 133 180 232 286 342 416
#     4   9  19  44  68  95 133 178 230 288 347 410
#
# _framework density 26.037623
#
# number of rings (size 3 to 8) (size 9 to 14) (size 15 to 20)
#    0.000    1.867    0.000    2.400    9.333    0.000 
#    7.200    6.000    0.000    0.000    0.000    0.000 
#    0.000    0.000    0.000    0.000    0.000    0.000 
#
# Total GULP energy -83681.147876 kJ/mol
# GULP energy per Si atom -5578.743192 kJ/mol
# Density = 2.597836 g / cm^3
# Si number density = 26.037623 Si / 1000 Ang^3
#
#
#
# Elastic Constant Matrix: (Units=GPa)
#
#
# Indices 1 2 3 4 5 6 
#
# 1 126.5735 6.4999 25.9448 0.0000 -32.2330 0.0000
# 2 6.4999 60.0981 -2.9470 0.0000 5.5717 0.0000
# 3 25.9448 -2.9470 112.2016 0.0000 6.3095 0.0000
# 4 0.0000 0.0000 0.0000 24.1187 0.0000 -0.9322
# 5 -32.2330 5.5717 6.3095 0.0000 38.6700 0.0000
# 6 0.0000 0.0000 0.0000 -0.9322 0.0000 39.9337
#
#
#
# Elastic Compliance Matrix: (Units=1/GPa)
#
#
# Indices 1 2 3 4 5 6 
#
# 1 0.011310 -0.002337 -0.003255 0.000000 0.010295 0.000000
# 2 -0.002337 0.017386 0.001259 0.000000 -0.004659 0.000000
# 3 -0.003255 0.001259 0.009952 0.000000 -0.004519 0.000000
# 4 0.000000 0.000000 0.000000 0.041499 0.000000 0.000969
# 5 0.010295 -0.004659 -0.004519 0.000000 0.035850 0.000000
# 6 0.000000 0.000000 0.000000 0.000969 0.000000 0.025064
#
#
# Mechanical properties :
#
#
# Convention : Reuss Voigt Hill
#
# Bulk Modulus (GPa) = 33.35488 39.76318 36.55903
# Shear Modulus (GPa) = 31.30449 38.50284 34.90367
#
# Velocity S-wave (km/s) = 3.47115 3.84961 3.66527
# Velocity P-wave (km/s) = 5.37618 5.92148 5.65540
#
# Compressibility (1/GPa) = 0.02998062
#
# Stress axis : x y z
#
# Youngs Moduli (GPa) = 88.42085 57.51788 100.47744
#
# Poissons Ratio (x) = 0.13443 0.32710
# Poissons Ratio (y) = 0.20666 -0.12651
# Poissons Ratio (z) = 0.28785 -0.07242
#
# Static dielectric constant tensor:
#      x y z
#    x 1.963520 0.000000 0.161320 
#    y 0.000000 2.019650 0.000000 
#    z 0.161320 0.000000 2.099010 
# 
# From -- ./inp_files/15908.got.cif
#   From: 2010.05.17/outbox.cif.g08.bks.cpg/sg3_8_cif.got.tgz:15908.got - 2010.06.03 18:33:08.
