data_PCOD9113872
_publ_section_title
;
Structure prediction by ZEFSAII (Michael W. Deem and Ramdas Pophale) SiO2 
 PCOD9113872
Probable space group: P 2
;
_chemical_formula_sum "Si O2"
_cell_formula_units_Z 12
_cell_length_a 25.708986
_cell_length_b 5.124688
_cell_length_c 13.538009
_cell_angle_alpha 90.000000
_cell_angle_beta 163.879600
_cell_angle_gamma 90.000000
_cell_volume 495.239598
_symmetry_space_group_name_H-M "P 2"
_symmetry_group_IT_number 3
_symmetry_cell_setting 'monoclinic'
loop_
_space_group_symop_operation_xyz
x,y,z
-x,y,-z
loop_
_atom_site_type_symbol
_atom_site_label
_atom_site_fract_x
_atom_site_fract_y
_atom_site_fract_z
Si Si1 0.184773 0.763600 0.628987
Si Si2 0.613474 0.041956 0.609342
Si Si3 0.223594 0.270674 0.395735
Si Si4 0.011933 0.255325 0.405099
Si Si5 0.567873 0.530519 0.400301
Si Si6 0.185682 0.768414 0.406324
O O1 0.142723 0.842769 0.439572
O O2 0.054552 0.527742 0.429042
O O3 0.389773 0.638417 0.015766
O O4 0.156996 0.023161 0.643284
O O5 0.500000 0.965252 0.500000
O O6 0.517136 0.293087 0.381446
O O7 0.635798 0.787043 0.581995
O O8 0.815883 0.144925 0.009267
O O9 0.283208 0.395737 0.401481
O O10 0.277713 0.485057 0.574965
O O11 0.305318 0.988241 0.569033
O O12 0.000000 0.224905 0.000000
O O13 0.000000 0.299866 0.500000
O O14 0.000000 0.727821 0.000000
#
# Coordination Sequence:
#
# PCOD9113872 Si02
#       6
#     2   2   2   2   2   2
#     4  12  26  46  74 110 150 196 246 312 378 437
#     4  12  27  47  76 108 149 195 251 308 374 449
#     4  10  23  41  70 100 144 184 250 291 358 436
#     4  12  27  47  76 108 149 195 251 308 374 449
#     4  12  26  46  74 110 150 196 246 312 378 437
#     4  10  23  41  70 100 144 184 250 291 358 436
#
# _framework density 24.230695000000001
#
# number of rings (size 3 to 8) (size 9 to 14) (size 15 to 20)
#    0.000    0.667    0.000    7.000   14.000    0.667 
#    0.000    1.667    0.000    0.000    0.000    0.000 
#    0.000    0.000    0.000    0.000    0.000    0.000 
#
# Total GULP energy -67174.507437 kJ/mol
# GULP energy per Si atom -5597.875620 kJ/mol
# Density = 2.417554 g / cm^3
# Si number density = 24.230695 Si / 1000 Ang^3
#
#
#
# Elastic Constant Matrix: (Units=GPa)
#
#
# Indices 1 2 3 4 5 6 
#
# 1 127.7404 27.3733 34.5292 0.0000 -19.6142 0.0000
# 2 27.3733 157.6927 16.8959 0.0000 -12.3102 0.0000
# 3 34.5292 16.8959 111.1908 0.0000 -9.2873 0.0000
# 4 0.0000 0.0000 0.0000 22.2251 0.0000 4.3673
# 5 -19.6142 -12.3102 -9.2873 0.0000 24.8644 0.0000
# 6 0.0000 0.0000 0.0000 4.3673 0.0000 67.3005
#
#
#
# Elastic Compliance Matrix: (Units=1/GPa)
#
#
# Indices 1 2 3 4 5 6 
#
# 1 0.009617 -0.000932 -0.002322 0.000000 0.006257 0.000000
# 2 -0.000932 0.006748 -0.000535 0.000000 0.002406 0.000000
# 3 -0.002322 -0.000535 0.009931 0.000000 0.001613 0.000000
# 4 0.000000 0.000000 0.000000 0.045575 0.000000 -0.002958
# 5 0.006257 0.002406 0.001613 0.000000 0.046948 0.000000
# 6 0.000000 0.000000 0.000000 -0.002958 0.000000 0.015051
#
#
# Mechanical properties :
#
#
# Convention : Reuss Voigt Hill
#
# Bulk Modulus (GPa) = 53.42653 61.58007 57.50330
# Shear Modulus (GPa) = 33.85550 44.06639 38.96095
#
# Velocity S-wave (km/s) = 3.74199 4.26915 4.01423
# Velocity P-wave (km/s) = 6.38490 7.05480 6.72819
#
# Compressibility (1/GPa) = 0.01871729
#
# Stress axis : x y z
#
# Youngs Moduli (GPa) = 103.98743 148.18356 100.69850
#
# Poissons Ratio (x) = 0.13811 0.23383
# Poissons Ratio (y) = 0.09692 0.05388
# Poissons Ratio (z) = 0.24146 0.07929
#
# Static dielectric constant tensor:
#      x y z
#    x 1.911250 0.000000 -0.096380 
#    y 0.000000 1.968000 0.000000 
#    z -0.096380 0.000000 1.349150 
# 
# From -- ./inp_files/12700.got.cif
#   From: 2010.05.17/outbox.cif.g08.bks.cpg/sg3_7_cif.got.tgz:12700.got - 2010.06.03 18:33:08.
