data_PCOD9113342
_publ_section_title
;
Structure prediction by ZEFSAII (Michael W. Deem and Ramdas Pophale) SiO2 
 PCOD9113342
Probable space group: P 2
;
_chemical_formula_sum "Si O2"
_cell_formula_units_Z 16
_cell_length_a 7.634363
_cell_length_b 17.484546
_cell_length_c 8.036040
_cell_angle_alpha 90.000000
_cell_angle_beta 143.199043
_cell_angle_gamma 90.000000
_cell_volume 642.573608
_symmetry_space_group_name_H-M "P 2"
_symmetry_group_IT_number 3
_symmetry_cell_setting 'monoclinic'
loop_
_space_group_symop_operation_xyz
x,y,z
-x,y,-z
loop_
_atom_site_type_symbol
_atom_site_label
_atom_site_fract_x
_atom_site_fract_y
_atom_site_fract_z
Si Si1 0.135562 0.253590 0.414395
Si Si2 0.321059 0.504251 0.164385
Si Si3 0.658984 0.670583 0.943566
Si Si4 0.365244 0.163344 0.086390
Si Si5 0.983368 0.926715 0.172986
Si Si6 0.940750 0.423492 0.648230
Si Si7 0.838899 0.770637 0.554618
Si Si8 0.564534 0.000752 0.242156
O O1 0.469595 0.229763 0.688474
O O2 0.086785 0.337417 0.302826
O O3 0.000000 0.252765 0.500000
O O4 0.968533 0.186639 0.189410
O O5 0.350561 0.595137 0.174139
O O6 0.635600 0.468632 0.448773
O O7 0.000000 0.485765 0.000000
O O8 0.230149 0.468685 0.920314
O O9 0.481442 0.739872 0.725743
O O10 0.500000 0.654555 0.000000
O O11 0.980991 0.700272 0.229859
O O12 0.440346 0.080514 0.219871
O O13 0.500000 0.167793 0.000000
O O14 0.126778 0.844611 0.305014
O O15 0.139833 0.979195 0.433678
O O16 0.000000 0.959384 0.000000
O O17 0.632645 0.924012 0.910953
O O18 0.000000 0.413215 0.500000
O O19 0.000000 0.789360 0.500000
O O20 0.500000 0.019204 0.000000
#
# Coordination Sequence:
#
# PCOD9113342 Si02
#       8
#     2   2   2   2   2   2   2   2
#     4   9  17  31  55  89 121 151 201 267 322 371
#     4  12  25  41  61  92 132 170 210 266 328 392
#     4  10  21  39  64  90 117 156 210 266 318 383
#     4   9  17  31  55  89 121 151 201 267 322 371
#     4  12  25  41  61  92 132 170 210 266 328 392
#     4  11  22  39  65  92 124 169 218 267 324 393
#     4  10  21  39  64  90 117 156 210 266 318 383
#     4  11  22  39  65  92 124 169 218 267 324 393
#
# _framework density 24.899872999999999
#
# number of rings (size 3 to 8) (size 9 to 14) (size 15 to 20)
#    0.000    1.500    0.000    6.000    0.000    6.500 
#    0.000    1.250    0.000   11.250    0.000    0.000 
#    0.000    0.000    0.000    0.000    0.000    0.000 
#
# Total GULP energy -89235.401415 kJ/mol
# GULP energy per Si atom -5577.212588 kJ/mol
# Density = 2.484320 g / cm^3
# Si number density = 24.899873 Si / 1000 Ang^3
#
#
#
# Elastic Constant Matrix: (Units=GPa)
#
#
# Indices 1 2 3 4 5 6 
#
# 1 38.9534 1.8881 17.4148 0.0000 2.6470 0.0000
# 2 1.8881 103.1588 25.8196 0.0000 3.1718 0.0000
# 3 17.4148 25.8196 154.7305 0.0000 9.4739 0.0000
# 4 0.0000 0.0000 0.0000 89.8498 0.0000 9.5523
# 5 2.6470 3.1718 9.4739 0.0000 26.4685 0.0000
# 6 0.0000 0.0000 0.0000 9.5523 0.0000 8.4190
#
#
#
# Elastic Compliance Matrix: (Units=1/GPa)
#
#
# Indices 1 2 3 4 5 6 
#
# 1 0.027112 0.000306 -0.003000 0.000000 -0.001674 0.000000
# 2 0.000306 0.010130 -0.001686 0.000000 -0.000641 0.000000
# 3 -0.003000 -0.001686 0.007209 0.000000 -0.002078 0.000000
# 4 0.000000 0.000000 0.000000 0.012656 0.000000 -0.014360
# 5 -0.001674 -0.000641 -0.002078 0.000000 0.038769 0.000000
# 6 0.000000 0.000000 0.000000 -0.014360 0.000000 0.135072
#
#
# Mechanical properties :
#
#
# Convention : Reuss Voigt Hill
#
# Bulk Modulus (GPa) = 28.01764 43.00974 35.51369
# Shear Modulus (GPa) = 19.87253 41.72882 30.80068
#
# Velocity S-wave (km/s) = 2.82813 4.09817 3.52089
# Velocity P-wave (km/s) = 4.68412 6.30111 5.55180
#
# Compressibility (1/GPa) = 0.03569180
#
# Stress axis : x y z
#
# Youngs Moduli (GPa) = 36.88430 98.71893 138.71539
#
# Poissons Ratio (x) = -0.03022 0.41614
# Poissons Ratio (y) = -0.01129 0.23381
# Poissons Ratio (z) = 0.11065 0.16639
#
# Static dielectric constant tensor:
#      x y z
#    x 2.349310 0.000000 -0.065140 
#    y 0.000000 1.974930 0.000000 
#    z -0.065140 0.000000 1.731280 
# 
# From -- ./inp_files/6275.got.cif
#   From: 2010.05.17/outbox.cif.g08.bks.cpg/sg3_4_cif.got.tgz:6275.got - 2010.06.03 18:33:08.
