data_PCOD9113015
_publ_section_title
;
Structure prediction by ZEFSAII (Michael W. Deem and Ramdas Pophale) SiO2 
 PCOD9113015
Probable space group: P 2
;
_chemical_formula_sum "Si O2"
_cell_formula_units_Z 8
_cell_length_a 4.737107
_cell_length_b 4.600768
_cell_length_c 12.523320
_cell_angle_alpha 90.000000
_cell_angle_beta 101.438049
_cell_angle_gamma 90.000000
_cell_volume 267.516754
_symmetry_space_group_name_H-M "P 2"
_symmetry_group_IT_number 3
_symmetry_cell_setting 'monoclinic'
loop_
_space_group_symop_operation_xyz
x,y,z
-x,y,-z
loop_
_atom_site_type_symbol
_atom_site_label
_atom_site_fract_x
_atom_site_fract_y
_atom_site_fract_z
Si Si1 0.671960 0.126040 0.433273
Si Si2 0.133382 0.382954 0.768364
Si Si3 0.789018 0.883296 0.075866
Si Si4 0.180408 0.654295 0.436890
O O1 0.500000 0.444790 0.500000
O O2 0.683694 0.242388 0.313842
O O3 0.832145 0.795891 0.428692
O O4 0.663249 0.980672 0.574170
O O5 0.289214 0.630060 0.847507
O O6 0.869791 0.528933 0.684817
O O7 0.054544 0.132783 0.844985
O O8 0.500000 0.000349 0.000000
O O9 0.000000 0.770280 0.000000
O O10 0.000000 0.330465 0.500000
#
# Coordination Sequence:
#
# PCOD9113015 Si02
#       4
#     2   2   2   2
#     4  11  22  37  63 103 142 180 228 279 353 450
#     4  11  24  45  70  99 143 192 231 300 364 411
#     4  12  28  50  74 104 138 188 255 306 349 410
#     4  10  20  38  60  92 134 176 219 273 348 439
#
# _framework density 29.904665999999999
#
# number of rings (size 3 to 8) (size 9 to 14) (size 15 to 20)
#    0.000    1.000    0.000    9.000    0.000    6.000 
#    0.000    0.000    0.000    0.000    0.000    0.000 
#    0.000    0.000    0.000    0.000    0.000    0.000 
#
# Total GULP energy -44660.532810 kJ/mol
# GULP energy per Si atom -5582.566601 kJ/mol
# Density = 2.983660 g / cm^3
# Si number density = 29.904666 Si / 1000 Ang^3
#
#
#
# Elastic Constant Matrix: (Units=GPa)
#
#
# Indices 1 2 3 4 5 6 
#
# 1 222.7063 65.4125 64.4520 0.0000 -1.7553 0.0000
# 2 65.4125 284.6808 97.8348 0.0000 -4.1913 0.0000
# 3 64.4520 97.8348 207.0177 0.0000 -12.7734 0.0000
# 4 0.0000 0.0000 0.0000 64.6399 0.0000 -5.5584
# 5 -1.7553 -4.1913 -12.7734 0.0000 35.3309 0.0000
# 6 0.0000 0.0000 0.0000 -5.5584 0.0000 27.9016
#
#
#
# Elastic Compliance Matrix: (Units=1/GPa)
#
#
# Indices 1 2 3 4 5 6 
#
# 1 0.005066 -0.000740 -0.001245 0.000000 -0.000286 0.000000
# 2 -0.000740 0.004304 -0.001815 0.000000 -0.000182 0.000000
# 3 -0.001245 -0.001815 0.006197 0.000000 0.001963 0.000000
# 4 0.000000 0.000000 0.000000 0.015740 0.000000 0.003136
# 5 -0.000286 -0.000182 0.001963 0.000000 0.028978 0.000000
# 6 0.000000 0.000000 0.000000 0.003136 0.000000 0.036465
#
#
# Mechanical properties :
#
#
# Convention : Reuss Voigt Hill
#
# Bulk Modulus (GPa) = 125.52689 129.97817 127.75253
# Shear Modulus (GPa) = 46.72711 58.02152 52.37432
#
# Velocity S-wave (km/s) = 3.95718 4.40957 4.18948
# Velocity P-wave (km/s) = 7.93384 8.33572 8.13726
#
# Compressibility (1/GPa) = 0.00796642
#
# Stress axis : x y z
#
# Youngs Moduli (GPa) = 197.40619 232.35404 161.37292
#
# Poissons Ratio (x) = 0.17202 0.20089
# Poissons Ratio (y) = 0.14615 0.29284
# Poissons Ratio (z) = 0.24575 0.42165
#
# Static dielectric constant tensor:
#      x y z
#    x 2.859130 0.000000 0.122800 
#    y 0.000000 2.827810 0.000000 
#    z 0.122800 0.000000 2.108390 
# 
# From -- ./inp_files/9670.got.cif
#   From: 2010.05.17/outbox.cif.g08.bks.cpg/sg3_5_cif.got.tgz:9670.got - 2010.06.03 18:33:08.
