data_PCOD9113032
_publ_section_title
;
Structure prediction by ZEFSAII (Michael W. Deem and Ramdas Pophale) SiO2 
 PCOD9113032
Probable space group: P 2
;
_chemical_formula_sum "Si O2"
_cell_formula_units_Z 14
_cell_length_a 21.669467
_cell_length_b 5.609619
_cell_length_c 27.220189
_cell_angle_alpha 90.000000
_cell_angle_beta 168.546201
_cell_angle_gamma 90.000000
_cell_volume 657.057237
_symmetry_space_group_name_H-M "P 2"
_symmetry_group_IT_number 3
_symmetry_cell_setting 'monoclinic'
loop_
_space_group_symop_operation_xyz
x,y,z
-x,y,-z
loop_
_atom_site_type_symbol
_atom_site_label
_atom_site_fract_x
_atom_site_fract_y
_atom_site_fract_z
Si Si1 0.707248 0.695380 0.210911
Si Si2 0.429824 0.198471 0.020953
Si Si3 0.061204 0.057106 0.281722
Si Si4 0.899404 0.378481 0.542850
Si Si5 0.368272 0.686056 0.581796
Si Si6 0.674333 0.084506 0.886644
Si Si7 0.277270 0.303031 0.179851
O O1 0.030050 0.590321 0.440548
O O2 0.500000 0.704863 0.000000
O O3 0.593887 0.458033 0.151712
O O4 0.648188 0.958051 0.188283
O O5 0.204034 0.170881 0.891218
O O6 0.200725 0.220306 0.793620
O O7 0.397161 0.183060 0.549489
O O8 0.118583 0.804934 0.352129
O O9 0.945697 0.037566 0.136403
O O10 0.804705 0.492476 0.520759
O O11 0.602897 0.217527 0.300237
O O12 0.639664 0.580961 0.759899
O O13 0.514443 0.860503 0.735960
O O14 0.789220 0.229441 0.928414
O O15 0.000000 0.248731 0.000000
#
# Coordination Sequence:
#
# PCOD9113032 Si02
#       7
#     2   2   2   2   2   2   2
#     4  10  21  31  62  93 128 174 232 279 335 389
#     4  11  20  36  61  95 124 181 228 279 333 399
#     4  11  22  40  67  92 132 172 224 272 342 406
#     4  10  20  38  62  92 134 171 232 277 340 400
#     4  10  20  39  65  95 128 172 222 273 344 404
#     4  10  23  40  66  96 128 175 219 275 343 411
#     4  10  23  44  67  95 132 169 219 279 343 418
#
# _framework density 21.307122
#
# number of rings (size 3 to 8) (size 9 to 14) (size 15 to 20)
#    0.000    1.714    4.286    3.000    2.000    5.143 
#    0.000    0.714    0.000    0.000    0.000    0.000 
#    0.000    0.000    0.000    0.000    0.000    0.000 
#
# Total GULP energy -78025.935110 kJ/mol
# GULP energy per Si atom -5573.281079 kJ/mol
# Density = 2.125863 g / cm^3
# Si number density = 21.307122 Si / 1000 Ang^3
#
#
#
# Elastic Constant Matrix: (Units=GPa)
#
#
# Indices 1 2 3 4 5 6 
#
# 1 84.3385 23.9920 57.7144 0.0000 2.4910 0.0000
# 2 23.9920 95.7931 23.5009 0.0000 4.0023 0.0000
# 3 57.7144 23.5009 76.2720 0.0000 -5.6351 0.0000
# 4 0.0000 0.0000 0.0000 4.2765 0.0000 19.2414
# 5 2.4910 4.0023 -5.6351 0.0000 52.1651 0.0000
# 6 0.0000 0.0000 0.0000 19.2414 0.0000 6.5145
#
#
#
# Elastic Compliance Matrix: (Units=1/GPa)
#
#
# Indices 1 2 3 4 5 6 
#
# 1 0.025351 -0.001574 -0.018930 0.000000 -0.003135 0.000000
# 2 -0.001574 0.011472 -0.002422 0.000000 -0.001067 0.000000
# 3 -0.018930 -0.002422 0.028489 0.000000 0.004167 0.000000
# 4 0.000000 0.000000 0.000000 -0.019028 0.000000 0.056200
# 5 -0.003135 -0.001067 0.004167 0.000000 0.019852 0.000000
# 6 0.000000 0.000000 0.000000 0.056200 0.000000 -0.012491
#
#
# Mechanical properties :
#
#
# Convention : Reuss Voigt Hill
#
# Bulk Modulus (GPa) = 51.38732 51.86869 51.62800
# Shear Modulus (GPa) = 47.17628 22.67098 34.92363
#
# Velocity S-wave (km/s) = 4.71054 3.26545 4.05292
# Velocity P-wave (km/s) = 7.33180 6.21400 6.79592
#
# Compressibility (1/GPa) = 0.01946005
#
# Stress axis : x y z
#
# Youngs Moduli (GPa) = 39.44566 87.16633 35.10113
#
# Poissons Ratio (x) = 0.13724 0.66445
# Poissons Ratio (y) = 0.06210 0.08503
# Poissons Ratio (z) = 0.74669 0.21114
#
# Static dielectric constant tensor:
#      x y z
#    x 1.762130 0.000000 0.031540 
#    y 0.000000 1.886010 0.000000 
#    z 0.031540 0.000000 1.787210 
# 
# From -- ./inp_files/16642.got.cif
#   From: 2010.05.17/outbox.cif.g08.bks.cpg/sg3_9_cif.got.tgz:16642.got - 2010.06.03 18:33:08.
