data_PCOD9113010
_publ_section_title
;
Structure prediction by ZEFSAII (Michael W. Deem and Ramdas Pophale) SiO2 
 PCOD9113010
Probable space group: P 2
;
_chemical_formula_sum "Si O2"
_cell_formula_units_Z 13
_cell_length_a 5.330674
_cell_length_b 5.242564
_cell_length_c 17.628167
_cell_angle_alpha 90.000000
_cell_angle_beta 101.154611
_cell_angle_gamma 90.000000
_cell_volume 483.337126
_symmetry_space_group_name_H-M "P 2"
_symmetry_group_IT_number 3
_symmetry_cell_setting 'monoclinic'
loop_
_space_group_symop_operation_xyz
x,y,z
-x,y,-z
loop_
_atom_site_type_symbol
_atom_site_label
_atom_site_fract_x
_atom_site_fract_y
_atom_site_fract_z
Si Si1 0.730973 0.767710 0.271214
Si Si2 0.868726 0.558579 0.073563
Si Si3 0.500000 0.936118 0.500000
Si Si4 0.686098 0.385889 0.803607
Si Si5 0.589500 0.148332 0.651801
Si Si6 0.834597 0.548758 0.421372
Si Si7 0.641109 0.046493 0.123150
O O1 0.583900 0.535351 0.221342
O O2 0.928921 0.681921 0.348298
O O3 0.099511 0.561543 0.148089
O O4 0.508213 0.904260 0.307535
O O5 0.671681 0.787540 0.077730
O O6 0.795848 0.969946 0.209605
O O7 0.744976 0.281048 0.079996
O O8 0.000000 0.581195 0.000000
O O9 0.676965 0.761202 0.458680
O O10 0.671294 0.087396 0.571230
O O11 0.755419 0.296709 0.723099
O O12 0.625514 0.151108 0.857355
O O13 0.345652 0.327435 0.620460
O O14 0.000000 0.444094 0.500000
#
# Coordination Sequence:
#
# PCOD9113010 Si02
#       7
#     2   2   1   2   2   2   2
#     4   9  20  44  66  94 134 185 236 279 355 423
#     4  12  28  47  73 114 144 179 248 292 359 451
#     4  10  20  38  58  92 134 176 234 286 348 410
#     4  10  23  47  73  98 145 190 234 303 350 426
#     4   9  20  38  64  93 134 181 233 281 355 416
#     4  10  21  38  60  92 133 177 232 291 341 413
#     4  11  24  48  71 106 144 187 235 291 364 428
#
# _framework density 26.896339999999999
#
# number of rings (size 3 to 8) (size 9 to 14) (size 15 to 20)
#    0.000    1.846    1.538    0.923    4.308    4.308 
#   11.077    0.000    0.000    0.000    0.000    0.000 
#    0.000    0.000    0.000    0.000    0.000    0.000 
#
# Total GULP energy -72665.998781 kJ/mol
# GULP energy per Si atom -5589.692214 kJ/mol
# Density = 2.683512 g / cm^3
# Si number density = 26.896340 Si / 1000 Ang^3
#
#
#
# Elastic Constant Matrix: (Units=GPa)
#
#
# Indices 1 2 3 4 5 6 
#
# 1 56.4951 27.1910 39.0182 0.0000 8.6398 0.0000
# 2 27.1910 143.0750 50.9311 0.0000 -15.4823 0.0000
# 3 39.0182 50.9311 145.8942 0.0000 -0.3081 0.0000
# 4 0.0000 0.0000 0.0000 28.9022 0.0000 -32.7324
# 5 8.6398 -15.4823 -0.3081 0.0000 48.3280 0.0000
# 6 0.0000 0.0000 0.0000 -32.7324 0.0000 115.8491
#
#
#
# Elastic Compliance Matrix: (Units=1/GPa)
#
#
# Indices 1 2 3 4 5 6 
#
# 1 0.023659 -0.003212 -0.005217 0.000000 -0.005292 0.000000
# 2 -0.003212 0.008741 -0.002186 0.000000 0.003361 0.000000
# 3 -0.005217 -0.002186 0.009013 0.000000 0.000290 0.000000
# 4 0.000000 0.000000 0.000000 0.050881 0.000000 0.014376
# 5 -0.005292 0.003361 0.000290 0.000000 0.022716 0.000000
# 6 0.000000 0.000000 0.000000 0.014376 0.000000 0.012694
#
#
# Mechanical properties :
#
#
# Convention : Reuss Voigt Hill
#
# Bulk Modulus (GPa) = 49.54329 64.41610 56.97969
# Shear Modulus (GPa) = 32.12091 53.83745 42.97918
#
# Velocity S-wave (km/s) = 3.45954 4.47885 4.00178
# Velocity P-wave (km/s) = 5.86668 7.12380 6.52558
#
# Compressibility (1/GPa) = 0.02018437
#
# Stress axis : x y z
#
# Youngs Moduli (GPa) = 42.26700 114.39848 110.94824
#
# Poissons Ratio (x) = 0.36742 0.57886
# Poissons Ratio (y) = 0.13575 0.24248
# Poissons Ratio (z) = 0.22052 0.25002
#
# Static dielectric constant tensor:
#      x y z
#    x 2.172890 0.000000 0.025280 
#    y 0.000000 2.159910 0.000000 
#    z 0.025280 0.000000 2.110270 
# 
# From -- ./inp_files/14751.got.cif
#   From: 2010.05.17/outbox.cif.g08.bks.cpg/sg3_8_cif.got.tgz:14751.got - 2010.06.03 18:33:08.
