data_PCOD9113697
_publ_section_title
;
Structure prediction by ZEFSAII (Michael W. Deem and Ramdas Pophale) SiO2 
 PCOD9113697
Probable space group: P 2
;
_chemical_formula_sum "Si O2"
_cell_formula_units_Z 12
_cell_length_a 6.250197
_cell_length_b 6.023068
_cell_length_c 15.731111
_cell_angle_alpha 90.000000
_cell_angle_beta 66.792466
_cell_angle_gamma 90.000000
_cell_volume 544.284356
_symmetry_space_group_name_H-M "P 2"
_symmetry_group_IT_number 3
_symmetry_cell_setting 'monoclinic'
loop_
_space_group_symop_operation_xyz
x,y,z
-x,y,-z
loop_
_atom_site_type_symbol
_atom_site_label
_atom_site_fract_x
_atom_site_fract_y
_atom_site_fract_z
Si Si1 0.260992 0.500000 0.580837
Si Si2 0.500000 0.388728 0.000000
Si Si3 0.415822 0.488471 0.741082
Si Si4 0.000000 0.157578 0.500000
Si Si5 0.159427 0.835457 0.337326
Si Si6 0.237350 0.731401 0.919991
Si Si7 0.616728 0.109848 0.831962
O O1 0.500000 0.575832 0.500000
O O2 0.315813 0.415432 0.666801
O O3 0.076590 0.697334 0.618647
O O4 0.148972 0.312618 0.538912
O O5 0.347029 0.545252 0.964247
O O6 0.659038 0.239658 0.912830
O O7 0.226359 0.614385 0.829483
O O8 0.521961 0.286779 0.778320
O O9 0.625190 0.664523 0.693417
O O10 0.838933 0.003899 0.584138
O O11 0.180954 0.973662 0.246442
O O12 0.414809 0.933957 0.884123
O O13 0.000000 0.804976 0.000000
#
# Coordination Sequence:
#
# PCOD9113697 Si02
#       7
#     2   1   2   1   2   2   2
#     4  12  25  43  67  96 130 167 212 268 321 380
#     4  10  22  42  66  96 134 170 214 266 314 372
#     4  10  24  45  65  93 132 169 213 265 317 379
#     4  12  26  42  68  96 126 168 214 264 324 382
#     4  11  24  45  66  94 131 168 215 265 318 381
#     4  10  23  41  65  98 132 169 214 263 317 377
#     4  10  22  43  68  94 130 173 213 260 321 378
#
# _framework density 22.047301000000001
#
# number of rings (size 3 to 8) (size 9 to 14) (size 15 to 20)
#    0.000    1.333    0.000    5.000    0.000   14.000 
#    0.000    5.000    0.000    0.000    0.000    0.000 
#    0.000    0.000    0.000    0.000    0.000    0.000 
#
# Total GULP energy -67171.486088 kJ/mol
# GULP energy per Si atom -5597.623841 kJ/mol
# Density = 2.199712 g / cm^3
# Si number density = 22.047301 Si / 1000 Ang^3
#
#
#
# Elastic Constant Matrix: (Units=GPa)
#
#
# Indices 1 2 3 4 5 6 
#
# 1 59.2230 41.2416 67.6012 0.0000 0.3798 0.0000
# 2 41.2416 131.2747 84.6762 0.0000 -5.9669 0.0000
# 3 67.6012 84.6762 186.4334 0.0000 -3.3299 0.0000
# 4 0.0000 0.0000 0.0000 66.8763 0.0000 -4.5370
# 5 0.3798 -5.9669 -3.3299 0.0000 49.1300 0.0000
# 6 0.0000 0.0000 0.0000 -4.5370 0.0000 11.3665
#
#
#
# Elastic Compliance Matrix: (Units=1/GPa)
#
#
# Indices 1 2 3 4 5 6 
#
# 1 0.029918 -0.003458 -0.009301 0.000000 -0.001282 0.000000
# 2 -0.003458 0.011221 -0.003822 0.000000 0.001130 0.000000
# 3 -0.009301 -0.003822 0.010478 0.000000 0.000318 0.000000
# 4 0.000000 0.000000 0.000000 0.015369 0.000000 0.006135
# 5 -0.001282 0.001130 0.000318 0.000000 0.020523 0.000000
# 6 0.000000 0.000000 0.000000 0.006135 0.000000 0.090427
#
#
# Mechanical properties :
#
#
# Convention : Reuss Voigt Hill
#
# Bulk Modulus (GPa) = 54.18640 84.88544 69.53592
# Shear Modulus (GPa) = 23.01500 37.70203 30.35851
#
# Velocity S-wave (km/s) = 3.23444 4.13976 3.71478
# Velocity P-wave (km/s) = 6.21124 7.83807 7.07159
#
# Compressibility (1/GPa) = 0.01845482
#
# Stress axis : x y z
#
# Youngs Moduli (GPa) = 33.42460 89.11911 95.43838
#
# Poissons Ratio (x) = 0.30820 0.88763
# Poissons Ratio (y) = 0.11559 0.36479
# Poissons Ratio (z) = 0.31087 0.34064
#
# Static dielectric constant tensor:
#      x y z
#    x 1.777010 0.000000 -0.001930 
#    y 0.000000 1.799780 0.000000 
#    z -0.001930 0.000000 1.824920 
# 
# From -- ./inp_files/12838.got.cif
#   From: 2010.05.17/outbox.cif.g08.bks.cpg/sg3_7_cif.got.tgz:12838.got - 2010.06.03 18:33:08.
