data_PCOD9113760
_publ_section_title
;
Structure prediction by ZEFSAII (Michael W. Deem and Ramdas Pophale) SiO2 
 PCOD9113760
Probable space group: P 2
;
_chemical_formula_sum "Si O2"
_cell_formula_units_Z 16
_cell_length_a 14.680217
_cell_length_b 6.598174
_cell_length_c 8.916776
_cell_angle_alpha 90.000000
_cell_angle_beta 58.333439
_cell_angle_gamma 90.000000
_cell_volume 735.112298
_symmetry_space_group_name_H-M "P 2"
_symmetry_group_IT_number 3
_symmetry_cell_setting 'monoclinic'
loop_
_space_group_symop_operation_xyz
x,y,z
-x,y,-z
loop_
_atom_site_type_symbol
_atom_site_label
_atom_site_fract_x
_atom_site_fract_y
_atom_site_fract_z
Si Si1 0.795353 0.549570 0.237444
Si Si2 0.722977 0.499595 0.975486
Si Si3 0.811375 0.174180 0.656823
Si Si4 0.859857 0.762344 0.691210
Si Si5 0.518350 0.559122 0.808933
Si Si6 0.400551 0.283331 0.485085
Si Si7 0.064452 0.519548 0.626749
Si Si8 0.681826 0.886521 0.528311
O O1 0.796216 0.514741 0.059912
O O2 0.709033 0.388119 0.372107
O O3 0.906681 0.510167 0.225456
O O4 0.751571 0.762296 0.344120
O O5 0.603406 0.525083 0.139765
O O6 0.750002 0.314973 0.835067
O O7 0.748724 0.700791 0.858655
O O8 0.892276 0.316749 0.492171
O O9 0.877683 0.999564 0.687257
O O10 0.741004 0.035948 0.600793
O O11 0.860691 0.688126 0.519131
O O12 0.948961 0.613782 0.688163
O O13 0.576815 0.355692 0.703857
O O14 0.595790 0.734235 0.679050
O O15 0.500000 0.579792 0.000000
O O16 0.500000 0.354055 0.500000
O O17 0.386913 0.046299 0.507176
#
# Coordination Sequence:
#
# PCOD9113760 Si02
#       8
#     2   2   2   2   2   2   2   2
#     4  11  23  44  64  97 138 179 213 292 347 405
#     4  11  25  41  65  98 144 173 223 288 350 395
#     4  11  22  45  71 101 132 177 237 286 338 416
#     4  10  23  42  68 101 127 175 229 283 339 419
#     4  11  24  40  62  94 139 176 215 280 330 397
#     4  11  23  40  63  95 131 178 231 268 331 415
#     4  10  22  43  73  95 132 172 226 292 345 408
#     4  11  24  39  71  95 133 182 236 266 336 425
#
# _framework density 21.765383
#
# number of rings (size 3 to 8) (size 9 to 14) (size 15 to 20)
#    0.000    1.250    3.750    1.500    5.250    8.000 
#    0.000    0.000    0.000    4.500    0.000    0.000 
#    0.000    0.000    0.000    0.000    0.000    0.000 
#
# Total GULP energy -89100.008834 kJ/mol
# GULP energy per Si atom -5568.750552 kJ/mol
# Density = 2.171584 g / cm^3
# Si number density = 21.765383 Si / 1000 Ang^3
#
#
#
# Elastic Constant Matrix: (Units=GPa)
#
#
# Indices 1 2 3 4 5 6 
#
# 1 93.3418 36.2782 15.4388 0.0000 15.4083 0.0000
# 2 36.2782 140.7271 31.7010 0.0000 -9.9613 0.0000
# 3 15.4388 31.7010 92.1928 0.0000 0.4886 0.0000
# 4 0.0000 0.0000 0.0000 10.9792 0.0000 -1.5647
# 5 15.4083 -9.9613 0.4886 0.0000 32.7144 0.0000
# 6 0.0000 0.0000 0.0000 -1.5647 0.0000 22.3866
#
#
#
# Elastic Compliance Matrix: (Units=1/GPa)
#
#
# Indices 1 2 3 4 5 6 
#
# 1 0.013604 -0.003835 -0.000919 0.000000 -0.007562 0.000000
# 2 -0.003835 0.008974 -0.002468 0.000000 0.004576 0.000000
# 3 -0.000919 -0.002468 0.011852 0.000000 -0.000495 0.000000
# 4 0.000000 0.000000 0.000000 0.091998 0.000000 0.006430
# 5 -0.007562 0.004576 -0.000495 0.000000 0.035530 0.000000
# 6 0.000000 0.000000 0.000000 0.006430 0.000000 0.045119
#
#
# Mechanical properties :
#
#
# Convention : Reuss Voigt Hill
#
# Bulk Modulus (GPa) = 50.03569 54.78865 52.41217
# Shear Modulus (GPa) = 21.91210 29.40560 25.65885
#
# Velocity S-wave (km/s) = 3.17636 3.67962 3.43721
# Velocity P-wave (km/s) = 6.04077 6.57874 6.31549
#
# Compressibility (1/GPa) = 0.01998573
#
# Stress axis : x y z
#
# Youngs Moduli (GPa) = 73.50694 111.42719 84.37369
#
# Poissons Ratio (x) = 0.42734 0.07757
# Poissons Ratio (y) = 0.28191 0.20823
# Poissons Ratio (z) = 0.06758 0.27499
#
# Static dielectric constant tensor:
#      x y z
#    x 2.063930 0.000000 -0.031920 
#    y 0.000000 1.787090 0.000000 
#    z -0.031920 0.000000 1.854230 
# 
# From -- ./inp_files/8905.got.cif
#   From: 2010.05.17/outbox.cif.g08.bks.cpg/sg3_5_cif.got.tgz:8905.got - 2010.06.03 18:33:08.
