data_PCOD9113957
_publ_section_title
;
Structure prediction by ZEFSAII (Michael W. Deem and Ramdas Pophale) SiO2 
 PCOD9113957
Probable space group: P 2
;
_chemical_formula_sum "Si O2"
_cell_formula_units_Z 16
_cell_length_a 10.013932
_cell_length_b 5.350829
_cell_length_c 18.048830
_cell_angle_alpha 90.000000
_cell_angle_beta 141.321677
_cell_angle_gamma 90.000000
_cell_volume 604.391285
_symmetry_space_group_name_H-M "P 2"
_symmetry_group_IT_number 3
_symmetry_cell_setting 'monoclinic'
loop_
_space_group_symop_operation_xyz
x,y,z
-x,y,-z
loop_
_atom_site_type_symbol
_atom_site_label
_atom_site_fract_x
_atom_site_fract_y
_atom_site_fract_z
Si Si1 0.785701 0.886890 0.875759
Si Si2 0.359889 0.433788 0.716976
Si Si3 0.611290 0.676452 0.931773
Si Si4 0.812855 0.510120 0.158493
Si Si5 0.800623 0.784026 0.609401
Si Si6 0.103239 0.959333 0.623553
Si Si7 0.113288 0.155769 0.224453
Si Si8 0.466799 0.556033 0.352273
O O1 0.651860 0.911739 0.894855
O O2 0.630662 0.752110 0.749153
O O3 0.882382 0.095132 0.861616
O O4 0.000000 0.753812 0.000000
O O5 0.586427 0.471059 0.856288
O O6 0.227401 0.692849 0.671191
O O7 0.388446 0.394102 0.641700
O O8 0.248137 0.196154 0.703238
O O9 0.397055 0.599846 0.886567
O O10 0.793302 0.658721 0.072045
O O11 0.013117 0.586198 0.293885
O O12 0.880436 0.235127 0.157198
O O13 0.391747 0.665887 0.520532
O O14 0.914923 0.963581 0.600647
O O15 0.785689 0.942003 0.678809
O O16 0.000000 0.998584 0.500000
O O17 0.276829 0.387833 0.300821
#
# Coordination Sequence:
#
# PCOD9113957 Si02
#       8
#     2   2   2   2   2   2   2   2
#     4  11  26  51  78 114 156 213 270 339 411 505
#     4  11  25  47  78 118 154 208 271 338 407 487
#     4  10  23  50  79 111 160 210 274 337 414 497
#     4  11  25  49  75 116 159 209 270 343 416 492
#     4  12  27  48  77 113 159 212 266 337 418 498
#     4  12  25  47  78 118 160 207 266 341 414 491
#     4  12  28  48  76 112 157 212 270 338 420 495
#     4  11  28  48  77 113 156 210 271 335 412 500
#
# _framework density 26.472918
#
# number of rings (size 3 to 8) (size 9 to 14) (size 15 to 20)
#    0.000    0.750    2.500    3.375    3.500    6.500 
#    2.250    3.750    0.000    0.000    0.000    0.000 
#    0.000    0.000    0.000    0.000    0.000    0.000 
#
# Total GULP energy -89271.503736 kJ/mol
# GULP energy per Si atom -5579.468983 kJ/mol
# Density = 2.641266 g / cm^3
# Si number density = 26.472918 Si / 1000 Ang^3
#
#
#
# Elastic Constant Matrix: (Units=GPa)
#
#
# Indices 1 2 3 4 5 6 
#
# 1 181.1075 27.2410 49.6046 0.0000 -28.1383 0.0000
# 2 27.2410 73.0604 26.3056 0.0000 11.3745 0.0000
# 3 49.6046 26.3056 173.9585 0.0000 -18.1130 0.0000
# 4 0.0000 0.0000 0.0000 18.7614 0.0000 22.6236
# 5 -28.1383 11.3745 -18.1130 0.0000 50.5112 0.0000
# 6 0.0000 0.0000 0.0000 22.6236 0.0000 10.5948
#
#
#
# Elastic Compliance Matrix: (Units=1/GPa)
#
#
# Indices 1 2 3 4 5 6 
#
# 1 0.006879 -0.002795 -0.001116 0.000000 0.004061 0.000000
# 2 -0.002795 0.016524 -0.002339 0.000000 -0.006117 0.000000
# 3 -0.001116 -0.002339 0.006659 0.000000 0.002293 0.000000
# 4 0.000000 0.000000 0.000000 -0.033843 0.000000 0.072267
# 5 0.004061 -0.006117 0.002293 0.000000 0.024260 0.000000
# 6 0.000000 0.000000 0.000000 0.072267 0.000000 -0.059930
#
#
# Mechanical properties :
#
#
# Convention : Reuss Voigt Hill
#
# Bulk Modulus (GPa) = 56.94047 70.49210 63.71628
# Shear Modulus (GPa) = -236.97545 37.63851 -99.66847
#
# Velocity S-wave (km/s) = -9.47156 3.77473 -6.14255
# Velocity P-wave (km/s) = 9.90244 6.75899 5.11734
#
# Compressibility (1/GPa) = 0.01756220
#
# Stress axis : x y z
#
# Youngs Moduli (GPa) = 145.37761 60.51889 150.17129
#
# Poissons Ratio (x) = 0.16916 0.16758
# Poissons Ratio (y) = 0.40636 0.35118
# Poissons Ratio (z) = 0.16223 0.14152
#
# Static dielectric constant tensor:
#      x y z
#    x 2.280450 0.000000 0.034310 
#    y 0.000000 2.184150 0.000000 
#    z 0.034310 0.000000 2.088360 
# 
# From -- ./inp_files/14871.got.cif
#   From: 2010.05.17/outbox.cif.g08.bks.cpg/sg3_8_cif.got.tgz:14871.got - 2010.06.03 18:33:08.
