data_PCOD9113546
_publ_section_title
;
Structure prediction by ZEFSAII (Michael W. Deem and Ramdas Pophale) SiO2 
 PCOD9113546
Probable space group: P 2
;
_chemical_formula_sum "Si O2"
_cell_formula_units_Z 15
_cell_length_a 9.426046
_cell_length_b 7.761155
_cell_length_c 18.802313
_cell_angle_alpha 90.000000
_cell_angle_beta 147.357261
_cell_angle_gamma 90.000000
_cell_volume 741.954662
_symmetry_space_group_name_H-M "P 2"
_symmetry_group_IT_number 3
_symmetry_cell_setting 'monoclinic'
loop_
_space_group_symop_operation_xyz
x,y,z
-x,y,-z
loop_
_atom_site_type_symbol
_atom_site_label
_atom_site_fract_x
_atom_site_fract_y
_atom_site_fract_z
Si Si1 0.333427 0.717330 0.282711
Si Si2 0.144641 0.454579 0.636518
Si Si3 0.554403 0.760012 0.827026
Si Si4 0.244856 0.749222 0.935540
Si Si5 0.603401 0.404105 0.463707
Si Si6 0.347421 0.018017 0.509999
Si Si7 0.500000 0.085879 0.000000
Si Si8 0.268617 0.107713 0.754076
O O1 0.291393 0.757352 0.181952
O O2 0.459743 0.532199 0.349923
O O3 0.057593 0.713088 0.208800
O O4 0.543086 0.860025 0.397945
O O5 0.323181 0.620854 0.719273
O O6 0.283692 0.271951 0.709052
O O7 0.000000 0.452557 0.500000
O O8 0.909034 0.454891 0.593975
O O9 0.436557 0.947766 0.795519
O O10 0.708082 0.705652 0.962593
O O11 0.500000 0.676189 0.000000
O O12 0.279597 0.953797 0.936717
O O13 0.500000 0.420070 0.500000
O O14 0.576163 0.206422 0.427931
O O15 0.500000 0.001104 0.500000
O O16 0.031763 0.035157 0.367694
O O17 0.626354 0.167927 0.123600
#
# Coordination Sequence:
#
# PCOD9113546 Si02
#       8
#     2   2   2   2   2   2   1   2
#     4  12  22  38  66  86 125 167 203 261 320 362
#     4  11  23  40  61  95 131 160 210 264 308 380
#     4  11  24  39  61  93 123 168 209 250 321 377
#     4   9  22  42  64  87 121 161 215 260 304 386
#     4  10  23  38  57  92 126 154 204 257 309 372
#     4  10  22  37  60  96 123 160 207 261 314 367
#     4   8  18  42  62  92 120 162 218 254 294 390
#     4  10  22  39  65  90 133 167 208 255 317 365
#
# _framework density 20.21687
#
# number of rings (size 3 to 8) (size 9 to 14) (size 15 to 20)
#    0.400    1.333    1.333    2.400    5.600    0.000 
#    1.200    2.667    0.000    4.800    0.000    0.000 
#    0.000    0.000    0.000    0.000    0.000    0.000 
#
# Total GULP energy -83619.034139 kJ/mol
# GULP energy per Si atom -5574.602276 kJ/mol
# Density = 2.017086 g / cm^3
# Si number density = 20.216870 Si / 1000 Ang^3
#
#
#
# Elastic Constant Matrix: (Units=GPa)
#
#
# Indices 1 2 3 4 5 6 
#
# 1 73.6056 8.7775 13.3828 0.0000 7.2448 0.0000
# 2 8.7775 62.9202 30.5051 0.0000 -3.4087 0.0000
# 3 13.3828 30.5051 74.0071 0.0000 -5.3773 0.0000
# 4 0.0000 0.0000 0.0000 -26.5972 0.0000 -39.2946
# 5 7.2448 -3.4087 -5.3773 0.0000 37.5720 0.0000
# 6 0.0000 0.0000 0.0000 -39.2946 0.0000 -14.6869
#
#
#
# Elastic Compliance Matrix: (Units=1/GPa)
#
#
# Indices 1 2 3 4 5 6 
#
# 1 0.014467 -0.001014 -0.002433 0.000000 -0.003230 0.000000
# 2 -0.001014 0.019949 -0.007977 0.000000 0.000864 0.000000
# 3 -0.002433 -0.007977 0.017403 0.000000 0.002236 0.000000
# 4 0.000000 0.000000 0.000000 0.012733 0.000000 -0.034067
# 5 -0.003230 0.000864 0.002236 0.000000 0.027637 0.000000
# 6 0.000000 0.000000 0.000000 -0.034067 0.000000 0.023059
#
#
# Mechanical properties :
#
#
# Convention : Reuss Voigt Hill
#
# Bulk Modulus (GPa) = 34.51627 35.09595 34.80611
# Shear Modulus (GPa) = 33.84077 9.78208 21.81142
#
# Velocity S-wave (km/s) = 4.09576 2.20206 3.28818
# Velocity P-wave (km/s) = 6.28307 4.88496 5.62761
#
# Compressibility (1/GPa) = 0.02897185
#
# Stress axis : x y z
#
# Youngs Moduli (GPa) = 69.12260 50.12895 57.46294
#
# Poissons Ratio (x) = 0.05081 0.13981
# Poissons Ratio (y) = 0.07006 0.45836
# Poissons Ratio (z) = 0.16817 0.39986
#
# Static dielectric constant tensor:
#      x y z
#    x 1.768210 0.000000 0.012940 
#    y 0.000000 1.705220 0.000000 
#    z 0.012940 0.000000 1.739640 
# 
# From -- ./inp_files/15072.got.cif
#   From: 2010.05.17/outbox.cif.g08.bks.cpg/sg3_8_cif.got.tgz:15072.got - 2010.06.03 18:33:08.
