data_PCOD9113144
_publ_section_title
;
Structure prediction by ZEFSAII (Michael W. Deem and Ramdas Pophale) SiO2 
 PCOD9113144
Probable space group: P 2
;
_chemical_formula_sum "Si O2"
_cell_formula_units_Z 15
_cell_length_a 18.977504
_cell_length_b 9.193989
_cell_length_c 10.849433
_cell_angle_alpha 90.000000
_cell_angle_beta 158.845776
_cell_angle_gamma 90.000000
_cell_volume 683.144262
_symmetry_space_group_name_H-M "P 2"
_symmetry_group_IT_number 3
_symmetry_cell_setting 'monoclinic'
loop_
_space_group_symop_operation_xyz
x,y,z
-x,y,-z
loop_
_atom_site_type_symbol
_atom_site_label
_atom_site_fract_x
_atom_site_fract_y
_atom_site_fract_z
Si Si1 0.317044 0.525630 0.603000
Si Si2 0.785748 0.957862 0.386682
Si Si3 0.221689 0.843665 0.374284
Si Si4 0.500000 0.216898 0.500000
Si Si5 0.282549 0.289423 0.707324
Si Si6 0.610144 0.448069 0.882404
Si Si7 0.236683 0.771927 0.888188
Si Si8 0.746303 0.942364 0.837647
O O1 0.218753 0.678019 0.415653
O O2 0.187854 0.397179 0.451551
O O3 0.404279 0.471356 0.616364
O O4 0.500000 0.554235 0.000000
O O5 0.694318 0.929151 0.372161
O O6 0.710560 0.853097 0.154714
O O7 0.771028 0.128813 0.341598
O O8 0.018713 0.933202 0.775285
O O9 0.311727 0.867389 0.386549
O O10 0.000000 0.897180 0.000000
O O11 0.593476 0.326688 0.751275
O O12 0.659354 0.105488 0.702185
O O13 0.500000 0.274259 0.000000
O O14 0.264478 0.382291 0.801877
O O15 0.685272 0.607944 0.972100
O O16 0.000000 0.766347 0.500000
O O17 0.307019 0.862932 0.121471
#
# Coordination Sequence:
#
# PCOD9113144 Si02
#       8
#     2   2   2   1   2   2   2   2
#     4   9  20  39  59  90 120 155 204 249 304 366
#     4  10  20  41  66  89 120 159 207 252 306 365
#     4  10  22  40  61  92 121 156 206 256 306 364
#     4  12  26  40  54  88 132 164 206 242 314 376
#     4   9  20  37  61  92 120 150 202 252 304 365
#     4  10  23  38  57  88 120 160 200 254 296 369
#     4  10  22  41  65  90 116 161 213 254 303 367
#     4  10  25  40  60  90 125 163 205 255 306 369
#
# _framework density 21.957294000000001
#
# number of rings (size 3 to 8) (size 9 to 14) (size 15 to 20)
#    0.000    2.400    0.000    2.400    7.467    2.667 
#    2.400    0.000    0.000    0.000    0.000    0.000 
#    0.000    0.000    0.000    0.000    0.000    0.000 
#
# Total GULP energy -83613.439653 kJ/mol
# GULP energy per Si atom -5574.229310 kJ/mol
# Density = 2.190732 g / cm^3
# Si number density = 21.957294 Si / 1000 Ang^3
#
#
#
# Elastic Constant Matrix: (Units=GPa)
#
#
# Indices 1 2 3 4 5 6 
#
# 1 97.6794 38.9460 34.8182 0.0000 -34.3867 0.0000
# 2 38.9460 160.1006 32.5585 0.0000 -40.4575 0.0000
# 3 34.8182 32.5585 77.8547 0.0000 -17.8043 0.0000
# 4 0.0000 0.0000 0.0000 -13.5466 0.0000 -32.3537
# 5 -34.3867 -40.4575 -17.8043 0.0000 25.0778 0.0000
# 6 0.0000 0.0000 0.0000 -32.3537 0.0000 28.2703
#
#
#
# Elastic Compliance Matrix: (Units=1/GPa)
#
#
# Indices 1 2 3 4 5 6 
#
# 1 0.021852 0.003959 -0.003719 0.000000 0.033710 0.000000
# 2 0.003959 0.011288 -0.001296 0.000000 0.022719 0.000000
# 3 -0.003719 -0.001296 0.016004 0.000000 0.004172 0.000000
# 4 0.000000 0.000000 0.000000 -0.019773 0.000000 -0.022629
# 5 0.033710 0.022719 0.004172 0.000000 0.125713 0.000000
# 6 0.000000 0.000000 0.000000 -0.022629 0.000000 0.009475
#
#
# Mechanical properties :
#
#
# Convention : Reuss Voigt Hill
#
# Bulk Modulus (GPa) = 21.26216 60.92003 41.09109
# Shear Modulus (GPa) = 27.42031 23.24778 25.33405
#
# Velocity S-wave (km/s) = 3.53767 3.25741 3.40043
# Velocity P-wave (km/s) = 5.13724 6.47708 5.84568
#
# Compressibility (1/GPa) = 0.04703191
#
# Stress axis : x y z
#
# Youngs Moduli (GPa) = 45.76257 88.59341 62.48569
#
# Poissons Ratio (x) = -0.35076 0.23240
# Poissons Ratio (y) = -0.18119 0.08095
# Poissons Ratio (z) = 0.17021 0.11477
#
# Static dielectric constant tensor:
#      x y z
#    x 1.902850 0.000000 -0.018960 
#    y 0.000000 1.800590 0.000000 
#    z -0.018960 0.000000 1.886720 
# 
# From -- ./inp_files/9167.got.cif
#   From: 2010.05.17/outbox.cif.g08.bks.cpg/sg3_5_cif.got.tgz:9167.got - 2010.06.03 18:33:08.
