data_PCOD9113239
_publ_section_title
;
Structure prediction by ZEFSAII (Michael W. Deem and Ramdas Pophale) SiO2 
 PCOD9113239
Probable space group: P 2
;
_chemical_formula_sum "Si O2"
_cell_formula_units_Z 16
_cell_length_a 21.291856
_cell_length_b 4.810445
_cell_length_c 5.150303
_cell_angle_alpha 90.000000
_cell_angle_beta 83.600621
_cell_angle_gamma 90.000000
_cell_volume 524.224187
_symmetry_space_group_name_H-M "P 2"
_symmetry_group_IT_number 3
_symmetry_cell_setting 'monoclinic'
loop_
_space_group_symop_operation_xyz
x,y,z
-x,y,-z
loop_
_atom_site_type_symbol
_atom_site_label
_atom_site_fract_x
_atom_site_fract_y
_atom_site_fract_z
Si Si1 0.566793 0.267590 0.530606
Si Si2 0.798404 0.979260 0.990287
Si Si3 0.934304 0.442993 0.591034
Si Si4 0.295524 0.231175 0.659862
Si Si5 0.798967 0.490560 0.584784
Si Si6 0.307011 0.624427 0.134364
Si Si7 0.565164 0.650669 0.033471
Si Si8 0.933241 0.064271 0.092415
O O1 0.500000 0.119899 0.500000
O O2 0.632353 0.110960 0.448599
O O3 0.566120 0.401773 0.817324
O O4 0.565483 0.521163 0.319260
O O5 0.739957 0.945132 0.219280
O O6 0.801717 0.229094 0.783554
O O7 0.867236 0.911012 0.062124
O O8 0.765950 0.743324 0.796799
O O9 0.870423 0.608409 0.563354
O O10 0.934125 0.313351 0.877469
O O11 0.000000 0.593365 0.500000
O O12 0.933018 0.194272 0.378459
O O13 0.211140 0.355260 0.692001
O O14 0.311613 0.400486 0.912733
O O15 0.705160 0.448380 0.595954
O O16 0.369207 0.800121 0.073581
O O17 0.500000 0.803372 0.000000
O O18 0.000000 0.915727 0.000000
#
# Coordination Sequence:
#
# PCOD9113239 Si02
#       8
#     2   2   2   2   2   2   2   2
#     4   9  17  30  55  85 114 163 214 256 326 394
#     4  10  22  38  61  96 122 171 218 266 337 397
#     4  10  21  39  64  88 125 170 213 269 337 396
#     4  11  19  39  61  85 134 168 211 289 325 388
#     4  10  21  37  59  92 125 166 224 267 333 407
#     4   9  21  36  56  91 120 160 224 256 329 403
#     4   9  16  31  55  83 118 160 209 266 320 388
#     4  10  21  40  63  90 124 170 213 267 337 401
#
# _framework density 30.521291999999999
#
# number of rings (size 3 to 8) (size 9 to 14) (size 15 to 20)
#    0.750    1.500    2.500    0.750    0.000    1.000 
#    2.250    5.000    0.000   12.000    0.000    0.000 
#    0.000    0.000    0.000    0.000    0.000    0.000 
#
# Total GULP energy -89360.354144 kJ/mol
# GULP energy per Si atom -5585.022134 kJ/mol
# Density = 3.045182 g / cm^3
# Si number density = 30.521292 Si / 1000 Ang^3
#
#
#
# Elastic Constant Matrix: (Units=GPa)
#
#
# Indices 1 2 3 4 5 6 
#
# 1 277.0059 32.3681 19.0872 0.0000 -51.1698 0.0000
# 2 32.3681 74.4863 37.6517 0.0000 -11.2997 0.0000
# 3 19.0872 37.6517 176.1475 0.0000 5.3659 0.0000
# 4 0.0000 0.0000 0.0000 25.2893 0.0000 -18.4647
# 5 -51.1698 -11.2997 5.3659 0.0000 50.8524 0.0000
# 6 0.0000 0.0000 0.0000 -18.4647 0.0000 -6.7870
#
#
#
# Elastic Compliance Matrix: (Units=1/GPa)
#
#
# Indices 1 2 3 4 5 6 
#
# 1 0.004581 -0.001126 -0.000390 0.000000 0.004401 0.000000
# 2 -0.001126 0.016054 -0.003395 0.000000 0.002792 0.000000
# 3 -0.000390 -0.003395 0.006501 0.000000 -0.001832 0.000000
# 4 0.000000 0.000000 0.000000 0.013241 0.000000 -0.036023
# 5 0.004401 0.002792 -0.001832 0.000000 0.024907 0.000000
# 6 0.000000 0.000000 0.000000 -0.036023 0.000000 -0.049337
#
#
# Mechanical properties :
#
#
# Convention : Reuss Voigt Hill
#
# Bulk Modulus (GPa) = 57.75293 78.42819 68.09056
# Shear Modulus (GPa) = 158.52675 43.10644 100.81660
#
# Velocity S-wave (km/s) = 7.21474 3.76219 5.75354
# Velocity P-wave (km/s) = 9.40035 6.68013 8.15447
#
# Compressibility (1/GPa) = 0.01731514
#
# Stress axis : x y z
#
# Youngs Moduli (GPa) = 218.27167 62.28892 153.82903
#
# Poissons Ratio (x) = 0.07015 0.05996
# Poissons Ratio (y) = 0.24582 0.52219
# Poissons Ratio (z) = 0.08508 0.21145
#
# Static dielectric constant tensor:
#      x y z
#    x 3.686860 0.000000 -0.315980 
#    y 0.000000 3.046580 0.000000 
#    z -0.315980 0.000000 2.583840 
# 
# From -- ./inp_files/3974.got.cif
#   From: 2010.05.17/outbox.cif.g08.bks.cpg/sg3_2_cif.got.tgz:3974.got - 2010.06.03 18:33:08.
