data_PCOD9113683
_publ_section_title
;
Structure prediction by ZEFSAII (Michael W. Deem and Ramdas Pophale) SiO2 
 PCOD9113683
Probable space group: P 2
;
_chemical_formula_sum "Si O2"
_cell_formula_units_Z 15
_cell_length_a 5.463861
_cell_length_b 8.572776
_cell_length_c 16.400585
_cell_angle_alpha 90.000000
_cell_angle_beta 64.806262
_cell_angle_gamma 90.000000
_cell_volume 695.133737
_symmetry_space_group_name_H-M "P 2"
_symmetry_group_IT_number 3
_symmetry_cell_setting 'monoclinic'
loop_
_space_group_symop_operation_xyz
x,y,z
-x,y,-z
loop_
_atom_site_type_symbol
_atom_site_label
_atom_site_fract_x
_atom_site_fract_y
_atom_site_fract_z
Si Si1 0.272161 0.568790 0.194912
Si Si2 0.738820 0.982962 0.635034
Si Si3 0.834627 0.395143 0.357196
Si Si4 0.488205 0.696328 0.598623
Si Si5 0.006385 0.874528 0.256135
Si Si6 0.000000 0.235010 0.500000
Si Si7 0.879236 0.441694 0.106812
Si Si8 0.225431 0.146274 0.779451
O O1 0.246383 0.754441 0.208516
O O2 0.584779 0.522514 0.151991
O O3 0.107198 0.488603 0.292481
O O4 0.097875 0.512186 0.140465
O O5 0.500562 0.049529 0.726412
O O6 0.772477 0.114041 0.562782
O O7 0.720595 0.808057 0.601569
O O8 0.987466 0.971742 0.660826
O O9 0.577515 0.512165 0.387032
O O10 0.802247 0.260536 0.294798
O O11 0.889339 0.333348 0.439951
O O12 0.500000 0.728305 0.500000
O O13 0.248723 0.764590 0.690007
O O14 0.988547 0.005772 0.190737
O O15 0.814042 0.262897 0.140681
O O16 0.000000 0.454563 0.000000
#
# Coordination Sequence:
#
# PCOD9113683 Si02
#       8
#     2   2   2   2   2   1   2   2
#     4  10  24  44  72 100 135 182 223 276 342 418
#     4  11  23  37  62  84 132 178 223 274 337 397
#     4  10  23  40  59  95 129 174 233 279 333 397
#     4  10  23  37  56  86 125 175 233 286 325 389
#     4  10  22  42  62  92 128 182 223 272 342 408
#     4  12  22  36  62  92 132 176 232 294 330 388
#     4  11  24  46  76 104 136 168 223 279 347 417
#     4  10  23  40  65  96 126 177 217 278 345 409
#
# _framework density 21.578582000000001
#
# number of rings (size 3 to 8) (size 9 to 14) (size 15 to 20)
#    0.000    1.600    1.333    2.000   13.067    2.133 
#    0.000    0.667    2.933    0.000    0.000    0.000 
#    0.000    0.000    0.000    0.000    0.000    0.000 
#
# Total GULP energy -83623.690571 kJ/mol
# GULP energy per Si atom -5574.912705 kJ/mol
# Density = 2.152947 g / cm^3
# Si number density = 21.578582 Si / 1000 Ang^3
#
#
#
# Elastic Constant Matrix: (Units=GPa)
#
#
# Indices 1 2 3 4 5 6 
#
# 1 56.2776 30.7593 17.2999 0.0000 -1.2884 0.0000
# 2 30.7593 130.5787 32.6302 0.0000 0.5476 0.0000
# 3 17.2999 32.6302 81.2188 0.0000 5.7786 0.0000
# 4 0.0000 0.0000 0.0000 2.8108 0.0000 7.9903
# 5 -1.2884 0.5476 5.7786 0.0000 26.8147 0.0000
# 6 0.0000 0.0000 0.0000 7.9903 0.0000 21.6298
#
#
#
# Elastic Compliance Matrix: (Units=1/GPa)
#
#
# Indices 1 2 3 4 5 6 
#
# 1 0.021013 -0.004233 -0.002898 0.000000 0.001720 0.000000
# 2 -0.004233 0.009374 -0.002881 0.000000 0.000226 0.000000
# 3 -0.002898 -0.002881 0.014312 0.000000 -0.003165 0.000000
# 4 0.000000 0.000000 0.000000 -7.099729 0.000000 2.622711
# 5 0.001720 0.000226 -0.003165 0.000000 0.038053 0.000000
# 6 0.000000 0.000000 0.000000 2.622711 0.000000 -0.922623
#
#
# Mechanical properties :
#
#
# Convention : Reuss Voigt Hill
#
# Bulk Modulus (GPa) = 40.52390 47.71709 44.12050
# Shear Modulus (GPa) = -0.63200 22.74347 11.05573
#
# Velocity S-wave (km/s) = -0.54178 3.25003 2.26596
# Velocity P-wave (km/s) = 4.29291 6.02037 5.22847
#
# Compressibility (1/GPa) = 0.02467680
#
# Stress axis : x y z
#
# Youngs Moduli (GPa) = 47.59019 106.67559 69.87111
#
# Poissons Ratio (x) = 0.45155 0.20246
# Poissons Ratio (y) = 0.20145 0.20127
# Poissons Ratio (z) = 0.13790 0.30729
#
# Static dielectric constant tensor:
#      x y z
#    x 1.901380 0.000000 -0.009120 
#    y 0.000000 1.834600 0.000000 
#    z -0.009120 0.000000 1.770150 
# 
# From -- ./inp_files/3178.got.cif
#   From: 2010.05.17/outbox.cif.g08.bks.cpg/sg3_2_cif.got.tgz:3178.got - 2010.06.03 18:33:08.
