data_PCOD9113391
_publ_section_title
;
Structure prediction by ZEFSAII (Michael W. Deem and Ramdas Pophale) SiO2 
 PCOD9113391
Probable space group: P 2
;
_chemical_formula_sum "Si O2"
_cell_formula_units_Z 15
_cell_length_a 4.851602
_cell_length_b 5.226582
_cell_length_c 21.918202
_cell_angle_alpha 90.000000
_cell_angle_beta 100.270286
_cell_angle_gamma 90.000000
_cell_volume 546.881317
_symmetry_space_group_name_H-M "P 2"
_symmetry_group_IT_number 3
_symmetry_cell_setting 'monoclinic'
loop_
_space_group_symop_operation_xyz
x,y,z
-x,y,-z
loop_
_atom_site_type_symbol
_atom_site_label
_atom_site_fract_x
_atom_site_fract_y
_atom_site_fract_z
Si Si1 0.809705 0.689900 0.907404
Si Si2 0.060828 0.443545 0.761469
Si Si3 0.262391 0.221282 0.539283
Si Si4 0.500000 0.966450 0.000000
Si Si5 0.300676 0.334998 0.890494
Si Si6 0.110996 0.566375 0.634962
Si Si7 0.619996 0.916834 0.652873
Si Si8 0.579152 0.808373 0.779245
O O1 0.611306 0.441162 0.894137
O O2 0.702333 0.880125 0.849766
O O3 0.113965 0.577763 0.905434
O O4 0.714104 0.808366 0.967028
O O5 0.180454 0.261564 0.818986
O O6 0.057317 0.375217 0.689843
O O7 0.268564 0.693784 0.771766
O O8 0.767950 0.561145 0.769475
O O9 0.500000 0.298853 0.500000
O O10 0.088299 0.436842 0.568823
O O11 0.000000 0.063426 0.500000
O O12 0.450837 0.089499 0.599169
O O13 0.683757 0.134329 0.054470
O O14 0.426656 0.663835 0.649513
O O15 0.910129 0.808547 0.638548
O O16 0.625196 0.999327 0.724264
#
# Coordination Sequence:
#
# PCOD9113391 Si02
#       8
#     2   2   2   1   2   2   2   2
#     4  10  23  42  62  92 132 167 216 279 322 383
#     4   8  16  35  62  89 120 160 209 271 330 370
#     4  12  26  41  60  94 136 175 216 263 320 392
#     4  12  26  40  68  96 128 190 226 246 340 412
#     4  10  23  42  62  92 132 167 216 279 322 383
#     4  10  21  40  66  92 123 168 217 267 325 383
#     4  10  21  40  66  92 123 168 217 267 325 383
#     4   8  16  35  62  89 120 160 209 271 330 370
#
# _framework density 27.428253999999999
#
# number of rings (size 3 to 8) (size 9 to 14) (size 15 to 20)
#    0.000    2.133    0.000    2.000    0.000    7.467 
#    0.000    0.000    0.000   19.200    0.000    0.000 
#    0.000    0.000    0.000    0.267    0.000    0.000 
#
# Total GULP energy -84009.148999 kJ/mol
# GULP energy per Si atom -5600.609933 kJ/mol
# Density = 2.736583 g / cm^3
# Si number density = 27.428254 Si / 1000 Ang^3
#
#
#
# Elastic Constant Matrix: (Units=GPa)
#
#
# Indices 1 2 3 4 5 6 
#
# 1 125.4705 26.9091 45.8099 0.0000 -4.2466 0.0000
# 2 26.9091 74.3395 43.7327 0.0000 -8.5263 0.0000
# 3 45.8099 43.7327 211.2960 0.0000 -29.6422 0.0000
# 4 0.0000 0.0000 0.0000 39.2756 0.0000 -4.3213
# 5 -4.2466 -8.5263 -29.6422 0.0000 49.1313 0.0000
# 6 0.0000 0.0000 0.0000 -4.3213 0.0000 24.6768
#
#
#
# Elastic Compliance Matrix: (Units=1/GPa)
#
#
# Indices 1 2 3 4 5 6 
#
# 1 0.009033 -0.002432 -0.001535 0.000000 -0.000567 0.000000
# 2 -0.002432 0.016001 -0.002649 0.000000 0.000969 0.000000
# 3 -0.001535 -0.002649 0.006042 0.000000 0.003053 0.000000
# 4 0.000000 0.000000 0.000000 0.025961 0.000000 0.004546
# 5 -0.000567 0.000969 0.003053 0.000000 0.022315 0.000000
# 6 0.000000 0.000000 0.000000 0.004546 0.000000 0.041320
#
#
# Mechanical properties :
#
#
# Convention : Reuss Voigt Hill
#
# Bulk Modulus (GPa) = 56.03624 71.55659 63.79642
# Shear Modulus (GPa) = 35.75240 42.26035 39.00638
#
# Velocity S-wave (km/s) = 3.61430 3.92951 3.77520
# Velocity P-wave (km/s) = 6.15565 6.83618 6.50482
#
# Compressibility (1/GPa) = 0.01784559
#
# Stress axis : x y z
#
# Youngs Moduli (GPa) = 110.70967 62.49456 165.51092
#
# Poissons Ratio (x) = 0.15198 0.25398
# Poissons Ratio (y) = 0.26923 0.43839
# Poissons Ratio (z) = 0.16989 0.16553
#
# Static dielectric constant tensor:
#      x y z
#    x 2.038820 0.000000 0.064640 
#    y 0.000000 2.109490 0.000000 
#    z 0.064640 0.000000 2.348240 
# 
# From -- ./inp_files/15598.got.cif
#   From: 2010.05.17/outbox.cif.g08.bks.cpg/sg3_8_cif.got.tgz:15598.got - 2010.06.03 18:33:08.
