data_PCOD9113928
_publ_section_title
;
Structure prediction by ZEFSAII (Michael W. Deem and Ramdas Pophale) SiO2 
 PCOD9113928
Probable space group: P 2
;
_chemical_formula_sum "Si O2"
_cell_formula_units_Z 15
_cell_length_a 21.597987
_cell_length_b 5.111084
_cell_length_c 7.900474
_cell_angle_alpha 90.000000
_cell_angle_beta 46.503622
_cell_angle_gamma 90.000000
_cell_volume 632.656101
_symmetry_space_group_name_H-M "P 2"
_symmetry_group_IT_number 3
_symmetry_cell_setting 'monoclinic'
loop_
_space_group_symop_operation_xyz
x,y,z
-x,y,-z
loop_
_atom_site_type_symbol
_atom_site_label
_atom_site_fract_x
_atom_site_fract_y
_atom_site_fract_z
Si Si1 0.945976 0.882890 0.770825
Si Si2 0.197927 0.552546 0.611793
Si Si3 0.435107 0.802980 0.780023
Si Si4 0.500000 0.103187 0.000000
Si Si5 0.739465 0.076822 0.878249
Si Si6 0.885499 0.026258 0.368348
Si Si7 0.828779 0.376786 0.983256
Si Si8 0.360638 0.418889 0.162958
O O1 0.902876 0.596648 0.836409
O O2 0.000000 0.925786 0.500000
O O3 0.017068 0.959288 0.775937
O O4 0.872460 0.096675 0.920617
O O5 0.145703 0.819343 0.711497
O O6 0.289128 0.618842 0.356230
O O7 0.138256 0.326097 0.636480
O O8 0.220167 0.448876 0.754857
O O9 0.500000 0.805470 0.500000
O O10 0.412767 0.521527 0.903596
O O11 0.473403 0.946187 0.879543
O O12 0.341631 0.916806 0.898711
O O13 0.422758 0.301537 0.184193
O O14 0.767171 0.325008 0.940658
O O15 0.699332 0.185895 0.782340
O O16 0.827869 0.952640 0.644473
#
# Coordination Sequence:
#
# PCOD9113928 Si02
#       8
#     2   2   2   1   2   2   2   2
#     4  12  26  43  71 102 143 188 249 308 358 429
#     4  11  25  44  71 102 142 192 235 302 366 442
#     4  11  24  46  76 107 143 194 248 310 375 455
#     4  10  24  46  68 102 142 178 248 296 380 434
#     4  10  24  44  68 102 145 186 240 295 370 446
#     4  11  23  46  72  95 146 192 234 297 373 428
#     4  12  27  43  69 110 140 190 250 297 365 438
#     4  10  23  45  68 101 139 188 229 302 375 439
#
# _framework density 23.709565000000001
#
# number of rings (size 3 to 8) (size 9 to 14) (size 15 to 20)
#    0.000    1.067    2.667    2.400    7.467    5.333 
#    2.400    0.000    0.000    0.000    0.000    0.000 
#    0.000    0.000    0.000    0.000    0.000    0.000 
#
# Total GULP energy -83649.512001 kJ/mol
# GULP energy per Si atom -5576.634133 kJ/mol
# Density = 2.365560 g / cm^3
# Si number density = 23.709565 Si / 1000 Ang^3
#
#
#
# Elastic Constant Matrix: (Units=GPa)
#
#
# Indices 1 2 3 4 5 6 
#
# 1 109.4023 29.3134 25.5995 0.0000 -13.6203 0.0000
# 2 29.3134 100.4513 11.1444 0.0000 -3.1930 0.0000
# 3 25.5995 11.1444 99.2672 0.0000 1.6709 0.0000
# 4 0.0000 0.0000 0.0000 34.7213 0.0000 -1.3829
# 5 -13.6203 -3.1930 1.6709 0.0000 37.5076 0.0000
# 6 0.0000 0.0000 0.0000 -1.3829 0.0000 34.8261
#
#
#
# Elastic Compliance Matrix: (Units=1/GPa)
#
#
# Indices 1 2 3 4 5 6 
#
# 1 0.010974 -0.002793 -0.002581 0.000000 0.003862 0.000000
# 2 -0.002793 0.010823 -0.000494 0.000000 -0.000071 0.000000
# 3 -0.002581 -0.000494 0.010820 0.000000 -0.001461 0.000000
# 4 0.000000 0.000000 0.000000 0.028846 0.000000 0.001145
# 5 0.003862 -0.000071 -0.001461 0.000000 0.028123 0.000000
# 6 0.000000 0.000000 0.000000 0.001145 0.000000 0.028760
#
#
# Mechanical properties :
#
#
# Convention : Reuss Voigt Hill
#
# Bulk Modulus (GPa) = 47.89314 49.02615 48.45964
# Shear Modulus (GPa) = 36.48541 37.61523 37.05032
#
# Velocity S-wave (km/s) = 3.92707 3.98741 3.95736
# Velocity P-wave (km/s) = 6.38798 6.47472 6.43149
#
# Compressibility (1/GPa) = 0.02087982
#
# Stress axis : x y z
#
# Youngs Moduli (GPa) = 91.12566 92.39857 92.42545
#
# Poissons Ratio (x) = 0.25809 0.23859
# Poissons Ratio (y) = 0.25453 0.04561
# Poissons Ratio (z) = 0.23523 0.04560
#
# Static dielectric constant tensor:
#      x y z
#    x 2.031490 0.000000 0.010010 
#    y 0.000000 1.919500 0.000000 
#    z 0.010010 0.000000 1.985710 
# 
# From -- ./inp_files/9322.got.cif
#   From: 2010.05.17/outbox.cif.g08.bks.cpg/sg3_5_cif.got.tgz:9322.got - 2010.06.03 18:33:08.
