data_PCOD9113730
_publ_section_title
;
Structure prediction by ZEFSAII (Michael W. Deem and Ramdas Pophale) SiO2 
 PCOD9113730
Probable space group: P 2
;
_chemical_formula_sum "Si O2"
_cell_formula_units_Z 12
_cell_length_a 15.249429
_cell_length_b 7.312072
_cell_length_c 7.183590
_cell_angle_alpha 90.000000
_cell_angle_beta 46.750951
_cell_angle_gamma 90.000000
_cell_volume 583.438371
_symmetry_space_group_name_H-M "P 2"
_symmetry_group_IT_number 3
_symmetry_cell_setting 'monoclinic'
loop_
_space_group_symop_operation_xyz
x,y,z
-x,y,-z
loop_
_atom_site_type_symbol
_atom_site_label
_atom_site_fract_x
_atom_site_fract_y
_atom_site_fract_z
Si Si1 0.272712 0.955910 0.059679
Si Si2 0.500000 0.431835 0.500000
Si Si3 0.470732 0.111751 0.259827
Si Si4 0.899647 0.283431 0.799896
Si Si5 0.745156 0.619929 0.164832
Si Si6 0.757097 0.859817 0.472032
Si Si7 0.000000 0.056546 0.000000
O O1 0.255906 0.866055 0.286982
O O2 0.198612 0.144093 0.145893
O O3 0.227022 0.811098 0.976020
O O4 0.413579 0.002607 0.830443
O O5 0.462328 0.298154 0.386656
O O6 0.614337 0.554659 0.288191
O O7 0.349057 0.994097 0.447185
O O8 0.500000 0.146131 0.000000
O O9 0.000000 0.325493 0.500000
O O10 0.959331 0.179425 0.886029
O O11 0.836554 0.464035 0.970373
O O12 0.742302 0.666978 0.388333
O O13 0.887310 0.936886 0.230120
#
# Coordination Sequence:
#
# PCOD9113730 Si02
#       7
#     2   1   2   2   2   2   1
#     4  11  23  48  70  95 140 182 228 286 350 408
#     4  12  22  40  68 104 142 168 232 286 344 408
#     4  10  22  42  73  98 134 185 226 278 350 406
#     4  12  26  46  71  99 136 188 230 286 346 412
#     4  12  26  41  70 107 133 180 230 288 348 404
#     4  11  24  43  71 100 137 182 228 283 340 409
#     4  12  24  44  70  94 138 178 234 276 342 410
#
# _framework density 20.567726
#
# number of rings (size 3 to 8) (size 9 to 14) (size 15 to 20)
#    0.000    0.667    5.000    3.000    0.000    5.333 
#    0.000    0.000    0.000    0.000    0.000    0.000 
#    0.000    0.000    0.000    0.000    0.000    0.000 
#
# Total GULP energy -67148.276317 kJ/mol
# GULP energy per Si atom -5595.689693 kJ/mol
# Density = 2.052091 g / cm^3
# Si number density = 20.567726 Si / 1000 Ang^3
#
#
#
# Elastic Constant Matrix: (Units=GPa)
#
#
# Indices 1 2 3 4 5 6 
#
# 1 71.1366 9.5494 12.4010 0.0000 1.2873 0.0000
# 2 9.5494 82.2939 25.9962 0.0000 1.5800 0.0000
# 3 12.4010 25.9962 103.5453 0.0000 -17.7446 0.0000
# 4 0.0000 0.0000 0.0000 31.8294 0.0000 1.2684
# 5 1.2873 1.5800 -17.7446 0.0000 40.2400 0.0000
# 6 0.0000 0.0000 0.0000 1.2684 0.0000 11.0304
#
#
#
# Elastic Compliance Matrix: (Units=1/GPa)
#
#
# Indices 1 2 3 4 5 6 
#
# 1 0.014519 -0.001142 -0.001649 0.000000 -0.001147 0.000000
# 2 -0.001142 0.013461 -0.003599 0.000000 -0.002079 0.000000
# 3 -0.001649 -0.003599 0.011674 0.000000 0.005342 0.000000
# 4 0.000000 0.000000 0.000000 0.031562 0.000000 -0.003629
# 5 -0.001147 -0.002079 0.005342 0.000000 0.027325 0.000000
# 6 0.000000 0.000000 0.000000 -0.003629 0.000000 0.091076
#
#
# Mechanical properties :
#
#
# Convention : Reuss Voigt Hill
#
# Bulk Modulus (GPa) = 37.20979 39.20765 38.20872
# Shear Modulus (GPa) = 23.65700 30.55525 27.10612
#
# Velocity S-wave (km/s) = 3.39514 3.85852 3.63422
# Velocity P-wave (km/s) = 5.78791 6.24139 6.01892
#
# Compressibility (1/GPa) = 0.02687465
#
# Stress axis : x y z
#
# Youngs Moduli (GPa) = 68.87565 74.28915 85.65978
#
# Poissons Ratio (x) = 0.08484 0.14122
# Poissons Ratio (y) = 0.07865 0.30829
# Poissons Ratio (z) = 0.11355 0.26737
#
# Static dielectric constant tensor:
#      x y z
#    x 1.732230 0.000000 0.012500 
#    y 0.000000 1.699240 0.000000 
#    z 0.012500 0.000000 1.723060 
# 
# From -- ./inp_files/8173.got.cif
#   From: 2010.05.17/outbox.cif.g08.bks.cpg/sg3_5_cif.got.tgz:8173.got - 2010.06.03 18:33:08.
