data_PCOD9113214
_publ_section_title
;
Structure prediction by ZEFSAII (Michael W. Deem and Ramdas Pophale) SiO2 
 PCOD9113214
Probable space group: P 2
;
_chemical_formula_sum "Si O2"
_cell_formula_units_Z 16
_cell_length_a 11.534866
_cell_length_b 5.314257
_cell_length_c 20.479817
_cell_angle_alpha 90.000000
_cell_angle_beta 144.734221
_cell_angle_gamma 90.000000
_cell_volume 724.828804
_symmetry_space_group_name_H-M "P 2"
_symmetry_group_IT_number 3
_symmetry_cell_setting 'monoclinic'
loop_
_space_group_symop_operation_xyz
x,y,z
-x,y,-z
loop_
_atom_site_type_symbol
_atom_site_label
_atom_site_fract_x
_atom_site_fract_y
_atom_site_fract_z
Si Si1 0.202261 0.605680 0.721768
Si Si2 0.660711 0.469525 0.950315
Si Si3 0.950706 0.106542 0.335806
Si Si4 0.151788 0.397467 0.829251
Si Si5 0.337529 0.795108 0.249389
Si Si6 0.210090 0.953719 0.058792
Si Si7 0.235946 0.293119 0.264349
Si Si8 0.588075 0.995086 0.472970
O O1 0.433313 0.528836 0.825759
O O2 0.070144 0.372011 0.636393
O O3 0.148885 0.620758 0.775203
O O4 0.145142 0.876710 0.669609
O O5 0.737490 0.218620 0.949659
O O6 0.784317 0.718914 0.987875
O O7 0.688705 0.423381 0.040173
O O8 0.825556 0.169182 0.211766
O O9 0.178256 0.051350 0.419986
O O10 0.938457 0.368818 0.766829
O O11 0.364886 0.877628 0.187870
O O12 0.196793 0.015717 0.216297
O O13 0.531231 0.822797 0.384827
O O14 0.256138 0.513624 0.220454
O O15 0.000000 0.964040 0.000000
O O16 0.449893 0.243424 0.397444
O O17 0.500000 0.885689 0.500000
#
# Coordination Sequence:
#
# PCOD9113214 Si02
#       8
#     2   2   2   2   2   2   2   2
#     4  10  24  40  59  92 129 166 209 263 309 382
#     4  12  25  42  68  89 128 171 219 260 320 373
#     4  10  22  37  61  87 134 160 210 252 325 376
#     4  10  23  37  62  93 131 164 209 262 316 388
#     4  10  23  38  59  91 133 158 210 257 326 377
#     4  12  25  43  67  93 124 171 218 267 318 379
#     4  10  21  35  61  92 131 159 202 251 329 383
#     4  10  21  36  63  95 127 168 198 263 330 390
#
# _framework density 22.074176000000001
#
# number of rings (size 3 to 8) (size 9 to 14) (size 15 to 20)
#    1.500    0.000    1.250    3.750    7.000    0.500 
#    2.250    0.000    0.000    4.500    0.000    0.000 
#    0.000    0.000    0.000    0.000    0.000    0.000 
#
# Total GULP energy -89187.712891 kJ/mol
# GULP energy per Si atom -5574.232056 kJ/mol
# Density = 2.202393 g / cm^3
# Si number density = 22.074176 Si / 1000 Ang^3
#
#
#
# Elastic Constant Matrix: (Units=GPa)
#
#
# Indices 1 2 3 4 5 6 
#
# 1 37.0619 23.9436 14.4978 0.0000 9.8684 0.0000
# 2 23.9436 142.0425 14.3847 0.0000 5.6789 0.0000
# 3 14.4978 14.3847 71.1564 0.0000 9.8923 0.0000
# 4 0.0000 0.0000 0.0000 18.1058 0.0000 6.0315
# 5 9.8684 5.6789 9.8923 0.0000 35.4539 0.0000
# 6 0.0000 0.0000 0.0000 6.0315 0.0000 24.1740
#
#
#
# Elastic Compliance Matrix: (Units=1/GPa)
#
#
# Indices 1 2 3 4 5 6 
#
# 1 0.034051 -0.004949 -0.004921 0.000000 -0.007312 0.000000
# 2 -0.004949 0.007927 -0.000634 0.000000 0.000285 0.000000
# 3 -0.004921 -0.000634 0.015584 0.000000 -0.002877 0.000000
# 4 0.000000 0.000000 0.000000 0.060238 0.000000 -0.015029
# 5 -0.007312 0.000285 -0.002877 0.000000 0.030998 0.000000
# 6 0.000000 0.000000 0.000000 -0.015029 0.000000 0.045117
#
#
# Mechanical properties :
#
#
# Convention : Reuss Voigt Hill
#
# Bulk Modulus (GPa) = 27.35580 39.54588 33.45084
# Shear Modulus (GPa) = 22.01602 28.70906 25.36254
#
# Velocity S-wave (km/s) = 3.16154 3.61026 3.39332
# Velocity P-wave (km/s) = 5.07412 5.94411 5.52626
#
# Compressibility (1/GPa) = 0.03655531
#
# Stress axis : x y z
#
# Youngs Moduli (GPa) = 29.36756 126.14770 64.16755
#
# Poissons Ratio (x) = 0.62433 0.31575
# Poissons Ratio (y) = 0.14535 0.04067
# Poissons Ratio (z) = 0.14451 0.07994
#
# Static dielectric constant tensor:
#      x y z
#    x 1.804450 0.000000 -0.019730 
#    y 0.000000 1.862920 0.000000 
#    z -0.019730 0.000000 1.863000 
# 
# From -- ./inp_files/16304.got.cif
#   From: 2010.05.17/outbox.cif.g08.bks.cpg/sg3_9_cif.got.tgz:16304.got - 2010.06.03 18:33:08.
