data_PCOD9113923
_publ_section_title
;
Structure prediction by ZEFSAII (Michael W. Deem and Ramdas Pophale) SiO2 
 PCOD9113923
Probable space group: P 2
;
_chemical_formula_sum "Si O2"
_cell_formula_units_Z 13
_cell_length_a 12.533804
_cell_length_b 7.773042
_cell_length_c 5.584759
_cell_angle_alpha 90.000000
_cell_angle_beta 102.230929
_cell_angle_gamma 90.000000
_cell_volume 531.749382
_symmetry_space_group_name_H-M "P 2"
_symmetry_group_IT_number 3
_symmetry_cell_setting 'monoclinic'
loop_
_space_group_symop_operation_xyz
x,y,z
-x,y,-z
loop_
_atom_site_type_symbol
_atom_site_label
_atom_site_fract_x
_atom_site_fract_y
_atom_site_fract_z
Si Si1 0.273888 0.554680 0.290981
Si Si2 0.500000 0.011016 0.500000
Si Si3 0.726359 0.897103 0.418385
Si Si4 0.396697 0.290014 0.113027
Si Si5 0.943246 0.844789 0.229643
Si Si6 0.923450 0.454682 0.149344
Si Si7 0.776651 0.258191 0.374037
O O1 0.257157 0.742000 0.388757
O O2 0.380400 0.481871 0.210935
O O3 0.268461 0.420327 0.505556
O O4 0.181113 0.509974 0.056688
O O5 0.425308 0.139248 0.309880
O O6 0.591247 0.916032 0.370646
O O7 0.810400 0.861515 0.228850
O O8 0.771392 0.083419 0.516201
O O9 0.500000 0.302016 0.000000
O O10 0.296937 0.231427 0.897049
O O11 0.969192 0.639552 0.244047
O O12 0.000000 0.915589 0.500000
O O13 0.000000 0.902223 0.000000
O O14 0.891277 0.326861 0.340855
O O15 0.000000 0.360675 0.000000
#
# Coordination Sequence:
#
# PCOD9113923 Si02
#       7
#     2   1   2   2   2   2   2
#     4  11  24  47  72 103 147 199 250 318 385 471
#     4  12  26  46  74 108 152 200 254 334 386 480
#     4  12  25  47  75 111 148 195 262 317 398 462
#     4  11  22  46  72  97 147 202 249 315 396 462
#     4  11  25  48  78 113 158 206 260 332 388 473
#     4  10  23  44  75 103 146 200 248 314 391 459
#     4  11  24  43  71 103 141 189 249 316 372 469
#
# _framework density 24.447607999999999
#
# number of rings (size 3 to 8) (size 9 to 14) (size 15 to 20)
#    0.000    0.923    4.615    1.846    0.000    4.923 
#    2.769    0.000    3.385    0.000    0.000    0.000 
#    0.000    0.000    0.000    0.000    0.000    0.000 
#
# Total GULP energy -72411.314044 kJ/mol
# GULP energy per Si atom -5570.101080 kJ/mol
# Density = 2.439196 g / cm^3
# Si number density = 24.447608 Si / 1000 Ang^3
#
#
#
# Elastic Constant Matrix: (Units=GPa)
#
#
# Indices 1 2 3 4 5 6 
#
# 1 120.6936 38.6177 23.9340 0.0000 -45.4250 0.0000
# 2 38.6177 123.8421 30.6431 0.0000 -10.9368 0.0000
# 3 23.9340 30.6431 101.0442 0.0000 -3.7683 0.0000
# 4 0.0000 0.0000 0.0000 10.3410 0.0000 -0.6187
# 5 -45.4250 -10.9368 -3.7683 0.0000 55.9577 0.0000
# 6 0.0000 0.0000 0.0000 -0.6187 0.0000 10.8301
#
#
#
# Elastic Compliance Matrix: (Units=1/GPa)
#
#
# Indices 1 2 3 4 5 6 
#
# 1 0.013408 -0.002798 -0.001947 0.000000 0.010206 0.000000
# 2 -0.002798 0.009447 -0.002224 0.000000 -0.000575 0.000000
# 3 -0.001947 -0.002224 0.010985 0.000000 -0.001275 0.000000
# 4 0.000000 0.000000 0.000000 0.097034 0.000000 0.005544
# 5 0.010206 -0.000575 -0.001275 0.000000 0.025958 0.000000
# 6 0.000000 0.000000 0.000000 0.005544 0.000000 0.092652
#
#
# Mechanical properties :
#
#
# Convention : Reuss Voigt Hill
#
# Bulk Modulus (GPa) = 50.24426 59.10771 54.67598
# Shear Modulus (GPa) = 18.51481 32.25144 25.38312
#
# Velocity S-wave (km/s) = 2.75494 3.63603 3.22571
# Velocity P-wave (km/s) = 5.54220 6.46973 6.02384
#
# Compressibility (1/GPa) = 0.01990277
#
# Stress axis : x y z
#
# Youngs Moduli (GPa) = 74.58184 105.85679 91.03701
#
# Poissons Ratio (x) = 0.29619 0.17723
# Poissons Ratio (y) = 0.20868 0.20242
# Poissons Ratio (z) = 0.14519 0.23538
#
# Static dielectric constant tensor:
#      x y z
#    x 2.417300 0.000000 -0.001250 
#    y 0.000000 1.934540 0.000000 
#    z -0.001250 0.000000 2.050800 
# 
# From -- ./inp_files/2233.got.cif
#   From: 2010.05.17/outbox.cif.g08.bks.cpg/sg3_2_cif.got.tgz:2233.got - 2010.06.03 18:33:08.
