data_PCOD9113384
_publ_section_title
;
Structure prediction by ZEFSAII (Michael W. Deem and Ramdas Pophale) SiO2 
 PCOD9113384
Probable space group: P 2
;
_chemical_formula_sum "Si O2"
_cell_formula_units_Z 16
_cell_length_a 8.847951
_cell_length_b 18.194418
_cell_length_c 8.645850
_cell_angle_alpha 90.000000
_cell_angle_beta 32.395332
_cell_angle_gamma 90.000000
_cell_volume 745.688150
_symmetry_space_group_name_H-M "P 2"
_symmetry_group_IT_number 3
_symmetry_cell_setting 'monoclinic'
loop_
_space_group_symop_operation_xyz
x,y,z
-x,y,-z
loop_
_atom_site_type_symbol
_atom_site_label
_atom_site_fract_x
_atom_site_fract_y
_atom_site_fract_z
Si Si1 0.978959 0.541770 0.193510
Si Si2 0.247793 0.005363 0.088444
Si Si3 0.301308 0.783412 0.312814
Si Si4 0.308027 0.137087 0.804710
Si Si5 0.348668 0.924716 0.462062
Si Si6 0.203451 0.406122 0.187705
Si Si7 0.308961 0.303120 0.805063
Si Si8 0.480938 0.645361 0.692333
O O1 0.062483 0.477226 0.234579
O O2 0.682515 0.574213 0.504255
O O3 0.184190 0.612458 0.004123
O O4 0.000000 0.511257 0.000000
O O5 0.500000 0.010738 0.000000
O O6 0.277211 0.082668 0.974123
O O7 0.910990 0.979959 0.373142
O O8 0.378160 0.941794 0.874326
O O9 0.262217 0.843447 0.482537
O O10 0.423987 0.708622 0.275898
O O11 0.000000 0.768648 0.500000
O O12 0.500000 0.810218 0.000000
O O13 0.500000 0.105807 0.500000
O O14 0.413384 0.219679 0.749782
O O15 0.000000 0.143844 0.000000
O O16 0.500000 0.929900 0.500000
O O17 0.000000 0.376558 0.500000
O O18 0.500000 0.429961 0.000000
O O19 0.279756 0.348722 0.986587
O O20 0.500000 0.334471 0.500000
O O21 0.000000 0.298882 0.000000
O O22 0.500000 0.675356 0.500000
#
# Coordination Sequence:
#
# PCOD9113384 Si02
#       8
#     2   2   2   2   2   2   2   2
#     4  10  22  40  63  87 120 164 209 252 305 378
#     4  12  24  40  64  95 129 161 201 260 322 373
#     4  12  25  41  63  90 124 160 200 258 321 375
#     4  10  21  40  65  92 122 163 213 256 304 376
#     4  12  25  43  65  89 123 168 213 254 302 377
#     4  12  25  39  61  94 130 163 207 268 324 376
#     4  10  22  42  66  90 125 173 218 258 310 385
#     4  10  22  41  63  89 118 158 208 254 305 376
#
# _framework density 21.456689999999998
#
# number of rings (size 3 to 8) (size 9 to 14) (size 15 to 20)
#    0.000    1.000    0.000    7.500    0.000    5.000 
#    0.000    5.000    0.000    0.000    0.000    0.000 
#    0.000    0.000    0.000    0.000    0.000    0.000 
#
# Total GULP energy -89189.771522 kJ/mol
# GULP energy per Si atom -5574.360720 kJ/mol
# Density = 2.140785 g / cm^3
# Si number density = 21.456690 Si / 1000 Ang^3
#
#
#
# Elastic Constant Matrix: (Units=GPa)
#
#
# Indices 1 2 3 4 5 6 
#
# 1 124.2863 45.6652 22.1698 0.0000 4.5470 0.0000
# 2 45.6652 59.4780 1.0209 0.0000 17.8528 0.0000
# 3 22.1698 1.0209 105.0469 0.0000 0.7265 0.0000
# 4 0.0000 0.0000 0.0000 14.7407 0.0000 -3.7635
# 5 4.5470 17.8528 0.7265 0.0000 31.4911 0.0000
# 6 0.0000 0.0000 0.0000 -3.7635 0.0000 46.8122
#
#
#
# Elastic Compliance Matrix: (Units=1/GPa)
#
#
# Indices 1 2 3 4 5 6 
#
# 1 0.012255 -0.010667 -0.002513 0.000000 0.004336 0.000000
# 2 -0.010667 0.029547 0.002070 0.000000 -0.015258 0.000000
# 3 -0.002513 0.002070 0.010037 0.000000 -0.001042 0.000000
# 4 0.000000 0.000000 0.000000 0.069261 0.000000 0.005568
# 5 0.004336 -0.015258 -0.001042 0.000000 0.039803 0.000000
# 6 0.000000 0.000000 0.000000 0.005568 0.000000 0.021810
#
#
# Mechanical properties :
#
#
# Convention : Reuss Voigt Hill
#
# Bulk Modulus (GPa) = 33.76259 47.39143 40.57701
# Shear Modulus (GPa) = 23.27681 33.27248 28.27464
#
# Velocity S-wave (km/s) = 3.29725 3.94214 3.63403
# Velocity P-wave (km/s) = 5.50138 6.54642 6.04652
#
# Compressibility (1/GPa) = 0.02961858
#
# Stress axis : x y z
#
# Youngs Moduli (GPa) = 81.60051 33.84419 99.63202
#
# Poissons Ratio (x) = 0.36102 0.25034
# Poissons Ratio (y) = 0.87044 -0.20620
# Poissons Ratio (z) = 0.20503 -0.07004
#
# Static dielectric constant tensor:
#      x y z
#    x 1.826600 0.000000 0.015550 
#    y 0.000000 1.771280 0.000000 
#    z 0.015550 0.000000 1.746040 
# 
# From -- ./inp_files/6189.got.cif
#   From: 2010.05.17/outbox.cif.g08.bks.cpg/sg3_4_cif.got.tgz:6189.got - 2010.06.03 18:33:08.
