data_PCOD9113529
_publ_section_title
;
Structure prediction by ZEFSAII (Michael W. Deem and Ramdas Pophale) SiO2 
 PCOD9113529
Probable space group: P 2
;
_chemical_formula_sum "Si O2"
_cell_formula_units_Z 16
_cell_length_a 14.890635
_cell_length_b 8.668032
_cell_length_c 5.640379
_cell_angle_alpha 90.000000
_cell_angle_beta 76.752470
_cell_angle_gamma 90.000000
_cell_volume 708.644641
_symmetry_space_group_name_H-M "P 2"
_symmetry_group_IT_number 3
_symmetry_cell_setting 'monoclinic'
loop_
_space_group_symop_operation_xyz
x,y,z
-x,y,-z
loop_
_atom_site_type_symbol
_atom_site_label
_atom_site_fract_x
_atom_site_fract_y
_atom_site_fract_z
Si Si1 0.251506 0.980520 0.588302
Si Si2 0.513895 0.445989 0.739146
Si Si3 0.122237 0.201683 0.371042
Si Si4 0.091964 0.925804 0.076872
Si Si5 0.803770 0.457984 0.026294
Si Si6 0.647891 0.273154 0.376501
Si Si7 0.212756 0.706957 0.309532
Si Si8 0.924530 0.491911 0.348149
O O1 0.176304 0.947049 0.839924
O O2 0.273497 0.825004 0.427798
O O3 0.199101 0.094398 0.440205
O O4 0.332766 0.091469 0.629056
O O5 0.500000 0.539920 0.500000
O O6 0.608718 0.352056 0.641011
O O7 0.432777 0.318634 0.758954
O O8 0.500000 0.522865 0.000000
O O9 0.077835 0.307318 0.602992
O O10 0.168683 0.330367 0.180686
O O11 0.068944 0.083641 0.231084
O O12 0.130714 0.808946 0.247298
O O13 0.000000 0.872173 0.000000
O O14 0.737833 0.367246 0.244620
O O15 0.902455 0.507876 0.081045
O O16 0.753221 0.602096 0.930450
O O17 0.165258 0.586834 0.512890
O O18 0.000000 0.542982 0.500000
#
# Coordination Sequence:
#
# PCOD9113529 Si02
#       8
#     2   2   2   2   2   2   2   2
#     4  11  21  41  57  91 116 162 209 261 320 379
#     4   8  20  34  60 108 136 162 192 264 334 388
#     4  10  22  33  58  86 108 148 199 265 311 368
#     4  11  24  37  56  77 118 158 215 267 324 371
#     4  11  21  41  57  91 116 162 209 261 320 379
#     4   9  20  35  68  91 136 160 207 266 321 399
#     4  10  26  36  58  82 117 168 208 265 318 386
#     4  11  24  37  56  77 118 158 215 267 324 371
#
# _framework density 22.578309999999998
#
# number of rings (size 3 to 8) (size 9 to 14) (size 15 to 20)
#    0.750    1.000    2.500    0.750    8.750    2.000 
#    0.000    0.000    0.000    0.000    0.000   35.875 
#    0.000    0.000    0.000    0.000    0.000    0.000 
#
# Total GULP energy -89098.473271 kJ/mol
# GULP energy per Si atom -5568.654579 kJ/mol
# Density = 2.252692 g / cm^3
# Si number density = 22.578310 Si / 1000 Ang^3
#
#
#
# Elastic Constant Matrix: (Units=GPa)
#
#
# Indices 1 2 3 4 5 6 
#
# 1 33.8595 5.5665 -14.6006 0.0000 -0.1018 0.0000
# 2 5.5665 101.2422 29.3071 0.0000 5.6145 0.0000
# 3 -14.6006 29.3071 63.7700 0.0000 7.5055 0.0000
# 4 0.0000 0.0000 0.0000 31.4183 0.0000 9.5687
# 5 -0.1018 5.6145 7.5055 0.0000 21.2118 0.0000
# 6 0.0000 0.0000 0.0000 9.5687 0.0000 -3.2718
#
#
#
# Elastic Compliance Matrix: (Units=1/GPa)
#
#
# Indices 1 2 3 4 5 6 
#
# 1 0.034826 -0.004815 0.010452 0.000000 -0.002257 0.000000
# 2 -0.004815 0.012089 -0.006552 0.000000 -0.000905 0.000000
# 3 0.010452 -0.006552 0.021783 0.000000 -0.005923 0.000000
# 4 0.000000 0.000000 0.000000 0.016834 0.000000 0.049233
# 5 -0.002257 -0.000905 -0.005923 0.000000 0.049468 0.000000
# 6 0.000000 0.000000 0.000000 0.049233 0.000000 -0.161656
#
#
# Mechanical properties :
#
#
# Convention : Reuss Voigt Hill
#
# Bulk Modulus (GPa) = 14.95494 26.60197 20.77845
# Shear Modulus (GPa) = -1970.45466 21.77824 -974.33821
#
# Velocity S-wave (km/s) = -29.57389 3.10911 -20.79601
# Velocity P-wave (km/s) = 34.05165 4.96955 23.82036
#
# Compressibility (1/GPa) = 0.06686756
#
# Stress axis : x y z
#
# Youngs Moduli (GPa) = 28.71432 82.72124 45.90819
#
# Poissons Ratio (x) = 0.39833 -0.47984
# Poissons Ratio (y) = 0.13827 0.30078
# Poissons Ratio (z) = -0.30013 0.54197
#
# Static dielectric constant tensor:
#      x y z
#    x 1.935100 0.000000 0.020450 
#    y 0.000000 1.856570 0.000000 
#    z 0.020450 0.000000 1.993500 
# 
# From -- ./inp_files/3646.got.cif
#   From: 2010.05.17/outbox.cif.g08.bks.cpg/sg3_2_cif.got.tgz:3646.got - 2010.06.03 18:33:08.
