data_PCOD9113022
_publ_section_title
;
Structure prediction by ZEFSAII (Michael W. Deem and Ramdas Pophale) SiO2 
 PCOD9113022
Probable space group: P 2
;
_chemical_formula_sum "Si O2"
_cell_formula_units_Z 12
_cell_length_a 9.006632
_cell_length_b 9.698770
_cell_length_c 8.501276
_cell_angle_alpha 90.000000
_cell_angle_beta 57.595007
_cell_angle_gamma 90.000000
_cell_volume 626.975150
_symmetry_space_group_name_H-M "P 2"
_symmetry_group_IT_number 3
_symmetry_cell_setting 'monoclinic'
loop_
_space_group_symop_operation_xyz
x,y,z
-x,y,-z
loop_
_atom_site_type_symbol
_atom_site_label
_atom_site_fract_x
_atom_site_fract_y
_atom_site_fract_z
Si Si1 0.960074 0.207050 0.211398
Si Si2 0.843244 0.476864 0.461959
Si Si3 0.660243 0.178187 0.023083
Si Si4 0.684883 0.983498 0.306188
Si Si5 0.536822 0.480953 0.161448
Si Si6 0.811916 0.672420 0.191035
O O1 0.881163 0.343756 0.331877
O O2 0.153168 0.179505 0.170701
O O3 0.829485 0.079487 0.309656
O O4 0.000000 0.222224 0.000000
O O5 0.653332 0.465510 0.650841
O O6 0.833302 0.605976 0.350621
O O7 0.000000 0.488503 0.500000
O O8 0.630496 0.331485 0.109829
O O9 0.660589 0.063256 0.156039
O O10 0.500000 0.152997 0.000000
O O11 0.500000 0.979568 0.500000
O O12 0.756426 0.830980 0.237251
O O13 0.662678 0.588069 0.179657
O O14 0.500000 0.518583 0.000000
O O15 0.000000 0.659465 0.000000
#
# Coordination Sequence:
#
# PCOD9113022 Si02
#       6
#     2   2   2   2   2   2
#     4  10  21  39  62  89 120 157 198 243 296 351
#     4  12  23  39  63  92 120 157 202 248 296 353
#     4  10  20  38  61  89 119 153 195 245 295 347
#     4  11  23  40  60  86 118 159 199 240 296 357
#     4  11  23  40  63  92 122 157 199 247 298 352
#     4  12  24  42  62  86 122 161 199 247 299 356
#
# _framework density 19.139513999999998
#
# number of rings (size 3 to 8) (size 9 to 14) (size 15 to 20)
#    0.000    1.000    0.000   10.500    0.000    0.667 
#    0.000    5.833    0.000    0.000    0.000    0.000 
#    0.000    0.000    0.000    0.000    0.000    0.000 
#
# Total GULP energy -67099.093317 kJ/mol
# GULP energy per Si atom -5591.591110 kJ/mol
# Density = 1.909595 g / cm^3
# Si number density = 19.139514 Si / 1000 Ang^3
#
#
#
# Elastic Constant Matrix: (Units=GPa)
#
#
# Indices 1 2 3 4 5 6 
#
# 1 145.5482 74.7655 46.0151 0.0000 -24.1858 0.0000
# 2 74.7655 138.4407 25.5704 0.0000 9.4782 0.0000
# 3 46.0151 25.5704 93.9191 0.0000 -26.5017 0.0000
# 4 0.0000 0.0000 0.0000 23.5421 0.0000 -18.0099
# 5 -24.1858 9.4782 -26.5017 0.0000 42.2716 0.0000
# 6 0.0000 0.0000 0.0000 -18.0099 0.0000 15.2932
#
#
#
# Elastic Compliance Matrix: (Units=1/GPa)
#
#
# Indices 1 2 3 4 5 6 
#
# 1 0.012140 -0.006648 -0.002135 0.000000 0.007098 0.000000
# 2 -0.006648 0.011739 -0.002132 0.000000 -0.007773 0.000000
# 3 -0.002135 -0.002132 0.014657 0.000000 0.008446 0.000000
# 4 0.000000 0.000000 0.000000 0.428664 0.000000 0.504813
# 5 0.007098 -0.007773 0.008446 0.000000 0.034755 0.000000
# 6 0.000000 0.000000 0.000000 0.504813 0.000000 0.659878
#
#
# Mechanical properties :
#
#
# Convention : Reuss Voigt Hill
#
# Bulk Modulus (GPa) = 59.85840 74.51221 67.18530
# Shear Modulus (GPa) = 4.20439 31.65850 17.93144
#
# Velocity S-wave (km/s) = 1.48374 4.07146 3.06417
# Velocity P-wave (km/s) = 5.85474 7.81780 6.90637
#
# Compressibility (1/GPa) = 0.01670609
#
# Stress axis : x y z
#
# Youngs Moduli (GPa) = 82.37306 85.18255 68.22539
#
# Poissons Ratio (x) = 0.56628 0.14567
# Poissons Ratio (y) = 0.54760 0.14548
# Poissons Ratio (z) = 0.17587 0.18164
#
# Static dielectric constant tensor:
#      x y z
#    x 1.700060 0.000000 0.003680 
#    y 0.000000 1.625570 0.000000 
#    z 0.003680 0.000000 1.677910 
# 
# From -- ./inp_files/5149.got.cif
#   From: 2010.05.17/outbox.cif.g08.bks.cpg/sg3_3_cif.got.tgz:5149.got - 2010.06.03 18:33:08.
