data_PCOD9113183
_publ_section_title
;
Structure prediction by ZEFSAII (Michael W. Deem and Ramdas Pophale) SiO2 
 PCOD9113183
Probable space group: P 2
;
_chemical_formula_sum "Si O2"
_cell_formula_units_Z 13
_cell_length_a 20.099330
_cell_length_b 6.383696
_cell_length_c 14.855801
_cell_angle_alpha 90.000000
_cell_angle_beta 18.480833
_cell_angle_gamma 90.000000
_cell_volume 604.215481
_symmetry_space_group_name_H-M "P 2"
_symmetry_group_IT_number 3
_symmetry_cell_setting 'monoclinic'
loop_
_space_group_symop_operation_xyz
x,y,z
-x,y,-z
loop_
_atom_site_type_symbol
_atom_site_label
_atom_site_fract_x
_atom_site_fract_y
_atom_site_fract_z
Si Si1 0.767266 0.485700 0.393432
Si Si2 0.965552 0.218872 0.648218
Si Si3 0.132938 0.160331 0.963584
Si Si4 0.073132 0.832196 0.196847
Si Si5 0.360943 0.446704 0.808535
Si Si6 0.000000 0.854537 0.000000
Si Si7 0.296469 0.496841 0.321037
O O1 0.601993 0.443597 0.526702
O O2 0.656068 0.479734 0.633553
O O3 0.947838 0.313751 0.170417
O O4 0.881586 0.703295 0.222067
O O5 0.170027 0.298143 0.441837
O O6 0.000000 0.265381 0.500000
O O7 0.912903 0.975357 0.732523
O O8 0.772296 0.345174 0.938984
O O9 0.055683 0.003431 0.140928
O O10 0.298118 0.309506 0.802443
O O11 0.168294 0.002336 0.835307
O O12 0.872841 0.683938 0.464281
O O13 0.268795 0.681880 0.921551
O O14 0.500000 0.535037 0.000000
#
# Coordination Sequence:
#
# PCOD9113183 Si02
#       7
#     2   2   2   2   2   1   2
#     4  12  24  47  72 105 138 183 233 285 352 403
#     4  10  21  39  63  99 143 187 226 277 342 407
#     4  11  22  48  68  98 142 179 228 290 346 407
#     4  10  20  43  65  95 146 179 224 286 336 414
#     4  10  23  43  71  95 141 178 225 293 340 410
#     4  12  26  44  78  98 136 188 232 290 348 412
#     4  11  22  40  68 102 144 181 225 286 339 415
#
# _framework density 21.515504
#
# number of rings (size 3 to 8) (size 9 to 14) (size 15 to 20)
#    0.000    1.231    6.154    1.385    0.000    6.769 
#    2.769   11.538    0.000    0.000    0.000    0.000 
#    0.000    0.000    0.000    0.000    0.000    0.000 
#
# Total GULP energy -72606.908841 kJ/mol
# GULP energy per Si atom -5585.146834 kJ/mol
# Density = 2.146653 g / cm^3
# Si number density = 21.515504 Si / 1000 Ang^3
#
#
#
# Elastic Constant Matrix: (Units=GPa)
#
#
# Indices 1 2 3 4 5 6 
#
# 1 143.9973 66.5151 53.4031 0.0000 0.4834 0.0000
# 2 66.5151 127.9719 37.0194 0.0000 -12.9869 0.0000
# 3 53.4031 37.0194 87.8939 0.0000 -7.0571 0.0000
# 4 0.0000 0.0000 0.0000 -4.3364 0.0000 7.4646
# 5 0.4834 -12.9869 -7.0571 0.0000 49.2123 0.0000
# 6 0.0000 0.0000 0.0000 7.4646 0.0000 35.5955
#
#
#
# Elastic Compliance Matrix: (Units=1/GPa)
#
#
# Indices 1 2 3 4 5 6 
#
# 1 0.010785 -0.004400 -0.004857 0.000000 -0.001964 0.000000
# 2 -0.004400 0.010860 -0.001686 0.000000 0.002667 0.000000
# 3 -0.004857 -0.001686 0.015182 0.000000 0.001780 0.000000
# 4 0.000000 0.000000 0.000000 -0.169441 0.000000 0.035533
# 5 -0.001964 0.002667 0.001780 0.000000 0.021298 0.000000
# 6 0.000000 0.000000 0.000000 0.035533 0.000000 0.020642
#
#
# Mechanical properties :
#
#
# Convention : Reuss Voigt Hill
#
# Bulk Modulus (GPa) = 66.93805 74.85981 70.89893
# Shear Modulus (GPa) = -78.36092 29.62264 -24.36914
#
# Velocity S-wave (km/s) = -6.04150 3.71456 -3.36911
# Velocity P-wave (km/s) = 4.18178 7.29837 4.22960
#
# Compressibility (1/GPa) = 0.01493919
#
# Stress axis : x y z
#
# Youngs Moduli (GPa) = 92.72235 92.08465 65.86828
#
# Poissons Ratio (x) = 0.40515 0.31994
# Poissons Ratio (y) = 0.40795 0.11109
# Poissons Ratio (z) = 0.45038 0.15530
#
# Static dielectric constant tensor:
#      x y z
#    x 1.837120 0.000000 0.013260 
#    y 0.000000 1.788640 0.000000 
#    z 0.013260 0.000000 1.751450 
# 
# From -- ./inp_files/14270.got.cif
#   From: 2010.05.17/outbox.cif.g08.bks.cpg/sg3_8_cif.got.tgz:14270.got - 2010.06.03 18:33:08.
