data_PCOD9113405
_publ_section_title
;
Structure prediction by ZEFSAII (Michael W. Deem and Ramdas Pophale) SiO2 
 PCOD9113405
Probable space group: P 2
;
_chemical_formula_sum "Si O2"
_cell_formula_units_Z 14
_cell_length_a 6.011987
_cell_length_b 8.367931
_cell_length_c 13.299198
_cell_angle_alpha 90.000000
_cell_angle_beta 109.804023
_cell_angle_gamma 90.000000
_cell_volume 629.484712
_symmetry_space_group_name_H-M "P 2"
_symmetry_group_IT_number 3
_symmetry_cell_setting 'monoclinic'
loop_
_space_group_symop_operation_xyz
x,y,z
-x,y,-z
loop_
_atom_site_type_symbol
_atom_site_label
_atom_site_fract_x
_atom_site_fract_y
_atom_site_fract_z
Si Si1 0.500000 0.767290 0.500000
Si Si2 0.210792 0.829900 0.824662
Si Si3 0.477789 0.117510 0.811857
Si Si4 0.759336 0.008373 0.679023
Si Si5 0.290808 0.588548 0.655549
Si Si6 0.500000 0.602489 0.000000
Si Si7 0.022009 0.332700 0.715489
Si Si8 0.288697 0.421609 0.158842
O O1 0.362378 0.659146 0.559693
O O2 0.686692 0.884791 0.582589
O O3 0.241860 0.734427 0.724589
O O4 0.406722 0.968350 0.865985
O O5 0.286402 0.705713 0.920293
O O6 0.958442 0.919216 0.778026
O O7 0.529512 0.045149 0.710303
O O8 0.695200 0.233173 0.866339
O O9 0.260634 0.238711 0.778056
O O10 0.850406 0.184736 0.660805
O O11 0.517795 0.491917 0.733002
O O12 0.077715 0.462437 0.638416
O O13 0.365331 0.507831 0.068322
O O14 0.940248 0.425014 0.804232
#
# Coordination Sequence:
#
# PCOD9113405 Si02
#       8
#     1   2   2   2   2   1   2   2
#     4  12  24  42  72 102 140 192 238 294 356 416
#     4  10  21  40  68  99 138 174 226 293 349 410
#     4   9  18  41  65  95 135 177 225 289 342 418
#     4  10  22  42  69  96 136 189 230 290 352 416
#     4  10  22  40  65  98 138 174 233 296 343 416
#     4  10  22  40  70 108 140 178 234 286 350 436
#     4   9  20  42  70  92 136 190 224 292 357 409
#     4   9  20  41  66  97 141 180 221 289 355 419
#
# _framework density 22.240413
#
# number of rings (size 3 to 8) (size 9 to 14) (size 15 to 20)
#    0.000    2.286    1.429    0.000    2.000    1.143 
#    0.000   19.286    3.143   13.714    0.000    0.000 
#    0.000    0.000    0.000    0.000    0.000    0.000 
#
# Total GULP energy -78015.583436 kJ/mol
# GULP energy per Si atom -5572.541674 kJ/mol
# Density = 2.218979 g / cm^3
# Si number density = 22.240413 Si / 1000 Ang^3
#
#
#
# Elastic Constant Matrix: (Units=GPa)
#
#
# Indices 1 2 3 4 5 6 
#
# 1 89.7346 49.3826 45.4475 0.0000 -25.0902 0.0000
# 2 49.3826 147.1282 69.0627 0.0000 -18.8532 0.0000
# 3 45.4475 69.0627 116.9225 0.0000 -24.1585 0.0000
# 4 0.0000 0.0000 0.0000 6.4233 0.0000 -3.4160
# 5 -25.0902 -18.8532 -24.1585 0.0000 29.2689 0.0000
# 6 0.0000 0.0000 0.0000 -3.4160 0.0000 44.3781
#
#
#
# Elastic Compliance Matrix: (Units=1/GPa)
#
#
# Indices 1 2 3 4 5 6 
#
# 1 0.017158 -0.003184 -0.002620 0.000000 0.010494 0.000000
# 2 -0.003184 0.010072 -0.004744 0.000000 -0.000158 0.000000
# 3 -0.002620 -0.004744 0.013597 0.000000 0.005921 0.000000
# 4 0.000000 0.000000 0.000000 0.162329 0.000000 0.012495
# 5 0.010494 -0.000158 0.005921 0.000000 0.047948 0.000000
# 6 0.000000 0.000000 0.000000 0.012495 0.000000 0.023495
#
#
# Mechanical properties :
#
#
# Convention : Reuss Voigt Hill
#
# Bulk Modulus (GPa) = 50.68495 75.73010 63.20752
# Shear Modulus (GPa) = 16.54136 28.67355 22.60746
#
# Velocity S-wave (km/s) = 2.73014 3.59451 3.19172
# Velocity P-wave (km/s) = 5.72514 7.16603 6.48572
#
# Compressibility (1/GPa) = 0.01972972
#
# Stress axis : x y z
#
# Youngs Moduli (GPa) = 58.28354 99.28146 73.54718
#
# Poissons Ratio (x) = 0.31614 0.19268
# Poissons Ratio (y) = 0.18559 0.34893
# Poissons Ratio (z) = 0.15270 0.47102
#
# Static dielectric constant tensor:
#      x y z
#    x 1.903270 0.000000 0.017730 
#    y 0.000000 1.861880 0.000000 
#    z 0.017730 0.000000 1.816110 
# 
# From -- ./inp_files/3675.got.cif
#   From: 2010.05.17/outbox.cif.g08.bks.cpg/sg3_2_cif.got.tgz:3675.got - 2010.06.03 18:33:08.
