data_PCOD9113888
_publ_section_title
;
Structure prediction by ZEFSAII (Michael W. Deem and Ramdas Pophale) SiO2 
 PCOD9113888
Probable space group: P 2
;
_chemical_formula_sum "Si O2"
_cell_formula_units_Z 12
_cell_length_a 14.803827
_cell_length_b 5.652481
_cell_length_c 9.353967
_cell_angle_alpha 90.000000
_cell_angle_beta 143.156138
_cell_angle_gamma 90.000000
_cell_volume 469.350130
_symmetry_space_group_name_H-M "P 2"
_symmetry_group_IT_number 3
_symmetry_cell_setting 'monoclinic'
loop_
_space_group_symop_operation_xyz
x,y,z
-x,y,-z
loop_
_atom_site_type_symbol
_atom_site_label
_atom_site_fract_x
_atom_site_fract_y
_atom_site_fract_z
Si Si1 0.000000 0.794890 0.500000
Si Si2 0.514023 0.481828 0.254252
Si Si3 0.384738 0.975562 0.494366
Si Si4 0.157406 0.926843 0.981481
Si Si5 0.746223 0.460976 0.285241
Si Si6 0.126512 0.185484 0.332883
Si Si7 0.000000 0.572547 0.000000
O O1 0.884967 0.907464 0.238336
O O2 0.885341 0.637305 0.448980
O O3 0.547954 0.232235 0.375657
O O4 0.623845 0.504993 0.254999
O O5 0.537856 0.727191 0.367685
O O6 0.345158 0.459443 0.977424
O O7 0.228972 0.987954 0.390980
O O8 0.323256 0.970993 0.253680
O O9 0.085740 0.712063 0.982073
O O10 0.049657 0.138379 0.893987
O O11 0.819150 0.218463 0.436096
O O12 0.130804 0.423434 0.245686
#
# Coordination Sequence:
#
# PCOD9113888 Si02
#       7
#     1   2   2   2   2   2   1
#     4  12  26  42  66 102 150 174 218 298 368 404
#     4  10  24  43  73  99 133 186 242 278 326 417
#     4  11  21  40  70  99 128 181 243 284 322 405
#     4  12  23  37  66 103 139 179 226 288 353 410
#     4  10  23  43  65 100 143 178 226 284 354 407
#     4  11  21  37  69 100 135 178 234 292 336 404
#     4  12  18  40  64  98 140 176 232 284 340 406
#
# _framework density 25.567267000000001
#
# number of rings (size 3 to 8) (size 9 to 14) (size 15 to 20)
#    0.000    1.000    5.000    3.000    0.000    7.333 
#    0.000    0.833    0.000    4.000    0.000    0.000 
#    0.000    0.000    0.000    0.000    0.000    0.000 
#
# Total GULP energy -67026.488553 kJ/mol
# GULP energy per Si atom -5585.540713 kJ/mol
# Density = 2.550907 g / cm^3
# Si number density = 25.567267 Si / 1000 Ang^3
#
#
#
# Elastic Constant Matrix: (Units=GPa)
#
#
# Indices 1 2 3 4 5 6 
#
# 1 67.3343 45.1298 20.2894 0.0000 -23.4853 0.0000
# 2 45.1298 139.3829 96.6351 0.0000 -11.1120 0.0000
# 3 20.2894 96.6351 235.7588 0.0000 -30.3839 0.0000
# 4 0.0000 0.0000 0.0000 39.1593 0.0000 4.8383
# 5 -23.4853 -11.1120 -30.3839 0.0000 34.8013 0.0000
# 6 0.0000 0.0000 0.0000 4.8383 0.0000 17.1094
#
#
#
# Elastic Compliance Matrix: (Units=1/GPa)
#
#
# Indices 1 2 3 4 5 6 
#
# 1 0.026870 -0.010164 0.004251 0.000000 0.018599 0.000000
# 2 -0.010164 0.013874 -0.005775 0.000000 -0.007471 0.000000
# 3 0.004251 -0.005775 0.007183 0.000000 0.007296 0.000000
# 4 0.000000 0.000000 0.000000 0.026461 0.000000 -0.007483
# 5 0.018599 -0.007471 0.007296 0.000000 0.045270 0.000000
# 6 0.000000 0.000000 0.000000 -0.007483 0.000000 0.060563
#
#
# Mechanical properties :
#
#
# Convention : Reuss Voigt Hill
#
# Bulk Modulus (GPa) = 40.73339 85.17606 62.95472
# Shear Modulus (GPa) = 23.60925 36.90879 30.25902
#
# Velocity S-wave (km/s) = 3.04207 3.80359 3.44394
# Velocity P-wave (km/s) = 5.32028 7.25786 6.36325
#
# Compressibility (1/GPa) = 0.02454989
#
# Stress axis : x y z
#
# Youngs Moduli (GPa) = 37.21639 72.07943 139.21534
#
# Poissons Ratio (x) = 0.73264 -0.59177
# Poissons Ratio (y) = 0.37828 0.80394
# Poissons Ratio (z) = -0.15820 0.41624
#
# Static dielectric constant tensor:
#      x y z
#    x 2.051330 0.000000 0.006130 
#    y 0.000000 2.039870 0.000000 
#    z 0.006130 0.000000 2.097270 
# 
# From -- ./inp_files/8029.got.cif
#   From: 2010.05.17/outbox.cif.g08.bks.cpg/sg3_5_cif.got.tgz:8029.got - 2010.06.03 18:33:08.
