data_PCOD9113305
_publ_section_title
;
Structure prediction by ZEFSAII (Michael W. Deem and Ramdas Pophale) SiO2 
 PCOD9113305
Probable space group: P 2
;
_chemical_formula_sum "Si O2"
_cell_formula_units_Z 13
_cell_length_a 11.930878
_cell_length_b 5.543467
_cell_length_c 7.433412
_cell_angle_alpha 90.000000
_cell_angle_beta 80.350304
_cell_angle_gamma 90.000000
_cell_volume 484.678065
_symmetry_space_group_name_H-M "P 2"
_symmetry_group_IT_number 3
_symmetry_cell_setting 'monoclinic'
loop_
_space_group_symop_operation_xyz
x,y,z
-x,y,-z
loop_
_atom_site_type_symbol
_atom_site_label
_atom_site_fract_x
_atom_site_fract_y
_atom_site_fract_z
Si Si1 0.129302 0.069050 0.518798
Si Si2 0.592220 0.851181 0.319208
Si Si3 0.171124 0.566739 0.478134
Si Si4 0.631257 0.366831 0.422276
Si Si5 0.500000 0.071394 0.000000
Si Si6 0.118739 0.625121 0.077001
Si Si7 0.238461 0.130552 0.094985
O O1 0.132275 0.334795 0.601722
O O2 0.201930 0.098949 0.314833
O O3 0.000000 0.042881 0.500000
O O4 0.159361 0.811587 0.589634
O O5 0.500000 0.819299 0.500000
O O6 0.644579 0.585769 0.278893
O O7 0.663640 0.095909 0.350412
O O8 0.516985 0.913236 0.169713
O O9 0.303907 0.494408 0.427975
O O10 0.111450 0.604651 0.301595
O O11 0.500000 0.330816 0.500000
O O12 0.626310 0.184319 0.950154
O O13 0.172704 0.359430 0.029142
O O14 0.196517 0.868568 0.028420
O O15 0.000000 0.652613 0.000000
#
# Coordination Sequence:
#
# PCOD9113305 Si02
#       7
#     2   2   2   2   1   2   2
#     4  10  21  40  66 101 130 190 244 292 364 425
#     4  10  25  42  69 100 149 194 239 292 347 464
#     4  10  21  38  69 102 135 188 236 314 365 421
#     4  10  22  39  68 106 145 186 243 292 368 454
#     4  12  28  50  78 114 160 200 248 312 394 456
#     4  10  22  43  71 100 144 197 255 305 369 441
#     4  10  25  42  73 103 145 195 238 316 376 443
#
# _framework density 26.821926999999999
#
# number of rings (size 3 to 8) (size 9 to 14) (size 15 to 20)
#    0.000    1.846    0.000    1.846   17.231    2.462 
#    0.000   18.462    0.000    0.000    0.000    0.000 
#    0.000    0.000    0.000    0.000    0.000    0.000 
#
# Total GULP energy -72489.348051 kJ/mol
# GULP energy per Si atom -5576.103696 kJ/mol
# Density = 2.676088 g / cm^3
# Si number density = 26.821927 Si / 1000 Ang^3
#
#
#
# Elastic Constant Matrix: (Units=GPa)
#
#
# Indices 1 2 3 4 5 6 
#
# 1 122.7834 65.0815 -7.8489 0.0000 12.6351 0.0000
# 2 65.0815 315.4264 2.8758 0.0000 13.8688 0.0000
# 3 -7.8489 2.8758 84.9886 0.0000 10.1800 0.0000
# 4 0.0000 0.0000 0.0000 -102.1612 0.0000 35.9385
# 5 12.6351 13.8688 10.1800 0.0000 42.2363 0.0000
# 6 0.0000 0.0000 0.0000 35.9385 0.0000 42.7317
#
#
#
# Elastic Compliance Matrix: (Units=1/GPa)
#
#
# Indices 1 2 3 4 5 6 
#
# 1 0.009466 -0.001853 0.001239 0.000000 -0.002522 0.000000
# 2 -0.001853 0.003580 -0.000224 0.000000 -0.000567 0.000000
# 3 0.001239 -0.000224 0.012278 0.000000 -0.003256 0.000000
# 4 0.000000 0.000000 0.000000 -0.007554 0.000000 0.006353
# 5 -0.002522 -0.000567 -0.003256 0.000000 0.025402 0.000000
# 6 0.000000 0.000000 0.000000 0.006353 0.000000 0.018059
#
#
# Mechanical properties :
#
#
# Convention : Reuss Voigt Hill
#
# Bulk Modulus (GPa) = 42.29088 71.49060 56.89074
# Shear Modulus (GPa) = 70.63119 27.43403 49.03261
#
# Velocity S-wave (km/s) = 5.13717 3.20163 4.28024
# Velocity P-wave (km/s) = 7.14065 6.35444 6.75899
#
# Compressibility (1/GPa) = 0.02364576
#
# Stress axis : x y z
#
# Youngs Moduli (GPa) = 105.64651 279.35308 81.44427
#
# Poissons Ratio (x) = 0.51776 -0.10090
# Poissons Ratio (y) = 0.19581 0.01828
# Poissons Ratio (z) = -0.13089 0.06269
#
# Static dielectric constant tensor:
#      x y z
#    x 2.243420 0.000000 -0.066650 
#    y 0.000000 2.215950 0.000000 
#    z -0.066650 0.000000 2.165090 
# 
# From -- ./inp_files/6556.got.cif
#   From: 2010.05.17/outbox.cif.g08.bks.cpg/sg3_4_cif.got.tgz:6556.got - 2010.06.03 18:33:08.
