data_PCOD9113496
_publ_section_title
;
Structure prediction by ZEFSAII (Michael W. Deem and Ramdas Pophale) SiO2 
 PCOD9113496
Probable space group: P 2
;
_chemical_formula_sum "Si O2"
_cell_formula_units_Z 13
_cell_length_a 8.131476
_cell_length_b 9.622267
_cell_length_c 9.749519
_cell_angle_alpha 90.000000
_cell_angle_beta 130.966338
_cell_angle_gamma 90.000000
_cell_volume 576.011973
_symmetry_space_group_name_H-M "P 2"
_symmetry_group_IT_number 3
_symmetry_cell_setting 'monoclinic'
loop_
_space_group_symop_operation_xyz
x,y,z
-x,y,-z
loop_
_atom_site_type_symbol
_atom_site_label
_atom_site_fract_x
_atom_site_fract_y
_atom_site_fract_z
Si Si1 0.754166 0.284090 0.855219
Si Si2 0.461023 0.536834 0.201987
Si Si3 0.875107 0.664718 0.292625
Si Si4 0.000000 0.160697 0.500000
Si Si5 0.786048 0.804364 0.962309
Si Si6 0.538489 0.052836 0.181252
Si Si7 0.176061 0.403036 0.403878
O O1 0.246013 0.355346 0.292953
O O2 0.689904 0.407831 0.925596
O O3 0.582431 0.164741 0.789157
O O4 0.000000 0.230526 0.000000
O O5 0.634637 0.610000 0.197844
O O6 0.623033 0.465138 0.399651
O O7 0.298032 0.660892 0.153122
O O8 0.853870 0.771441 0.156311
O O9 0.000000 0.712888 0.500000
O O10 0.008510 0.530493 0.314751
O O11 0.793727 0.067186 0.348530
O O12 0.927893 0.268441 0.579547
O O13 0.000000 0.856121 0.000000
O O14 0.583382 0.909180 0.853842
O O15 0.500000 0.085992 0.000000
#
# Coordination Sequence:
#
# PCOD9113496 Si02
#       7
#     2   2   2   1   2   2   2
#     4  12  24  40  74 107 153 193 252 320 384 449
#     4  11  21  40  72 111 148 193 250 319 374 450
#     4  10  21  43  76 112 153 201 253 321 389 455
#     4  12  24  50  78 108 154 196 258 322 374 460
#     4  12  27  49  73 113 159 203 260 318 387 466
#     4  12  28  52  75 107 152 209 261 309 388 468
#     4  11  21  43  74 118 145 190 261 323 385 446
#
# _framework density 22.568977
#
# number of rings (size 3 to 8) (size 9 to 14) (size 15 to 20)
#    0.000    0.615    3.846    5.538    0.000    2.462 
#   11.077    0.000    6.769    0.000    0.000    0.000 
#    0.000    0.000    0.000    0.000    0.000    0.000 
#
# Total GULP energy -72704.842771 kJ/mol
# GULP energy per Si atom -5592.680213 kJ/mol
# Density = 2.251761 g / cm^3
# Si number density = 22.568977 Si / 1000 Ang^3
#
#
#
# Elastic Constant Matrix: (Units=GPa)
#
#
# Indices 1 2 3 4 5 6 
#
# 1 123.2678 34.8535 50.8546 0.0000 19.7135 0.0000
# 2 34.8535 119.6390 53.6426 0.0000 8.7700 0.0000
# 3 50.8546 53.6426 137.9910 0.0000 28.8964 0.0000
# 4 0.0000 0.0000 0.0000 -25.2160 0.0000 -36.1602
# 5 19.7135 8.7700 28.8964 0.0000 41.4326 0.0000
# 6 0.0000 0.0000 0.0000 -36.1602 0.0000 -1.0847
#
#
#
# Elastic Compliance Matrix: (Units=1/GPa)
#
#
# Indices 1 2 3 4 5 6 
#
# 1 0.010030 -0.001598 -0.002514 0.000000 -0.002681 0.000000
# 2 -0.001598 0.010395 -0.003689 0.000000 0.001133 0.000000
# 3 -0.002514 -0.003689 0.010766 0.000000 -0.005531 0.000000
# 4 0.000000 0.000000 0.000000 0.000847 0.000000 -0.028246
# 5 -0.002681 0.001133 -0.005531 0.000000 0.029029 0.000000
# 6 0.000000 0.000000 0.000000 -0.028246 0.000000 0.019697
#
#
# Mechanical properties :
#
#
# Convention : Reuss Voigt Hill
#
# Bulk Modulus (GPa) = 64.15059 73.28881 68.71970
# Shear Modulus (GPa) = 49.23044 19.12950 34.17997
#
# Velocity S-wave (km/s) = 4.67554 2.91452 3.89584
# Velocity P-wave (km/s) = 7.59167 6.62342 7.12401
#
# Compressibility (1/GPa) = 0.01558832
#
# Stress axis : x y z
#
# Youngs Moduli (GPa) = 99.69957 96.19807 92.88726
#
# Poissons Ratio (x) = 0.15376 0.23349
# Poissons Ratio (y) = 0.15936 0.34269
# Poissons Ratio (z) = 0.25062 0.35490
#
# Static dielectric constant tensor:
#      x y z
#    x 1.907190 0.000000 -0.065110 
#    y 0.000000 1.830910 0.000000 
#    z -0.065110 0.000000 2.373410 
# 
# From -- ./inp_files/10843.got.cif
#   From: 2010.05.17/outbox.cif.g08.bks.cpg/sg3_6_cif.got.tgz:10843.got - 2010.06.03 18:33:08.
