data_PCOD9113041
_publ_section_title
;
Structure prediction by ZEFSAII (Michael W. Deem and Ramdas Pophale) SiO2 
 PCOD9113041
Probable space group: P 2
;
_chemical_formula_sum "Si O2"
_cell_formula_units_Z 9
_cell_length_a 8.110531
_cell_length_b 5.597789
_cell_length_c 7.657108
_cell_angle_alpha 90.000000
_cell_angle_beta 108.295047
_cell_angle_gamma 90.000000
_cell_volume 330.068350
_symmetry_space_group_name_H-M "P 2"
_symmetry_group_IT_number 3
_symmetry_cell_setting 'monoclinic'
loop_
_space_group_symop_operation_xyz
x,y,z
-x,y,-z
loop_
_atom_site_type_symbol
_atom_site_label
_atom_site_fract_x
_atom_site_fract_y
_atom_site_fract_z
Si Si1 0.000000 0.071831 0.000000
Si Si2 0.438343 0.471462 0.696435
Si Si3 0.895910 0.388026 0.633243
Si Si4 0.822674 0.753789 0.198031
Si Si5 0.515238 0.961486 0.212479
O O1 0.069408 0.231634 0.183175
O O2 0.852143 0.900550 0.031542
O O3 0.298826 0.432044 0.497158
O O4 0.313402 0.530205 0.826253
O O5 0.535519 0.223333 0.750104
O O6 0.546482 0.716708 0.720753
O O7 0.000000 0.287436 0.500000
O O8 0.992453 0.641401 0.698056
O O9 0.726325 0.928672 0.303217
O O10 0.500000 0.943982 0.000000
#
# Coordination Sequence:
#
# PCOD9113041 Si02
#       5
#     1   2   2   2   2
#     4  12  22  36  64  98 136 168 204 264 332 384
#     4   9  21  35  61  91 125 162 209 264 310 368
#     4  10  21  38  60  95 137 160 212 259 329 379
#     4   9  21  34  57  93 128 161 203 257 322 367
#     4  10  20  38  63  94 124 168 219 258 308 381
#
# _framework density 27.267081000000001
#
# number of rings (size 3 to 8) (size 9 to 14) (size 15 to 20)
#    1.333    0.889    0.000    4.000    3.111    0.889 
#    0.000    0.000    0.000    1.333    0.000    0.000 
#    0.000    0.000    0.000    0.000    0.000    0.000 
#
# Total GULP energy -50240.254112 kJ/mol
# GULP energy per Si atom -5582.250457 kJ/mol
# Density = 2.720502 g / cm^3
# Si number density = 27.267081 Si / 1000 Ang^3
#
#
#
# Elastic Constant Matrix: (Units=GPa)
#
#
# Indices 1 2 3 4 5 6 
#
# 1 76.3913 42.0760 38.6875 0.0000 -23.1504 0.0000
# 2 42.0760 224.5691 97.7375 0.0000 -11.4124 0.0000
# 3 38.6875 97.7375 176.1668 0.0000 -9.9689 0.0000
# 4 0.0000 0.0000 0.0000 46.6371 0.0000 -4.9620
# 5 -23.1504 -11.4124 -9.9689 0.0000 46.6883 0.0000
# 6 0.0000 0.0000 0.0000 -4.9620 0.0000 20.9847
#
#
#
# Elastic Compliance Matrix: (Units=1/GPa)
#
#
# Indices 1 2 3 4 5 6 
#
# 1 0.017708 -0.001873 -0.002408 0.000000 0.007809 0.000000
# 2 -0.001873 0.006095 -0.002974 0.000000 -0.000074 0.000000
# 3 -0.002408 -0.002974 0.007841 0.000000 -0.000247 0.000000
# 4 0.000000 0.000000 0.000000 0.021996 0.000000 0.005201
# 5 0.007809 -0.000074 -0.000247 0.000000 0.025220 0.000000
# 6 0.000000 0.000000 0.000000 0.005201 0.000000 0.048884
#
#
# Mechanical properties :
#
#
# Convention : Reuss Voigt Hill
#
# Bulk Modulus (GPa) = 58.36383 92.68099 75.52241
# Shear Modulus (GPa) = 33.79203 42.77042 38.28123
#
# Velocity S-wave (km/s) = 3.52418 3.96482 3.75098
# Velocity P-wave (km/s) = 6.16529 7.41779 6.82035
#
# Compressibility (1/GPa) = 0.01713390
#
# Stress axis : x y z
#
# Youngs Moduli (GPa) = 56.47189 164.08081 127.53024
#
# Poissons Ratio (x) = 0.30734 0.30706
# Poissons Ratio (y) = 0.10578 0.37929
# Poissons Ratio (z) = 0.13597 0.48799
#
# Static dielectric constant tensor:
#      x y z
#    x 2.218290 0.000000 0.057210 
#    y 0.000000 2.128030 0.000000 
#    z 0.057210 0.000000 2.192140 
# 
# From -- ./inp_files/8000.got.cif
#   From: 2010.05.17/outbox.cif.g08.bks.cpg/sg3_4_cif.got.tgz:8000.got - 2010.06.03 18:33:08.
