data_PCOD9113842
_publ_section_title
;
Structure prediction by ZEFSAII (Michael W. Deem and Ramdas Pophale) SiO2 
 PCOD9113842
Probable space group: P 2
;
_chemical_formula_sum "Si O2"
_cell_formula_units_Z 13
_cell_length_a 17.183391
_cell_length_b 6.363255
_cell_length_c 9.816816
_cell_angle_alpha 90.000000
_cell_angle_beta 30.885773
_cell_angle_gamma 90.000000
_cell_volume 551.002983
_symmetry_space_group_name_H-M "P 2"
_symmetry_group_IT_number 3
_symmetry_cell_setting 'monoclinic'
loop_
_space_group_symop_operation_xyz
x,y,z
-x,y,-z
loop_
_atom_site_type_symbol
_atom_site_label
_atom_site_fract_x
_atom_site_fract_y
_atom_site_fract_z
Si Si1 0.000000 0.221421 0.500000
Si Si2 0.292199 0.897039 0.287104
Si Si3 0.500000 0.828263 0.500000
Si Si4 0.247174 0.315465 0.489086
Si Si5 0.843070 0.918899 0.955549
Si Si6 0.000000 0.048374 0.000000
Si Si7 0.446698 0.674498 0.281141
Si Si8 0.948441 0.588189 0.396499
O O1 0.906204 0.398020 0.558821
O O2 0.096083 0.086179 0.247578
O O3 0.315421 0.816007 0.407603
O O4 0.141394 0.805007 0.446919
O O5 0.295758 0.145918 0.300351
O O6 0.662065 0.947238 0.242027
O O7 0.474477 0.701123 0.398205
O O8 0.147961 0.185714 0.743859
O O9 0.393609 0.440373 0.322179
O O10 0.121868 0.487168 0.632138
O O11 0.586381 0.776395 0.988780
O O12 0.881031 0.675166 0.857656
O O13 0.940794 0.938970 0.949700
#
# Coordination Sequence:
#
# PCOD9113842 Si02
#       8
#     1   2   1   2   2   1   2   2
#     4  12  26  50  80 116 152 208 268 342 384 484
#     4  10  22  49  77 109 152 205 274 326 374 479
#     4  12  30  48  76 118 178 206 242 352 422 474
#     4  11  24  46  78 117 146 212 273 322 393 475
#     4  12  29  52  77 118 165 209 271 331 412 470
#     4  12  24  50  84 112 158 218 266 334 382 502
#     4  10  26  46  75 113 158 210 248 330 403 477
#     4  11  24  44  81 110 145 209 275 324 382 470
#
# _framework density 23.593337999999999
#
# number of rings (size 3 to 8) (size 9 to 14) (size 15 to 20)
#    0.000    0.923    3.077    1.385   10.769    4.923 
#    2.769    1.538    0.000    0.000    0.000    0.000 
#    0.000    0.000    0.000    0.000    0.000    0.000 
#
# Total GULP energy -72367.622599 kJ/mol
# GULP energy per Si atom -5566.740200 kJ/mol
# Density = 2.353964 g / cm^3
# Si number density = 23.593338 Si / 1000 Ang^3
#
#
#
# Elastic Constant Matrix: (Units=GPa)
#
#
# Indices 1 2 3 4 5 6 
#
# 1 140.2601 63.2435 51.6508 0.0000 11.0550 0.0000
# 2 63.2435 142.3011 82.7770 0.0000 6.9644 0.0000
# 3 51.6508 82.7770 132.8112 0.0000 6.9268 0.0000
# 4 0.0000 0.0000 0.0000 20.3227 0.0000 -14.4696
# 5 11.0550 6.9644 6.9268 0.0000 28.6963 0.0000
# 6 0.0000 0.0000 0.0000 -14.4696 0.0000 36.3312
#
#
#
# Elastic Compliance Matrix: (Units=1/GPa)
#
#
# Indices 1 2 3 4 5 6 
#
# 1 0.009296 -0.003111 -0.001549 0.000000 -0.002452 0.000000
# 2 -0.003111 0.012095 -0.006318 0.000000 -0.000212 0.000000
# 3 -0.001549 -0.006318 0.012111 0.000000 -0.000793 0.000000
# 4 0.000000 0.000000 0.000000 0.068682 0.000000 0.027354
# 5 -0.002452 -0.000212 -0.000793 0.000000 0.036036 0.000000
# 6 0.000000 0.000000 0.000000 0.027354 0.000000 0.038419
#
#
# Mechanical properties :
#
#
# Convention : Reuss Voigt Hill
#
# Bulk Modulus (GPa) = 86.59522 90.07945 88.33733
# Shear Modulus (GPa) = 24.69857 31.58344 28.14101
#
# Velocity S-wave (km/s) = 3.23901 3.66274 3.45737
# Velocity P-wave (km/s) = 7.12539 7.49336 7.31169
#
# Compressibility (1/GPa) = 0.01154798
#
# Stress axis : x y z
#
# Youngs Moduli (GPa) = 107.57678 82.67706 82.57084
#
# Poissons Ratio (x) = 0.25717 0.12786
# Poissons Ratio (y) = 0.33462 0.52167
# Poissons Ratio (z) = 0.16659 0.52234
#
# Static dielectric constant tensor:
#      x y z
#    x 2.059640 0.000000 0.001850 
#    y 0.000000 1.937720 0.000000 
#    z 0.001850 0.000000 2.148860 
# 
# From -- ./inp_files/7863.got.cif
#   From: 2010.05.17/outbox.cif.g08.bks.cpg/sg3_4_cif.got.tgz:7863.got - 2010.06.03 18:33:08.
