data_PCOD9113722
_publ_section_title
;
Structure prediction by ZEFSAII (Michael W. Deem and Ramdas Pophale) SiO2 
 PCOD9113722
Probable space group: P 2
;
_chemical_formula_sum "Si O2"
_cell_formula_units_Z 13
_cell_length_a 12.822974
_cell_length_b 6.299499
_cell_length_c 7.997368
_cell_angle_alpha 90.000000
_cell_angle_beta 127.384086
_cell_angle_gamma 90.000000
_cell_volume 513.311839
_symmetry_space_group_name_H-M "P 2"
_symmetry_group_IT_number 3
_symmetry_cell_setting 'monoclinic'
loop_
_space_group_symop_operation_xyz
x,y,z
-x,y,-z
loop_
_atom_site_type_symbol
_atom_site_label
_atom_site_fract_x
_atom_site_fract_y
_atom_site_fract_z
Si Si1 0.126017 0.611480 0.403639
Si Si2 0.000000 0.931385 0.500000
Si Si3 0.352128 0.835131 0.725939
Si Si4 0.616166 0.743640 0.866524
Si Si5 0.273235 0.325999 0.141284
Si Si6 0.500000 0.092914 0.500000
Si Si7 0.253690 0.232838 0.739462
Si Si8 0.000000 0.327236 0.000000
O O1 0.011483 0.762663 0.361057
O O2 0.241040 0.779175 0.484903
O O3 0.197622 0.447308 0.601206
O O4 0.069426 0.471473 0.204566
O O5 0.124582 0.083461 0.619120
O O6 0.471302 0.680935 0.793407
O O7 0.360612 0.092885 0.740815
O O8 0.319609 0.798067 0.891583
O O9 0.705028 0.580629 0.851295
O O10 0.563456 0.934780 0.699484
O O11 0.374950 0.250314 0.381399
O O12 0.128668 0.229077 0.037839
O O13 0.302442 0.270351 0.975248
#
# Coordination Sequence:
#
# PCOD9113722 Si02
#       8
#     2   1   2   2   2   1   2   1
#     4  11  24  45  70 103 146 195 250 314 374 453
#     4  10  22  42  72 102 138 192 254 316 370 448
#     4  10  24  45  77 107 139 198 256 312 376 456
#     4  11  25  49  73 110 150 190 255 319 380 449
#     4  12  27  50  74 111 158 204 249 317 381 459
#     4  12  28  46  78 110 160 196 246 322 390 452
#     4  11  22  46  75 102 142 198 260 307 378 454
#     4  12  30  44  74 110 152 204 244 304 390 448
#
# _framework density 25.325735999999999
#
# number of rings (size 3 to 8) (size 9 to 14) (size 15 to 20)
#    0.000    0.923    3.077    2.769    8.615    0.000 
#    0.000    3.846    0.000    0.000    0.000    0.000 
#    0.000    0.000    0.000    0.000    0.000    0.000 
#
# Total GULP energy -72387.556667 kJ/mol
# GULP energy per Si atom -5568.273590 kJ/mol
# Density = 2.526809 g / cm^3
# Si number density = 25.325736 Si / 1000 Ang^3
#
#
#
# Elastic Constant Matrix: (Units=GPa)
#
#
# Indices 1 2 3 4 5 6 
#
# 1 54.3380 2.4674 -0.9897 0.0000 21.7509 0.0000
# 2 2.4674 76.1423 21.5873 0.0000 -5.4955 0.0000
# 3 -0.9897 21.5873 123.6506 0.0000 2.8341 0.0000
# 4 0.0000 0.0000 0.0000 22.9771 0.0000 9.8751
# 5 21.7509 -5.4955 2.8341 0.0000 39.0917 0.0000
# 6 0.0000 0.0000 0.0000 9.8751 0.0000 18.3752
#
#
#
# Elastic Compliance Matrix: (Units=1/GPa)
#
#
# Indices 1 2 3 4 5 6 
#
# 1 0.023991 -0.002009 0.000857 0.000000 -0.013693 0.000000
# 2 -0.002009 0.014163 -0.002564 0.000000 0.003295 0.000000
# 3 0.000857 -0.002564 0.008575 0.000000 -0.001459 0.000000
# 4 0.000000 0.000000 0.000000 0.056593 0.000000 -0.030414
# 5 -0.013693 0.003295 -0.001459 0.000000 0.033769 0.000000
# 6 0.000000 0.000000 0.000000 -0.030414 0.000000 0.070766
#
#
# Mechanical properties :
#
#
# Convention : Reuss Voigt Hill
#
# Bulk Modulus (GPa) = 25.44704 33.36233 29.40468
# Shear Modulus (GPa) = 21.89241 31.49318 26.69279
#
# Velocity S-wave (km/s) = 2.94331 3.53019 3.25003
# Velocity P-wave (km/s) = 4.64979 5.46061 5.07143
#
# Compressibility (1/GPa) = 0.03929730
#
# Stress axis : x y z
#
# Youngs Moduli (GPa) = 41.68150 70.60563 116.61445
#
# Poissons Ratio (x) = 0.14182 -0.09988
# Poissons Ratio (y) = 0.08372 0.29903
# Poissons Ratio (z) = -0.03570 0.18105
#
# Static dielectric constant tensor:
#      x y z
#    x 2.461010 0.000000 0.088660 
#    y 0.000000 2.107770 0.000000 
#    z 0.088660 0.000000 1.946750 
# 
# From -- ./inp_files/8400.got.cif
#   From: 2010.05.17/outbox.cif.g08.bks.cpg/sg3_5_cif.got.tgz:8400.got - 2010.06.03 18:33:08.
