data_PCOD9113989
_publ_section_title
;
Structure prediction by ZEFSAII (Michael W. Deem and Ramdas Pophale) SiO2 
 PCOD9113989
Probable space group: P 2
;
_chemical_formula_sum "Si O2"
_cell_formula_units_Z 12
_cell_length_a 5.335230
_cell_length_b 7.394250
_cell_length_c 13.202992
_cell_angle_alpha 90.000000
_cell_angle_beta 66.165445
_cell_angle_gamma 90.000000
_cell_volume 476.437537
_symmetry_space_group_name_H-M "P 2"
_symmetry_group_IT_number 3
_symmetry_cell_setting 'monoclinic'
loop_
_space_group_symop_operation_xyz
x,y,z
-x,y,-z
loop_
_atom_site_type_symbol
_atom_site_label
_atom_site_fract_x
_atom_site_fract_y
_atom_site_fract_z
Si Si1 0.000000 0.892910 0.000000
Si Si2 0.000000 0.583352 0.500000
Si Si3 0.437378 0.698548 0.812621
Si Si4 0.500000 0.813744 0.500000
Si Si5 0.135121 0.198548 0.114879
Si Si6 0.587671 0.038033 0.302100
Si Si7 0.308130 0.359063 0.302100
Si Si8 0.500000 0.504187 0.000000
O O1 0.140608 0.764386 0.895314
O O2 0.802499 0.028308 0.969289
O O3 0.270055 0.698548 0.479945
O O4 0.053524 0.464209 0.390828
O O5 0.461810 0.516358 0.744050
O O6 0.550089 0.880737 0.744049
O O7 0.568761 0.632711 0.895314
O O8 0.664822 0.932888 0.390828
O O9 0.268466 0.258646 0.200697
O O10 0.241077 0.368789 0.030712
O O11 0.830141 0.138450 0.200697
O O12 0.386214 0.198548 0.363786
#
# Coordination Sequence:
#
# PCOD9113989 Si02
#       8
#     1   1   2   1   2   2   2   1
#     4  10  24  42  76 106 156 202 258 316 388 470
#     4  12  30  56  86 120 158 206 264 334 416 482
#     4  10  24  46  70 112 152 200 258 318 392 466
#     4  12  30  56  86 120 158 206 264 334 416 482
#     4  10  26  44  72 114 154 200 262 320 386 468
#     4  11  27  49  81 111 154 201 266 327 401 474
#     4  11  27  49  81 111 154 201 266 327 401 474
#     4  10  24  42  76 106 156 202 258 316 388 470
#
# _framework density 25.186931000000001
#
# number of rings (size 3 to 8) (size 9 to 14) (size 15 to 20)
#    0.000    1.333    1.667    0.000   21.000    0.000 
#    6.000    0.000    0.000    0.000    0.000    0.000 
#    0.000    0.000    0.000    0.000    0.000    0.000 
#
# Total GULP energy -66927.295864 kJ/mol
# GULP energy per Si atom -5577.274655 kJ/mol
# Density = 2.512960 g / cm^3
# Si number density = 25.186931 Si / 1000 Ang^3
#
#
#
# Elastic Constant Matrix: (Units=GPa)
#
#
# Indices 1 2 3 4 5 6 
#
# 1 92.1110 60.5730 23.4598 0.0000 1.0253 0.0000
# 2 60.5730 193.9078 51.7230 0.0000 0.2786 0.0000
# 3 23.4598 51.7230 113.5008 0.0000 -1.6977 0.0000
# 4 0.0000 0.0000 0.0000 141.4113 0.0000 -3.0764
# 5 1.0253 0.2786 -1.6977 0.0000 18.1201 0.0000
# 6 0.0000 0.0000 0.0000 -3.0764 0.0000 43.7054
#
#
#
# Elastic Compliance Matrix: (Units=1/GPa)
#
#
# Indices 1 2 3 4 5 6 
#
# 1 0.013776 -0.004029 -0.001023 0.000000 -0.000813 0.000000
# 2 -0.004029 0.007051 -0.002382 0.000000 -0.000104 0.000000
# 3 -0.001023 -0.002382 0.010123 0.000000 0.001043 0.000000
# 4 0.000000 0.000000 0.000000 0.007082 0.000000 0.000499
# 5 -0.000813 -0.000104 0.001043 0.000000 0.055333 0.000000
# 6 0.000000 0.000000 0.000000 0.000499 0.000000 0.022916
#
#
# Mechanical properties :
#
#
# Convention : Reuss Voigt Hill
#
# Bulk Modulus (GPa) = 62.18530 74.55903 68.37216
# Shear Modulus (GPa) = 36.62725 58.23159 47.42942
#
# Velocity S-wave (km/s) = 3.81756 4.81352 4.34417
# Velocity P-wave (km/s) = 6.64641 7.78202 7.23652
#
# Compressibility (1/GPa) = 0.01608097
#
# Stress axis : x y z
#
# Youngs Moduli (GPa) = 72.59123 141.81883 98.78330
#
# Poissons Ratio (x) = 0.57141 0.10110
# Poissons Ratio (y) = 0.29248 0.23531
# Poissons Ratio (z) = 0.07429 0.33782
#
# Static dielectric constant tensor:
#      x y z
#    x 1.852450 0.000000 -0.004940 
#    y 0.000000 1.963260 0.000000 
#    z -0.004940 0.000000 2.009330 
# 
# From -- ./inp_files/2853.got.cif
#   From: 2010.05.17/outbox.cif.g08.bks.cpg/sg3_2_cif.got.tgz:2853.got - 2010.06.03 18:33:08.
