data_PCOD9113347
_publ_section_title
;
Structure prediction by ZEFSAII (Michael W. Deem and Ramdas Pophale) SiO2 
 PCOD9113347
Probable space group: P 2
;
_chemical_formula_sum "Si O2"
_cell_formula_units_Z 16
_cell_length_a 8.392950
_cell_length_b 17.655135
_cell_length_c 9.152401
_cell_angle_alpha 90.000000
_cell_angle_beta 146.971634
_cell_angle_gamma 90.000000
_cell_volume 739.197332
_symmetry_space_group_name_H-M "P 2"
_symmetry_group_IT_number 3
_symmetry_cell_setting 'monoclinic'
loop_
_space_group_symop_operation_xyz
x,y,z
-x,y,-z
loop_
_atom_site_type_symbol
_atom_site_label
_atom_site_fract_x
_atom_site_fract_y
_atom_site_fract_z
Si Si1 0.370189 0.681420 0.559248
Si Si2 0.130080 0.787261 0.940078
Si Si3 0.180767 0.050455 0.287966
Si Si4 0.105764 0.194393 0.420005
Si Si5 0.271315 0.516684 0.602263
Si Si6 0.893501 0.450959 0.074414
Si Si7 0.822948 0.935638 0.214079
Si Si8 0.607361 0.296761 0.921693
O O1 0.500000 0.660436 0.500000
O O2 0.272778 0.604515 0.559812
O O3 0.113061 0.740075 0.332015
O O4 0.611156 0.728282 0.832251
O O5 0.214651 0.859681 0.910639
O O6 0.000000 0.809637 0.000000
O O7 0.500000 0.017129 0.500000
O O8 0.229947 0.127186 0.418091
O O9 0.999864 0.994507 0.251679
O O10 0.000000 0.063677 0.000000
O O11 0.334587 0.262412 0.624666
O O12 0.000000 0.168085 0.500000
O O13 0.825343 0.228009 0.122723
O O14 0.601605 0.495784 0.901108
O O15 0.000000 0.503046 0.500000
O O16 0.171696 0.463912 0.391128
O O17 0.783259 0.364690 0.983869
O O18 0.000000 0.479483 0.000000
O O19 0.000000 0.921416 0.500000
O O20 0.500000 0.966026 0.000000
O O21 0.500000 0.324230 0.000000
#
# Coordination Sequence:
#
# PCOD9113347 Si02
#       8
#     2   2   2   2   2   2   2   2
#     4  10  21  39  64  93 127 167 210 263 324 387
#     4  10  22  41  65  93 128 168 211 262 325 387
#     4  12  26  44  68  98 133 173 218 272 325 388
#     4  10  22  41  65  93 128 168 211 262 325 387
#     4  12  25  42  65  94 129 170 217 269 322 384
#     4  12  25  42  65  94 129 170 217 269 322 384
#     4  12  26  44  68  98 133 173 218 272 325 388
#     4  10  21  39  64  93 127 167 210 263 324 387
#
# _framework density 21.645099999999999
#
# number of rings (size 3 to 8) (size 9 to 14) (size 15 to 20)
#    0.000    1.000    0.000    6.750    0.000    8.000 
#    0.000    0.000    0.000    0.000    0.000    0.000 
#    0.000    0.000    0.000    0.000    0.000    0.000 
#
# Total GULP energy -89535.607357 kJ/mol
# GULP energy per Si atom -5595.975460 kJ/mol
# Density = 2.159583 g / cm^3
# Si number density = 21.645100 Si / 1000 Ang^3
#
#
#
# Elastic Constant Matrix: (Units=GPa)
#
#
# Indices 1 2 3 4 5 6 
#
# 1 82.7922 28.8184 14.2090 0.0000 14.1110 0.0000
# 2 28.8184 69.6066 31.9450 0.0000 -13.3053 0.0000
# 3 14.2090 31.9450 158.2738 0.0000 0.6384 0.0000
# 4 0.0000 0.0000 0.0000 30.5798 0.0000 14.4480
# 5 14.1110 -13.3053 0.6384 0.0000 36.1815 0.0000
# 6 0.0000 0.0000 0.0000 14.4480 0.0000 32.1719
#
#
#
# Elastic Compliance Matrix: (Units=1/GPa)
#
#
# Indices 1 2 3 4 5 6 
#
# 1 0.016847 -0.009027 0.000349 0.000000 -0.009896 0.000000
# 2 -0.009027 0.022028 -0.003683 0.000000 0.011686 0.000000
# 3 0.000349 -0.003683 0.007037 0.000000 -0.001615 0.000000
# 4 0.000000 0.000000 0.000000 0.041509 0.000000 -0.018641
# 5 -0.009896 0.011686 -0.001615 0.000000 0.035824 0.000000
# 6 0.000000 0.000000 0.000000 -0.018641 0.000000 0.039454
#
#
# Mechanical properties :
#
#
# Convention : Reuss Voigt Hill
#
# Bulk Modulus (GPa) = 47.19002 51.17971 49.18486
# Shear Modulus (GPa) = 25.70916 35.49999 30.60457
#
# Velocity S-wave (km/s) = 3.45013 4.05420 3.76430
# Velocity P-wave (km/s) = 6.14168 6.75364 6.45492
#
# Compressibility (1/GPa) = 0.02119092
#
# Stress axis : x y z
#
# Youngs Moduli (GPa) = 59.35639 45.39716 142.11417
#
# Poissons Ratio (x) = 0.40981 -0.04966
# Poissons Ratio (y) = 0.53582 0.52336
# Poissons Ratio (z) = -0.02074 0.16718
#
# Static dielectric constant tensor:
#      x y z
#    x 1.810520 0.000000 -0.018320 
#    y 0.000000 1.733230 0.000000 
#    z -0.018320 0.000000 1.744430 
# 
# From -- ./inp_files/6306.got.cif
#   From: 2010.05.17/outbox.cif.g08.bks.cpg/sg3_4_cif.got.tgz:6306.got - 2010.06.03 18:33:08.
