data_PCOD9113036
_publ_section_title
;
Structure prediction by ZEFSAII (Michael W. Deem and Ramdas Pophale) SiO2 
 PCOD9113036
Probable space group: P 2
;
_chemical_formula_sum "Si O2"
_cell_formula_units_Z 16
_cell_length_a 7.759013
_cell_length_b 18.821139
_cell_length_c 7.907269
_cell_angle_alpha 90.000000
_cell_angle_beta 143.661856
_cell_angle_gamma 90.000000
_cell_volume 684.232334
_symmetry_space_group_name_H-M "P 2"
_symmetry_group_IT_number 3
_symmetry_cell_setting 'monoclinic'
loop_
_space_group_symop_operation_xyz
x,y,z
-x,y,-z
loop_
_atom_site_type_symbol
_atom_site_label
_atom_site_fract_x
_atom_site_fract_y
_atom_site_fract_z
Si Si1 0.085186 0.479230 0.866437
Si Si2 0.173305 0.985135 0.308993
Si Si3 0.314088 0.710956 0.693504
Si Si4 0.195925 0.336789 0.352383
Si Si5 0.410983 0.564432 0.626790
Si Si6 0.616033 0.252660 0.903172
Si Si7 0.817913 0.831986 0.684309
Si Si8 0.819318 0.109774 0.198834
O O1 0.944499 0.408156 0.679191
O O2 0.924233 0.544074 0.649309
O O3 0.417895 0.502713 0.138333
O O4 0.000000 0.472255 0.000000
O O5 0.500000 0.999161 0.500000
O O6 0.031564 0.049298 0.298844
O O7 0.106829 0.908032 0.340713
O O8 0.000000 0.978680 0.000000
O O9 0.477553 0.642441 0.748821
O O10 0.229727 0.769364 0.486582
O O11 0.000000 0.683969 0.500000
O O12 0.500000 0.739557 0.000000
O O13 0.500000 0.362499 0.500000
O O14 0.342217 0.272608 0.572424
O O15 0.882930 0.301685 0.054847
O O16 0.500000 0.563289 0.500000
O O17 0.500000 0.268150 0.000000
O O18 0.732978 0.172244 0.000513
O O19 0.500000 0.848047 0.500000
O O20 0.000000 0.814417 0.000000
O O21 0.000000 0.141863 0.500000
O O22 0.500000 0.080814 0.000000
#
# Coordination Sequence:
#
# PCOD9113036 Si02
#       8
#     2   2   2   2   2   2   2   2
#     4  10  20  38  63  91 120 156 210 266 320 385
#     4  10  22  41  67 100 132 166 222 285 327 379
#     4  12  25  41  63  98 138 169 215 282 332 385
#     4  12  23  40  66  95 123 159 214 275 322 375
#     4  10  21  39  64  87 118 169 212 252 319 399
#     4  11  24  42  60  89 130 172 211 254 321 400
#     4  10  22  43  68  95 131 178 224 267 330 408
#     4  11  23  42  65  91 131 177 217 263 326 403
#
# _framework density 23.383869000000001
#
# number of rings (size 3 to 8) (size 9 to 14) (size 15 to 20)
#    0.000    1.250    0.000    7.500    0.000    3.500 
#    0.000    7.500    0.000    0.000    0.000    0.000 
#    0.000    0.000    0.000    0.000    0.000    0.000 
#
# Total GULP energy -89143.869192 kJ/mol
# GULP energy per Si atom -5571.491825 kJ/mol
# Density = 2.333065 g / cm^3
# Si number density = 23.383869 Si / 1000 Ang^3
#
#
#
# Elastic Constant Matrix: (Units=GPa)
#
#
# Indices 1 2 3 4 5 6 
#
# 1 57.9795 33.6182 11.3946 0.0000 13.1834 0.0000
# 2 33.6182 151.8301 31.9512 0.0000 -0.6533 0.0000
# 3 11.3946 31.9512 135.7593 0.0000 25.6773 0.0000
# 4 0.0000 0.0000 0.0000 22.0217 0.0000 15.4594
# 5 13.1834 -0.6533 25.6773 0.0000 29.4933 0.0000
# 6 0.0000 0.0000 0.0000 15.4594 0.0000 23.5603
#
#
#
# Elastic Compliance Matrix: (Units=1/GPa)
#
#
# Indices 1 2 3 4 5 6 
#
# 1 0.022725 -0.005412 0.001569 0.000000 -0.011643 0.000000
# 2 -0.005412 0.008307 -0.002386 0.000000 0.004680 0.000000
# 3 0.001569 -0.002386 0.009503 0.000000 -0.009028 0.000000
# 4 0.000000 0.000000 0.000000 0.084191 0.000000 -0.055243
# 5 -0.011643 0.004680 -0.009028 0.000000 0.047074 0.000000
# 6 0.000000 0.000000 0.000000 -0.055243 0.000000 0.078693
#
#
# Mechanical properties :
#
#
# Convention : Reuss Voigt Hill
#
# Bulk Modulus (GPa) = 35.61737 55.49964 45.55850
# Shear Modulus (GPa) = 18.36137 32.92203 25.64170
#
# Velocity S-wave (km/s) = 2.80521 3.75626 3.31502
# Velocity P-wave (km/s) = 5.07513 6.52674 5.84617
#
# Compressibility (1/GPa) = 0.02807619
#
# Stress axis : x y z
#
# Youngs Moduli (GPa) = 44.00506 120.38224 105.22555
#
# Poissons Ratio (x) = 0.65149 -0.16505
# Poissons Ratio (y) = 0.23815 0.25107
# Poissons Ratio (z) = -0.06903 0.28724
#
# Static dielectric constant tensor:
#      x y z
#    x 1.943730 0.000000 -0.066720 
#    y 0.000000 1.970860 0.000000 
#    z -0.066720 0.000000 1.884450 
# 
# From -- ./inp_files/6311.got.cif
#   From: 2010.05.17/outbox.cif.g08.bks.cpg/sg3_4_cif.got.tgz:6311.got - 2010.06.03 18:33:08.
