data_PCOD9113932
_publ_section_title
;
Structure prediction by ZEFSAII (Michael W. Deem and Ramdas Pophale) SiO2 
 PCOD9113932
Probable space group: P 2
;
_chemical_formula_sum "Si O2"
_cell_formula_units_Z 14
_cell_length_a 5.372645
_cell_length_b 6.635695
_cell_length_c 15.708214
_cell_angle_alpha 90.000000
_cell_angle_beta 83.121420
_cell_angle_gamma 90.000000
_cell_volume 555.986306
_symmetry_space_group_name_H-M "P 2"
_symmetry_group_IT_number 3
_symmetry_cell_setting 'monoclinic'
loop_
_space_group_symop_operation_xyz
x,y,z
-x,y,-z
loop_
_atom_site_type_symbol
_atom_site_label
_atom_site_fract_x
_atom_site_fract_y
_atom_site_fract_z
Si Si1 0.558802 0.235910 0.679495
Si Si2 0.968676 0.154658 0.102897
Si Si3 0.462154 0.900858 0.103918
Si Si4 0.566708 0.841985 0.621426
Si Si5 0.000000 0.630330 0.500000
Si Si6 0.500000 0.150149 0.500000
Si Si7 0.202423 0.520582 0.189302
Si Si8 0.180931 0.518761 0.670089
O O1 0.632184 0.005345 0.688645
O O2 0.624717 0.271537 0.573855
O O3 0.685505 0.364487 0.746775
O O4 0.266992 0.298828 0.696444
O O5 0.201117 0.020177 0.125543
O O6 0.033612 0.382370 0.133127
O O7 0.701433 0.035499 0.127405
O O8 0.000000 0.166111 0.000000
O O9 0.500000 0.879857 0.000000
O O10 0.795386 0.766399 0.556360
O O11 0.596659 0.675074 0.857811
O O12 0.428059 0.652056 0.661398
O O13 0.381762 0.982913 0.570250
O O14 0.889202 0.506837 0.425663
O O15 0.008815 0.629997 0.260667
#
# Coordination Sequence:
#
# PCOD9113932 Si02
#       8
#     2   2   2   2   1   1   2   2
#     4  10  25  45  65 105 146 198 255 326 387 465
#     4  10  26  53  87 121 164 217 264 337 419 506
#     4  10  26  54  87 120 163 216 270 331 420 506
#     4  10  23  45  69  94 145 205 265 323 393 476
#     4  12  22  44  74  94 140 214 264 322 400 470
#     4   8  20  46  68  88 146 204 258 310 380 468
#     4  12  29  46  81 121 156 205 270 341 407 495
#     4  12  26  42  68 109 147 200 257 336 400 467
#
# _framework density 25.180475999999999
#
# number of rings (size 3 to 8) (size 9 to 14) (size 15 to 20)
#    0.857    0.571    1.429    0.857    8.000    9.143 
#    0.000    1.429    0.000    0.000    0.000    0.000 
#    0.000    0.000    0.000    0.000    0.000    0.000 
#
# Total GULP energy -77962.276052 kJ/mol
# GULP energy per Si atom -5568.734004 kJ/mol
# Density = 2.512316 g / cm^3
# Si number density = 25.180476 Si / 1000 Ang^3
#
#
#
# Elastic Constant Matrix: (Units=GPa)
#
#
# Indices 1 2 3 4 5 6 
#
# 1 140.0819 56.6669 47.3142 0.0000 1.0752 0.0000
# 2 56.6669 109.2529 47.5136 0.0000 9.2642 0.0000
# 3 47.3142 47.5136 121.2248 0.0000 14.7596 0.0000
# 4 0.0000 0.0000 0.0000 32.0552 0.0000 7.8170
# 5 1.0752 9.2642 14.7596 0.0000 40.4317 0.0000
# 6 0.0000 0.0000 0.0000 7.8170 0.0000 32.3959
#
#
#
# Elastic Compliance Matrix: (Units=1/GPa)
#
#
# Indices 1 2 3 4 5 6 
#
# 1 0.009560 -0.004080 -0.002318 0.000000 0.001527 0.000000
# 2 -0.004080 0.012813 -0.003229 0.000000 -0.001649 0.000000
# 3 -0.002318 -0.003229 0.010802 0.000000 -0.003142 0.000000
# 4 0.000000 0.000000 0.000000 0.033147 0.000000 -0.007998
# 5 0.001527 -0.001649 -0.003142 0.000000 0.026217 0.000000
# 6 0.000000 0.000000 0.000000 -0.007998 0.000000 0.032798
#
#
# Mechanical properties :
#
#
# Convention : Reuss Voigt Hill
#
# Bulk Modulus (GPa) = 71.83180 74.83877 73.33528
# Shear Modulus (GPa) = 33.50475 35.58090 34.54282
#
# Velocity S-wave (km/s) = 3.65167 3.76311 3.70781
# Velocity P-wave (km/s) = 6.80943 6.97616 6.89330
#
# Compressibility (1/GPa) = 0.01392141
#
# Stress axis : x y z
#
# Youngs Moduli (GPa) = 104.59742 78.04340 92.57517
#
# Poissons Ratio (x) = 0.31842 0.21461
# Poissons Ratio (y) = 0.42677 0.29892
# Poissons Ratio (z) = 0.24248 0.25200
#
# Static dielectric constant tensor:
#      x y z
#    x 2.257140 0.000000 0.064270 
#    y 0.000000 2.283440 0.000000 
#    z 0.064270 0.000000 2.062270 
# 
# From -- ./inp_files/12917.got.cif
#   From: 2010.05.17/outbox.cif.g08.bks.cpg/sg3_7_cif.got.tgz:12917.got - 2010.06.03 18:33:08.
