data_PCOD9113545
_publ_section_title
;
Structure prediction by ZEFSAII (Michael W. Deem and Ramdas Pophale) SiO2 
 PCOD9113545
Probable space group: P 2
;
_chemical_formula_sum "Si O2"
_cell_formula_units_Z 15
_cell_length_a 13.230939
_cell_length_b 12.270410
_cell_length_c 5.423319
_cell_angle_alpha 90.000000
_cell_angle_beta 58.657776
_cell_angle_gamma 90.000000
_cell_volume 751.988636
_symmetry_space_group_name_H-M "P 2"
_symmetry_group_IT_number 3
_symmetry_cell_setting 'monoclinic'
loop_
_space_group_symop_operation_xyz
x,y,z
-x,y,-z
loop_
_atom_site_type_symbol
_atom_site_label
_atom_site_fract_x
_atom_site_fract_y
_atom_site_fract_z
Si Si1 0.361133 0.733300 0.173914
Si Si2 0.766395 0.391001 0.030614
Si Si3 0.149360 0.223098 0.707362
Si Si4 0.867262 0.984121 0.174063
Si Si5 0.367029 0.198172 0.075042
Si Si6 0.355484 0.616150 0.685846
Si Si7 0.000000 0.335029 0.500000
Si Si8 0.728568 0.963378 0.861975
O O1 0.316485 0.680858 0.487444
O O2 0.345100 0.861561 0.148589
O O3 0.500000 0.710023 0.000000
O O4 0.313864 0.677087 0.986506
O O5 0.831491 0.332367 0.169860
O O6 0.698145 0.496095 0.212568
O O7 0.675824 0.298949 0.040544
O O8 0.880583 0.404616 0.705373
O O9 0.129023 0.113709 0.886176
O O10 0.273842 0.203858 0.414616
O O11 0.045912 0.251352 0.649789
O O12 0.819677 0.978811 0.516227
O O13 0.000000 0.939442 0.000000
O O14 0.789068 0.936867 0.049108
O O15 0.345657 0.075125 0.002094
O O16 0.500000 0.211555 0.000000
O O17 0.500000 0.610940 0.500000
#
# Coordination Sequence:
#
# PCOD9113545 Si02
#       8
#     2   2   2   2   2   2   1   2
#     4  10  22  44  67  92 121 169 218 265 307 389
#     4  11  22  39  62  93 130 168 212 269 318 393
#     4  10  22  37  59  90 129 173 216 250 317 397
#     4  11  22  37  63  92 127 169 210 263 312 389
#     4  10  23  36  57  97 134 170 197 265 336 390
#     4  10  24  40  68  93 124 171 220 264 322 374
#     4  10  22  38  62  86 126 178 220 258 312 392
#     4  11  22  41  64  93 127 165 215 262 325 379
#
# _framework density 19.947109000000001
#
# number of rings (size 3 to 8) (size 9 to 14) (size 15 to 20)
#    0.000    1.600    1.333    2.800    9.333    0.533 
#    0.000    1.333    5.867    0.000    0.000    0.000 
#    0.000    0.000    0.000    0.000    0.000    0.000 
#
# Total GULP energy -83546.342369 kJ/mol
# GULP energy per Si atom -5569.756158 kJ/mol
# Density = 1.990171 g / cm^3
# Si number density = 19.947109 Si / 1000 Ang^3
#
#
#
# Elastic Constant Matrix: (Units=GPa)
#
#
# Indices 1 2 3 4 5 6 
#
# 1 114.7738 28.7532 33.3923 0.0000 10.2868 0.0000
# 2 28.7532 79.6127 20.3796 0.0000 6.8443 0.0000
# 3 33.3923 20.3796 44.8746 0.0000 17.0047 0.0000
# 4 0.0000 0.0000 0.0000 28.7319 0.0000 5.1151
# 5 10.2868 6.8443 17.0047 0.0000 22.6511 0.0000
# 6 0.0000 0.0000 0.0000 5.1151 0.0000 16.7656
#
#
#
# Elastic Compliance Matrix: (Units=1/GPa)
#
#
# Indices 1 2 3 4 5 6 
#
# 1 0.011494 -0.002200 -0.008144 0.000000 0.001559 0.000000
# 2 -0.002200 0.014644 -0.005192 0.000000 0.000472 0.000000
# 3 -0.008144 -0.005192 0.040120 0.000000 -0.024851 0.000000
# 4 0.000000 0.000000 0.000000 0.036804 0.000000 -0.011229
# 5 0.001559 0.000472 -0.024851 0.000000 0.061954 0.000000
# 6 0.000000 0.000000 0.000000 -0.011229 0.000000 0.063072
#
#
# Mechanical properties :
#
#
# Convention : Reuss Voigt Hill
#
# Bulk Modulus (GPa) = 28.42204 44.92348 36.67276
# Shear Modulus (GPa) = 18.45776 24.07878 21.26827
#
# Velocity S-wave (km/s) = 3.04523 3.47815 3.26887
# Velocity P-wave (km/s) = 5.16180 6.22095 5.71596
#
# Compressibility (1/GPa) = 0.03518397
#
# Stress axis : x y z
#
# Youngs Moduli (GPa) = 87.00331 68.28742 24.92523
#
# Poissons Ratio (x) = 0.15026 0.20300
# Poissons Ratio (y) = 0.19144 0.12941
# Poissons Ratio (z) = 0.70859 0.35456
#
# Static dielectric constant tensor:
#      x y z
#    x 1.705540 0.000000 0.032940 
#    y 0.000000 1.717800 0.000000 
#    z 0.032940 0.000000 1.827020 
# 
# From -- ./inp_files/2464.got.cif
#   From: 2010.05.17/outbox.cif.g08.bks.cpg/sg3_2_cif.got.tgz:2464.got - 2010.06.03 18:33:08.
