data_PCOD9113544
_publ_section_title
;
Structure prediction by ZEFSAII (Michael W. Deem and Ramdas Pophale) SiO2 
 PCOD9113544
Probable space group: P 2
;
_chemical_formula_sum "Si O2"
_cell_formula_units_Z 14
_cell_length_a 24.499237
_cell_length_b 5.298627
_cell_length_c 9.456371
_cell_angle_alpha 90.000000
_cell_angle_beta 154.512015
_cell_angle_gamma 90.000000
_cell_volume 528.243025
_symmetry_space_group_name_H-M "P 2"
_symmetry_group_IT_number 3
_symmetry_cell_setting 'monoclinic'
loop_
_space_group_symop_operation_xyz
x,y,z
-x,y,-z
loop_
_atom_site_type_symbol
_atom_site_label
_atom_site_fract_x
_atom_site_fract_y
_atom_site_fract_z
Si Si1 0.714638 0.786290 0.316029
Si Si2 0.838044 0.408124 0.795857
Si Si3 0.062521 0.805669 0.795426
Si Si4 0.722870 0.508114 0.055232
Si Si5 0.090764 0.142976 0.368400
Si Si6 0.664493 0.026725 0.478174
Si Si7 0.618133 0.990174 0.678592
O O1 0.825787 0.623699 0.649912
O O2 0.666238 0.615438 0.072903
O O3 0.783105 0.036178 0.414786
O O4 0.635674 0.866421 0.270514
O O5 0.052581 0.229419 0.007396
O O6 0.697457 0.302879 0.495397
O O7 0.807593 0.959056 0.869814
O O8 0.000000 0.844866 0.500000
O O9 0.954305 0.897425 0.649638
O O10 0.110167 0.524889 0.938347
O O11 0.853669 0.373935 0.408653
O O12 0.658714 0.269782 0.825552
O O13 0.713794 0.755523 0.933617
O O14 0.585425 0.005131 0.435759
O O15 0.500000 0.924388 0.500000
#
# Coordination Sequence:
#
# PCOD9113544 Si02
#       7
#     2   2   2   2   2   2   2
#     4  11  24  44  69 107 155 200 246 297 369 438
#     4  10  24  37  66 104 159 201 246 286 356 437
#     4  10  22  37  58 104 151 202 244 292 353 437
#     4  12  26  48  80 109 141 193 247 311 370 457
#     4  11  23  40  66 108 153 201 247 281 360 440
#     4  10  25  44  68 105 148 196 243 311 371 439
#     4  12  29  54  83 108 141 191 255 325 395 442
#
# _framework density 26.502949999999998
#
# number of rings (size 3 to 8) (size 9 to 14) (size 15 to 20)
#    0.000    1.143    1.429    3.000    6.000   16.000 
#    0.000    0.714    3.143    0.000    0.000    0.000 
#    0.000    0.000    0.000    0.000    0.000    0.000 
#
# Total GULP energy -78125.744561 kJ/mol
# GULP energy per Si atom -5580.410326 kJ/mol
# Density = 2.644263 g / cm^3
# Si number density = 26.502950 Si / 1000 Ang^3
#
#
#
# Elastic Constant Matrix: (Units=GPa)
#
#
# Indices 1 2 3 4 5 6 
#
# 1 144.6163 26.0764 15.4813 0.0000 -13.5954 0.0000
# 2 26.0764 152.0312 33.0123 0.0000 -12.9307 0.0000
# 3 15.4813 33.0123 44.2593 0.0000 -7.2714 0.0000
# 4 0.0000 0.0000 0.0000 19.1688 0.0000 -17.1258
# 5 -13.5954 -12.9307 -7.2714 0.0000 33.4998 0.0000
# 6 0.0000 0.0000 0.0000 -17.1258 0.0000 23.1453
#
#
#
# Elastic Compliance Matrix: (Units=1/GPa)
#
#
# Indices 1 2 3 4 5 6 
#
# 1 0.007447 -0.000709 -0.001685 0.000000 0.002383 0.000000
# 2 -0.000709 0.008025 -0.005471 0.000000 0.001622 0.000000
# 3 -0.001685 -0.005471 0.027796 0.000000 0.003238 0.000000
# 4 0.000000 0.000000 0.000000 0.153916 0.000000 0.113886
# 5 0.002383 0.001622 0.003238 0.000000 0.032147 0.000000
# 6 0.000000 0.000000 0.000000 0.113886 0.000000 0.127472
#
#
# Mechanical properties :
#
#
# Convention : Reuss Voigt Hill
#
# Bulk Modulus (GPa) = 36.31233 54.44964 45.38098
# Shear Modulus (GPa) = 13.09884 32.91856 23.00870
#
# Velocity S-wave (km/s) = 2.22556 3.52813 2.94965
# Velocity P-wave (km/s) = 4.50945 6.09805 5.36290
#
# Compressibility (1/GPa) = 0.02753886
#
# Stress axis : x y z
#
# Youngs Moduli (GPa) = 134.28165 124.60695 35.97588
#
# Poissons Ratio (x) = 0.08832 0.06061
# Poissons Ratio (y) = 0.09518 0.19684
# Poissons Ratio (z) = 0.22622 0.68178
#
# Static dielectric constant tensor:
#      x y z
#    x 2.207300 0.000000 -0.089850 
#    y 0.000000 2.132680 0.000000 
#    z -0.089850 0.000000 2.156610 
# 
# From -- ./inp_files/9534.got.cif
#   From: 2010.05.17/outbox.cif.g08.bks.cpg/sg3_5_cif.got.tgz:9534.got - 2010.06.03 18:33:08.
