data_PCOD9113054
_publ_section_title
;
Structure prediction by ZEFSAII (Michael W. Deem and Ramdas Pophale) SiO2 
 PCOD9113054
Probable space group: P 2
;
_chemical_formula_sum "Si O2"
_cell_formula_units_Z 8
_cell_length_a 7.386961
_cell_length_b 8.329702
_cell_length_c 8.995114
_cell_angle_alpha 90.000000
_cell_angle_beta 32.303183
_cell_angle_gamma 90.000000
_cell_volume 295.779335
_symmetry_space_group_name_H-M "P 2"
_symmetry_group_IT_number 3
_symmetry_cell_setting 'monoclinic'
loop_
_space_group_symop_operation_xyz
x,y,z
-x,y,-z
loop_
_atom_site_type_symbol
_atom_site_label
_atom_site_fract_x
_atom_site_fract_y
_atom_site_fract_z
Si Si1 0.297173 0.977440 0.985243
Si Si2 0.449370 0.291228 0.360404
Si Si3 0.207742 0.788034 0.512727
Si Si4 0.161792 0.481179 0.141994
O O1 0.419515 0.827837 0.799950
O O2 0.408510 0.134934 0.821396
O O3 0.500000 0.979656 0.000000
O O4 0.920818 0.937508 0.298435
O O5 0.500000 0.281339 0.500000
O O6 0.050045 0.337717 0.630225
O O7 0.681976 0.427083 0.122147
O O8 0.000000 0.783653 0.500000
O O9 0.102670 0.626754 0.668298
O O10 0.500000 0.522679 0.000000
#
# Coordination Sequence:
#
# PCOD9113054 Si02
#       4
#     2   2   2   2
#     4  10  21  39  65  95 127 168 216 267 322 382
#     4  12  26  44  64  97 138 175 214 265 322 386
#     4  10  20  38  65  97 126 159 215 277 321 372
#     4  12  24  43  70  97 128 172 220 269 322 384
#
# _framework density 27.047193
#
# number of rings (size 3 to 8) (size 9 to 14) (size 15 to 20)
#    0.000    1.000    0.000    9.000    0.000    4.000 
#    0.000    8.750    0.000    0.000    0.000    0.000 
#    0.000    0.000    0.000    0.000    0.000    0.000 
#
# Total GULP energy -44810.574792 kJ/mol
# GULP energy per Si atom -5601.321849 kJ/mol
# Density = 2.698563 g / cm^3
# Si number density = 27.047193 Si / 1000 Ang^3
#
#
#
# Elastic Constant Matrix: (Units=GPa)
#
#
# Indices 1 2 3 4 5 6 
#
# 1 68.2755 13.2064 39.8491 0.0000 21.7920 0.0000
# 2 13.2064 137.9759 83.6345 0.0000 29.2797 0.0000
# 3 39.8491 83.6345 239.1580 0.0000 39.4947 0.0000
# 4 0.0000 0.0000 0.0000 75.6023 0.0000 29.2153
# 5 21.7920 29.2797 39.4947 0.0000 38.1440 0.0000
# 6 0.0000 0.0000 0.0000 29.2153 0.0000 -32.9630
#
#
#
# Elastic Compliance Matrix: (Units=1/GPa)
#
#
# Indices 1 2 3 4 5 6 
#
# 1 0.018636 0.001505 -0.002030 0.000000 -0.009701 0.000000
# 2 0.001505 0.010007 -0.002822 0.000000 -0.005619 0.000000
# 3 -0.002030 -0.002822 0.005980 0.000000 -0.002866 0.000000
# 4 0.000000 0.000000 0.000000 0.009853 0.000000 0.008732
# 5 -0.009701 -0.005619 -0.002866 0.000000 0.039039 0.000000
# 6 0.000000 0.000000 0.000000 0.008732 0.000000 -0.022597
#
#
# Mechanical properties :
#
#
# Convention : Reuss Voigt Hill
#
# Bulk Modulus (GPa) = 35.80484 79.86549 57.83517
# Shear Modulus (GPa) = 65.00283 36.73795 50.87039
#
# Velocity S-wave (km/s) = 4.90768 3.68950 4.34153
# Velocity P-wave (km/s) = 6.73650 6.90957 6.82358
#
# Compressibility (1/GPa) = 0.02792918
#
# Stress axis : x y z
#
# Youngs Moduli (GPa) = 53.65881 99.93330 167.23334
#
# Poissons Ratio (x) = -0.15041 0.33940
# Poissons Ratio (y) = -0.08076 0.47197
# Poissons Ratio (z) = 0.10890 0.28204
#
# Static dielectric constant tensor:
#      x y z
#    x 2.168990 0.000000 -0.019680 
#    y 0.000000 2.216380 0.000000 
#    z -0.019680 0.000000 1.968620 
# 
# From -- ./inp_files/779.got.cif
#   From: 2010.05.17/outbox.cif.g08.bks.cpg/sg3_1_cif.got.tgz:779.got - 2010.06.03 18:33:08.
