data_PCOD9113895
_publ_section_title
;
Structure prediction by ZEFSAII (Michael W. Deem and Ramdas Pophale) SiO2 
 PCOD9113895
Probable space group: P 2
;
_chemical_formula_sum "Si O2"
_cell_formula_units_Z 13
_cell_length_a 5.533433
_cell_length_b 13.543918
_cell_length_c 8.823609
_cell_angle_alpha 90.000000
_cell_angle_beta 56.860037
_cell_angle_gamma 90.000000
_cell_volume 553.714412
_symmetry_space_group_name_H-M "P 2"
_symmetry_group_IT_number 3
_symmetry_cell_setting 'monoclinic'
loop_
_space_group_symop_operation_xyz
x,y,z
-x,y,-z
loop_
_atom_site_type_symbol
_atom_site_label
_atom_site_fract_x
_atom_site_fract_y
_atom_site_fract_z
Si Si1 0.437716 0.300250 0.846256
Si Si2 0.000000 0.321216 0.500000
Si Si3 0.000000 0.995442 0.500000
Si Si4 0.152404 0.644085 0.113122
Si Si5 0.184140 0.818355 0.654186
Si Si6 0.233803 0.462339 0.678438
Si Si7 0.452093 0.099775 0.847888
Si Si8 0.000000 0.930996 0.000000
O O1 0.319743 0.395966 0.795639
O O2 0.286002 0.197448 0.840974
O O3 0.748125 0.267953 0.672804
O O4 0.500000 0.330048 0.000000
O O5 0.140555 0.386147 0.582280
O O6 0.111836 0.917654 0.586323
O O7 0.271247 0.057814 0.339975
O O8 0.042106 0.728777 0.267350
O O9 0.018685 0.539043 0.204856
O O10 0.500000 0.643363 0.000000
O O11 0.000000 0.661183 0.000000
O O12 0.500000 0.783438 0.500000
O O13 0.162289 0.860128 0.829610
O O14 0.500000 0.515701 0.500000
O O15 0.500000 0.141338 0.000000
O O16 0.251567 0.006654 0.956432
#
# Coordination Sequence:
#
# PCOD9113895 Si02
#       8
#     2   1   1   2   2   2   2   1
#     4  10  24  44  73 108 151 206 260 320 386 460
#     4  10  23  43  70 104 148 186 261 313 378 464
#     4  12  25  43  78 104 156 204 253 321 388 472
#     4  12  31  49  81 116 156 203 264 331 398 477
#     4  12  27  48  76 109 150 204 255 321 392 472
#     4  10  25  49  74 106 152 204 258 327 389 471
#     4  11  24  43  69 108 151 197 255 316 382 462
#     4  12  24  46  66 106 148 194 254 308 390 462
#
# _framework density 23.477803999999999
#
# number of rings (size 3 to 8) (size 9 to 14) (size 15 to 20)
#    0.000    0.923    3.846    0.923   10.769    3.077 
#    8.308    0.000    0.000    0.000    0.000    0.000 
#    0.000    0.000    0.000    0.000    0.000    0.000 
#
# Total GULP energy -72418.344257 kJ/mol
# GULP energy per Si atom -5570.641866 kJ/mol
# Density = 2.342437 g / cm^3
# Si number density = 23.477804 Si / 1000 Ang^3
#
#
#
# Elastic Constant Matrix: (Units=GPa)
#
#
# Indices 1 2 3 4 5 6 
#
# 1 85.8424 28.2343 57.0942 0.0000 -18.4518 0.0000
# 2 28.2343 124.2904 57.3085 0.0000 -15.2679 0.0000
# 3 57.0942 57.3085 153.6913 0.0000 -29.9442 0.0000
# 4 0.0000 0.0000 0.0000 1532.3149 0.0000 -145.4215
# 5 -18.4518 -15.2679 -29.9442 0.0000 59.2177 0.0000
# 6 0.0000 0.0000 0.0000 -145.4215 0.0000 36.4295
#
#
#
# Elastic Compliance Matrix: (Units=1/GPa)
#
#
# Indices 1 2 3 4 5 6 
#
# 1 0.015815 -0.000984 -0.005100 0.000000 0.002095 0.000000
# 2 -0.000984 0.009807 -0.003171 0.000000 0.000619 0.000000
# 3 -0.005100 -0.003171 0.010111 0.000000 0.002706 0.000000
# 4 0.000000 0.000000 0.000000 0.001051 0.000000 0.004194
# 5 0.002095 0.000619 0.002706 0.000000 0.019068 0.000000
# 6 0.000000 0.000000 0.000000 0.004194 0.000000 0.044192
#
#
# Mechanical properties :
#
#
# Convention : Reuss Voigt Hill
#
# Bulk Modulus (GPa) = 58.05940 72.12201 65.09070
# Shear Modulus (GPa) = 40.22713 340.33823 190.28268
#
# Velocity S-wave (km/s) = 4.14383 12.05307 9.01243
# Velocity P-wave (km/s) = 6.90494 14.98292 11.66546
#
# Compressibility (1/GPa) = 0.01722374
#
# Stress axis : x y z
#
# Youngs Moduli (GPa) = 63.22983 101.96581 98.90443
#
# Poissons Ratio (x) = 0.10030 0.50443
# Poissons Ratio (y) = 0.06220 0.31362
# Poissons Ratio (z) = 0.32248 0.32333
#
# Static dielectric constant tensor:
#      x y z
#    x 1.083360 0.000000 -0.525010 
#    y 0.000000 1.950260 0.000000 
#    z -0.525010 0.000000 1.744950 
# 
# From -- ./inp_files/4489.got.cif
#   From: 2010.05.17/outbox.cif.g08.bks.cpg/sg3_3_cif.got.tgz:4489.got - 2010.06.03 18:33:08.
