data_PCOD9113868
_publ_section_title
;
Structure prediction by ZEFSAII (Michael W. Deem and Ramdas Pophale) SiO2 
 PCOD9113868
Probable space group: P 2
;
_chemical_formula_sum "Si O2"
_cell_formula_units_Z 14
_cell_length_a 7.897987
_cell_length_b 6.803265
_cell_length_c 17.524847
_cell_angle_alpha 90.000000
_cell_angle_beta 134.279170
_cell_angle_gamma 90.000000
_cell_volume 674.168826
_symmetry_space_group_name_H-M "P 2"
_symmetry_group_IT_number 3
_symmetry_cell_setting 'monoclinic'
loop_
_space_group_symop_operation_xyz
x,y,z
-x,y,-z
loop_
_atom_site_type_symbol
_atom_site_label
_atom_site_fract_x
_atom_site_fract_y
_atom_site_fract_z
Si Si1 0.244692 0.402520 0.102932
Si Si2 0.749308 0.896654 0.403175
Si Si3 0.337958 0.090730 0.788634
Si Si4 0.686466 0.270383 0.488155
Si Si5 0.967056 0.442005 0.289760
Si Si6 0.367967 0.562774 0.301721
Si Si7 0.476785 0.691426 0.902876
O O1 0.453100 0.243671 0.163894
O O2 0.241892 0.493999 0.185582
O O3 0.300631 0.585892 0.065377
O O4 0.000000 0.309584 0.000000
O O5 0.517205 0.761377 0.338739
O O6 0.000000 0.791652 0.500000
O O7 0.743950 0.990837 0.316688
O O8 0.741719 0.066335 0.464931
O O9 0.132555 0.223762 0.763330
O O10 0.438721 0.919512 0.873514
O O11 0.500000 0.244151 0.500000
O O12 0.560306 0.401450 0.385400
O O13 0.912097 0.388582 0.591696
O O14 0.744066 0.583840 0.208869
O O15 0.171594 0.547058 0.305551
O O16 0.500000 0.654860 0.000000
#
# Coordination Sequence:
#
# PCOD9113868 Si02
#       7
#     2   2   2   2   2   2   2
#     4  11  24  44  69  97 136 181 238 296 356 419
#     4  12  24  41  71 102 140 181 232 299 350 426
#     4  11  24  44  68 102 136 186 240 288 362 421
#     4  10  23  41  66  99 138 178 227 284 360 426
#     4  10  24  44  68  97 140 183 231 289 355 425
#     4  11  24  42  67 100 137 180 232 288 355 416
#     4  11  25  45  68  98 136 182 240 295 354 423
#
# _framework density 20.766313
#
# number of rings (size 3 to 8) (size 9 to 14) (size 15 to 20)
#    0.000    1.143    4.286    0.857    2.000    8.571 
#    2.571    0.000    0.000    0.000    0.000    0.000 
#    0.000    0.000    0.000    0.000    0.000    0.000 
#
# Total GULP energy -78138.046749 kJ/mol
# GULP energy per Si atom -5581.289054 kJ/mol
# Density = 2.071905 g / cm^3
# Si number density = 20.766313 Si / 1000 Ang^3
#
#
#
# Elastic Constant Matrix: (Units=GPa)
#
#
# Indices 1 2 3 4 5 6 
#
# 1 31.9182 15.4301 15.3954 0.0000 3.6208 0.0000
# 2 15.4301 71.9234 9.6676 0.0000 3.2934 0.0000
# 3 15.3954 9.6676 108.6382 0.0000 3.2855 0.0000
# 4 0.0000 0.0000 0.0000 31.7868 0.0000 4.2840
# 5 3.6208 3.2934 3.2855 0.0000 38.2748 0.0000
# 6 0.0000 0.0000 0.0000 4.2840 0.0000 24.3863
#
#
#
# Elastic Compliance Matrix: (Units=1/GPa)
#
#
# Indices 1 2 3 4 5 6 
#
# 1 0.037338 -0.007281 -0.004567 0.000000 -0.002514 0.000000
# 2 -0.007281 0.015539 -0.000332 0.000000 -0.000620 0.000000
# 3 -0.004567 -0.000332 0.009893 0.000000 -0.000389 0.000000
# 4 0.000000 0.000000 0.000000 0.032222 0.000000 -0.005661
# 5 -0.002514 -0.000620 -0.000389 0.000000 0.026451 0.000000
# 6 0.000000 0.000000 0.000000 -0.005661 0.000000 0.042001
#
#
# Mechanical properties :
#
#
# Convention : Reuss Voigt Hill
#
# Bulk Modulus (GPa) = 26.03571 32.60732 29.32151
# Shear Modulus (GPa) = 24.92402 30.35539 27.63970
#
# Velocity S-wave (km/s) = 3.46817 3.82745 3.65223
# Velocity P-wave (km/s) = 5.34811 5.93873 5.65114
#
# Compressibility (1/GPa) = 0.03840878
#
# Stress axis : x y z
#
# Youngs Moduli (GPa) = 26.78223 64.35506 101.07729
#
# Poissons Ratio (x) = 0.46859 0.46165
# Poissons Ratio (y) = 0.19501 0.03358
# Poissons Ratio (z) = 0.12232 0.02138
#
# Static dielectric constant tensor:
#      x y z
#    x 1.777030 0.000000 0.011600 
#    y 0.000000 1.724330 0.000000 
#    z 0.011600 0.000000 1.774200 
# 
# From -- ./inp_files/8804.got.cif
#   From: 2010.05.17/outbox.cif.g08.bks.cpg/sg3_5_cif.got.tgz:8804.got - 2010.06.03 18:33:08.
