data_PCOD9113341
_publ_section_title
;
Structure prediction by ZEFSAII (Michael W. Deem and Ramdas Pophale) SiO2 
 PCOD9113341
Probable space group: P 2
;
_chemical_formula_sum "Si O2"
_cell_formula_units_Z 12
_cell_length_a 4.774172
_cell_length_b 13.476195
_cell_length_c 9.726294
_cell_angle_alpha 90.000000
_cell_angle_beta 60.231370
_cell_angle_gamma 90.000000
_cell_volume 543.189278
_symmetry_space_group_name_H-M "P 2"
_symmetry_group_IT_number 3
_symmetry_cell_setting 'monoclinic'
loop_
_space_group_symop_operation_xyz
x,y,z
-x,y,-z
loop_
_atom_site_type_symbol
_atom_site_label
_atom_site_fract_x
_atom_site_fract_y
_atom_site_fract_z
Si Si1 0.179077 0.018190 0.106006
Si Si2 0.395340 0.210918 0.890814
Si Si3 0.866998 0.876218 0.382885
Si Si4 0.062174 0.489784 0.824597
Si Si5 0.125174 0.716043 0.114496
Si Si6 0.304540 0.382816 0.327441
O O1 0.500000 0.952864 0.000000
O O2 0.635055 0.112021 0.856290
O O3 0.925471 0.970622 0.270159
O O4 0.000000 0.025518 0.000000
O O5 0.518002 0.276272 0.736083
O O6 0.500000 0.269877 0.000000
O O7 0.000000 0.205484 0.000000
O O8 0.500000 0.850095 0.500000
O O9 0.000000 0.898663 0.500000
O O10 0.044392 0.787426 0.260241
O O11 0.416188 0.456258 0.692702
O O12 0.028347 0.608069 0.824839
O O13 0.822924 0.433088 0.781532
O O14 0.000000 0.462180 0.000000
O O15 0.500000 0.698740 0.000000
O O16 0.000000 0.759729 0.000000
O O17 0.000000 0.372430 0.500000
#
# Coordination Sequence:
#
# PCOD9113341 Si02
#       6
#     2   2   2   2   2   2
#     4  10  21  42  67  89 119 169 217 258 314 387
#     4  10  21  39  64  88 118 166 217 261 311 381
#     4  12  25  41  65  99 135 165 206 270 334 379
#     4  11  23  41  65  91 126 175 222 258 305 383
#     4  11  23  42  66  94 127 174 224 256 302 385
#     4  12  24  39  62  95 132 167 211 271 329 371
#
# _framework density 22.091746000000001
#
# number of rings (size 3 to 8) (size 9 to 14) (size 15 to 20)
#    0.000    1.000    0.000    8.500    0.000    2.000 
#    0.000   10.000    0.000    4.000    0.000    0.000 
#    0.000    0.000    0.000    0.000    0.000    0.000 
#
# Total GULP energy -66831.322734 kJ/mol
# GULP energy per Si atom -5569.276895 kJ/mol
# Density = 2.204146 g / cm^3
# Si number density = 22.091746 Si / 1000 Ang^3
#
#
#
# Elastic Constant Matrix: (Units=GPa)
#
#
# Indices 1 2 3 4 5 6 
#
# 1 138.9629 29.9532 31.2035 0.0000 -7.6907 0.0000
# 2 29.9532 110.2058 63.7215 0.0000 -11.1098 0.0000
# 3 31.2035 63.7215 124.4864 0.0000 -12.2911 0.0000
# 4 0.0000 0.0000 0.0000 -3.0402 0.0000 -4.1948
# 5 -7.6907 -11.1098 -12.2911 0.0000 54.9216 0.0000
# 6 0.0000 0.0000 0.0000 -4.1948 0.0000 16.0575
#
#
#
# Elastic Compliance Matrix: (Units=1/GPa)
#
#
# Indices 1 2 3 4 5 6 
#
# 1 0.007791 -0.001370 -0.001198 0.000000 0.000546 0.000000
# 2 -0.001370 0.013202 -0.006309 0.000000 0.001067 0.000000
# 3 -0.001198 -0.006309 0.011678 0.000000 0.001170 0.000000
# 4 0.000000 0.000000 0.000000 -0.241777 0.000000 -0.063161
# 5 0.000546 0.001067 0.001170 0.000000 0.018762 0.000000
# 6 0.000000 0.000000 0.000000 -0.063161 0.000000 0.045776
#
#
# Mechanical properties :
#
#
# Convention : Reuss Voigt Hill
#
# Bulk Modulus (GPa) = 67.03605 69.26795 68.15200
# Shear Modulus (GPa) = -41.03645 30.17292 -5.43177
#
# Velocity S-wave (km/s) = -4.31460 3.69968 -1.56974
# Velocity P-wave (km/s) = 2.36415 7.04790 5.25653
#
# Compressibility (1/GPa) = 0.01491735
#
# Stress axis : x y z
#
# Youngs Moduli (GPa) = 128.36015 75.74825 85.63074
#
# Poissons Ratio (x) = 0.10377 0.10256
# Poissons Ratio (y) = 0.17584 0.54023
# Poissons Ratio (z) = 0.15373 0.47789
#
# Static dielectric constant tensor:
#      x y z
#    x 1.914250 0.000000 0.002400 
#    y 0.000000 1.921570 0.000000 
#    z 0.002400 0.000000 1.819870 
# 
# From -- ./inp_files/4469.got.cif
#   From: 2010.05.17/outbox.cif.g08.bks.cpg/sg3_3_cif.got.tgz:4469.got - 2010.06.03 18:33:08.
