data_PCOD9113126
_publ_section_title
;
Structure prediction by ZEFSAII (Michael W. Deem and Ramdas Pophale) SiO2 
 PCOD9113126
Probable space group: P 2
;
_chemical_formula_sum "Si O2"
_cell_formula_units_Z 12
_cell_length_a 10.993852
_cell_length_b 4.904283
_cell_length_c 12.127727
_cell_angle_alpha 90.000000
_cell_angle_beta 46.949303
_cell_angle_gamma 90.000000
_cell_volume 477.830232
_symmetry_space_group_name_H-M "P 2"
_symmetry_group_IT_number 3
_symmetry_cell_setting 'monoclinic'
loop_
_space_group_symop_operation_xyz
x,y,z
-x,y,-z
loop_
_atom_site_type_symbol
_atom_site_label
_atom_site_fract_x
_atom_site_fract_y
_atom_site_fract_z
Si Si1 0.135364 0.530920 0.125346
Si Si2 0.343714 0.702910 0.815882
Si Si3 0.748283 0.044777 0.823287
Si Si4 0.792840 0.570661 0.462629
Si Si5 0.500000 0.670236 0.500000
Si Si6 0.543853 0.223387 0.747679
Si Si7 0.000000 0.921038 0.500000
O O1 0.220136 0.239755 0.093234
O O2 0.945213 0.523376 0.284392
O O3 0.231328 0.738350 0.148178
O O4 0.168370 0.648481 0.982936
O O5 0.376902 0.571152 0.675224
O O6 0.411433 0.011380 0.777134
O O7 0.466716 0.521330 0.814518
O O8 0.909446 0.099398 0.646662
O O9 0.601604 0.104201 0.829190
O O10 0.651532 0.751436 0.488217
O O11 0.696347 0.304942 0.570267
O O12 0.866844 0.731185 0.520901
#
# Coordination Sequence:
#
# PCOD9113126 Si02
#       7
#     2   2   2   2   1   2   1
#     4  11  24  39  62  98 135 172 223 286 343 396
#     4  11  25  42  63  95 132 176 229 282 338 407
#     4  11  21  37  64  96 137 178 218 276 343 407
#     4  10  22  43  70 100 134 178 229 280 337 407
#     4  10  24  46  70  92 128 180 228 276 338 414
#     4  11  22  41  66  96 135 180 226 271 336 416
#     4  10  20  40  68 106 138 174 226 282 340 408
#
# _framework density 25.113523000000001
#
# number of rings (size 3 to 8) (size 9 to 14) (size 15 to 20)
#    0.000    1.333    0.000    7.000    0.000   10.667 
#    0.000    0.000    0.000    8.000    0.000    0.000 
#    0.000    0.000    0.000    0.000    0.000    0.000 
#
# Total GULP energy -66903.960701 kJ/mol
# GULP energy per Si atom -5575.330058 kJ/mol
# Density = 2.505636 g / cm^3
# Si number density = 25.113523 Si / 1000 Ang^3
#
#
#
# Elastic Constant Matrix: (Units=GPa)
#
#
# Indices 1 2 3 4 5 6 
#
# 1 124.5758 24.7391 9.1540 0.0000 -2.7450 0.0000
# 2 24.7391 89.9319 12.3400 0.0000 -12.2567 0.0000
# 3 9.1540 12.3400 213.3516 0.0000 2.4483 0.0000
# 4 0.0000 0.0000 0.0000 34.7655 0.0000 -20.4586
# 5 -2.7450 -12.2567 2.4483 0.0000 24.0715 0.0000
# 6 0.0000 0.0000 0.0000 -20.4586 0.0000 -11.4932
#
#
#
# Elastic Compliance Matrix: (Units=1/GPa)
#
#
# Indices 1 2 3 4 5 6 
#
# 1 0.008503 -0.002335 -0.000228 0.000000 -0.000196 0.000000
# 2 -0.002335 0.012715 -0.000707 0.000000 0.006280 0.000000
# 3 -0.000228 -0.000707 0.004748 0.000000 -0.000869 0.000000
# 4 0.000000 0.000000 0.000000 0.014048 0.000000 -0.025007
# 5 -0.000196 0.006280 -0.000869 0.000000 0.044807 0.000000
# 6 0.000000 0.000000 0.000000 -0.025007 0.000000 -0.042494
#
#
# Mechanical properties :
#
#
# Convention : Reuss Voigt Hill
#
# Bulk Modulus (GPa) = 51.47549 57.81395 54.64472
# Shear Modulus (GPa) = 90.34933 34.91051 62.62992
#
# Velocity S-wave (km/s) = 6.00454 3.73246 4.99929
# Velocity P-wave (km/s) = 8.28337 6.45337 7.42497
#
# Compressibility (1/GPa) = 0.01942672
#
# Stress axis : x y z
#
# Youngs Moduli (GPa) = 117.60182 78.64934 210.62638
#
# Poissons Ratio (x) = 0.18362 0.04793
# Poissons Ratio (y) = 0.27456 0.14898
# Poissons Ratio (z) = 0.02676 0.05563
#
# Static dielectric constant tensor:
#      x y z
#    x 1.988760 0.000000 -0.045770 
#    y 0.000000 1.948790 0.000000 
#    z -0.045770 0.000000 2.139090 
# 
# From -- ./inp_files/11118.got.cif
#   From: 2010.05.17/outbox.cif.g08.bks.cpg/sg3_6_cif.got.tgz:11118.got - 2010.06.03 18:33:08.
