data_PCOD9113568
_publ_section_title
;
Structure prediction by ZEFSAII (Michael W. Deem and Ramdas Pophale) SiO2 
 PCOD9113568
Probable space group: P 2
;
_chemical_formula_sum "Si O2"
_cell_formula_units_Z 13
_cell_length_a 10.934592
_cell_length_b 4.828553
_cell_length_c 19.512553
_cell_angle_alpha 90.000000
_cell_angle_beta 152.508446
_cell_angle_gamma 90.000000
_cell_volume 475.572002
_symmetry_space_group_name_H-M "P 2"
_symmetry_group_IT_number 3
_symmetry_cell_setting 'monoclinic'
loop_
_space_group_symop_operation_xyz
x,y,z
-x,y,-z
loop_
_atom_site_type_symbol
_atom_site_label
_atom_site_fract_x
_atom_site_fract_y
_atom_site_fract_z
Si Si1 0.887251 0.208470 0.746009
Si Si2 0.019128 0.033353 0.359144
Si Si3 0.461297 0.297137 0.058908
Si Si4 0.078154 0.626503 0.929530
Si Si5 0.833583 0.530287 0.486611
Si Si6 0.000000 0.144528 0.000000
Si Si7 0.379974 0.959836 0.262773
O O1 0.864173 0.123736 0.656097
O O2 0.920919 0.537979 0.780483
O O3 0.658547 0.083022 0.680332
O O4 0.190237 0.111496 0.917386
O O5 0.176304 0.207754 0.496659
O O6 0.719658 0.140980 0.211071
O O7 0.035343 0.711883 0.386784
O O8 0.500000 0.393820 0.000000
O O9 0.380263 0.563971 0.063102
O O10 0.992505 0.371189 0.933142
O O11 0.946482 0.870650 0.907575
O O12 0.553086 0.686200 0.344254
O O13 0.000000 0.560970 0.500000
O O14 0.648626 0.107713 0.823139
#
# Coordination Sequence:
#
# PCOD9113568 Si02
#       7
#     2   2   2   2   2   1   2
#     4   8  21  42  69 107 131 174 237 303 344 403
#     4  11  25  48  71 104 141 198 229 284 370 416
#     4   8  18  40  69 103 135 165 228 291 346 419
#     4   9  20  38  68  99 133 171 225 301 340 406
#     4  12  31  48  71  98 150 196 235 288 349 453
#     4  10  22  38  66 100 128 176 226 290 360 386
#     4  11  24  44  68 106 136 183 242 298 349 427
#
# _framework density 27.335505999999999
#
# number of rings (size 3 to 8) (size 9 to 14) (size 15 to 20)
#    0.923    1.231    0.000    0.923    8.615    4.308 
#    0.000    3.077    0.000    0.000    0.000    0.000 
#    0.000    0.000    0.000    0.000    0.000    0.000 
#
# Total GULP energy -72391.067563 kJ/mol
# GULP energy per Si atom -5568.543659 kJ/mol
# Density = 2.727329 g / cm^3
# Si number density = 27.335506 Si / 1000 Ang^3
#
#
#
# Elastic Constant Matrix: (Units=GPa)
#
#
# Indices 1 2 3 4 5 6 
#
# 1 148.9334 -4.9908 -2.2801 0.0000 8.4987 0.0000
# 2 -4.9908 90.2584 -33.3800 0.0000 5.7140 0.0000
# 3 -2.2801 -33.3800 60.6585 0.0000 6.3734 0.0000
# 4 0.0000 0.0000 0.0000 30.0397 0.0000 -8.8943
# 5 8.4987 5.7140 6.3734 0.0000 42.0609 0.0000
# 6 0.0000 0.0000 0.0000 -8.8943 0.0000 23.3465
#
#
#
# Elastic Compliance Matrix: (Units=1/GPa)
#
#
# Indices 1 2 3 4 5 6 
#
# 1 0.006847 0.000803 0.000870 0.000000 -0.001625 0.000000
# 2 0.000803 0.014414 0.008317 0.000000 -0.003381 0.000000
# 3 0.000870 0.008317 0.021576 0.000000 -0.004575 0.000000
# 4 0.000000 0.000000 0.000000 0.037522 0.000000 0.014295
# 5 -0.001625 -0.003381 -0.004575 0.000000 0.025256 0.000000
# 6 0.000000 0.000000 0.000000 0.014295 0.000000 0.048279
#
#
# Mechanical properties :
#
#
# Convention : Reuss Voigt Hill
#
# Bulk Modulus (GPa) = 15.91901 24.28316 20.10108
# Shear Modulus (GPa) = 32.28899 41.78951 37.03925
#
# Velocity S-wave (km/s) = 3.44060 3.91418 3.68501
# Velocity P-wave (km/s) = 4.64972 5.41576 5.04729
#
# Compressibility (1/GPa) = 0.06281798
#
# Stress axis : x y z
#
# Youngs Moduli (GPa) = 146.04193 69.37874 46.34775
#
# Poissons Ratio (x) = -0.05573 -0.04033
# Poissons Ratio (y) = -0.11731 -0.38548
# Poissons Ratio (z) = -0.12707 -0.57703
#
# Static dielectric constant tensor:
#      x y z
#    x 2.166460 0.000000 0.077790 
#    y 0.000000 2.286450 0.000000 
#    z 0.077790 0.000000 2.683420 
# 
# From -- ./inp_files/15854.got.cif
#   From: 2010.05.17/outbox.cif.g08.bks.cpg/sg3_8_cif.got.tgz:15854.got - 2010.06.03 18:33:08.
