data_PCOD9113917
_publ_section_title
;
Structure prediction by ZEFSAII (Michael W. Deem and Ramdas Pophale) SiO2 
 PCOD9113917
Probable space group: P 2
;
_chemical_formula_sum "Si O2"
_cell_formula_units_Z 14
_cell_length_a 17.351517
_cell_length_b 6.395336
_cell_length_c 12.685367
_cell_angle_alpha 90.000000
_cell_angle_beta 22.645905
_cell_angle_gamma 90.000000
_cell_volume 542.005776
_symmetry_space_group_name_H-M "P 2"
_symmetry_group_IT_number 3
_symmetry_cell_setting 'monoclinic'
loop_
_space_group_symop_operation_xyz
x,y,z
-x,y,-z
loop_
_atom_site_type_symbol
_atom_site_label
_atom_site_fract_x
_atom_site_fract_y
_atom_site_fract_z
Si Si1 0.744246 0.516800 0.677905
Si Si2 0.630262 0.937938 0.632019
Si Si3 0.000000 0.834664 0.500000
Si Si4 0.500000 0.336011 0.500000
Si Si5 0.806818 0.036451 0.190148
Si Si6 0.389905 0.572025 0.841245
Si Si7 0.721932 0.193926 0.871145
Si Si8 0.985023 0.733276 0.806956
O O1 0.859437 0.692964 0.603448
O O2 0.792036 0.299823 0.675114
O O3 0.865425 0.539296 0.413696
O O4 0.500000 0.544511 0.000000
O O5 0.657696 0.006505 0.476184
O O6 0.518586 0.717199 0.755711
O O7 0.845022 0.911844 0.414496
O O8 0.498096 0.098056 0.862561
O O9 0.854370 0.000545 0.739957
O O10 0.511436 0.477882 0.589383
O O11 0.693884 0.185468 0.251204
O O12 0.880783 0.815544 0.047327
O O13 0.000000 0.139916 0.000000
O O14 0.297731 0.380039 0.021578
O O15 0.206421 0.698265 0.023073
#
# Coordination Sequence:
#
# PCOD9113917 Si02
#       8
#     2   2   1   1   2   2   2   2
#     4  12  27  49  72 110 146 198 267 309 377 449
#     4  11  24  49  71 103 153 199 241 319 387 446
#     4  12  26  46  72 102 148 194 248 318 378 436
#     4  12  24  42  72 116 150 192 254 308 378 464
#     4  10  23  44  72 108 149 196 246 307 387 451
#     4  12  25  43  73 110 146 194 253 310 376 455
#     4  12  25  47  74 102 154 199 248 323 379 442
#     4  11  24  45  75 104 145 196 252 305 376 454
#
# _framework density 25.829981
#
# number of rings (size 3 to 8) (size 9 to 14) (size 15 to 20)
#    0.000    0.571    1.429    7.286    2.000    2.857 
#    5.143    2.857    0.000    0.000    0.000    0.000 
#    0.000    0.000    0.000    0.000    0.000    0.000 
#
# Total GULP energy -78212.114553 kJ/mol
# GULP energy per Si atom -5586.579611 kJ/mol
# Density = 2.577119 g / cm^3
# Si number density = 25.829981 Si / 1000 Ang^3
#
#
#
# Elastic Constant Matrix: (Units=GPa)
#
#
# Indices 1 2 3 4 5 6 
#
# 1 84.1133 46.1265 21.0949 0.0000 -21.2596 0.0000
# 2 46.1265 103.1932 43.2689 0.0000 3.5470 0.0000
# 3 21.0949 43.2689 105.1566 0.0000 -5.0523 0.0000
# 4 0.0000 0.0000 0.0000 44.8233 0.0000 7.4320
# 5 -21.2596 3.5470 -5.0523 0.0000 61.1808 0.0000
# 6 0.0000 0.0000 0.0000 7.4320 0.0000 36.8224
#
#
#
# Elastic Compliance Matrix: (Units=1/GPa)
#
#
# Indices 1 2 3 4 5 6 
#
# 1 0.018201 -0.008432 0.000146 0.000000 0.006826 0.000000
# 2 -0.008432 0.015689 -0.004968 0.000000 -0.004250 0.000000
# 3 0.000146 -0.004968 0.011587 0.000000 0.001296 0.000000
# 4 0.000000 0.000000 0.000000 0.023082 0.000000 -0.004659
# 5 0.006826 -0.004250 0.001296 0.000000 0.019070 0.000000
# 6 0.000000 0.000000 0.000000 -0.004659 0.000000 0.028098
#
#
# Mechanical properties :
#
#
# Convention : Reuss Voigt Hill
#
# Bulk Modulus (GPa) = 52.71726 57.04930 54.88328
# Shear Modulus (GPa) = 33.65715 40.69683 37.17699
#
# Velocity S-wave (km/s) = 3.61366 3.97365 3.79792
# Velocity P-wave (km/s) = 6.15346 6.57172 6.36603
#
# Compressibility (1/GPa) = 0.01896912
#
# Stress axis : x y z
#
# Youngs Moduli (GPa) = 54.94213 63.74050 86.30485
#
# Poissons Ratio (x) = 0.53743 -0.01261
# Poissons Ratio (y) = 0.46325 0.42878
# Poissons Ratio (z) = -0.00803 0.31667
#
# Static dielectric constant tensor:
#      x y z
#    x 2.038430 0.000000 0.048310 
#    y 0.000000 2.004270 0.000000 
#    z 0.048310 0.000000 2.123620 
# 
# From -- ./inp_files/14259.got.cif
#   From: 2010.05.17/outbox.cif.g08.bks.cpg/sg3_8_cif.got.tgz:14259.got - 2010.06.03 18:33:08.
