data_PCOD9113273
_publ_section_title
;
Structure prediction by ZEFSAII (Michael W. Deem and Ramdas Pophale) SiO2 
 PCOD9113273
Probable space group: P 2
;
_chemical_formula_sum "Si O2"
_cell_formula_units_Z 11
_cell_length_a 5.042584
_cell_length_b 16.201192
_cell_length_c 6.060920
_cell_angle_alpha 90.000000
_cell_angle_beta 80.758131
_cell_angle_gamma 90.000000
_cell_volume 488.724655
_symmetry_space_group_name_H-M "P 2"
_symmetry_group_IT_number 3
_symmetry_cell_setting 'monoclinic'
loop_
_space_group_symop_operation_xyz
x,y,z
-x,y,-z
loop_
_atom_site_type_symbol
_atom_site_label
_atom_site_fract_x
_atom_site_fract_y
_atom_site_fract_z
Si Si1 0.778407 0.355510 0.331982
Si Si2 0.289420 0.594901 0.347319
Si Si3 0.000000 0.854101 0.000000
Si Si4 0.500000 0.464916 0.000000
Si Si5 0.218049 0.173179 0.663164
Si Si6 0.781696 0.996005 0.339790
Si Si7 0.500000 0.734589 0.000000
O O1 0.500000 0.351720 0.500000
O O2 0.693890 0.413542 0.138182
O O3 0.825816 0.263147 0.228617
O O4 0.000000 0.374273 0.500000
O O5 0.500000 0.564801 0.500000
O O6 0.296807 0.524193 0.162323
O O7 0.428563 0.674599 0.215010
O O8 0.000000 0.609298 0.500000
O O9 0.869214 0.917144 0.190788
O O10 0.757506 0.793226 0.974844
O O11 0.500000 0.174009 0.500000
O O12 0.000000 0.170142 0.500000
O O13 0.220062 0.084729 0.786336
O O14 0.500000 0.983518 0.500000
O O15 0.000000 0.003723 0.500000
#
# Coordination Sequence:
#
# PCOD9113273 Si02
#       7
#     2   2   1   1   2   2   1
#     4  10  22  41  65  96 138 182 228 284 332 386
#     4  11  26  48  72  96 132 174 214 274 345 412
#     4  12  24  40  66 102 130 162 220 274 324 400
#     4  11  26  44  71 106 134 174 235 282 340 411
#     4   8  16  35  59  85 126 179 225 265 322 386
#     4  10  21  38  61  91 132 177 218 269 325 381
#     4  11  26  44  67 100 130 164 217 268 334 419
#
# _framework density 22.507563000000001
#
# number of rings (size 3 to 8) (size 9 to 14) (size 15 to 20)
#    0.000    1.818    0.000    2.727    0.000   11.636 
#    0.000   11.818    0.000    2.182    0.000    0.000 
#    0.000    0.000    0.000    0.000    0.000    0.000 
#
# Total GULP energy -61346.534235 kJ/mol
# GULP energy per Si atom -5576.957658 kJ/mol
# Density = 2.245633 g / cm^3
# Si number density = 22.507563 Si / 1000 Ang^3
#
#
#
# Elastic Constant Matrix: (Units=GPa)
#
#
# Indices 1 2 3 4 5 6 
#
# 1 171.1388 34.8354 44.7061 0.0000 -20.7821 0.0000
# 2 34.8354 182.8815 69.2982 0.0000 7.2312 0.0000
# 3 44.7061 69.2982 104.8671 0.0000 -22.0179 0.0000
# 4 0.0000 0.0000 0.0000 63.9940 0.0000 6.5938
# 5 -20.7821 7.2312 -22.0179 0.0000 36.7221 0.0000
# 6 0.0000 0.0000 0.0000 6.5938 0.0000 35.0750
#
#
#
# Elastic Compliance Matrix: (Units=1/GPa)
#
#
# Indices 1 2 3 4 5 6 
#
# 1 0.006819 -0.000726 -0.001815 0.000000 0.002914 0.000000
# 2 -0.000726 0.008253 -0.006374 0.000000 -0.005858 0.000000
# 3 -0.001815 -0.006374 0.016668 0.000000 0.010222 0.000000
# 4 0.000000 0.000000 0.000000 0.015935 0.000000 -0.002996
# 5 0.002914 -0.005858 0.010222 0.000000 0.036163 0.000000
# 6 0.000000 0.000000 0.000000 -0.002996 0.000000 0.029074
#
#
# Mechanical properties :
#
#
# Convention : Reuss Voigt Hill
#
# Bulk Modulus (GPa) = 71.89720 84.06296 77.98008
# Shear Modulus (GPa) = 36.93290 47.82806 42.38048
#
# Velocity S-wave (km/s) = 4.05521 4.61475 4.34400
# Velocity P-wave (km/s) = 7.34433 8.11322 7.73833
#
# Compressibility (1/GPa) = 0.01390875
#
# Stress axis : x y z
#
# Youngs Moduli (GPa) = 146.64727 121.16216 59.99403
#
# Poissons Ratio (x) = 0.08799 0.10891
# Poissons Ratio (y) = 0.10650 0.38243
# Poissons Ratio (z) = 0.26623 0.77234
#
# Static dielectric constant tensor:
#      x y z
#    x 1.771230 0.000000 0.007530 
#    y 0.000000 1.958100 0.000000 
#    z 0.007530 0.000000 1.868620 
# 
# From -- ./inp_files/418.got.cif
#   From: 2010.05.17/outbox.cif.g08.bks.cpg/sg3_1_cif.got.tgz:418.got - 2010.06.03 18:33:08.
