data_PCOD9113634
_publ_section_title
;
Structure prediction by ZEFSAII (Michael W. Deem and Ramdas Pophale) SiO2 
 PCOD9113634
Probable space group: P 2
;
_chemical_formula_sum "Si O2"
_cell_formula_units_Z 12
_cell_length_a 24.286734
_cell_length_b 5.266814
_cell_length_c 11.302857
_cell_angle_alpha 90.000000
_cell_angle_beta 158.514928
_cell_angle_gamma 90.000000
_cell_volume 529.533451
_symmetry_space_group_name_H-M "P 2"
_symmetry_group_IT_number 3
_symmetry_cell_setting 'monoclinic'
loop_
_space_group_symop_operation_xyz
x,y,z
-x,y,-z
loop_
_atom_site_type_symbol
_atom_site_label
_atom_site_fract_x
_atom_site_fract_y
_atom_site_fract_z
Si Si1 0.610898 0.139610 0.432371
Si Si2 0.616007 0.473263 0.161043
Si Si3 0.176902 0.094062 0.342361
Si Si4 0.315670 0.861210 0.861651
Si Si5 0.824658 0.971758 0.175238
Si Si6 0.336963 0.472553 0.236825
O O1 0.750426 0.018691 0.639053
O O2 0.653444 0.354575 0.612003
O O3 0.511389 0.273206 0.132439
O O4 0.484616 0.951532 0.232258
O O5 0.764930 0.385070 0.525858
O O6 0.671012 0.568058 0.143794
O O7 0.500000 0.659606 0.000000
O O8 0.252961 0.967909 0.610729
O O9 0.000000 0.065944 0.000000
O O10 0.207735 0.916589 0.752582
O O11 0.000000 0.964258 0.500000
O O12 0.740526 0.747749 0.933294
O O13 0.758625 0.250101 0.017610
O O14 0.500000 0.484426 0.500000
#
# Coordination Sequence:
#
# PCOD9113634 Si02
#       6
#     2   2   2   2   2   2
#     4  10  22  40  67  96 132 175 234 294 342 423
#     4   9  19  38  63  92 127 170 224 281 349 415
#     4  10  23  39  62 100 133 178 222 289 362 423
#     4  11  22  42  67  92 137 179 235 288 354 425
#     4  12  29  46  71 105 148 192 236 298 373 413
#     4  12  25  48  74 107 138 190 250 295 344 443
#
# _framework density 22.661458
#
# number of rings (size 3 to 8) (size 9 to 14) (size 15 to 20)
#    0.000    1.333    1.667    4.500    7.000    2.000 
#    0.000    0.000    0.000    0.000    0.000    0.000 
#    0.000    0.000    0.000    0.000    0.000    0.000 
#
# Total GULP energy -66898.279008 kJ/mol
# GULP energy per Si atom -5574.856584 kJ/mol
# Density = 2.260988 g / cm^3
# Si number density = 22.661458 Si / 1000 Ang^3
#
#
#
# Elastic Constant Matrix: (Units=GPa)
#
#
# Indices 1 2 3 4 5 6 
#
# 1 107.2208 -18.6306 38.7889 0.0000 25.8455 0.0000
# 2 -18.6306 32.2387 21.6811 0.0000 10.6749 0.0000
# 3 38.7889 21.6811 140.3832 0.0000 42.1113 0.0000
# 4 0.0000 0.0000 0.0000 2.8742 0.0000 -11.5602
# 5 25.8455 10.6749 42.1113 0.0000 48.7701 0.0000
# 6 0.0000 0.0000 0.0000 -11.5602 0.0000 29.7948
#
#
#
# Elastic Compliance Matrix: (Units=1/GPa)
#
#
# Indices 1 2 3 4 5 6 
#
# 1 0.015006 0.013872 -0.004038 0.000000 -0.007502 0.000000
# 2 0.013872 0.048024 -0.007951 0.000000 -0.010998 0.000000
# 3 -0.004038 -0.007951 0.011206 0.000000 -0.005795 0.000000
# 4 0.000000 0.000000 0.000000 -0.620703 0.000000 -0.240828
# 5 -0.007502 -0.010998 -0.005795 0.000000 0.031891 0.000000
# 6 0.000000 0.000000 0.000000 -0.240828 0.000000 -0.059877
#
#
# Mechanical properties :
#
#
# Convention : Reuss Voigt Hill
#
# Bulk Modulus (GPa) = 12.82038 40.39128 26.60583
# Shear Modulus (GPa) = -9.05440 32.15469 11.55015
#
# Velocity S-wave (km/s) = -2.00104 3.77094 2.26006
# Velocity P-wave (km/s) = 0.57509 6.06815 4.31005
#
# Compressibility (1/GPa) = 0.07800080
#
# Stress axis : x y z
#
# Youngs Moduli (GPa) = 66.63934 20.82303 89.24151
#
# Poissons Ratio (x) = -0.28885 0.36039
# Poissons Ratio (y) = -0.92441 0.70954
# Poissons Ratio (z) = 0.26912 0.16556
#
# Static dielectric constant tensor:
#      x y z
#    x 2.097660 0.000000 0.046740 
#    y 0.000000 2.216870 0.000000 
#    z 0.046740 0.000000 1.807350 
# 
# From -- ./inp_files/6451.got.cif
#   From: 2010.05.17/outbox.cif.g08.bks.cpg/sg3_4_cif.got.tgz:6451.got - 2010.06.03 18:33:08.
