data_PCOD9113373
_publ_section_title
;
Structure prediction by ZEFSAII (Michael W. Deem and Ramdas Pophale) SiO2 
 PCOD9113373
Probable space group: P 2
;
_chemical_formula_sum "Si O2"
_cell_formula_units_Z 11
_cell_length_a 5.136060
_cell_length_b 10.996414
_cell_length_c 9.574608
_cell_angle_alpha 90.000000
_cell_angle_beta 78.039244
_cell_angle_gamma 90.000000
_cell_volume 529.017073
_symmetry_space_group_name_H-M "P 2"
_symmetry_group_IT_number 3
_symmetry_cell_setting 'monoclinic'
loop_
_space_group_symop_operation_xyz
x,y,z
-x,y,-z
loop_
_atom_site_type_symbol
_atom_site_label
_atom_site_fract_x
_atom_site_fract_y
_atom_site_fract_z
Si Si1 0.591581 0.564180 0.832833
Si Si2 0.910666 0.403808 0.168036
Si Si3 0.552173 0.021208 0.153637
Si Si4 0.575558 0.804958 0.653448
Si Si5 0.000000 0.979404 0.500000
Si Si6 0.983925 0.145105 0.264500
O O1 0.383805 0.460031 0.807373
O O2 0.589251 0.678403 0.730634
O O3 0.885246 0.509016 0.810208
O O4 0.500000 0.599825 0.000000
O O5 0.950043 0.289358 0.264829
O O6 0.000000 0.368168 0.000000
O O7 0.812747 0.100313 0.151898
O O8 0.291790 0.101779 0.226000
O O9 0.599120 0.898552 0.237171
O O10 0.500000 0.988228 0.000000
O O11 0.500000 0.789603 0.500000
O O12 0.842124 0.885651 0.614697
O O13 0.856425 0.073676 0.411236
#
# Coordination Sequence:
#
# PCOD9113373 Si02
#       6
#     2   2   2   2   1   2
#     4  10  23  41  64  91 121 161 207 255 302 359
#     4  10  21  40  63  92 123 157 203 256 306 359
#     4  11  22  37  65  96 120 161 210 255 311 364
#     4  11  23  42  62  86 129 164 204 256 307 363
#     4  10  24  42  62  90 132 162 208 250 314 368
#     4  11  22  40  64  92 128 163 200 258 309 370
#
# _framework density 20.793282000000001
#
# number of rings (size 3 to 8) (size 9 to 14) (size 15 to 20)
#    0.000    1.455    1.818    3.273    2.545    1.455 
#    3.273    3.636    0.000    0.000    0.000    0.000 
#    0.000    0.000    0.000    0.000    0.000    0.000 
#
# Total GULP energy -61356.069697 kJ/mol
# GULP energy per Si atom -5577.824518 kJ/mol
# Density = 2.074596 g / cm^3
# Si number density = 20.793282 Si / 1000 Ang^3
#
#
#
# Elastic Constant Matrix: (Units=GPa)
#
#
# Indices 1 2 3 4 5 6 
#
# 1 55.3746 -5.2303 6.0580 0.0000 16.3381 0.0000
# 2 -5.2303 105.1891 52.4099 0.0000 9.6387 0.0000
# 3 6.0580 52.4099 90.9953 0.0000 21.1748 0.0000
# 4 0.0000 0.0000 0.0000 81.0983 0.0000 17.7532
# 5 16.3381 9.6387 21.1748 0.0000 28.5018 0.0000
# 6 0.0000 0.0000 0.0000 17.7532 0.0000 22.1156
#
#
#
# Elastic Compliance Matrix: (Units=1/GPa)
#
#
# Indices 1 2 3 4 5 6 
#
# 1 0.022300 0.002119 0.000528 0.000000 -0.013891 0.000000
# 2 0.002119 0.013584 -0.007995 0.000000 0.000132 0.000000
# 3 0.000528 -0.007995 0.018136 0.000000 -0.011072 0.000000
# 4 0.000000 0.000000 0.000000 0.014960 0.000000 -0.012009
# 5 -0.013891 0.000132 -0.011072 0.000000 0.051230 0.000000
# 6 0.000000 0.000000 0.000000 -0.012009 0.000000 0.054857
#
#
# Mechanical properties :
#
#
# Convention : Reuss Voigt Hill
#
# Bulk Modulus (GPa) = 23.08315 39.78158 31.43237
# Shear Modulus (GPa) = 24.97451 39.56458 32.26954
#
# Velocity S-wave (km/s) = 3.46943 4.36679 3.94372
# Velocity P-wave (km/s) = 5.21293 6.67822 5.99054
#
# Compressibility (1/GPa) = 0.04332164
#
# Stress axis : x y z
#
# Youngs Moduli (GPa) = 44.84333 73.61797 55.13879
#
# Poissons Ratio (x) = -0.15599 -0.02909
# Poissons Ratio (y) = -0.09502 0.44086
# Poissons Ratio (z) = -0.02366 0.58860
#
# Static dielectric constant tensor:
#      x y z
#    x 1.790040 0.000000 -0.032060 
#    y 0.000000 1.692640 0.000000 
#    z -0.032060 0.000000 1.805700 
# 
# From -- ./inp_files/4262.got.cif
#   From: 2010.05.17/outbox.cif.g08.bks.cpg/sg3_3_cif.got.tgz:4262.got - 2010.06.03 18:33:08.
