data_PCOD9113830
_publ_section_title
;
Structure prediction by ZEFSAII (Michael W. Deem and Ramdas Pophale) SiO2 
 PCOD9113830
Probable space group: P 2
;
_chemical_formula_sum "Si O2"
_cell_formula_units_Z 9
_cell_length_a 13.396538
_cell_length_b 5.269307
_cell_length_c 6.576649
_cell_angle_alpha 90.000000
_cell_angle_beta 109.941685
_cell_angle_gamma 90.000000
_cell_volume 436.412509
_symmetry_space_group_name_H-M "P 2"
_symmetry_group_IT_number 3
_symmetry_cell_setting 'monoclinic'
loop_
_space_group_symop_operation_xyz
x,y,z
-x,y,-z
loop_
_atom_site_type_symbol
_atom_site_label
_atom_site_fract_x
_atom_site_fract_y
_atom_site_fract_z
Si Si1 0.094682 0.262680 0.214742
Si Si2 0.273091 0.225780 0.026676
Si Si3 0.813608 0.553249 0.370925
Si Si4 0.621001 0.719424 0.021181
Si Si5 0.000000 0.906140 0.500000
O O1 0.147019 0.489032 0.378836
O O2 0.047749 0.073433 0.351065
O O3 0.190410 0.158662 0.144358
O O4 0.000000 0.341677 0.000000
O O5 0.204075 0.299863 0.777036
O O6 0.338454 0.489753 0.095831
O O7 0.352302 0.994486 0.047674
O O8 0.906708 0.727314 0.346315
O O9 0.700431 0.688228 0.269651
O O10 0.500000 0.689483 0.000000
#
# Coordination Sequence:
#
# PCOD9113830 Si02
#       5
#     2   2   2   2   1
#     4  12  24  40  65 103 137 182 220 274 335 406
#     4  10  24  44  70 100 133 177 226 273 334 401
#     4  10  24  42  66 100 135 181 219 279 330 401
#     4  10  22  46  75  96 134 180 224 279 338 391
#     4  12  24  40  66 100 144 178 222 274 340 396
#
# _framework density 20.622691
#
# number of rings (size 3 to 8) (size 9 to 14) (size 15 to 20)
#    1.333    0.000    0.000    6.667    3.111    0.889 
#    0.000    1.111    0.000    0.000    0.000    0.000 
#    0.000    0.000    0.000    0.000    0.000    0.000 
#
# Total GULP energy -50199.583008 kJ/mol
# GULP energy per Si atom -5577.731445 kJ/mol
# Density = 2.057575 g / cm^3
# Si number density = 20.622691 Si / 1000 Ang^3
#
#
#
# Elastic Constant Matrix: (Units=GPa)
#
#
# Indices 1 2 3 4 5 6 
#
# 1 172.2292 39.0733 44.7997 0.0000 8.4232 0.0000
# 2 39.0733 96.3669 20.5131 0.0000 2.7548 0.0000
# 3 44.7997 20.5131 51.9644 0.0000 -8.4081 0.0000
# 4 0.0000 0.0000 0.0000 13.3815 0.0000 -2.3920
# 5 8.4232 2.7548 -8.4081 0.0000 27.1741 0.0000
# 6 0.0000 0.0000 0.0000 -2.3920 0.0000 35.6661
#
#
#
# Elastic Compliance Matrix: (Units=1/GPa)
#
#
# Indices 1 2 3 4 5 6 
#
# 1 0.008300 -0.001692 -0.007239 0.000000 -0.004641 0.000000
# 2 -0.001692 0.011860 -0.003509 0.000000 -0.001764 0.000000
# 3 -0.007239 -0.003509 0.028728 0.000000 0.011489 0.000000
# 4 0.000000 0.000000 0.000000 0.075637 0.000000 0.005073
# 5 -0.004641 -0.001764 0.011489 0.000000 0.041972 0.000000
# 6 0.000000 0.000000 0.000000 0.005073 0.000000 0.028378
#
#
# Mechanical properties :
#
#
# Convention : Reuss Voigt Hill
#
# Bulk Modulus (GPa) = 41.64856 58.81472 50.23164
# Shear Modulus (GPa) = 21.95320 29.65594 25.80457
#
# Velocity S-wave (km/s) = 3.26623 3.79624 3.54117
# Velocity P-wave (km/s) = 5.87058 6.91351 6.41328
#
# Compressibility (1/GPa) = 0.02401043
#
# Stress axis : x y z
#
# Youngs Moduli (GPa) = 120.48344 84.31518 34.80867
#
# Poissons Ratio (x) = 0.14264 0.25197
# Poissons Ratio (y) = 0.20383 0.12213
# Poissons Ratio (z) = 0.87213 0.29584
#
# Static dielectric constant tensor:
#      x y z
#    x 1.713070 0.000000 0.004000 
#    y 0.000000 1.786750 0.000000 
#    z 0.004000 0.000000 1.754410 
# 
# From -- ./inp_files/1837.got.cif
#   From: 2010.05.17/outbox.cif.g08.bks.cpg/sg3_1_cif.got.tgz:1837.got - 2010.06.03 18:33:08.
