data_PCOD9113712
_publ_section_title
;
Structure prediction by ZEFSAII (Michael W. Deem and Ramdas Pophale) SiO2 
 PCOD9113712
Probable space group: P 2
;
_chemical_formula_sum "Si O2"
_cell_formula_units_Z 11
_cell_length_a 18.329368
_cell_length_b 5.165059
_cell_length_c 7.808012
_cell_angle_alpha 90.000000
_cell_angle_beta 37.908415
_cell_angle_gamma 90.000000
_cell_volume 454.166633
_symmetry_space_group_name_H-M "P 2"
_symmetry_group_IT_number 3
_symmetry_cell_setting 'monoclinic'
loop_
_space_group_symop_operation_xyz
x,y,z
-x,y,-z
loop_
_atom_site_type_symbol
_atom_site_label
_atom_site_fract_x
_atom_site_fract_y
_atom_site_fract_z
Si Si1 0.405005 0.402430 0.322880
Si Si2 0.242437 0.712451 0.001641
Si Si3 0.742840 0.914562 0.387440
Si Si4 0.500000 0.510432 0.500000
Si Si5 0.079697 0.823627 0.636571
Si Si6 0.059727 0.321646 0.205774
O O1 0.360074 0.697914 0.405091
O O2 0.461565 0.351362 0.404293
O O3 0.299258 0.201603 0.489042
O O4 0.500000 0.363465 0.000000
O O5 0.228443 0.906095 0.867882
O O6 0.382383 0.670880 0.773649
O O7 0.187149 0.445946 0.025358
O O8 0.166539 0.803340 0.306673
O O9 0.839977 0.833319 0.344980
O O10 0.993039 0.071409 0.792578
O O11 0.002072 0.565854 0.771416
O O12 0.000000 0.285858 0.500000
#
# Coordination Sequence:
#
# PCOD9113712 Si02
#       6
#     2   2   2   1   2   2
#     4  11  24  43  65  98 137 179 230 274 329 409
#     4  10  24  46  69 103 138 174 234 277 332 412
#     4  11  25  42  68 101 133 176 227 279 340 401
#     4  10  24  44  72 100 138 186 218 284 344 386
#     4  11  23  44  70  96 134 179 216 279 342 388
#     4  10  22  42  69  97 132 176 222 273 334 400
#
# _framework density 24.220186999999999
#
# number of rings (size 3 to 8) (size 9 to 14) (size 15 to 20)
#    0.000    1.455    0.000    4.364    0.000   16.727 
#    0.000    5.455    0.000    0.000    0.000    0.000 
#    0.000    0.000    0.000    0.000    0.000    0.000 
#
# Total GULP energy -61528.236419 kJ/mol
# GULP energy per Si atom -5593.476038 kJ/mol
# Density = 2.416506 g / cm^3
# Si number density = 24.220187 Si / 1000 Ang^3
#
#
#
# Elastic Constant Matrix: (Units=GPa)
#
#
# Indices 1 2 3 4 5 6 
#
# 1 151.0508 19.5350 39.2222 0.0000 -2.4808 0.0000
# 2 19.5350 107.5938 19.3914 0.0000 4.3707 0.0000
# 3 39.2222 19.3914 126.2991 0.0000 9.4428 0.0000
# 4 0.0000 0.0000 0.0000 17.1399 0.0000 2.5286
# 5 -2.4808 4.3707 9.4428 0.0000 54.8075 0.0000
# 6 0.0000 0.0000 0.0000 2.5286 0.0000 27.5268
#
#
#
# Elastic Compliance Matrix: (Units=1/GPa)
#
#
# Indices 1 2 3 4 5 6 
#
# 1 0.007326 -0.000968 -0.002185 0.000000 0.000785 0.000000
# 2 -0.000968 0.009701 -0.001142 0.000000 -0.000621 0.000000
# 3 -0.002185 -0.001142 0.008887 0.000000 -0.001539 0.000000
# 4 0.000000 0.000000 0.000000 0.059145 0.000000 -0.005433
# 5 0.000785 -0.000621 -0.001539 0.000000 0.018596 0.000000
# 6 0.000000 0.000000 0.000000 -0.005433 0.000000 0.036827
#
#
# Mechanical properties :
#
#
# Convention : Reuss Voigt Hill
#
# Bulk Modulus (GPa) = 57.72897 60.13787 58.93342
# Shear Modulus (GPa) = 32.28992 40.34786 36.31889
#
# Velocity S-wave (km/s) = 3.65524 4.08594 3.87658
# Velocity P-wave (km/s) = 6.45764 6.86611 6.66501
#
# Compressibility (1/GPa) = 0.01732233
#
# Stress axis : x y z
#
# Youngs Moduli (GPa) = 136.50418 103.08106 112.52709
#
# Poissons Ratio (x) = 0.09980 0.24588
# Poissons Ratio (y) = 0.13216 0.12855
# Poissons Ratio (z) = 0.29827 0.11776
#
# Static dielectric constant tensor:
#      x y z
#    x 1.873040 0.000000 -0.026270 
#    y 0.000000 1.952080 0.000000 
#    z -0.026270 0.000000 2.038580 
# 
# From -- ./inp_files/8680.got.cif
#   From: 2010.05.17/outbox.cif.g08.bks.cpg/sg3_5_cif.got.tgz:8680.got - 2010.06.03 18:33:08.
