data_PCOD9113699
_publ_section_title
;
Structure prediction by ZEFSAII (Michael W. Deem and Ramdas Pophale) SiO2 
 PCOD9113699
Probable space group: P 2
;
_chemical_formula_sum "Si O2"
_cell_formula_units_Z 14
_cell_length_a 8.627831
_cell_length_b 6.959029
_cell_length_c 11.610247
_cell_angle_alpha 90.000000
_cell_angle_beta 77.418683
_cell_angle_gamma 90.000000
_cell_volume 680.355880
_symmetry_space_group_name_H-M "P 2"
_symmetry_group_IT_number 3
_symmetry_cell_setting 'monoclinic'
loop_
_space_group_symop_operation_xyz
x,y,z
-x,y,-z
loop_
_atom_site_type_symbol
_atom_site_label
_atom_site_fract_x
_atom_site_fract_y
_atom_site_fract_z
Si Si1 0.501737 0.908640 0.244961
Si Si2 0.822859 0.939341 0.339960
Si Si3 0.826368 0.281034 0.524913
Si Si4 0.332508 0.677029 0.463344
Si Si5 0.372786 0.613174 0.101462
Si Si6 0.095599 0.918783 0.104702
Si Si7 0.280047 0.219502 0.212227
O O1 0.664541 0.930518 0.286718
O O2 0.365174 0.808906 0.346884
O O3 0.497166 0.758717 0.142115
O O4 0.446324 0.112821 0.206435
O O5 0.803331 0.769799 0.436020
O O6 0.969727 0.906003 0.230680
O O7 0.817314 0.133081 0.419452
O O8 0.700479 0.452259 0.543818
O O9 0.808325 0.182130 0.652187
O O10 0.000000 0.371877 0.500000
O O11 0.500000 0.695546 0.500000
O O12 0.225114 0.745932 0.084331
O O13 0.297284 0.444609 0.189511
O O14 0.500000 0.505071 0.000000
O O15 0.192265 0.112603 0.121576
O O16 0.000000 0.926771 0.000000
#
# Coordination Sequence:
#
# PCOD9113699 Si02
#       7
#     2   2   2   2   2   2   2
#     4  10  22  42  67  95 134 174 222 271 322 393
#     4  11  24  40  67  99 133 175 215 268 336 389
#     4  12  24  38  65 101 138 171 209 269 335 398
#     4  10  23  38  63  97 134 174 215 263 330 396
#     4  11  25  45  69  95 129 180 227 273 329 388
#     4  11  26  47  67  94 134 174 226 279 327 393
#     4  11  24  42  68  99 133 170 224 271 326 399
#
# _framework density 20.577466000000001
#
# number of rings (size 3 to 8) (size 9 to 14) (size 15 to 20)
#    0.000    1.143    4.286    0.857    4.000    4.571 
#    0.000    0.000    0.000    0.000    0.000    0.000 
#    0.000    0.000    0.000    0.000    0.000    0.000 
#
# Total GULP energy -78023.086124 kJ/mol
# GULP energy per Si atom -5573.077580 kJ/mol
# Density = 2.053063 g / cm^3
# Si number density = 20.577466 Si / 1000 Ang^3
#
#
#
# Elastic Constant Matrix: (Units=GPa)
#
#
# Indices 1 2 3 4 5 6 
#
# 1 79.0393 36.2094 31.7775 0.0000 -0.1168 0.0000
# 2 36.2094 92.9506 14.7070 0.0000 9.5233 0.0000
# 3 31.7775 14.7070 72.7332 0.0000 -10.0993 0.0000
# 4 0.0000 0.0000 0.0000 23.1564 0.0000 -0.5987
# 5 -0.1168 9.5233 -10.0993 0.0000 33.0199 0.0000
# 6 0.0000 0.0000 0.0000 -0.5987 0.0000 13.7173
#
#
#
# Elastic Compliance Matrix: (Units=1/GPa)
#
#
# Indices 1 2 3 4 5 6 
#
# 1 0.018087 -0.005951 -0.006738 0.000000 -0.000281 0.000000
# 2 -0.005951 0.013620 -0.000734 0.000000 -0.004174 0.000000
# 3 -0.006738 -0.000734 0.017615 0.000000 0.005575 0.000000
# 4 0.000000 0.000000 0.000000 0.043233 0.000000 0.001887
# 5 -0.000281 -0.004174 0.005575 0.000000 0.033193 0.000000
# 6 0.000000 0.000000 0.000000 0.001887 0.000000 0.072983
#
#
# Mechanical properties :
#
#
# Convention : Reuss Voigt Hill
#
# Bulk Modulus (GPa) = 44.48909 45.56790 45.02849
# Shear Modulus (GPa) = 21.45293 24.78067 23.11680
#
# Velocity S-wave (km/s) = 3.23235 3.47401 3.35536
# Velocity P-wave (km/s) = 5.96641 6.18743 6.07792
#
# Compressibility (1/GPa) = 0.02247742
#
# Stress axis : x y z
#
# Youngs Moduli (GPa) = 55.28933 73.41971 56.76920
#
# Poissons Ratio (x) = 0.43692 0.38250
# Poissons Ratio (y) = 0.32902 0.04165
# Poissons Ratio (z) = 0.37253 0.05386
#
# Static dielectric constant tensor:
#      x y z
#    x 1.738910 0.000000 -0.045250 
#    y 0.000000 1.692160 0.000000 
#    z -0.045250 0.000000 1.858340 
# 
# From -- ./inp_files/6614.got.cif
#   From: 2010.05.17/outbox.cif.g08.bks.cpg/sg3_4_cif.got.tgz:6614.got - 2010.06.03 18:33:08.
