data_PCOD9113310
_publ_section_title
;
Structure prediction by ZEFSAII (Michael W. Deem and Ramdas Pophale) SiO2 
 PCOD9113310
Probable space group: P 2
;
_chemical_formula_sum "Si O2"
_cell_formula_units_Z 14
_cell_length_a 15.508693
_cell_length_b 7.783336
_cell_length_c 7.792835
_cell_angle_alpha 90.000000
_cell_angle_beta 47.296727
_cell_angle_gamma 90.000000
_cell_volume 691.274341
_symmetry_space_group_name_H-M "P 2"
_symmetry_group_IT_number 3
_symmetry_cell_setting 'monoclinic'
loop_
_space_group_symop_operation_xyz
x,y,z
-x,y,-z
loop_
_atom_site_type_symbol
_atom_site_label
_atom_site_fract_x
_atom_site_fract_y
_atom_site_fract_z
Si Si1 0.279911 0.919290 0.122947
Si Si2 0.941985 0.031378 0.389651
Si Si3 0.195889 0.248820 0.659090
Si Si4 0.567681 0.604566 0.151116
Si Si5 0.838701 0.905029 0.081961
Si Si6 0.692041 0.588689 0.358463
Si Si7 0.623036 0.250838 0.893099
O O1 0.179553 0.933041 0.404014
O O2 0.326211 0.113324 0.044345
O O3 0.380601 0.776896 0.005755
O O4 0.217606 0.882031 0.029017
O O5 0.915408 0.205267 0.316140
O O6 0.000000 0.064491 0.500000
O O7 0.024598 0.918274 0.155198
O O8 0.225222 0.422776 0.721237
O O9 0.298356 0.250680 0.380789
O O10 0.196187 0.085527 0.784548
O O11 0.632328 0.587052 0.249306
O O12 0.426411 0.602173 0.365586
O O13 0.605741 0.437764 0.993880
O O14 0.778617 0.750420 0.265435
O O15 0.500000 0.178538 0.000000
#
# Coordination Sequence:
#
# PCOD9113310 Si02
#       7
#     2   2   2   2   2   2   2
#     4   9  21  39  64  87 120 167 200 246 310 354
#     4   9  20  42  65  87 120 161 207 253 302 361
#     4  11  22  38  61  91 121 160 200 253 305 352
#     4  10  21  39  59  90 130 163 199 246 299 377
#     4  10  21  41  64  91 120 156 209 256 298 359
#     4  10  22  38  62  92 124 161 202 250 308 358
#     4  11  22  36  55  87 127 162 200 242 295 364
#
# _framework density 20.252452000000002
#
# number of rings (size 3 to 8) (size 9 to 14) (size 15 to 20)
#    0.000    2.000    1.429    1.286    2.000    2.857 
#    0.000    7.143    0.000   13.714    0.000    0.000 
#    0.000    0.000    0.000    0.000    0.000    0.000 
#
# Total GULP energy -77962.337154 kJ/mol
# GULP energy per Si atom -5568.738368 kJ/mol
# Density = 2.020636 g / cm^3
# Si number density = 20.252452 Si / 1000 Ang^3
#
#
#
# Elastic Constant Matrix: (Units=GPa)
#
#
# Indices 1 2 3 4 5 6 
#
# 1 63.0968 26.1213 26.6443 0.0000 -3.5812 0.0000
# 2 26.1213 156.6717 79.8555 0.0000 -14.8494 0.0000
# 3 26.6443 79.8555 113.7857 0.0000 -6.7471 0.0000
# 4 0.0000 0.0000 0.0000 35.8974 0.0000 -16.5596
# 5 -3.5812 -14.8494 -6.7471 0.0000 16.4313 0.0000
# 6 0.0000 0.0000 0.0000 -16.5596 0.0000 15.2752
#
#
#
# Elastic Compliance Matrix: (Units=1/GPa)
#
#
# Indices 1 2 3 4 5 6 
#
# 1 0.017792 -0.001163 -0.003262 0.000000 0.001487 0.000000
# 2 -0.001163 0.010686 -0.006836 0.000000 0.006597 0.000000
# 3 -0.003262 -0.006836 0.014289 0.000000 -0.001021 0.000000
# 4 0.000000 0.000000 0.000000 0.055725 0.000000 0.060411
# 5 0.001487 0.006597 -0.001021 0.000000 0.066726 0.000000
# 6 0.000000 0.000000 0.000000 0.060411 0.000000 0.130956
#
#
# Mechanical properties :
#
#
# Convention : Reuss Voigt Hill
#
# Bulk Modulus (GPa) = 49.39325 66.53294 57.96310
# Shear Modulus (GPa) = 15.36355 26.91631 21.13993
#
# Velocity S-wave (km/s) = 2.75726 3.64955 3.23433
# Velocity P-wave (km/s) = 5.88034 7.11914 6.52918
#
# Compressibility (1/GPa) = 0.02024568
#
# Stress axis : x y z
#
# Youngs Moduli (GPa) = 56.20535 93.57723 69.98169
#
# Poissons Ratio (x) = 0.10881 0.22827
# Poissons Ratio (y) = 0.06536 0.47842
# Poissons Ratio (z) = 0.18334 0.63972
#
# Static dielectric constant tensor:
#      x y z
#    x 1.819140 0.000000 -0.032110 
#    y 0.000000 1.702270 0.000000 
#    z -0.032110 0.000000 1.739070 
# 
# From -- ./inp_files/8826.got.cif
#   From: 2010.05.17/outbox.cif.g08.bks.cpg/sg3_5_cif.got.tgz:8826.got - 2010.06.03 18:33:08.
