data_PCOD9113178
_publ_section_title
;
Structure prediction by ZEFSAII (Michael W. Deem and Ramdas Pophale) SiO2 
 PCOD9113178
Probable space group: P 2
;
_chemical_formula_sum "Si O2"
_cell_formula_units_Z 16
_cell_length_a 8.601979
_cell_length_b 10.912538
_cell_length_c 11.583938
_cell_angle_alpha 90.000000
_cell_angle_beta 125.905337
_cell_angle_gamma 90.000000
_cell_volume 880.761717
_symmetry_space_group_name_H-M "P 2"
_symmetry_group_IT_number 3
_symmetry_cell_setting 'monoclinic'
loop_
_space_group_symop_operation_xyz
x,y,z
-x,y,-z
loop_
_atom_site_type_symbol
_atom_site_label
_atom_site_fract_x
_atom_site_fract_y
_atom_site_fract_z
Si Si1 0.787710 0.406400 0.906900
Si Si2 0.397163 0.974449 0.334235
Si Si3 0.958921 0.986280 0.110873
Si Si4 0.799373 0.377011 0.346521
Si Si5 0.580589 0.858087 0.909986
Si Si6 0.541845 0.265143 0.647284
Si Si7 0.270413 0.219184 0.907549
Si Si8 0.467385 0.577428 0.852697
O O1 0.736944 0.329239 0.771987
O O2 0.638107 0.515147 0.856101
O O3 0.759116 0.308153 0.996396
O O4 0.000000 0.455208 0.000000
O O5 0.500000 0.934733 0.500000
O O6 0.436834 0.119357 0.337662
O O7 0.167979 0.954690 0.250648
O O8 0.454079 0.920149 0.231819
O O9 0.846700 0.093739 0.127857
O O10 0.000000 0.035759 0.000000
O O11 0.810460 0.873747 0.029325
O O12 0.630924 0.315073 0.349424
O O13 0.804712 0.292558 0.235701
O O14 0.724707 0.511979 0.276360
O O15 0.000000 0.380136 0.500000
O O16 0.492322 0.722638 0.859344
O O17 0.500000 0.905199 0.000000
O O18 0.500000 0.301554 0.500000
O O19 0.500000 0.197293 0.000000
O O20 0.500000 0.539566 0.000000
#
# Coordination Sequence:
#
# PCOD9113178 Si02
#       8
#     2   2   2   2   2   2   2   2
#     4  11  20  33  58  85 112 155 199 247 300 358
#     4  10  22  41  59  85 132 162 197 254 314 363
#     4  10  22  36  60  93 119 157 203 251 302 369
#     4  11  24  37  60  88 125 161 201 243 309 368
#     4  10  22  40  66  86 117 158 217 258 302 352
#     4  10  22  37  54  85 125 161 190 245 310 368
#     4  12  20  36  60  86 124 152 198 245 307 361
#     4  10  20  43  60  85 115 158 204 267 294 343
#
# _framework density 18.166094000000001
#
# number of rings (size 3 to 8) (size 9 to 14) (size 15 to 20)
#    0.000    1.500    3.750    3.000    7.000    1.500 
#    0.000    5.625    0.000    0.000    0.000    0.000 
#    0.000    0.000    0.000    0.000    0.000    0.000 
#
# Total GULP energy -89175.641655 kJ/mol
# GULP energy per Si atom -5573.477603 kJ/mol
# Density = 1.812475 g / cm^3
# Si number density = 18.166094 Si / 1000 Ang^3
#
#
#
# Elastic Constant Matrix: (Units=GPa)
#
#
# Indices 1 2 3 4 5 6 
#
# 1 64.4168 15.5957 44.7808 0.0000 5.8950 0.0000
# 2 15.5957 58.9767 35.4318 0.0000 0.6149 0.0000
# 3 44.7808 35.4318 160.8044 0.0000 5.7674 0.0000
# 4 0.0000 0.0000 0.0000 13.6741 0.0000 -4.4472
# 5 5.8950 0.6149 5.7674 0.0000 37.4144 0.0000
# 6 0.0000 0.0000 0.0000 -4.4472 0.0000 6.1809
#
#
#
# Elastic Compliance Matrix: (Units=1/GPa)
#
#
# Indices 1 2 3 4 5 6 
#
# 1 0.019688 -0.002234 -0.004908 0.000000 -0.002309 0.000000
# 2 -0.002234 0.019801 -0.003763 0.000000 0.000607 0.000000
# 3 -0.004908 -0.003763 0.008431 0.000000 -0.000465 0.000000
# 4 0.000000 0.000000 0.000000 0.095472 0.000000 0.068694
# 5 -0.002309 0.000607 -0.000465 0.000000 0.027153 0.000000
# 6 0.000000 0.000000 0.000000 0.068694 0.000000 0.211214
#
#
# Mechanical properties :
#
#
# Convention : Reuss Voigt Hill
#
# Bulk Modulus (GPa) = 38.29727 52.86830 45.58278
# Shear Modulus (GPa) = 12.12795 24.01318 18.07057
#
# Velocity S-wave (km/s) = 2.58663 3.63969 3.15737
# Velocity P-wave (km/s) = 5.48164 6.84318 6.19990
#
# Compressibility (1/GPa) = 0.02611152
#
# Stress axis : x y z
#
# Youngs Moduli (GPa) = 50.79335 50.50330 118.60806
#
# Poissons Ratio (x) = 0.11281 0.58208
# Poissons Ratio (y) = 0.11346 0.44628
# Poissons Ratio (z) = 0.24927 0.19002
#
# Static dielectric constant tensor:
#      x y z
#    x 1.676490 0.000000 -0.016220 
#    y 0.000000 1.617030 0.000000 
#    z -0.016220 0.000000 1.649180 
# 
# From -- ./inp_files/5762.got.cif
#   From: 2010.05.17/outbox.cif.g08.bks.cpg/sg3_3_cif.got.tgz:5762.got - 2010.06.03 18:33:08.
