data_PCOD9113521
_publ_section_title
;
Structure prediction by ZEFSAII (Michael W. Deem and Ramdas Pophale) SiO2 
 PCOD9113521
Probable space group: P 2
;
_chemical_formula_sum "Si O2"
_cell_formula_units_Z 12
_cell_length_a 9.537616
_cell_length_b 12.209710
_cell_length_c 8.801311
_cell_angle_alpha 90.000000
_cell_angle_beta 148.158931
_cell_angle_gamma 90.000000
_cell_volume 540.714984
_symmetry_space_group_name_H-M "P 2"
_symmetry_group_IT_number 3
_symmetry_cell_setting 'monoclinic'
loop_
_space_group_symop_operation_xyz
x,y,z
-x,y,-z
loop_
_atom_site_type_symbol
_atom_site_label
_atom_site_fract_x
_atom_site_fract_y
_atom_site_fract_z
Si Si1 0.064023 0.409950 0.388979
Si Si2 0.524972 0.941822 0.842384
Si Si3 0.782524 0.598655 0.674026
Si Si4 0.038508 0.805506 0.350147
Si Si5 0.722669 0.336552 0.828082
Si Si6 0.585148 0.191550 0.255228
O O1 0.244453 0.499954 0.472232
O O2 0.794253 0.407280 0.042230
O O3 0.190913 0.286198 0.512195
O O4 0.000000 0.442290 0.500000
O O5 0.325314 0.857171 0.586494
O O6 0.398071 0.062261 0.698052
O O7 0.500000 0.932787 0.000000
O O8 0.821087 0.894016 0.090115
O O9 0.500000 0.622644 0.500000
O O10 0.935515 0.694462 0.721861
O O11 0.000000 0.563416 0.000000
O O12 0.000000 0.788967 0.500000
O O13 0.500000 0.366787 0.500000
O O14 0.634078 0.224998 0.824481
O O15 0.000000 0.323050 0.000000
O O16 0.500000 0.202799 0.000000
#
# Coordination Sequence:
#
# PCOD9113521 Si02
#       6
#     2   2   2   2   2   2
#     4  12  27  45  74 106 145 196 247 293 348 439
#     4   9  21  39  74 104 138 175 235 300 355 407
#     4  12  29  47  72 102 144 189 235 304 367 425
#     4  10  21  46  72 102 132 182 238 297 351 426
#     4  12  26  43  65  98 147 189 234 287 355 420
#     4  11  24  43  71 109 145 190 243 293 350 432
#
# _framework density 22.192837999999998
#
# number of rings (size 3 to 8) (size 9 to 14) (size 15 to 20)
#    0.000    1.000    3.333    2.000    7.000    0.667 
#    0.000    7.500    0.000    0.000    0.000    0.000 
#    0.000    0.000    0.000    0.000    0.000    0.000 
#
# Total GULP energy -66826.674260 kJ/mol
# GULP energy per Si atom -5568.889522 kJ/mol
# Density = 2.214233 g / cm^3
# Si number density = 22.192838 Si / 1000 Ang^3
#
#
#
# Elastic Constant Matrix: (Units=GPa)
#
#
# Indices 1 2 3 4 5 6 
#
# 1 112.7637 30.3856 53.1594 0.0000 -11.5957 0.0000
# 2 30.3856 106.3415 22.7755 0.0000 -16.8884 0.0000
# 3 53.1594 22.7755 119.6380 0.0000 0.9703 0.0000
# 4 0.0000 0.0000 0.0000 -15.8047 0.0000 19.3737
# 5 -11.5957 -16.8884 0.9703 0.0000 35.8768 0.0000
# 6 0.0000 0.0000 0.0000 19.3737 0.0000 22.4011
#
#
#
# Elastic Compliance Matrix: (Units=1/GPa)
#
#
# Indices 1 2 3 4 5 6 
#
# 1 0.012069 -0.001869 -0.005032 0.000000 0.003157 0.000000
# 2 -0.001869 0.010942 -0.001289 0.000000 0.004581 0.000000
# 3 -0.005032 -0.001289 0.010861 0.000000 -0.002527 0.000000
# 4 0.000000 0.000000 0.000000 -0.030712 0.000000 0.026562
# 5 0.003157 0.004581 -0.002527 0.000000 0.031118 0.000000
# 6 0.000000 0.000000 0.000000 0.026562 0.000000 0.021669
#
#
# Mechanical properties :
#
#
# Convention : Reuss Voigt Hill
#
# Bulk Modulus (GPa) = 57.18015 61.26490 59.22253
# Shear Modulus (GPa) = 63.97361 23.98950 43.98156
#
# Velocity S-wave (km/s) = 5.37483 3.29136 4.45656
# Velocity P-wave (km/s) = 8.02119 6.48920 7.29552
#
# Compressibility (1/GPa) = 0.01748859
#
# Stress axis : x y z
#
# Youngs Moduli (GPa) = 82.85826 91.39486 92.07627
#
# Poissons Ratio (x) = 0.17085 0.46336
# Poissons Ratio (y) = 0.15489 0.11873
# Poissons Ratio (z) = 0.41697 0.11785
#
# Static dielectric constant tensor:
#      x y z
#    x 1.883760 0.000000 0.050400 
#    y 0.000000 1.848660 0.000000 
#    z 0.050400 0.000000 1.878200 
# 
# From -- ./inp_files/6097.got.cif
#   From: 2010.05.17/outbox.cif.g08.bks.cpg/sg3_4_cif.got.tgz:6097.got - 2010.06.03 18:33:08.
