data_PCOD9113857
_publ_section_title
;
Structure prediction by ZEFSAII (Michael W. Deem and Ramdas Pophale) SiO2 
 PCOD9113857
Probable space group: P 2
;
_chemical_formula_sum "Si O2"
_cell_formula_units_Z 14
_cell_length_a 13.956532
_cell_length_b 5.484105
_cell_length_c 7.930475
_cell_angle_alpha 90.000000
_cell_angle_beta 108.171851
_cell_angle_gamma 90.000000
_cell_volume 576.717857
_symmetry_space_group_name_H-M "P 2"
_symmetry_group_IT_number 3
_symmetry_cell_setting 'monoclinic'
loop_
_space_group_symop_operation_xyz
x,y,z
-x,y,-z
loop_
_atom_site_type_symbol
_atom_site_label
_atom_site_fract_x
_atom_site_fract_y
_atom_site_fract_z
Si Si1 0.923124 0.713240 0.805333
Si Si2 0.750227 0.028047 0.710780
Si Si3 0.005835 0.235893 0.308563
Si Si4 0.529883 0.948131 0.696857
Si Si5 0.396055 0.604025 0.960907
Si Si6 0.214941 0.275347 0.940585
Si Si7 0.679516 0.996498 0.305922
O O1 0.806052 0.771426 0.780078
O O2 0.927865 0.477500 0.688534
O O3 0.961753 0.978190 0.757201
O O4 0.000000 0.660900 0.000000
O O5 0.634383 0.070397 0.700728
O O6 0.749189 0.040216 0.506858
O O7 0.803772 0.194688 0.878516
O O8 0.894989 0.320949 0.190997
O O9 0.000000 0.180970 0.500000
O O10 0.500000 0.820288 0.500000
O O11 0.430881 0.098018 0.699829
O O12 0.564213 0.798098 0.879711
O O13 0.298980 0.480161 0.983702
O O14 0.354603 0.721577 0.763508
O O15 0.500000 0.451543 0.000000
O O16 0.266675 0.088577 0.833873
#
# Coordination Sequence:
#
# PCOD9113857 Si02
#       7
#     2   2   2   2   2   2   2
#     4  12  27  50  74 109 150 193 253 318 372 454
#     4  11  24  44  75  99 140 193 239 300 375 443
#     4  12  29  50  78 109 150 197 258 315 383 445
#     4   9  20  43  70  99 139 188 229 296 363 451
#     4  10  23  40  68 101 144 182 233 300 365 441
#     4  12  26  43  73 104 140 195 237 311 371 447
#     4  10  23  46  70 103 145 181 243 296 369 449
#
# _framework density 24.275303000000001
#
# number of rings (size 3 to 8) (size 9 to 14) (size 15 to 20)
#    0.000    1.143    2.857    1.714    8.000    0.000 
#    7.714    0.000    0.000    0.000    0.000    0.000 
#    0.000    0.000    0.000    0.000    0.000    0.000 
#
# Total GULP energy -78000.405506 kJ/mol
# GULP energy per Si atom -5571.457536 kJ/mol
# Density = 2.422005 g / cm^3
# Si number density = 24.275303 Si / 1000 Ang^3
#
#
#
# Elastic Constant Matrix: (Units=GPa)
#
#
# Indices 1 2 3 4 5 6 
#
# 1 119.6116 33.1344 18.4615 0.0000 -1.3111 0.0000
# 2 33.1344 43.4117 9.6695 0.0000 -16.0495 0.0000
# 3 18.4615 9.6695 163.3135 0.0000 -8.7643 0.0000
# 4 0.0000 0.0000 0.0000 12.1602 0.0000 3.6550
# 5 -1.3111 -16.0495 -8.7643 0.0000 40.2136 0.0000
# 6 0.0000 0.0000 0.0000 3.6550 0.0000 46.8635
#
#
#
# Elastic Compliance Matrix: (Units=1/GPa)
#
#
# Indices 1 2 3 4 5 6 
#
# 1 0.011133 -0.009664 -0.000884 0.000000 -0.003687 0.000000
# 2 -0.009664 0.035584 -0.000272 0.000000 0.013827 0.000000
# 3 -0.000884 -0.000272 0.006306 0.000000 0.001237 0.000000
# 4 0.000000 0.000000 0.000000 0.084210 0.000000 -0.006568
# 5 -0.003687 0.013827 0.001237 0.000000 0.030535 0.000000
# 6 0.000000 0.000000 0.000000 -0.006568 0.000000 0.021851
#
#
# Mechanical properties :
#
#
# Convention : Reuss Voigt Hill
#
# Bulk Modulus (GPa) = 31.86506 49.87417 40.86961
# Shear Modulus (GPa) = 22.55093 37.51888 30.03490
#
# Velocity S-wave (km/s) = 3.05120 3.93562 3.52129
# Velocity P-wave (km/s) = 5.05649 6.42199 5.77971
#
# Compressibility (1/GPa) = 0.03138234
#
# Stress axis : x y z
#
# Youngs Moduli (GPa) = 89.81919 28.10257 158.58799
#
# Poissons Ratio (x) = 0.27158 0.14023
# Poissons Ratio (y) = 0.86799 0.04320
# Poissons Ratio (z) = 0.07942 0.00765
#
# Static dielectric constant tensor:
#      x y z
#    x 2.042560 0.000000 -0.015440 
#    y 0.000000 2.006810 0.000000 
#    z -0.015440 0.000000 1.914860 
# 
# From -- ./inp_files/8088.got.cif
#   From: 2010.05.17/outbox.cif.g08.bks.cpg/sg3_5_cif.got.tgz:8088.got - 2010.06.03 18:33:08.
