data_PCOD9113968
_publ_section_title
;
Structure prediction by ZEFSAII (Michael W. Deem and Ramdas Pophale) SiO2 
 PCOD9113968
Probable space group: P 2
;
_chemical_formula_sum "Si O2"
_cell_formula_units_Z 14
_cell_length_a 13.399331
_cell_length_b 7.209055
_cell_length_c 7.452681
_cell_angle_alpha 90.000000
_cell_angle_beta 127.409665
_cell_angle_gamma 90.000000
_cell_volume 571.827707
_symmetry_space_group_name_H-M "P 2"
_symmetry_group_IT_number 3
_symmetry_cell_setting 'monoclinic'
loop_
_space_group_symop_operation_xyz
x,y,z
-x,y,-z
loop_
_atom_site_type_symbol
_atom_site_label
_atom_site_fract_x
_atom_site_fract_y
_atom_site_fract_z
Si Si1 0.945367 0.886520 0.258608
Si Si2 0.467080 0.732148 0.749485
Si Si3 0.486851 0.150683 0.694903
Si Si4 0.287429 0.429933 0.625955
Si Si5 0.738060 0.585050 0.996960
Si Si6 0.763910 0.180573 0.970925
Si Si7 0.118207 0.145955 0.245614
O O1 0.841246 0.742780 0.077584
O O2 0.000000 0.807052 0.500000
O O3 0.063312 0.959270 0.273767
O O4 0.869057 0.080126 0.203982
O O5 0.344507 0.606865 0.583161
O O6 0.443234 0.940474 0.664400
O O7 0.500000 0.730708 0.000000
O O8 0.596256 0.653832 0.804161
O O9 0.500000 0.209879 0.500000
O O10 0.403086 0.287045 0.720839
O O11 0.630960 0.148988 0.916347
O O12 0.262114 0.510384 0.796027
O O13 0.171082 0.307577 0.429073
O O14 0.774511 0.396755 0.938558
O O15 0.777927 0.092979 0.788843
O O16 0.000000 0.217418 0.000000
#
# Coordination Sequence:
#
# PCOD9113968 Si02
#       7
#     2   2   2   2   2   2   2
#     4  11  25  47  72  99 139 190 246 294 349 421
#     4  10  24  40  68 111 142 179 234 297 362 421
#     4  12  24  41  73 105 148 190 227 299 372 430
#     4  11  24  44  70 111 142 183 243 296 366 427
#     4  11  24  43  73 105 140 186 240 302 354 427
#     4  11  23  45  72 101 145 189 236 294 366 425
#     4  10  24  46  70  99 141 195 240 283 356 431
#
# _framework density 24.482900000000001
#
# number of rings (size 3 to 8) (size 9 to 14) (size 15 to 20)
#    0.000    1.143    4.286    0.857    2.000    6.857 
#    0.000    9.286    0.000    0.000    0.000    0.000 
#    0.000    0.000    0.000    0.000    0.000    0.000 
#
# Total GULP energy -78249.357913 kJ/mol
# GULP energy per Si atom -5589.239851 kJ/mol
# Density = 2.442718 g / cm^3
# Si number density = 24.482900 Si / 1000 Ang^3
#
#
#
# Elastic Constant Matrix: (Units=GPa)
#
#
# Indices 1 2 3 4 5 6 
#
# 1 111.8274 56.9953 19.9696 0.0000 2.5100 0.0000
# 2 56.9953 149.0571 11.5811 0.0000 9.3707 0.0000
# 3 19.9696 11.5811 43.6932 0.0000 5.7086 0.0000
# 4 0.0000 0.0000 0.0000 39.9618 0.0000 17.6769
# 5 2.5100 9.3707 5.7086 0.0000 30.1937 0.0000
# 6 0.0000 0.0000 0.0000 17.6769 0.0000 51.2084
#
#
#
# Elastic Compliance Matrix: (Units=1/GPa)
#
#
# Indices 1 2 3 4 5 6 
#
# 1 0.011890 -0.004274 -0.004456 0.000000 0.001181 0.000000
# 2 -0.004274 0.008486 0.000002 0.000000 -0.002279 0.000000
# 3 -0.004456 0.000002 0.025504 0.000000 -0.004452 0.000000
# 4 0.000000 0.000000 0.000000 0.029534 0.000000 -0.010195
# 5 0.001181 -0.002279 -0.004452 0.000000 0.034570 0.000000
# 6 0.000000 0.000000 0.000000 -0.010195 0.000000 0.023047
#
#
# Mechanical properties :
#
#
# Convention : Reuss Voigt Hill
#
# Bulk Modulus (GPa) = 35.18054 53.51886 44.34970
# Shear Modulus (GPa) = 31.25722 38.67489 34.96606
#
# Velocity S-wave (km/s) = 3.57696 3.97882 3.78323
# Velocity P-wave (km/s) = 5.60894 6.55859 6.10227
#
# Compressibility (1/GPa) = 0.02842480
#
# Stress axis : x y z
#
# Youngs Moduli (GPa) = 84.10366 117.83579 39.20893
#
# Poissons Ratio (x) = 0.50369 0.17470
# Poissons Ratio (y) = 0.35950 -0.00008
# Poissons Ratio (z) = 0.37473 -0.00023
#
# Static dielectric constant tensor:
#      x y z
#    x 2.032040 0.000000 -0.004560 
#    y 0.000000 1.930870 0.000000 
#    z -0.004560 0.000000 2.038920 
# 
# From -- ./inp_files/8368.got.cif
#   From: 2010.05.17/outbox.cif.g08.bks.cpg/sg3_5_cif.got.tgz:8368.got - 2010.06.03 18:33:08.
