data_PCOD9113967
_publ_section_title
;
Structure prediction by ZEFSAII (Michael W. Deem and Ramdas Pophale) SiO2 
 PCOD9113967
Probable space group: P 2
;
_chemical_formula_sum "Si O2"
_cell_formula_units_Z 12
_cell_length_a 11.555203
_cell_length_b 5.304841
_cell_length_c 17.517333
_cell_angle_alpha 90.000000
_cell_angle_beta 151.510562
_cell_angle_gamma 90.000000
_cell_volume 512.192667
_symmetry_space_group_name_H-M "P 2"
_symmetry_group_IT_number 3
_symmetry_cell_setting 'monoclinic'
loop_
_space_group_symop_operation_xyz
x,y,z
-x,y,-z
loop_
_atom_site_type_symbol
_atom_site_label
_atom_site_fract_x
_atom_site_fract_y
_atom_site_fract_z
Si Si1 0.877193 0.739140 0.499130
Si Si2 0.923024 0.235301 0.807463
Si Si3 0.429053 0.611509 0.316388
Si Si4 0.591373 0.487945 0.965633
Si Si5 0.500000 0.972371 0.500000
Si Si6 0.350555 0.983090 0.768791
Si Si7 0.000000 0.903630 0.000000
O O1 0.694661 0.566283 0.438014
O O2 0.716652 0.943183 0.359062
O O3 0.000000 0.589139 0.500000
O O4 0.100349 0.889210 0.665674
O O5 0.710616 0.381872 0.728437
O O6 0.761309 0.108290 0.647856
O O7 0.025136 0.061650 0.935781
O O8 0.132068 0.407016 0.892201
O O9 0.471567 0.808634 0.408246
O O10 0.237634 0.731316 0.146678
O O11 0.539022 0.765630 0.902481
O O12 0.437149 0.261152 0.837696
O O13 0.500000 0.488447 0.000000
#
# Coordination Sequence:
#
# PCOD9113967 Si02
#       7
#     2   2   2   2   1   2   1
#     4   8  22  41  72  96 134 177 231 293 343 409
#     4  11  26  41  69  99 137 185 233 290 348 420
#     4  11  22  44  68  94 144 175 233 291 350 413
#     4  12  26  43  71  99 144 181 231 282 351 417
#     4  10  26  42  60  98 130 184 228 284 350 420
#     4   9  24  45  67 105 132 181 230 284 347 413
#     4  10  24  40  68 102 130 182 232 290 342 416
#
# _framework density 23.428685999999999
#
# number of rings (size 3 to 8) (size 9 to 14) (size 15 to 20)
#    1.000    0.667    0.000    2.500   11.667    5.333 
#    3.000    0.000    0.000    0.000    0.000    0.000 
#    0.000    0.000    0.000    0.000    0.000    0.000 
#
# Total GULP energy -66967.286446 kJ/mol
# GULP energy per Si atom -5580.607204 kJ/mol
# Density = 2.337536 g / cm^3
# Si number density = 23.428686 Si / 1000 Ang^3
#
#
#
# Elastic Constant Matrix: (Units=GPa)
#
#
# Indices 1 2 3 4 5 6 
#
# 1 65.5566 -10.2857 -4.2691 0.0000 30.2383 0.0000
# 2 -10.2857 48.7049 3.6908 0.0000 -8.3711 0.0000
# 3 -4.2691 3.6908 77.0161 0.0000 -4.7571 0.0000
# 4 0.0000 0.0000 0.0000 20.7402 0.0000 8.4683
# 5 30.2383 -8.3711 -4.7571 0.0000 39.1528 0.0000
# 6 0.0000 0.0000 0.0000 8.4683 0.0000 15.9883
#
#
#
# Elastic Compliance Matrix: (Units=1/GPa)
#
#
# Indices 1 2 3 4 5 6 
#
# 1 0.023872 0.001937 0.000118 0.000000 -0.018008 0.000000
# 2 0.001937 0.021515 -0.000737 0.000000 0.003014 0.000000
# 3 0.000118 -0.000737 0.013109 0.000000 0.001344 0.000000
# 4 0.000000 0.000000 0.000000 0.061520 0.000000 -0.032584
# 5 -0.018008 0.003014 0.001344 0.000000 0.040257 0.000000
# 6 0.000000 0.000000 0.000000 -0.032584 0.000000 0.079804
#
#
# Mechanical properties :
#
#
# Convention : Reuss Voigt Hill
#
# Bulk Modulus (GPa) = 16.35808 18.83886 17.59847
# Shear Modulus (GPa) = 19.39353 28.65237 24.02295
#
# Velocity S-wave (km/s) = 2.88022 3.50088 3.20561
# Velocity P-wave (km/s) = 4.24948 4.93963 4.60750
#
# Compressibility (1/GPa) = 0.06113186
#
# Stress axis : x y z
#
# Youngs Moduli (GPa) = 41.89015 46.47942 76.28237
#
# Poissons Ratio (x) = -0.09004 -0.00901
# Poissons Ratio (y) = -0.08115 0.05626
# Poissons Ratio (z) = -0.00495 0.03428
#
# Static dielectric constant tensor:
#      x y z
#    x 1.973710 0.000000 0.004750 
#    y 0.000000 1.890800 0.000000 
#    z 0.004750 0.000000 1.924080 
# 
# From -- ./inp_files/15138.got.cif
#   From: 2010.05.17/outbox.cif.g08.bks.cpg/sg3_8_cif.got.tgz:15138.got - 2010.06.03 18:33:08.
