data_PCOD9113701
_publ_section_title
;
Structure prediction by ZEFSAII (Michael W. Deem and Ramdas Pophale) SiO2 
 PCOD9113701
Probable space group: P 2
;
_chemical_formula_sum "Si O2"
_cell_formula_units_Z 13
_cell_length_a 8.705515
_cell_length_b 9.602413
_cell_length_c 7.766543
_cell_angle_alpha 90.000000
_cell_angle_beta 66.608609
_cell_angle_gamma 90.000000
_cell_volume 595.878087
_symmetry_space_group_name_H-M "P 2"
_symmetry_group_IT_number 3
_symmetry_cell_setting 'monoclinic'
loop_
_space_group_symop_operation_xyz
x,y,z
-x,y,-z
loop_
_atom_site_type_symbol
_atom_site_label
_atom_site_fract_x
_atom_site_fract_y
_atom_site_fract_z
Si Si1 0.534717 0.850940 0.791491
Si Si2 0.671130 0.149701 0.649133
Si Si3 0.115022 0.492055 0.782119
Si Si4 0.000000 0.319960 0.500000
Si Si5 0.830311 0.950546 0.164035
Si Si6 0.679857 0.228143 0.241447
Si Si7 0.837329 0.759669 0.453896
O O1 0.351755 0.882432 0.794575
O O2 0.661720 0.752400 0.633003
O O3 0.638152 0.996767 0.738822
O O4 0.500000 0.804452 0.000000
O O5 0.668192 0.165638 0.441653
O O6 0.497534 0.225737 0.773290
O O7 0.842283 0.223951 0.621031
O O8 0.036536 0.414656 0.650158
O O9 0.257912 0.384133 0.774277
O O10 0.166764 0.642301 0.690744
O O11 0.000000 0.506681 0.000000
O O12 0.856409 0.909249 0.351715
O O13 0.804904 0.110551 0.113082
O O14 0.000000 0.897130 0.000000
O O15 0.000000 0.738246 0.500000
#
# Coordination Sequence:
#
# PCOD9113701 Si02
#       7
#     2   2   2   1   2   2   2
#     4  11  24  41  67 104 138 178 232 281 346 414
#     4   9  19  37  67  99 135 173 215 282 338 407
#     4  11  24  44  68  97 138 181 230 280 343 412
#     4  10  22  42  68 102 138 178 228 280 336 418
#     4  11  22  42  70 102 134 173 226 284 348 414
#     4   9  19  40  67 100 134 172 222 272 348 407
#     4  12  25  44  67  93 140 183 229 289 341 408
#
# _framework density 21.816542999999999
#
# number of rings (size 3 to 8) (size 9 to 14) (size 15 to 20)
#    0.000    1.538    2.308    2.308    1.077    4.923 
#   11.077    0.000    0.000    0.000    0.000    0.000 
#    0.000    0.000    0.000    0.000    0.000    0.000 
#
# Total GULP energy -72509.824188 kJ/mol
# GULP energy per Si atom -5577.678784 kJ/mol
# Density = 2.176689 g / cm^3
# Si number density = 21.816543 Si / 1000 Ang^3
#
#
#
# Elastic Constant Matrix: (Units=GPa)
#
#
# Indices 1 2 3 4 5 6 
#
# 1 87.8278 39.0207 26.2567 0.0000 -28.3659 0.0000
# 2 39.0207 94.9651 23.9284 0.0000 -18.2831 0.0000
# 3 26.2567 23.9284 124.8416 0.0000 -23.9766 0.0000
# 4 0.0000 0.0000 0.0000 30.1539 0.0000 0.4991
# 5 -28.3659 -18.2831 -23.9766 0.0000 30.7217 0.0000
# 6 0.0000 0.0000 0.0000 0.4991 0.0000 13.2159
#
#
#
# Elastic Compliance Matrix: (Units=1/GPa)
#
#
# Indices 1 2 3 4 5 6 
#
# 1 0.017926 -0.004689 -0.000269 0.000000 0.013551 0.000000
# 2 -0.004689 0.013245 -0.001024 0.000000 0.002754 0.000000
# 3 -0.000269 -0.001024 0.009526 0.000000 0.006577 0.000000
# 4 0.000000 0.000000 0.000000 0.033184 0.000000 -0.001253
# 5 0.013551 0.002754 0.006577 0.000000 0.051834 0.000000
# 6 0.000000 0.000000 0.000000 -0.001253 0.000000 0.075714
#
#
# Mechanical properties :
#
#
# Convention : Reuss Voigt Hill
#
# Bulk Modulus (GPa) = 34.80169 54.00512 44.40341
# Shear Modulus (GPa) = 22.42447 29.38022 25.90235
#
# Velocity S-wave (km/s) = 3.20951 3.67372 3.44943
# Velocity P-wave (km/s) = 5.45172 6.54239 6.02180
#
# Compressibility (1/GPa) = 0.02873423
#
# Stress axis : x y z
#
# Youngs Moduli (GPa) = 55.78408 75.49997 104.97505
#
# Poissons Ratio (x) = 0.35403 0.02823
# Poissons Ratio (y) = 0.26158 0.10744
# Poissons Ratio (z) = 0.01500 0.07728
#
# Static dielectric constant tensor:
#      x y z
#    x 1.805840 0.000000 -0.014840 
#    y 0.000000 1.806700 0.000000 
#    z -0.014840 0.000000 1.840910 
# 
# From -- ./inp_files/5493.got.cif
#   From: 2010.05.17/outbox.cif.g08.bks.cpg/sg3_3_cif.got.tgz:5493.got - 2010.06.03 18:33:08.
