data_PCOD9113424
_publ_section_title
;
Structure prediction by ZEFSAII (Michael W. Deem and Ramdas Pophale) SiO2 
 PCOD9113424
Probable space group: P 2
;
_chemical_formula_sum "Si O2"
_cell_formula_units_Z 13
_cell_length_a 22.200468
_cell_length_b 5.097973
_cell_length_c 17.691967
_cell_angle_alpha 90.000000
_cell_angle_beta 17.579599
_cell_angle_gamma 90.000000
_cell_volume 604.764856
_symmetry_space_group_name_H-M "P 2"
_symmetry_group_IT_number 3
_symmetry_cell_setting 'monoclinic'
loop_
_space_group_symop_operation_xyz
x,y,z
-x,y,-z
loop_
_atom_site_type_symbol
_atom_site_label
_atom_site_fract_x
_atom_site_fract_y
_atom_site_fract_z
Si Si1 0.278664 0.681850 0.374572
Si Si2 0.050750 0.919564 0.119576
Si Si3 0.448848 0.408629 0.301658
Si Si4 0.500000 0.004811 0.000000
Si Si5 0.073153 0.934679 0.496240
Si Si6 0.958769 0.437344 0.136218
Si Si7 0.307287 0.914671 0.956144
O O1 0.355578 0.434619 0.329021
O O2 0.470016 0.832610 0.112095
O O3 0.144524 0.679063 0.459371
O O4 0.141082 0.839988 0.598843
O O5 0.066844 0.698057 0.036515
O O6 0.236008 0.911995 0.954981
O O7 0.020805 0.197884 0.116229
O O8 0.275330 0.481523 0.568043
O O9 0.621581 0.626970 0.103144
O O10 0.519047 0.119572 0.236220
O O11 0.275228 0.113100 0.258820
O O12 0.000000 0.883597 0.500000
O O13 0.881381 0.026501 0.771636
O O14 0.000000 0.381247 0.000000
#
# Coordination Sequence:
#
# PCOD9113424 Si02
#       7
#     2   2   2   1   2   2   2
#     4   8  18  34  63  91 129 177 216 268 323 387
#     4  10  21  41  64  93 133 171 212 268 335 395
#     4  11  22  41  66  93 127 172 220 265 335 403
#     4   8  16  34  62  96 128 172 226 268 328 370
#     4   9  18  35  64  93 133 169 227 279 320 383
#     4  11  23  42  68  95 127 170 221 272 332 405
#     4  11  23  40  66  94 130 174 217 269 333 388
#
# _framework density 21.495958999999999
#
# number of rings (size 3 to 8) (size 9 to 14) (size 15 to 20)
#    0.923    1.231    0.000    4.154    0.000    0.000 
#    0.000    6.923   10.154    0.000    0.000    0.000 
#    0.000    0.000    0.000    0.000    0.000    0.000 
#
# Total GULP energy -72454.154022 kJ/mol
# GULP energy per Si atom -5573.396463 kJ/mol
# Density = 2.144703 g / cm^3
# Si number density = 21.495959 Si / 1000 Ang^3
#
#
#
# Elastic Constant Matrix: (Units=GPa)
#
#
# Indices 1 2 3 4 5 6 
#
# 1 106.0083 0.9501 30.6769 0.0000 -12.5197 0.0000
# 2 0.9501 65.0891 -3.2155 0.0000 -12.3091 0.0000
# 3 30.6769 -3.2155 57.0327 0.0000 -14.3861 0.0000
# 4 0.0000 0.0000 0.0000 11.1127 0.0000 -4.6747
# 5 -12.5197 -12.3091 -14.3861 0.0000 32.0884 0.0000
# 6 0.0000 0.0000 0.0000 -4.6747 0.0000 14.0413
#
#
#
# Elastic Compliance Matrix: (Units=1/GPa)
#
#
# Indices 1 2 3 4 5 6 
#
# 1 0.011274 -0.000091 -0.005602 0.000000 0.001852 0.000000
# 2 -0.000091 0.016990 0.002979 0.000000 0.007817 0.000000
# 3 -0.005602 0.002979 0.023060 0.000000 0.009295 0.000000
# 4 0.000000 0.000000 0.000000 0.104642 0.000000 0.034838
# 5 0.001852 0.007817 0.009295 0.000000 0.039053 0.000000
# 6 0.000000 0.000000 0.000000 0.034838 0.000000 0.082817
#
#
# Mechanical properties :
#
#
# Convention : Reuss Voigt Hill
#
# Bulk Modulus (GPa) = 21.78861 31.66147 26.72504
# Shear Modulus (GPa) = 16.74691 24.76305 20.75498
#
# Velocity S-wave (km/s) = 2.79422 3.39777 3.11067
# Velocity P-wave (km/s) = 4.53523 5.49128 5.03600
#
# Compressibility (1/GPa) = 0.04589554
#
# Stress axis : x y z
#
# Youngs Moduli (GPa) = 88.70052 58.85666 43.36589
#
# Poissons Ratio (x) = 0.00536 0.24293
# Poissons Ratio (y) = 0.00807 -0.12918
# Poissons Ratio (z) = 0.49690 -0.17532
#
# Static dielectric constant tensor:
#      x y z
#    x 1.766990 0.000000 -0.022550 
#    y 0.000000 1.790320 0.000000 
#    z -0.022550 0.000000 1.813610 
# 
# From -- ./inp_files/15461.got.cif
#   From: 2010.05.17/outbox.cif.g08.bks.cpg/sg3_8_cif.got.tgz:15461.got - 2010.06.03 18:33:08.
