data_PCOD9113093
_publ_section_title
;
Structure prediction by ZEFSAII (Michael W. Deem and Ramdas Pophale) SiO2 
 PCOD9113093
Probable space group: P 2
;
_chemical_formula_sum "Si O2"
_cell_formula_units_Z 13
_cell_length_a 11.627344
_cell_length_b 9.790130
_cell_length_c 9.165153
_cell_angle_alpha 90.000000
_cell_angle_beta 142.466148
_cell_angle_gamma 90.000000
_cell_volume 635.608977
_symmetry_space_group_name_H-M "P 2"
_symmetry_group_IT_number 3
_symmetry_cell_setting 'monoclinic'
loop_
_space_group_symop_operation_xyz
x,y,z
-x,y,-z
loop_
_atom_site_type_symbol
_atom_site_label
_atom_site_fract_x
_atom_site_fract_y
_atom_site_fract_z
Si Si1 0.011425 0.982940 0.843104
Si Si2 0.149891 0.750905 0.516699
Si Si3 0.811315 0.389968 0.207723
Si Si4 0.500000 0.612548 0.000000
Si Si5 0.936296 0.499631 0.775846
Si Si6 0.661600 0.153966 0.878705
Si Si7 0.260570 0.224900 0.381198
O O1 0.898538 0.888704 0.618458
O O2 0.917164 0.133140 0.752570
O O3 0.000000 0.932395 0.000000
O O4 0.226423 0.010616 0.009222
O O5 0.113309 0.630032 0.366269
O O6 0.000000 0.739592 0.500000
O O7 0.364182 0.718134 0.777395
O O8 0.658072 0.503769 0.099941
O O9 0.000000 0.385180 0.500000
O O10 0.886612 0.434958 0.126890
O O11 0.722547 0.243161 0.080296
O O12 0.776227 0.382271 0.616686
O O13 0.000000 0.536111 0.000000
O O14 0.436727 0.159346 0.641902
O O15 0.711605 0.212078 0.765270
#
# Coordination Sequence:
#
# PCOD9113093 Si02
#       7
#     2   2   2   1   2   2   2
#     4  10  22  44  66  91 130 173 217 270 323 383
#     4  12  26  44  64  92 133 176 218 267 327 388
#     4  12  23  41  65  98 132 172 210 266 327 385
#     4  12  24  44  64  90 142 174 216 268 328 392
#     4  12  20  42  71  98 127 165 216 273 329 379
#     4  10  21  38  69  98 131 165 212 271 326 383
#     4  10  20  39  68 101 129 161 216 272 325 379
#
# _framework density 20.452826999999999
#
# number of rings (size 3 to 8) (size 9 to 14) (size 15 to 20)
#    0.000    0.923    6.154    1.846    0.000    1.846 
#    0.000    0.000    0.000    0.000    0.000    0.000 
#    0.000    0.000    0.000    0.000    0.000    0.000 
#
# Total GULP energy -72456.758290 kJ/mol
# GULP energy per Si atom -5573.596792 kJ/mol
# Density = 2.040628 g / cm^3
# Si number density = 20.452827 Si / 1000 Ang^3
#
#
#
# Elastic Constant Matrix: (Units=GPa)
#
#
# Indices 1 2 3 4 5 6 
#
# 1 49.0936 9.2798 44.9406 0.0000 -1.0945 0.0000
# 2 9.2798 72.2502 48.9020 0.0000 -5.8356 0.0000
# 3 44.9406 48.9020 165.3736 0.0000 5.9028 0.0000
# 4 0.0000 0.0000 0.0000 38.6189 0.0000 -30.8019
# 5 -1.0945 -5.8356 5.9028 0.0000 34.3175 0.0000
# 6 0.0000 0.0000 0.0000 -30.8019 0.0000 -279.5118
#
#
#
# Elastic Compliance Matrix: (Units=1/GPa)
#
#
# Indices 1 2 3 4 5 6 
#
# 1 0.027557 0.002264 -0.008254 0.000000 0.002684 0.000000
# 2 0.002264 0.018010 -0.006090 0.000000 0.004182 0.000000
# 3 -0.008254 -0.006090 0.010200 0.000000 -0.003053 0.000000
# 4 0.000000 0.000000 0.000000 0.023802 0.000000 -0.002623
# 5 0.002684 0.004182 -0.003053 0.000000 0.030462 0.000000
# 6 0.000000 0.000000 0.000000 -0.002623 0.000000 -0.003289
#
#
# Mechanical properties :
#
#
# Convention : Reuss Voigt Hill
#
# Bulk Modulus (GPa) = 31.63924 54.77357 43.20640
# Shear Modulus (GPa) = 35.35142 -29.07542 3.13800
#
# Velocity S-wave (km/s) = 4.16196 -3.77448 1.24000
# Velocity P-wave (km/s) = 6.21279 2.80053 4.81881
#
# Compressibility (1/GPa) = 0.03160632
#
# Stress axis : x y z
#
# Youngs Moduli (GPa) = 36.28870 55.52509 98.04125
#
# Poissons Ratio (x) = -0.12570 0.80922
# Poissons Ratio (y) = -0.08215 0.59709
# Poissons Ratio (z) = 0.29952 0.33816
#
# Static dielectric constant tensor:
#      x y z
#    x 1.795010 0.000000 0.102030 
#    y 0.000000 1.746760 0.000000 
#    z 0.102030 0.000000 1.934440 
# 
# From -- ./inp_files/7590.got.cif
#   From: 2010.05.17/outbox.cif.g08.bks.cpg/sg3_4_cif.got.tgz:7590.got - 2010.06.03 18:33:08.
