data_PCOD9113393
_publ_section_title
;
Structure prediction by ZEFSAII (Michael W. Deem and Ramdas Pophale) SiO2 
 PCOD9113393
Probable space group: P 2
;
_chemical_formula_sum "Si O2"
_cell_formula_units_Z 12
_cell_length_a 20.127798
_cell_length_b 5.194787
_cell_length_c 23.131913
_cell_angle_alpha 90.000000
_cell_angle_beta 168.323226
_cell_angle_gamma 90.000000
_cell_volume 489.514230
_symmetry_space_group_name_H-M "P 2"
_symmetry_group_IT_number 3
_symmetry_cell_setting 'monoclinic'
loop_
_space_group_symop_operation_xyz
x,y,z
-x,y,-z
loop_
_atom_site_type_symbol
_atom_site_label
_atom_site_fract_x
_atom_site_fract_y
_atom_site_fract_z
Si Si1 0.769329 0.533380 0.351699
Si Si2 0.716696 0.665146 0.565035
Si Si3 0.187138 0.040223 0.442319
Si Si4 0.726823 0.880889 0.146624
Si Si5 0.611761 0.171153 0.661123
Si Si6 0.696134 0.339989 0.943765
O O1 0.559035 0.392793 0.221614
O O2 0.000000 0.393243 0.500000
O O3 0.022924 0.708550 0.603437
O O4 0.508468 0.706762 0.093968
O O5 0.731668 0.753089 0.510431
O O6 0.497219 0.422906 0.395884
O O7 0.569572 0.911732 0.472298
O O8 0.093804 0.584001 0.898864
O O9 0.948820 0.047384 0.294152
O O10 0.511693 0.190370 0.736262
O O11 0.972821 0.164786 0.209310
O O12 0.500000 0.024240 0.000000
O O13 0.500000 0.216718 0.500000
O O14 0.000000 0.135632 0.000000
#
# Coordination Sequence:
#
# PCOD9113393 Si02
#       6
#     2   2   2   2   2   2
#     4  10  21  40  66  99 149 206 264 326 385 451
#     4  12  28  54  82 120 160 202 262 326 394 486
#     4  12  27  44  74 113 153 207 264 324 395 461
#     4  10  21  40  66  99 149 206 264 326 385 451
#     4  12  30  54  84 118 156 204 252 320 404 488
#     4  12  27  44  74 113 153 207 264 324 395 461
#
# _framework density 24.514098000000001
#
# number of rings (size 3 to 8) (size 9 to 14) (size 15 to 20)
#    0.000    0.667    3.333    3.000    2.333    4.000 
#    0.000    0.000    0.000    0.000    0.000    0.000 
#    0.000    0.000    0.000    0.000    0.000    0.000 
#
# Total GULP energy -67191.740596 kJ/mol
# GULP energy per Si atom -5599.311716 kJ/mol
# Density = 2.445830 g / cm^3
# Si number density = 24.514098 Si / 1000 Ang^3
#
#
#
# Elastic Constant Matrix: (Units=GPa)
#
#
# Indices 1 2 3 4 5 6 
#
# 1 100.5153 45.7098 75.0822 0.0000 20.2932 0.0000
# 2 45.7098 125.6487 75.2125 0.0000 11.3185 0.0000
# 3 75.0822 75.2125 206.8234 0.0000 -14.2635 0.0000
# 4 0.0000 0.0000 0.0000 119.4142 0.0000 -30.3220
# 5 20.2932 11.3185 -14.2635 0.0000 59.7087 0.0000
# 6 0.0000 0.0000 0.0000 -30.3220 0.0000 54.4312
#
#
#
# Elastic Compliance Matrix: (Units=1/GPa)
#
#
# Indices 1 2 3 4 5 6 
#
# 1 0.016431 -0.001973 -0.005701 0.000000 -0.006572 0.000000
# 2 -0.001973 0.010914 -0.003405 0.000000 -0.002212 0.000000
# 3 -0.005701 -0.003405 0.008460 0.000000 0.004604 0.000000
# 4 0.000000 0.000000 0.000000 0.009754 0.000000 0.005434
# 5 -0.006572 -0.002212 0.004604 0.000000 0.020501 0.000000
# 6 0.000000 0.000000 0.000000 0.005434 0.000000 0.021399
#
#
# Mechanical properties :
#
#
# Convention : Reuss Voigt Hill
#
# Bulk Modulus (GPa) = 73.27263 91.66625 82.46944
# Shear Modulus (GPa) = 43.79584 62.50968 53.15276
#
# Velocity S-wave (km/s) = 4.23135 5.05518 4.66150
# Velocity P-wave (km/s) = 7.33671 8.45858 7.91754
#
# Compressibility (1/GPa) = 0.01364766
#
# Stress axis : x y z
#
# Youngs Moduli (GPa) = 60.86016 91.62495 118.19815
#
# Poissons Ratio (x) = 0.18078 0.67381
# Poissons Ratio (y) = 0.12008 0.40249
# Poissons Ratio (z) = 0.34694 0.31200
#
# Static dielectric constant tensor:
#      x y z
#    x 2.014320 0.000000 -0.052210 
#    y 0.000000 1.984820 0.000000 
#    z -0.052210 0.000000 1.863610 
# 
# From -- ./inp_files/16383.got.cif
#   From: 2010.05.17/outbox.cif.g08.bks.cpg/sg3_9_cif.got.tgz:16383.got - 2010.06.03 18:33:08.
