data_PCOD9113271
_publ_section_title
;
Structure prediction by ZEFSAII (Michael W. Deem and Ramdas Pophale) SiO2 
 PCOD9113271
Probable space group: P 2
;
_chemical_formula_sum "Si O2"
_cell_formula_units_Z 16
_cell_length_a 10.097096
_cell_length_b 18.070018
_cell_length_c 8.646908
_cell_angle_alpha 90.000000
_cell_angle_beta 31.212755
_cell_angle_gamma 90.000000
_cell_volume 817.575582
_symmetry_space_group_name_H-M "P 2"
_symmetry_group_IT_number 3
_symmetry_cell_setting 'monoclinic'
loop_
_space_group_symop_operation_xyz
x,y,z
-x,y,-z
loop_
_atom_site_type_symbol
_atom_site_label
_atom_site_fract_x
_atom_site_fract_y
_atom_site_fract_z
Si Si1 0.506026 0.556450 0.679367
Si Si2 0.960254 0.814867 0.357097
Si Si3 0.999073 0.312954 0.185840
Si Si4 0.994494 0.138977 0.191673
Si Si5 0.505820 0.057757 0.179510
Si Si6 0.459319 0.892029 0.724437
Si Si7 0.993844 0.651395 0.820266
Si Si8 0.499467 0.392216 0.817016
O O1 0.500000 0.544078 0.500000
O O2 0.484812 0.477662 0.781575
O O3 0.769035 0.598093 0.454531
O O4 0.268729 0.609506 0.955153
O O5 0.981820 0.728953 0.290101
O O6 0.000000 0.825145 0.500000
O O7 0.685883 0.845698 0.578731
O O8 0.185609 0.858343 0.043525
O O9 0.982203 0.226081 0.241524
O O10 0.756859 0.356318 0.493681
O O11 0.257376 0.348383 0.992294
O O12 0.000000 0.319708 0.000000
O O13 0.748695 0.097393 0.504395
O O14 0.000000 0.131043 0.000000
O O15 0.249042 0.103694 0.008587
O O16 0.523432 0.975831 0.232731
O O17 0.500000 0.053494 0.000000
O O18 0.500000 0.889316 0.500000
O O19 0.000000 0.665066 0.000000
O O20 0.500000 0.386600 0.000000
#
# Coordination Sequence:
#
# PCOD9113271 Si02
#       8
#     2   2   2   2   2   2   2   2
#     4  10  21  38  61  87 121 163 207 250 301 368
#     4  12  25  42  65  96 130 162 203 260 317 366
#     4  11  24  43  66  90 124 168 212 253 304 373
#     4  11  24  43  66  93 124 165 212 255 304 371
#     4  12  25  42  65  95 129 163 203 258 317 368
#     4  12  25  44  67  91 125 169 213 254 301 370
#     4  10  21  38  61  89 120 161 207 250 301 368
#     4  12  25  40  63  95 129 161 205 262 317 366
#
# _framework density 19.570058
#
# number of rings (size 3 to 8) (size 9 to 14) (size 15 to 20)
#    0.000    0.750    0.000    8.250    0.000    8.000 
#    0.000    0.000    0.000    0.000    0.000    0.000 
#    0.000    0.000    0.000    0.000    0.000    0.000 
#
# Total GULP energy -89610.202131 kJ/mol
# GULP energy per Si atom -5600.637633 kJ/mol
# Density = 1.952552 g / cm^3
# Si number density = 19.570058 Si / 1000 Ang^3
#
#
#
# Elastic Constant Matrix: (Units=GPa)
#
#
# Indices 1 2 3 4 5 6 
#
# 1 62.6061 14.0374 -10.3373 0.0000 1.2631 0.0000
# 2 14.0374 93.9542 5.4758 0.0000 9.0803 0.0000
# 3 -10.3373 5.4758 80.4823 0.0000 -7.7900 0.0000
# 4 0.0000 0.0000 0.0000 68.5550 0.0000 39.3733
# 5 1.2631 9.0803 -7.7900 0.0000 37.4551 0.0000
# 6 0.0000 0.0000 0.0000 39.3733 0.0000 90.6232
#
#
#
# Elastic Compliance Matrix: (Units=1/GPa)
#
#
# Indices 1 2 3 4 5 6 
#
# 1 0.016974 -0.002735 0.002424 0.000000 0.000595 0.000000
# 2 -0.002735 0.011422 -0.001416 0.000000 -0.002971 0.000000
# 3 0.002424 -0.001416 0.013122 0.000000 0.002991 0.000000
# 4 0.000000 0.000000 0.000000 0.019437 0.000000 -0.008445
# 5 0.000595 -0.002971 0.002991 0.000000 0.028021 0.000000
# 6 0.000000 0.000000 0.000000 -0.008445 0.000000 0.014704
#
#
# Mechanical properties :
#
#
# Convention : Reuss Voigt Hill
#
# Bulk Modulus (GPa) = 26.27127 28.37716 27.32422
# Shear Modulus (GPa) = 41.72858 54.51776 48.12317
#
# Velocity S-wave (km/s) = 4.62266 5.28377 4.96423
# Velocity P-wave (km/s) = 6.47652 7.19417 6.84476
#
# Compressibility (1/GPa) = 0.03806439
#
# Stress axis : x y z
#
# Youngs Moduli (GPa) = 58.91265 87.55207 76.20662
#
# Poissons Ratio (x) = 0.23944 -0.18471
# Poissons Ratio (y) = 0.16111 0.10791
# Poissons Ratio (z) = -0.14279 0.12397
#
# Static dielectric constant tensor:
#      x y z
#    x 1.657340 0.000000 0.006990 
#    y 0.000000 1.643560 0.000000 
#    z 0.006990 0.000000 1.658890 
# 
# From -- ./inp_files/6186.got.cif
#   From: 2010.05.17/outbox.cif.g08.bks.cpg/sg3_4_cif.got.tgz:6186.got - 2010.06.03 18:33:08.
