data_PCOD9113153
_publ_section_title
;
Structure prediction by ZEFSAII (Michael W. Deem and Ramdas Pophale) SiO2 
 PCOD9113153
Probable space group: P 2
;
_chemical_formula_sum "Si O2"
_cell_formula_units_Z 12
_cell_length_a 12.325688
_cell_length_b 9.407311
_cell_length_c 7.664049
_cell_angle_alpha 90.000000
_cell_angle_beta 36.469194
_cell_angle_gamma 90.000000
_cell_volume 528.210220
_symmetry_space_group_name_H-M "P 2"
_symmetry_group_IT_number 3
_symmetry_cell_setting 'monoclinic'
loop_
_space_group_symop_operation_xyz
x,y,z
-x,y,-z
loop_
_atom_site_type_symbol
_atom_site_label
_atom_site_fract_x
_atom_site_fract_y
_atom_site_fract_z
Si Si1 0.097093 0.446360 0.038553
Si Si2 0.337305 0.695055 0.585365
Si Si3 0.106094 0.946285 0.021838
Si Si4 0.500000 0.082681 0.000000
Si Si5 0.753385 0.810096 0.636372
Si Si6 0.199384 0.202296 0.145814
Si Si7 0.000000 0.623294 0.500000
O O1 0.216521 0.330816 0.987139
O O2 0.995554 0.525838 0.331887
O O3 0.193966 0.572893 0.809219
O O4 0.000000 0.369551 0.000000
O O5 0.500000 0.657259 0.500000
O O6 0.363888 0.715149 0.345037
O O7 0.264908 0.848412 0.741773
O O8 0.952572 0.841314 0.296814
O O9 0.176837 0.055098 0.071122
O O10 0.000000 0.021369 0.000000
O O11 0.382210 0.184284 0.024650
O O12 0.341077 0.964253 0.241559
O O13 0.816720 0.721946 0.724417
O O14 0.000000 0.219700 0.500000
#
# Coordination Sequence:
#
# PCOD9113153 Si02
#       7
#     2   2   2   1   2   2   1
#     4  12  25  49  71 100 147 193 243 294 367 440
#     4  11  23  42  66 108 143 185 246 307 362 425
#     4  10  20  41  70  99 139 190 242 296 361 425
#     4  12  26  44  72 114 146 188 250 306 362 434
#     4  11  22  40  74 105 142 179 247 309 357 423
#     4  12  25  46  70 102 148 196 239 291 367 443
#     4  12  22  42  76 106 136 194 240 298 374 424
#
# _framework density 22.718226999999999
#
# number of rings (size 3 to 8) (size 9 to 14) (size 15 to 20)
#    0.000    0.667    5.833    3.000    2.333    0.000 
#    6.000    0.833    0.000    0.000    0.000    0.000 
#    0.000    0.000    0.000    0.000    0.000    0.000 
#
# Total GULP energy -66886.230295 kJ/mol
# GULP energy per Si atom -5573.852525 kJ/mol
# Density = 2.266652 g / cm^3
# Si number density = 22.718227 Si / 1000 Ang^3
#
#
#
# Elastic Constant Matrix: (Units=GPa)
#
#
# Indices 1 2 3 4 5 6 
#
# 1 211.6971 49.3985 28.2544 0.0000 -15.1424 0.0000
# 2 49.3985 97.8904 0.6309 0.0000 1.1377 0.0000
# 3 28.2544 0.6309 24.6053 0.0000 -2.4140 0.0000
# 4 0.0000 0.0000 0.0000 585.9686 0.0000 162.3733
# 5 -15.1424 1.1377 -2.4140 0.0000 33.8078 0.0000
# 6 0.0000 0.0000 0.0000 162.3733 0.0000 93.3598
#
#
#
# Elastic Compliance Matrix: (Units=1/GPa)
#
#
# Indices 1 2 3 4 5 6 
#
# 1 0.006665 -0.003346 -0.007315 0.000000 0.002576 0.000000
# 2 -0.003346 0.011902 0.003375 0.000000 -0.001658 0.000000
# 3 -0.007315 0.003375 0.048966 0.000000 0.000106 0.000000
# 4 0.000000 0.000000 0.000000 0.003294 0.000000 -0.005729
# 5 0.002576 -0.001658 0.000106 0.000000 0.030796 0.000000
# 6 0.000000 0.000000 0.000000 -0.005729 0.000000 0.020676
#
#
# Mechanical properties :
#
#
# Convention : Reuss Voigt Hill
#
# Bulk Modulus (GPa) = 18.88254 54.52890 36.70572
# Shear Modulus (GPa) = 32.35732 159.68783 96.02258
#
# Velocity S-wave (km/s) = 3.77807 8.39305 6.50834
# Velocity P-wave (km/s) = 5.23081 10.86180 8.52467
#
# Compressibility (1/GPa) = 0.05295898
#
# Stress axis : x y z
#
# Youngs Moduli (GPa) = 150.03547 84.02215 20.42250
#
# Poissons Ratio (x) = 0.28115 0.14939
# Poissons Ratio (y) = 0.50205 -0.06892
# Poissons Ratio (z) = 1.09752 -0.28354
#
# Static dielectric constant tensor:
#      x y z
#    x 1.587050 0.000000 -0.053050 
#    y 0.000000 1.834620 0.000000 
#    z -0.053050 0.000000 1.898120 
# 
# From -- ./inp_files/7327.got.cif
#   From: 2010.05.17/outbox.cif.g08.bks.cpg/sg3_4_cif.got.tgz:7327.got - 2010.06.03 18:33:08.
