data_PCOD9113678
_publ_section_title
;
Structure prediction by ZEFSAII (Michael W. Deem and Ramdas Pophale) SiO2 
 PCOD9113678
Probable space group: P 2
;
_chemical_formula_sum "Si O2"
_cell_formula_units_Z 15
_cell_length_a 5.465799
_cell_length_b 9.469027
_cell_length_c 16.249709
_cell_angle_alpha 90.000000
_cell_angle_beta 55.993403
_cell_angle_gamma 90.000000
_cell_volume 697.180258
_symmetry_space_group_name_H-M "P 2"
_symmetry_group_IT_number 3
_symmetry_cell_setting 'monoclinic'
loop_
_space_group_symop_operation_xyz
x,y,z
-x,y,-z
loop_
_atom_site_type_symbol
_atom_site_label
_atom_site_fract_x
_atom_site_fract_y
_atom_site_fract_z
Si Si1 0.368452 0.045130 0.221625
Si Si2 0.808347 0.795522 0.118419
Si Si3 0.164629 0.506546 0.678662
Si Si4 0.314045 0.046419 0.412449
Si Si5 0.660945 0.264501 0.056505
Si Si6 0.152051 0.826380 0.702627
Si Si7 0.500000 0.290506 0.500000
Si Si8 0.526977 0.505441 0.200565
O O1 0.353730 0.111750 0.314300
O O2 0.416566 0.162576 0.144612
O O3 0.644120 0.943581 0.153976
O O4 0.093109 0.939259 0.276438
O O5 0.943577 0.788074 0.184962
O O6 0.582238 0.665959 0.162356
O O7 0.000000 0.786485 0.000000
O O8 0.185322 0.674537 0.653124
O O9 0.293905 0.396257 0.589511
O O10 0.338623 0.488806 0.732867
O O11 0.817375 0.476106 0.745582
O O12 0.358208 0.178616 0.464045
O O13 0.000000 0.985807 0.500000
O O14 0.547590 0.916864 0.365658
O O15 0.690192 0.402398 0.107392
O O16 0.500000 0.296835 0.000000
O O17 0.000000 0.203594 0.000000
#
# Coordination Sequence:
#
# PCOD9113678 Si02
#       8
#     2   2   2   2   2   2   1   2
#     4  11  24  43  70 102 150 182 243 304 355 434
#     4  10  22  41  72 101 142 190 244 291 358 430
#     4  11  26  47  75 107 143 191 243 309 360 432
#     4  11  26  46  73 104 140 192 242 294 379 433
#     4  12  28  44  68 107 148 199 243 296 370 434
#     4  10  24  47  69 108 142 191 236 309 364 424
#     4  12  28  44  74 106 136 190 248 298 370 448
#     4  11  24  49  70 103 151 188 244 300 368 425
#
# _framework density 21.515239999999999
#
# number of rings (size 3 to 8) (size 9 to 14) (size 15 to 20)
#    0.000    1.067    1.333    3.200   11.200    2.667 
#    0.000    0.000    0.000    0.000    0.000    0.000 
#    0.000    0.000    0.000    0.000    0.000    0.000 
#
# Total GULP energy -83646.414872 kJ/mol
# GULP energy per Si atom -5576.427658 kJ/mol
# Density = 2.146627 g / cm^3
# Si number density = 21.515240 Si / 1000 Ang^3
#
#
#
# Elastic Constant Matrix: (Units=GPa)
#
#
# Indices 1 2 3 4 5 6 
#
# 1 74.8755 23.5273 39.7796 0.0000 -8.5842 0.0000
# 2 23.5273 94.3107 36.2625 0.0000 19.3734 0.0000
# 3 39.7796 36.2625 119.0461 0.0000 -1.2406 0.0000
# 4 0.0000 0.0000 0.0000 38.6132 0.0000 3.3111
# 5 -8.5842 19.3734 -1.2406 0.0000 27.0571 0.0000
# 6 0.0000 0.0000 0.0000 3.3111 0.0000 17.5056
#
#
#
# Elastic Compliance Matrix: (Units=1/GPa)
#
#
# Indices 1 2 3 4 5 6 
#
# 1 0.018272 -0.004612 -0.004608 0.000000 0.008888 0.000000
# 2 -0.004612 0.015691 -0.003372 0.000000 -0.012853 0.000000
# 3 -0.004608 -0.003372 0.010982 0.000000 0.001456 0.000000
# 4 0.000000 0.000000 0.000000 0.026325 0.000000 -0.004979
# 5 0.008888 -0.012853 0.001456 0.000000 0.049048 0.000000
# 6 0.000000 0.000000 0.000000 -0.004979 0.000000 0.058067
#
#
# Mechanical properties :
#
#
# Convention : Reuss Voigt Hill
#
# Bulk Modulus (GPa) = 50.60785 54.15235 52.38010
# Shear Modulus (GPa) = 23.79180 29.21269 26.50225
#
# Velocity S-wave (km/s) = 3.32898 3.68879 3.51349
# Velocity P-wave (km/s) = 6.19266 6.58535 6.39202
#
# Compressibility (1/GPa) = 0.01975978
#
# Stress axis : x y z
#
# Youngs Moduli (GPa) = 54.72880 63.73196 91.05555
#
# Poissons Ratio (x) = 0.29395 0.41959
# Poissons Ratio (y) = 0.25242 0.30707
# Poissons Ratio (z) = 0.25219 0.21492
#
# Static dielectric constant tensor:
#      x y z
#    x 1.873050 0.000000 0.016550 
#    y 0.000000 1.783170 0.000000 
#    z 0.016550 0.000000 1.712950 
# 
# From -- ./inp_files/14683.got.cif
#   From: 2010.05.17/outbox.cif.g08.bks.cpg/sg3_8_cif.got.tgz:14683.got - 2010.06.03 18:33:08.
