data_PCOD9113127
_publ_section_title
;
Structure prediction by ZEFSAII (Michael W. Deem and Ramdas Pophale) SiO2 
 PCOD9113127
Probable space group: P 2
;
_chemical_formula_sum "Si O2"
_cell_formula_units_Z 13
_cell_length_a 16.655835
_cell_length_b 6.108493
_cell_length_c 18.189559
_cell_angle_alpha 90.000000
_cell_angle_beta 16.694619
_cell_angle_gamma 90.000000
_cell_volume 531.635272
_symmetry_space_group_name_H-M "P 2"
_symmetry_group_IT_number 3
_symmetry_cell_setting 'monoclinic'
loop_
_space_group_symop_operation_xyz
x,y,z
-x,y,-z
loop_
_atom_site_type_symbol
_atom_site_label
_atom_site_fract_x
_atom_site_fract_y
_atom_site_fract_z
Si Si1 0.146171 0.388010 0.997707
Si Si2 0.783893 0.020846 0.964034
Si Si3 0.500000 0.418221 0.000000
Si Si4 0.398703 0.738957 0.384877
Si Si5 0.215221 0.781782 0.687932
Si Si6 0.000000 0.092396 0.000000
Si Si7 0.000000 0.110322 0.500000
Si Si8 0.111576 0.786626 0.268155
O O1 0.084515 0.245514 0.124316
O O2 0.403983 0.529922 0.797840
O O3 0.886998 0.541687 0.202487
O O4 0.189326 0.237340 0.888586
O O5 0.508506 0.963879 0.251477
O O6 0.008811 0.852551 0.802017
O O7 0.745443 0.958828 0.914028
O O8 0.272041 0.266973 0.244356
O O9 0.315498 0.590770 0.113749
O O10 0.473983 0.769544 0.406910
O O11 0.136210 0.684615 0.563046
O O12 0.175076 0.947244 0.788555
O O13 0.996251 0.938886 0.434935
#
# Coordination Sequence:
#
# PCOD9113127 Si02
#       8
#     2   2   1   2   2   1   1   2
#     4  10  21  42  68 104 132 194 251 296 392 465
#     4   9  22  42  68  96 143 183 238 308 377 457
#     4  12  30  52  80 120 164 212 274 332 418 480
#     4  10  23  43  71  99 144 190 246 315 386 459
#     4   9  20  41  60  96 134 184 232 305 374 441
#     4  10  20  40  68  92 150 188 242 318 368 462
#     4  12  30  50  82 120 160 218 276 326 428 476
#     4  11  27  52  73 111 159 197 265 335 382 489
#
# _framework density 24.452855
#
# number of rings (size 3 to 8) (size 9 to 14) (size 15 to 20)
#    0.000    1.846    0.000    1.385    6.462    8.615 
#    0.000   18.462    0.000    0.000    0.000    0.000 
#    0.000    0.000    0.000    0.000    0.000    0.000 
#
# Total GULP energy -72390.742115 kJ/mol
# GULP energy per Si atom -5568.518624 kJ/mol
# Density = 2.439720 g / cm^3
# Si number density = 24.452855 Si / 1000 Ang^3
#
#
#
# Elastic Constant Matrix: (Units=GPa)
#
#
# Indices 1 2 3 4 5 6 
#
# 1 166.1540 63.4774 9.7816 0.0000 2.4799 0.0000
# 2 63.4774 127.1335 57.1378 0.0000 17.7030 0.0000
# 3 9.7816 57.1378 237.8836 0.0000 34.9014 0.0000
# 4 0.0000 0.0000 0.0000 13.9470 0.0000 -43.9630
# 5 2.4799 17.7030 34.9014 0.0000 54.6007 0.0000
# 6 0.0000 0.0000 0.0000 -43.9630 0.0000 -118.7821
#
#
#
# Elastic Compliance Matrix: (Units=1/GPa)
#
#
# Indices 1 2 3 4 5 6 
#
# 1 0.007548 -0.004119 0.000589 0.000000 0.000617 0.000000
# 2 -0.004119 0.011204 -0.002225 0.000000 -0.002023 0.000000
# 3 0.000589 -0.002225 0.005089 0.000000 -0.002559 0.000000
# 4 0.000000 0.000000 0.000000 0.033093 0.000000 -0.012248
# 5 0.000617 -0.002023 -0.002559 0.000000 0.020578 0.000000
# 6 0.000000 0.000000 0.000000 -0.012248 0.000000 -0.003886
#
#
# Mechanical properties :
#
#
# Convention : Reuss Voigt Hill
#
# Bulk Modulus (GPa) = 81.09840 87.99607 84.54723
# Shear Modulus (GPa) = 56.02341 16.67142 36.34741
#
# Velocity S-wave (km/s) = 4.79171 2.61392 3.85961
# Velocity P-wave (km/s) = 7.99070 6.72118 7.38327
#
# Compressibility (1/GPa) = 0.01233070
#
# Stress axis : x y z
#
# Youngs Moduli (GPa) = 132.47876 89.25246 196.49014
#
# Poissons Ratio (x) = 0.36765 -0.11565
# Poissons Ratio (y) = 0.54571 0.43717
# Poissons Ratio (z) = -0.07797 0.19858
#
# Static dielectric constant tensor:
#      x y z
#    x 2.899100 0.000000 5.406130 
#    y 0.000000 1.992020 0.000000 
#    z 5.406130 0.000000 32.606380 
# 
# From -- ./inp_files/15418.got.cif
#   From: 2010.05.17/outbox.cif.g08.bks.cpg/sg3_8_cif.got.tgz:15418.got - 2010.06.03 18:33:08.
