data_PCOD9113473
_publ_section_title
;
Structure prediction by ZEFSAII (Michael W. Deem and Ramdas Pophale) SiO2 
 PCOD9113473
Probable space group: P 2
;
_chemical_formula_sum "Si O2"
_cell_formula_units_Z 15
_cell_length_a 24.058757
_cell_length_b 5.317651
_cell_length_c 5.044563
_cell_angle_alpha 90.000000
_cell_angle_beta 57.108801
_cell_angle_gamma 90.000000
_cell_volume 541.929037
_symmetry_space_group_name_H-M "P 2"
_symmetry_group_IT_number 3
_symmetry_cell_setting 'monoclinic'
loop_
_space_group_symop_operation_xyz
x,y,z
-x,y,-z
loop_
_atom_site_type_symbol
_atom_site_label
_atom_site_fract_x
_atom_site_fract_y
_atom_site_fract_z
Si Si1 0.628118 0.442030 0.170793
Si Si2 0.500000 0.644345 0.500000
Si Si3 0.047977 0.287516 0.122048
Si Si4 0.570945 0.026330 0.926397
Si Si5 0.077760 0.790688 0.233734
Si Si6 0.295180 0.847217 0.359688
Si Si7 0.193068 0.685812 0.280621
Si Si8 0.749793 0.196471 0.137335
O O1 0.558245 0.493858 0.489964
O O2 0.605614 0.253550 0.994851
O O3 0.678987 0.295924 0.220677
O O4 0.665954 0.689254 0.969606
O O5 0.539561 0.816399 0.198405
O O6 0.084984 0.551575 0.025004
O O7 0.000000 0.309111 0.500000
O O8 0.095593 0.052252 0.047143
O O9 0.000000 0.248109 0.000000
O O10 0.500000 0.118949 0.000000
O O11 0.636759 0.882992 0.634340
O O12 0.117906 0.750497 0.398762
O O13 0.000000 0.814117 0.500000
O O14 0.226092 0.689517 0.487937
O O15 0.260810 0.114880 0.528422
O O16 0.205517 0.422186 0.094518
O O17 0.230371 0.928879 0.047541
#
# Coordination Sequence:
#
# PCOD9113473 Si02
#       8
#     2   1   2   2   2   2   2   2
#     4  10  23  45  67  97 145 185 249 317 371 461
#     4  10  24  42  60 100 132 182 234 312 378 436
#     4  10  21  42  70 105 150 192 237 298 371 450
#     4  11  24  41  65  97 135 181 242 302 373 448
#     4  10  22  44  73 108 144 192 239 312 375 450
#     4  10  25  44  68  99 141 193 244 302 379 446
#     4  11  24  48  69 104 147 187 255 303 370 461
#     4  11  25  44  73 100 140 196 244 304 377 447
#
# _framework density 27.678901
#
# number of rings (size 3 to 8) (size 9 to 14) (size 15 to 20)
#    0.000    1.600    1.333    1.600    5.600    2.133 
#   14.400    0.000    0.000    0.000    0.000    0.000 
#    0.000    0.000    0.000    0.000    0.000    0.000 
#
# Total GULP energy -83520.039298 kJ/mol
# GULP energy per Si atom -5568.002620 kJ/mol
# Density = 2.761590 g / cm^3
# Si number density = 27.678901 Si / 1000 Ang^3
#
#
#
# Elastic Constant Matrix: (Units=GPa)
#
#
# Indices 1 2 3 4 5 6 
#
# 1 146.0241 13.1047 39.7982 0.0000 -28.9353 0.0000
# 2 13.1047 174.8925 37.3139 0.0000 2.7627 0.0000
# 3 39.7982 37.3139 59.0406 0.0000 0.6763 0.0000
# 4 0.0000 0.0000 0.0000 84.7959 0.0000 12.2676
# 5 -28.9353 2.7627 0.6763 0.0000 49.3598 0.0000
# 6 0.0000 0.0000 0.0000 12.2676 0.0000 47.1789
#
#
#
# Elastic Compliance Matrix: (Units=1/GPa)
#
#
# Indices 1 2 3 4 5 6 
#
# 1 0.009907 0.000698 -0.007186 0.000000 0.005867 0.000000
# 2 0.000698 0.006663 -0.004683 0.000000 0.000101 0.000000
# 3 -0.007186 -0.004683 0.024790 0.000000 -0.004290 0.000000
# 4 0.000000 0.000000 0.000000 0.012254 0.000000 -0.003186
# 5 0.005867 0.000101 -0.004290 0.000000 0.023752 0.000000
# 6 0.000000 0.000000 0.000000 -0.003186 0.000000 0.022024
#
#
# Mechanical properties :
#
#
# Convention : Reuss Voigt Hill
#
# Bulk Modulus (GPa) = 52.58152 62.26564 57.42358
# Shear Modulus (GPa) = 39.04065 55.58295 47.31180
#
# Velocity S-wave (km/s) = 3.75972 4.48608 4.13886
# Velocity P-wave (km/s) = 6.15512 7.02693 6.60543
#
# Compressibility (1/GPa) = 0.01901809
#
# Stress axis : x y z
#
# Youngs Moduli (GPa) = 100.94219 150.08272 40.33811
#
# Poissons Ratio (x) = -0.10480 0.28989
# Poissons Ratio (y) = -0.07048 0.18890
# Poissons Ratio (z) = 0.72541 0.70282
#
# Static dielectric constant tensor:
#      x y z
#    x 2.338760 0.000000 0.039280 
#    y 0.000000 2.288120 0.000000 
#    z 0.039280 0.000000 2.336350 
# 
# From -- ./inp_files/3969.got.cif
#   From: 2010.05.17/outbox.cif.g08.bks.cpg/sg3_2_cif.got.tgz:3969.got - 2010.06.03 18:33:08.
