data_PCOD9113664
_publ_section_title
;
Structure prediction by ZEFSAII (Michael W. Deem and Ramdas Pophale) SiO2 
 PCOD9113664
Probable space group: P 2
;
_chemical_formula_sum "Si O2"
_cell_formula_units_Z 16
_cell_length_a 8.758699
_cell_length_b 9.727132
_cell_length_c 9.249457
_cell_angle_alpha 90.000000
_cell_angle_beta 117.423846
_cell_angle_gamma 90.000000
_cell_volume 699.470779
_symmetry_space_group_name_H-M "P 2"
_symmetry_group_IT_number 3
_symmetry_cell_setting 'monoclinic'
loop_
_space_group_symop_operation_xyz
x,y,z
-x,y,-z
loop_
_atom_site_type_symbol
_atom_site_label
_atom_site_fract_x
_atom_site_fract_y
_atom_site_fract_z
Si Si1 0.831564 0.245730 0.347615
Si Si2 0.014306 0.092682 0.857368
Si Si3 0.801688 0.631093 0.877765
Si Si4 0.303025 0.036052 0.466296
Si Si5 0.162007 0.675492 0.673654
Si Si6 0.694431 0.461978 0.072387
Si Si7 0.311522 0.721438 0.475406
Si Si8 0.693620 0.872258 0.032793
O O1 0.919714 0.157291 0.261224
O O2 0.739914 0.147383 0.426490
O O3 0.704681 0.334075 0.188544
O O4 0.000000 0.315713 0.500000
O O5 0.823577 0.050410 0.725809
O O6 0.164273 0.981861 0.956887
O O7 0.000000 0.177776 0.000000
O O8 0.787726 0.653021 0.700457
O O9 0.742521 0.485681 0.924054
O O10 0.691316 0.751706 0.910576
O O11 0.000000 0.656877 0.000000
O O12 0.500000 0.049172 0.500000
O O13 0.264163 0.878397 0.495602
O O14 0.161363 0.557282 0.790543
O O15 0.305013 0.634849 0.618306
O O16 0.217078 0.807143 0.787147
O O17 0.000000 0.692802 0.500000
O O18 0.500000 0.515613 0.000000
O O19 0.500000 0.731034 0.500000
O O20 0.500000 0.914863 0.000000
#
# Coordination Sequence:
#
# PCOD9113664 Si02
#       8
#     2   2   2   2   2   2   2   2
#     4  10  24  45  64  87 125 173 224 274 328 396
#     4  11  23  39  62  93 127 167 220 277 336 396
#     4  11  22  38  61  91 126 161 205 263 326 392
#     4  10  22  41  66  95 129 168 216 274 337 403
#     4  11  21  36  60  88 120 161 205 255 320 386
#     4  11  24  43  62  85 121 167 217 264 322 397
#     4  11  20  34  59  92 123 150 192 253 318 381
#     4  11  22  38  60  91 133 173 211 262 331 405
#
# _framework density 22.874435999999999
#
# number of rings (size 3 to 8) (size 9 to 14) (size 15 to 20)
#    0.000    1.250    0.000    8.250    0.000    6.000 
#    0.000    4.375    0.000    0.000    0.000    0.000 
#    0.000    0.000    0.000    0.000    0.000    0.000 
#
# Total GULP energy -89100.195607 kJ/mol
# GULP energy per Si atom -5568.762225 kJ/mol
# Density = 2.282237 g / cm^3
# Si number density = 22.874436 Si / 1000 Ang^3
#
#
#
# Elastic Constant Matrix: (Units=GPa)
#
#
# Indices 1 2 3 4 5 6 
#
# 1 97.6049 19.9844 25.7307 0.0000 1.3385 0.0000
# 2 19.9844 29.5173 22.3736 0.0000 -1.6573 0.0000
# 3 25.7307 22.3736 92.5991 0.0000 -11.4060 0.0000
# 4 0.0000 0.0000 0.0000 28.3911 0.0000 4.5335
# 5 1.3385 -1.6573 -11.4060 0.0000 48.7080 0.0000
# 6 0.0000 0.0000 0.0000 4.5335 0.0000 -1.0396
#
#
#
# Elastic Compliance Matrix: (Units=1/GPa)
#
#
# Indices 1 2 3 4 5 6 
#
# 1 0.012154 -0.006894 -0.001834 0.000000 -0.000998 0.000000
# 2 -0.006894 0.045429 -0.009110 0.000000 -0.000398 0.000000
# 3 -0.001834 -0.009110 0.013878 0.000000 0.002990 0.000000
# 4 0.000000 0.000000 0.000000 0.020763 0.000000 0.090549
# 5 -0.000998 -0.000398 0.002990 0.000000 0.021245 0.000000
# 6 0.000000 0.000000 0.000000 0.090549 0.000000 -0.567071
#
#
# Mechanical properties :
#
#
# Convention : Reuss Voigt Hill
#
# Bulk Modulus (GPa) = 27.94520 39.54429 33.74474
# Shear Modulus (GPa) = -12.31539 25.32077 6.50269
#
# Velocity S-wave (km/s) = -2.32284 3.33069 1.68788
# Velocity P-wave (km/s) = 2.24704 5.66713 4.31078
#
# Compressibility (1/GPa) = 0.03578432
#
# Stress axis : x y z
#
# Youngs Moduli (GPa) = 82.27539 22.01243 72.05444
#
# Poissons Ratio (x) = 0.15176 0.13218
# Poissons Ratio (y) = 0.56725 0.65639
# Poissons Ratio (z) = 0.15093 0.20053
#
# Static dielectric constant tensor:
#      x y z
#    x 1.969090 0.000000 -0.012640 
#    y 0.000000 1.959710 0.000000 
#    z -0.012640 0.000000 2.170910 
# 
# From -- ./inp_files/5998.got.cif
#   From: 2010.05.17/outbox.cif.g08.bks.cpg/sg3_3_cif.got.tgz:5998.got - 2010.06.03 18:33:08.
