data_PCOD9113444
_publ_section_title
;
Structure prediction by ZEFSAII (Michael W. Deem and Ramdas Pophale) SiO2 
 PCOD9113444
Probable space group: P 2
;
_chemical_formula_sum "Si O2"
_cell_formula_units_Z 14
_cell_length_a 9.611942
_cell_length_b 15.947217
_cell_length_c 5.477381
_cell_angle_alpha 90.000000
_cell_angle_beta 131.579700
_cell_angle_gamma 90.000000
_cell_volume 628.043771
_symmetry_space_group_name_H-M "P 2"
_symmetry_group_IT_number 3
_symmetry_cell_setting 'monoclinic'
loop_
_space_group_symop_operation_xyz
x,y,z
-x,y,-z
loop_
_atom_site_type_symbol
_atom_site_label
_atom_site_fract_x
_atom_site_fract_y
_atom_site_fract_z
Si Si1 0.289333 0.251520 0.028116
Si Si2 0.710742 0.183516 0.467586
Si Si3 0.878885 0.615425 0.104615
Si Si4 0.178313 0.005308 0.340025
Si Si5 0.500000 0.903895 0.500000
Si Si6 0.361823 0.759957 0.032999
Si Si7 0.119570 0.423457 0.889314
Si Si8 0.000000 0.870944 0.500000
O O1 0.499943 0.217725 0.247326
O O2 0.208890 0.205113 0.172159
O O3 0.202585 0.229384 0.664272
O O4 0.271503 0.350179 0.055029
O O5 0.717446 0.084142 0.421611
O O6 0.714470 0.683223 0.896961
O O7 0.810597 0.519302 0.027464
O O8 0.000000 0.627233 0.500000
O O9 0.000000 0.626307 0.000000
O O10 0.320697 0.961122 0.320983
O O11 0.091493 0.933433 0.408958
O O12 0.000000 0.042090 0.000000
O O13 0.511126 0.837507 0.729928
O O14 0.169702 0.809495 0.760689
O O15 0.500000 0.718838 0.000000
O O16 0.000000 0.415557 0.500000
O O17 0.000000 0.411991 0.000000
#
# Coordination Sequence:
#
# PCOD9113444 Si02
#       8
#     2   2   2   2   1   2   2   1
#     4  10  21  43  64  95 132 180 216 288 342 409
#     4  10  24  41  67  92 133 176 227 284 346 407
#     4  10  24  44  73 102 145 186 229 294 353 429
#     4  12  27  45  67  98 135 187 236 296 358 417
#     4  12  26  44  68 100 140 182 244 300 350 432
#     4  12  26  44  70 105 141 188 240 293 365 429
#     4  10  21  41  69 103 136 182 231 279 348 424
#     4  12  26  46  70  96 140 188 234 298 358 426
#
# _framework density 22.291440000000001
#
# number of rings (size 3 to 8) (size 9 to 14) (size 15 to 20)
#    0.000    1.143    3.571    1.714    6.000    4.000 
#    2.571    1.429    0.000    0.000    0.000    0.000 
#    0.000    0.000    0.000    0.000    0.000    0.000 
#
# Total GULP energy -78067.063505 kJ/mol
# GULP energy per Si atom -5576.218822 kJ/mol
# Density = 2.224070 g / cm^3
# Si number density = 22.291440 Si / 1000 Ang^3
#
#
#
# Elastic Constant Matrix: (Units=GPa)
#
#
# Indices 1 2 3 4 5 6 
#
# 1 136.9067 64.6673 39.8631 0.0000 -9.0286 0.0000
# 2 64.6673 168.4768 20.0247 0.0000 14.6142 0.0000
# 3 39.8631 20.0247 46.8469 0.0000 -11.8370 0.0000
# 4 0.0000 0.0000 0.0000 53.1693 0.0000 53.1477
# 5 -9.0286 14.6142 -11.8370 0.0000 48.5749 0.0000
# 6 0.0000 0.0000 0.0000 53.1477 0.0000 153.9171
#
#
#
# Elastic Compliance Matrix: (Units=1/GPa)
#
#
# Indices 1 2 3 4 5 6 
#
# 1 0.011330 -0.003530 -0.007812 0.000000 0.001264 0.000000
# 2 -0.003530 0.007704 -0.001109 0.000000 -0.003244 0.000000
# 3 -0.007812 -0.001109 0.030035 0.000000 0.006201 0.000000
# 4 0.000000 0.000000 0.000000 0.028721 0.000000 -0.009918
# 5 0.001264 -0.003244 0.006201 0.000000 0.023309 0.000000
# 6 0.000000 0.000000 0.000000 -0.009918 0.000000 0.009922
#
#
# Mechanical properties :
#
#
# Convention : Reuss Voigt Hill
#
# Bulk Modulus (GPa) = 41.38140 66.81561 54.09851
# Shear Modulus (GPa) = 34.72775 66.31060 50.51917
#
# Velocity S-wave (km/s) = 3.95130 5.46001 4.76574
# Velocity P-wave (km/s) = 6.27863 8.35390 7.38948
#
# Compressibility (1/GPa) = 0.02416544
#
# Stress axis : x y z
#
# Youngs Moduli (GPa) = 88.26413 129.80942 33.29484
#
# Poissons Ratio (x) = 0.45820 0.26011
# Poissons Ratio (y) = 0.31155 0.03692
# Poissons Ratio (z) = 0.68956 0.14396
#
# Static dielectric constant tensor:
#      x y z
#    x 1.755140 0.000000 -0.029830 
#    y 0.000000 1.772840 0.000000 
#    z -0.029830 0.000000 1.832290 
# 
# From -- ./inp_files/1640.got.cif
#   From: 2010.05.17/outbox.cif.g08.bks.cpg/sg3_1_cif.got.tgz:1640.got - 2010.06.03 18:33:08.
