data_PCOD9113213
_publ_section_title
;
Structure prediction by ZEFSAII (Michael W. Deem and Ramdas Pophale) SiO2 
 PCOD9113213
Probable space group: P 2
;
_chemical_formula_sum "Si O2"
_cell_formula_units_Z 16
_cell_length_a 16.293027
_cell_length_b 4.978512
_cell_length_c 16.573735
_cell_angle_alpha 90.000000
_cell_angle_beta 143.693810
_cell_angle_gamma 90.000000
_cell_volume 796.007146
_symmetry_space_group_name_H-M "P 2"
_symmetry_group_IT_number 3
_symmetry_cell_setting 'monoclinic'
loop_
_space_group_symop_operation_xyz
x,y,z
-x,y,-z
loop_
_atom_site_type_symbol
_atom_site_label
_atom_site_fract_x
_atom_site_fract_y
_atom_site_fract_z
Si Si1 0.947022 0.236350 0.369008
Si Si2 0.197489 0.861952 0.323328
Si Si3 0.295463 0.784584 0.987109
Si Si4 0.014840 0.740664 0.321297
Si Si5 0.929756 0.078967 0.023390
Si Si6 0.359475 0.281885 0.936575
Si Si7 0.659115 0.362790 0.640746
Si Si8 0.751749 0.557812 0.886811
O O1 0.009653 0.442072 0.352762
O O2 0.780049 0.248674 0.227298
O O3 0.000000 0.300898 0.500000
O O4 0.994948 0.942321 0.379890
O O5 0.241427 0.575518 0.323794
O O6 0.152506 0.816346 0.380456
O O7 0.307769 0.077293 0.375619
O O8 0.055225 0.969268 0.173714
O O9 0.333984 0.683031 0.106955
O O10 0.127334 0.774399 0.844130
O O11 0.355944 0.579936 0.969646
O O12 0.343776 0.077540 0.999080
O O13 0.846538 0.319396 0.998542
O O14 0.000000 0.205352 0.000000
O O15 0.837784 0.820558 0.926294
O O16 0.500000 0.230041 0.000000
O O17 0.500000 0.430062 0.500000
O O18 0.685150 0.407680 0.757158
#
# Coordination Sequence:
#
# PCOD9113213 Si02
#       8
#     2   2   2   2   2   2   2   2
#     4  10  21  39  61  90 123 153 194 247 309 366
#     4  12  23  39  63  88 119 154 206 257 303 354
#     4  10  21  35  60  90 118 145 191 255 303 348
#     4  10  21  36  62  92 117 147 193 258 308 345
#     4  12  21  34  60  95 115 144 193 264 315 338
#     4  10  21  39  60  87 119 157 194 239 306 371
#     4  12  26  42  57  80 127 177 205 237 293 369
#     4  12  22  37  59  89 122 151 201 255 308 351
#
# _framework density 20.100321999999998
#
# number of rings (size 3 to 8) (size 9 to 14) (size 15 to 20)
#    0.000    1.000    3.750    3.750    3.500    0.000 
#    0.000    3.750    0.000    0.000    0.000    0.000 
#    0.000    0.000    0.000    0.000    0.000    0.000 
#
# Total GULP energy -89306.933282 kJ/mol
# GULP energy per Si atom -5581.683330 kJ/mol
# Density = 2.005457 g / cm^3
# Si number density = 20.100322 Si / 1000 Ang^3
#
#
#
# Elastic Constant Matrix: (Units=GPa)
#
#
# Indices 1 2 3 4 5 6 
#
# 1 98.7727 1.3459 36.3270 0.0000 -5.4566 0.0000
# 2 1.3459 72.0029 -2.3295 0.0000 4.9803 0.0000
# 3 36.3270 -2.3295 53.1965 0.0000 -0.0110 0.0000
# 4 0.0000 0.0000 0.0000 16.5972 0.0000 -0.5822
# 5 -5.4566 4.9803 -0.0110 0.0000 11.9860 0.0000
# 6 0.0000 0.0000 0.0000 -0.5822 0.0000 22.5347
#
#
#
# Elastic Compliance Matrix: (Units=1/GPa)
#
#
# Indices 1 2 3 4 5 6 
#
# 1 0.014064 -0.001047 -0.009649 0.000000 0.006829 0.000000
# 2 -0.001047 0.014398 0.001344 0.000000 -0.006458 0.000000
# 3 -0.009649 0.001344 0.025445 0.000000 -0.004928 0.000000
# 4 0.000000 0.000000 0.000000 0.060306 0.000000 0.001558
# 5 0.006829 -0.006458 -0.004928 0.000000 0.089218 0.000000
# 6 0.000000 0.000000 0.000000 0.001558 0.000000 0.044416
#
#
# Mechanical properties :
#
#
# Convention : Reuss Voigt Hill
#
# Bulk Modulus (GPa) = 28.40584 32.73987 30.57286
# Shear Modulus (GPa) = 17.96712 22.79884 20.38298
#
# Velocity S-wave (km/s) = 2.99301 3.37152 3.18789
# Velocity P-wave (km/s) = 5.10949 5.61069 5.36594
#
# Compressibility (1/GPa) = 0.03520403
#
# Stress axis : x y z
#
# Youngs Moduli (GPa) = 71.10110 69.45355 39.30030
#
# Poissons Ratio (x) = 0.07275 0.37920
# Poissons Ratio (y) = 0.07447 -0.05284
# Poissons Ratio (z) = 0.68604 -0.09338
#
# Static dielectric constant tensor:
#      x y z
#    x 1.746900 0.000000 -0.027030 
#    y 0.000000 1.709730 0.000000 
#    z -0.027030 0.000000 1.735300 
# 
# From -- ./inp_files/13944.got.cif
#   From: 2010.05.17/outbox.cif.g08.bks.cpg/sg3_7_cif.got.tgz:13944.got - 2010.06.03 18:33:08.
