data_PCOD9113224
_publ_section_title
;
Structure prediction by ZEFSAII (Michael W. Deem and Ramdas Pophale) SiO2 
 PCOD9113224
Probable space group: P 2
;
_chemical_formula_sum "Si O2"
_cell_formula_units_Z 14
_cell_length_a 9.162471
_cell_length_b 5.077768
_cell_length_c 28.815159
_cell_angle_alpha 90.000000
_cell_angle_beta 25.096531
_cell_angle_gamma 90.000000
_cell_volume 568.617765
_symmetry_space_group_name_H-M "P 2"
_symmetry_group_IT_number 3
_symmetry_cell_setting 'monoclinic'
loop_
_space_group_symop_operation_xyz
x,y,z
-x,y,-z
loop_
_atom_site_type_symbol
_atom_site_label
_atom_site_fract_x
_atom_site_fract_y
_atom_site_fract_z
Si Si1 0.854511 0.079570 0.185626
Si Si2 0.660237 0.701506 0.548358
Si Si3 0.780841 0.384258 0.392088
Si Si4 0.978836 0.030270 0.252724
Si Si5 0.434978 0.569230 0.325355
Si Si6 0.384215 0.706771 0.208294
Si Si7 0.816038 0.193712 0.099926
O O1 0.048422 0.112407 0.179543
O O2 0.534827 0.287385 0.276186
O O3 0.030260 0.154525 0.085880
O O4 0.721381 0.779330 0.227093
O O5 0.493904 0.579303 0.551346
O O6 0.565580 0.517821 0.619275
O O7 0.066227 0.710535 0.426840
O O8 0.425527 0.948523 0.629011
O O9 0.500000 0.203059 0.500000
O O10 0.984522 0.245134 0.291530
O O11 0.082818 0.567231 0.324624
O O12 0.219820 0.797306 0.205539
O O13 0.682559 0.487067 0.126495
O O14 0.513023 0.978718 0.193141
O O15 0.000000 0.100757 0.000000
#
# Coordination Sequence:
#
# PCOD9113224 Si02
#       7
#     2   2   2   2   2   2   2
#     4  11  24  41  69  96 133 178 227 291 344 403
#     4   9  21  33  55  91 136 179 227 266 314 401
#     4  11  23  38  65  99 144 185 231 262 335 412
#     4  10  22  44  67  97 142 187 229 283 339 413
#     4  10  21  36  60  93 133 177 224 274 334 383
#     4  11  25  48  72 100 139 186 226 289 352 420
#     4  12  27  49  75 102 134 175 237 300 367 419
#
# _framework density 24.621110000000002
#
# number of rings (size 3 to 8) (size 9 to 14) (size 15 to 20)
#    0.000    1.429    2.857    1.286    6.000    3.429 
#    0.000    0.714    3.143    0.000    0.000    0.000 
#    0.000    0.000    0.000    0.000    0.000    0.000 
#
# Total GULP energy -77961.064075 kJ/mol
# GULP energy per Si atom -5568.647434 kJ/mol
# Density = 2.456507 g / cm^3
# Si number density = 24.621110 Si / 1000 Ang^3
#
#
#
# Elastic Constant Matrix: (Units=GPa)
#
#
# Indices 1 2 3 4 5 6 
#
# 1 122.3231 28.9213 41.4915 0.0000 37.8936 0.0000
# 2 28.9213 121.7887 11.6426 0.0001 0.6625 0.0000
# 3 41.4915 11.6426 43.4087 -0.0001 30.5302 -0.0002
# 4 0.0000 0.0001 -0.0001 17.6941 0.0000 -3.7738
# 5 37.8936 0.6625 30.5302 0.0000 43.6347 0.0000
# 6 0.0000 0.0000 -0.0002 -3.7738 0.0000 40.7713
#
#
#
# Elastic Compliance Matrix: (Units=1/GPa)
#
#
# Indices 1 2 3 4 5 6 
#
# 1 0.013240 -0.002366 -0.007795 0.000000 -0.006008 0.000000
# 2 -0.002366 0.009035 -0.002974 0.000000 0.003998 0.000000
# 3 -0.007795 -0.002974 0.052160 0.000000 -0.029681 0.000000
# 4 0.000000 0.000000 0.000000 0.057654 0.000000 0.005336
# 5 -0.006008 0.003998 -0.029681 0.000000 0.048841 0.000000
# 6 0.000000 0.000000 0.000000 0.005336 0.000000 0.025021
#
#
# Mechanical properties :
#
#
# Convention : Reuss Voigt Hill
#
# Bulk Modulus (GPa) = 20.76178 50.18126 35.47152
# Shear Modulus (GPa) = 20.13885 34.11768 27.12827
#
# Velocity S-wave (km/s) = 2.86309 3.72655 3.32298
# Velocity P-wave (km/s) = 4.40233 6.24034 5.40011
#
# Compressibility (1/GPa) = 0.04816542
#
# Stress axis : x y z
#
# Youngs Moduli (GPa) = 75.53079 110.67592 19.17176
#
# Poissons Ratio (x) = 0.26188 0.14944
# Poissons Ratio (y) = 0.17872 0.05701
# Poissons Ratio (z) = 0.58874 0.32914
#
# Static dielectric constant tensor:
#      x y z
#    x 2.201270 0.000000 0.147460 
#    y 0.000000 1.981990 0.000000 
#    z 0.147460 0.000000 2.161340 
# 
# From -- ./inp_files/16471.got.cif
#   From: 2010.05.17/outbox.cif.g08.bks.cpg/sg3_9_cif.got.tgz:16471.got - 2010.06.03 18:33:08.
