data_PCOD9113471
_publ_section_title
;
Structure prediction by ZEFSAII (Michael W. Deem and Ramdas Pophale) SiO2 
 PCOD9113471
Probable space group: P 2
;
_chemical_formula_sum "Si O2"
_cell_formula_units_Z 13
_cell_length_a 8.269401
_cell_length_b 9.300712
_cell_length_c 8.297569
_cell_angle_alpha 90.000000
_cell_angle_beta 68.487105
_cell_angle_gamma 90.000000
_cell_volume 593.718401
_symmetry_space_group_name_H-M "P 2"
_symmetry_group_IT_number 3
_symmetry_cell_setting 'monoclinic'
loop_
_space_group_symop_operation_xyz
x,y,z
-x,y,-z
loop_
_atom_site_type_symbol
_atom_site_label
_atom_site_fract_x
_atom_site_fract_y
_atom_site_fract_z
Si Si1 0.500000 0.059070 0.000000
Si Si2 0.999272 0.217311 0.249018
Si Si3 0.289224 0.264827 0.881578
Si Si4 0.284724 0.670994 0.400057
Si Si5 0.668012 0.590735 0.239901
Si Si6 0.150470 0.921109 0.244495
Si Si7 0.000000 0.752283 0.000000
Si Si8 0.000000 0.450855 0.500000
O O1 0.549153 0.166668 0.127965
O O2 0.334092 0.962530 0.095955
O O3 0.836800 0.182211 0.195237
O O4 0.937407 0.344880 0.384759
O O5 0.064924 0.074492 0.310604
O O6 0.161969 0.276396 0.083887
O O7 0.337788 0.420073 0.793201
O O8 0.480326 0.656052 0.263739
O O9 0.297709 0.635218 0.585859
O O10 0.197529 0.820208 0.378112
O O11 0.154467 0.550407 0.380406
O O12 0.829184 0.655873 0.084883
O O13 0.034841 0.844029 0.149224
#
# Coordination Sequence:
#
# PCOD9113471 Si02
#       8
#     1   2   2   2   2   2   1   1
#     4  10  22  40  70 104 142 178 234 288 352 410
#     4  10  23  42  68  98 136 183 232 282 352 409
#     4  10  21  42  70 102 135 177 239 290 342 407
#     4  11  26  44  68 101 146 179 236 281 357 413
#     4  11  25  43  71 103 138 188 229 297 340 416
#     4  11  24  43  67 105 138 187 228 290 349 422
#     4  12  24  42  74 102 142 186 236 284 356 410
#     4  12  24  44  68 100 138 190 230 288 346 420
#
# _framework density 21.895900999999999
#
# number of rings (size 3 to 8) (size 9 to 14) (size 15 to 20)
#    0.000    1.231    1.538    4.615    6.462    1.846 
#    0.000    1.538    0.000    0.000    0.000    0.000 
#    0.000    0.000    0.000    0.000    0.000    0.000 
#
# Total GULP energy -72664.776480 kJ/mol
# GULP energy per Si atom -5589.598191 kJ/mol
# Density = 2.184606 g / cm^3
# Si number density = 21.895901 Si / 1000 Ang^3
#
#
#
# Elastic Constant Matrix: (Units=GPa)
#
#
# Indices 1 2 3 4 5 6 
#
# 1 109.4752 47.5045 13.1079 0.0000 -9.8932 0.0000
# 2 47.5045 129.1965 27.1682 0.0000 2.0198 0.0000
# 3 13.1079 27.1682 50.1122 0.0000 -1.7994 0.0000
# 4 0.0000 0.0000 0.0000 29.3126 0.0000 9.3870
# 5 -9.8932 2.0198 -1.7994 0.0000 33.5901 0.0000
# 6 0.0000 0.0000 0.0000 9.3870 0.0000 22.8808
#
#
#
# Elastic Compliance Matrix: (Units=1/GPa)
#
#
# Indices 1 2 3 4 5 6 
#
# 1 0.011299 -0.004080 -0.000616 0.000000 0.003540 0.000000
# 2 -0.004080 0.010230 -0.004553 0.000000 -0.002061 0.000000
# 3 -0.000616 -0.004553 0.022632 0.000000 0.001305 0.000000
# 4 0.000000 0.000000 0.000000 0.039275 0.000000 -0.016113
# 5 0.003540 -0.002061 0.001305 0.000000 0.031007 0.000000
# 6 0.000000 0.000000 0.000000 -0.016113 0.000000 0.050315
#
#
# Mechanical properties :
#
#
# Convention : Reuss Voigt Hill
#
# Bulk Modulus (GPa) = 38.96864 51.59390 45.28127
# Shear Modulus (GPa) = 26.06744 30.55692 28.31218
#
# Velocity S-wave (km/s) = 3.45413 3.73976 3.59978
# Velocity P-wave (km/s) = 5.80895 6.50094 6.16466
#
# Compressibility (1/GPa) = 0.02566166
#
# Stress axis : x y z
#
# Youngs Moduli (GPa) = 88.50566 97.75138 44.18598
#
# Poissons Ratio (x) = 0.39885 0.02723
# Poissons Ratio (y) = 0.36112 0.20117
# Poissons Ratio (z) = 0.05454 0.44505
#
# Static dielectric constant tensor:
#      x y z
#    x 1.798010 0.000000 0.031350 
#    y 0.000000 1.760560 0.000000 
#    z 0.031350 0.000000 1.844100 
# 
# From -- ./inp_files/5439.got.cif
#   From: 2010.05.17/outbox.cif.g08.bks.cpg/sg3_3_cif.got.tgz:5439.got - 2010.06.03 18:33:08.
