data_PCOD9113920
_publ_section_title
;
Structure prediction by ZEFSAII (Michael W. Deem and Ramdas Pophale) SiO2 
 PCOD9113920
Probable space group: P 2
;
_chemical_formula_sum "Si O2"
_cell_formula_units_Z 12
_cell_length_a 21.492945
_cell_length_b 5.240259
_cell_length_c 10.564023
_cell_angle_alpha 90.000000
_cell_angle_beta 155.241445
_cell_angle_gamma 90.000000
_cell_volume 498.287335
_symmetry_space_group_name_H-M "P 2"
_symmetry_group_IT_number 3
_symmetry_cell_setting 'monoclinic'
loop_
_space_group_symop_operation_xyz
x,y,z
-x,y,-z
loop_
_atom_site_type_symbol
_atom_site_label
_atom_site_fract_x
_atom_site_fract_y
_atom_site_fract_z
Si Si1 0.877837 0.568080 0.879948
Si Si2 0.882244 0.407579 0.366981
Si Si3 0.996665 0.050230 0.217305
Si Si4 0.720966 0.794058 0.233353
Si Si5 0.456596 0.441672 0.793089
Si Si6 0.587722 0.165292 0.789045
O O1 0.710895 0.540708 0.521315
O O2 0.000000 0.634133 0.000000
O O3 0.922082 0.287831 0.010272
O O4 0.895216 0.800949 0.011537
O O5 0.969821 0.160092 0.581220
O O6 0.828624 0.564348 0.389677
O O7 0.000000 0.554194 0.500000
O O8 0.729367 0.340230 0.015769
O O9 0.166818 0.983536 0.487243
O O10 0.576330 0.669842 0.023919
O O11 0.661855 0.927217 0.996692
O O12 0.493735 0.299629 0.728732
O O13 0.500000 0.282429 0.000000
O O14 0.500000 0.106604 0.500000
#
# Coordination Sequence:
#
# PCOD9113920 Si02
#       6
#     2   2   2   2   2   2
#     4  12  27  46  77 109 150 198 256 318 380 460
#     4  10  23  44  74 104 146 195 249 316 380 449
#     4  11  24  48  70 109 147 190 253 313 379 446
#     4  10  23  46  73 104 157 200 251 316 387 456
#     4  11  27  47  74 109 153 205 255 319 391 458
#     4  10  25  45  71 108 151 200 254 311 378 463
#
# _framework density 24.082491999999998
#
# number of rings (size 3 to 8) (size 9 to 14) (size 15 to 20)
#    0.000    1.333    1.667    1.500    9.333    6.000 
#    0.000    0.000    0.000    0.000    0.000    0.000 
#    0.000    0.000    0.000    0.000    0.000    0.000 
#
# Total GULP energy -67028.953782 kJ/mol
# GULP energy per Si atom -5585.746148 kJ/mol
# Density = 2.402768 g / cm^3
# Si number density = 24.082492 Si / 1000 Ang^3
#
#
#
# Elastic Constant Matrix: (Units=GPa)
#
#
# Indices 1 2 3 4 5 6 
#
# 1 91.5402 18.7073 64.6778 0.0000 9.3441 0.0000
# 2 18.7073 116.0574 61.6795 0.0000 -7.6589 0.0000
# 3 64.6778 61.6795 198.4484 0.0000 -9.6073 0.0000
# 4 0.0000 0.0000 0.0000 22.2525 0.0000 -13.9544
# 5 9.3441 -7.6589 -9.6073 0.0000 49.7160 0.0000
# 6 0.0000 0.0000 0.0000 -13.9544 0.0000 15.0575
#
#
#
# Elastic Compliance Matrix: (Units=1/GPa)
#
#
# Indices 1 2 3 4 5 6 
#
# 1 0.014859 0.000033 -0.005035 0.000000 -0.003761 0.000000
# 2 0.000033 0.010369 -0.003186 0.000000 0.000976 0.000000
# 3 -0.005035 -0.003186 0.007765 0.000000 0.001956 0.000000
# 4 0.000000 0.000000 0.000000 0.107291 0.000000 0.099431
# 5 -0.003761 0.000976 0.001956 0.000000 0.021349 0.000000
# 6 0.000000 0.000000 0.000000 0.099431 0.000000 0.158558
#
#
# Mechanical properties :
#
#
# Convention : Reuss Voigt Hill
#
# Bulk Modulus (GPa) = 60.18388 77.35279 68.76834
# Shear Modulus (GPa) = 14.61531 34.80396 24.70963
#
# Velocity S-wave (km/s) = 2.46618 3.80570 3.20666
# Velocity P-wave (km/s) = 5.75798 7.17641 6.50596
#
# Compressibility (1/GPa) = 0.01661574
#
# Stress axis : x y z
#
# Youngs Moduli (GPa) = 67.30011 96.44285 128.78246
#
# Poissons Ratio (x) = -0.00314 0.64841
# Poissons Ratio (y) = -0.00219 0.41032
# Poissons Ratio (z) = 0.33885 0.30728
#
# Static dielectric constant tensor:
#      x y z
#    x 2.034040 0.000000 -0.005400 
#    y 0.000000 1.987230 0.000000 
#    z -0.005400 0.000000 1.889080 
# 
# From -- ./inp_files/6685.got.cif
#   From: 2010.05.17/outbox.cif.g08.bks.cpg/sg3_4_cif.got.tgz:6685.got - 2010.06.03 18:33:08.
