data_PCOD9113524
_publ_section_title
;
Structure prediction by ZEFSAII (Michael W. Deem and Ramdas Pophale) SiO2 
 PCOD9113524
Probable space group: P 2
;
_chemical_formula_sum "Si O2"
_cell_formula_units_Z 14
_cell_length_a 7.168584
_cell_length_b 7.186362
_cell_length_c 16.826518
_cell_angle_alpha 90.000000
_cell_angle_beta 135.957379
_cell_angle_gamma 90.000000
_cell_volume 602.618261
_symmetry_space_group_name_H-M "P 2"
_symmetry_group_IT_number 3
_symmetry_cell_setting 'monoclinic'
loop_
_space_group_symop_operation_xyz
x,y,z
-x,y,-z
loop_
_atom_site_type_symbol
_atom_site_label
_atom_site_fract_x
_atom_site_fract_y
_atom_site_fract_z
Si Si1 0.077805 0.797980 0.108194
Si Si2 0.653620 0.591944 0.462308
Si Si3 0.972774 0.302735 0.634641
Si Si4 0.849672 0.453237 0.769048
Si Si5 0.704455 0.030853 0.448404
Si Si6 0.761471 0.180154 0.022710
Si Si7 0.465384 0.105974 0.216527
O O1 0.057469 0.655769 0.173263
O O2 0.886036 0.973171 0.067407
O O3 0.369667 0.890789 0.181495
O O4 0.000000 0.708711 0.000000
O O5 0.500000 0.571879 0.500000
O O6 0.927571 0.479365 0.562417
O O7 0.468870 0.493030 0.339360
O O8 0.670444 0.811616 0.452508
O O9 0.949806 0.384175 0.715083
O O10 0.242237 0.184898 0.712334
O O11 0.744234 0.157245 0.537846
O O12 0.997178 0.314192 0.875029
O O13 0.000000 0.049634 0.500000
O O14 0.479236 0.109162 0.318617
O O15 0.500000 0.203075 0.000000
O O16 0.686582 0.196665 0.906604
#
# Coordination Sequence:
#
# PCOD9113524 Si02
#       7
#     2   2   2   2   2   2   2
#     4  10  24  44  73 107 142 188 242 303 370 429
#     4  10  23  41  67 106 138 184 240 290 355 433
#     4  10  23  42  70 106 143 192 233 295 366 431
#     4  11  23  44  72 106 143 186 247 303 358 436
#     4  10  22  42  68 100 144 187 230 292 360 430
#     4  11  24  45  73 104 140 190 242 302 371 435
#     4  10  21  47  70 102 146 190 238 295 370 426
#
# _framework density 23.231956
#
# number of rings (size 3 to 8) (size 9 to 14) (size 15 to 20)
#    0.000    1.714    2.857    0.000    2.000    8.000 
#    0.000    2.857    0.000    0.000    0.000    0.000 
#    0.000    0.000    0.000    0.000    0.000    0.000 
#
# Total GULP energy -77980.586089 kJ/mol
# GULP energy per Si atom -5570.041863 kJ/mol
# Density = 2.317908 g / cm^3
# Si number density = 23.231956 Si / 1000 Ang^3
#
#
#
# Elastic Constant Matrix: (Units=GPa)
#
#
# Indices 1 2 3 4 5 6 
#
# 1 103.5920 47.4671 45.7142 0.0000 -5.3674 0.0000
# 2 47.4671 139.3181 94.9886 0.0000 -15.6223 0.0000
# 3 45.7142 94.9886 228.1397 0.0000 -11.4251 0.0000
# 4 0.0000 0.0000 0.0000 29.6977 0.0000 -16.5578
# 5 -5.3674 -15.6223 -11.4251 0.0000 21.1984 0.0000
# 6 0.0000 0.0000 0.0000 -16.5578 0.0000 32.2578
#
#
#
# Elastic Compliance Matrix: (Units=1/GPa)
#
#
# Indices 1 2 3 4 5 6 
#
# 1 0.011584 -0.003302 -0.000947 0.000000 -0.000011 0.000000
# 2 -0.003302 0.011575 -0.003877 0.000000 0.005604 0.000000
# 3 -0.000947 -0.003877 0.006199 0.000000 0.000244 0.000000
# 4 0.000000 0.000000 0.000000 0.047173 0.000000 0.024214
# 5 -0.000011 0.005604 0.000244 0.000000 0.051432 0.000000
# 6 0.000000 0.000000 0.000000 0.024214 0.000000 0.043429
#
#
# Mechanical properties :
#
#
# Convention : Reuss Voigt Hill
#
# Bulk Modulus (GPa) = 76.30200 94.15441 85.22821
# Shear Modulus (GPa) = 26.03993 35.48944 30.76468
#
# Velocity S-wave (km/s) = 3.35157 3.91271 3.64296
# Velocity P-wave (km/s) = 6.92042 7.81206 7.37972
#
# Compressibility (1/GPa) = 0.01310582
#
# Stress axis : x y z
#
# Youngs Moduli (GPa) = 86.32852 86.39496 161.30623
#
# Poissons Ratio (x) = 0.28532 0.15270
# Poissons Ratio (y) = 0.28510 0.62536
# Poissons Ratio (z) = 0.08172 0.33494
#
# Static dielectric constant tensor:
#      x y z
#    x 1.925890 0.000000 0.021000 
#    y 0.000000 1.952020 0.000000 
#    z 0.021000 0.000000 1.897700 
# 
# From -- ./inp_files/14897.got.cif
#   From: 2010.05.17/outbox.cif.g08.bks.cpg/sg3_8_cif.got.tgz:14897.got - 2010.06.03 18:33:08.
