data_PCOD9113617
_publ_section_title
;
Structure prediction by ZEFSAII (Michael W. Deem and Ramdas Pophale) SiO2 
 PCOD9113617
Probable space group: P 2
;
_chemical_formula_sum "Si O2"
_cell_formula_units_Z 11
_cell_length_a 15.056028
_cell_length_b 4.704005
_cell_length_c 5.794130
_cell_angle_alpha 90.000000
_cell_angle_beta 91.032335
_cell_angle_gamma 90.000000
_cell_volume 410.294718
_symmetry_space_group_name_H-M "P 2"
_symmetry_group_IT_number 3
_symmetry_cell_setting 'monoclinic'
loop_
_space_group_symop_operation_xyz
x,y,z
-x,y,-z
loop_
_atom_site_type_symbol
_atom_site_label
_atom_site_fract_x
_atom_site_fract_y
_atom_site_fract_z
Si Si1 0.591999 0.628470 0.137386
Si Si2 0.166591 0.150210 0.793489
Si Si3 0.085581 0.747469 0.395794
Si Si4 0.738446 0.770414 0.816058
Si Si5 0.000000 0.147525 0.000000
Si Si6 0.658050 0.163482 0.413632
O O1 0.595225 0.431563 0.366111
O O2 0.615716 0.939077 0.233212
O O3 0.500000 0.612760 0.000000
O O4 0.667935 0.572937 0.944808
O O5 0.083734 0.315672 0.900374
O O6 0.248380 0.294859 0.671750
O O7 0.124125 0.945017 0.600179
O O8 0.213282 0.963793 0.991412
O O9 0.176406 0.615333 0.297873
O O10 0.000000 0.583873 0.500000
O O11 0.042981 0.947742 0.197238
O O12 0.684763 0.978079 0.638042
#
# Coordination Sequence:
#
# PCOD9113617 Si02
#       6
#     2   2   2   2   1   2
#     4  11  24  43  65  94 129 168 219 277 336 403
#     4   8  15  29  52  84 122 164 209 261 321 388
#     4   8  13  25  51  89 126 168 216 264 321 391
#     4   9  19  36  59  90 129 171 214 272 333 391
#     4   8  12  22  48  84 122 162 208 260 316 380
#     4  10  22  40  64  92 126 168 217 270 333 401
#
# _framework density 26.809996999999999
#
# number of rings (size 3 to 8) (size 9 to 14) (size 15 to 20)
#    0.000    2.909    0.000    0.545    0.000    3.636 
#    0.000    1.818    0.000   16.364    0.000  192.182 
#    0.000    0.000    0.000    0.000    0.000    0.000 
#
# Total GULP energy -61425.790593 kJ/mol
# GULP energy per Si atom -5584.162781 kJ/mol
# Density = 2.674898 g / cm^3
# Si number density = 26.809997 Si / 1000 Ang^3
#
#
#
# Elastic Constant Matrix: (Units=GPa)
#
#
# Indices 1 2 3 4 5 6 
#
# 1 159.3899 36.5703 74.7225 0.0000 18.7723 0.0000
# 2 36.5703 69.0260 39.8667 0.0000 15.5670 0.0000
# 3 74.7225 39.8667 165.9522 0.0000 54.7905 0.0000
# 4 0.0000 0.0000 0.0000 48.8775 0.0000 47.9674
# 5 18.7723 15.5670 54.7905 0.0000 53.2322 0.0000
# 6 0.0000 0.0000 0.0000 47.9674 0.0000 -11.6513
#
#
#
# Elastic Compliance Matrix: (Units=1/GPa)
#
#
# Indices 1 2 3 4 5 6 
#
# 1 0.008428 -0.002704 -0.003673 0.000000 0.001600 0.000000
# 2 -0.002704 0.017736 -0.002492 0.000000 -0.001667 0.000000
# 3 -0.003673 -0.002492 0.011528 0.000000 -0.009841 0.000000
# 4 0.000000 0.000000 0.000000 0.004059 0.000000 0.016711
# 5 0.001600 -0.001667 -0.009841 0.000000 0.028838 0.000000
# 6 0.000000 0.000000 0.000000 0.016711 0.000000 -0.017028
#
#
# Mechanical properties :
#
#
# Convention : Reuss Voigt Hill
#
# Bulk Modulus (GPa) = 50.12266 77.40968 63.76617
# Shear Modulus (GPa) = 64.14311 34.30559 49.22435
#
# Velocity S-wave (km/s) = 4.89663 3.58101 4.28956
# Velocity P-wave (km/s) = 7.12078 6.78485 6.95484
#
# Compressibility (1/GPa) = 0.01995105
#
# Stress axis : x y z
#
# Youngs Moduli (GPa) = 118.65091 56.38347 86.74886
#
# Poissons Ratio (x) = 0.15248 0.31865
# Poissons Ratio (y) = 0.32088 0.21621
# Poissons Ratio (z) = 0.43584 0.14053
#
# Static dielectric constant tensor:
#      x y z
#    x 2.153680 0.000000 -0.131200 
#    y 0.000000 1.992030 0.000000 
#    z -0.131200 0.000000 2.204530 
# 
# From -- ./inp_files/2742.got.cif
#   From: 2010.05.17/outbox.cif.g08.bks.cpg/sg3_2_cif.got.tgz:2742.got - 2010.06.03 18:33:08.
