data_PCOD9113150
_publ_section_title
;
Structure prediction by ZEFSAII (Michael W. Deem and Ramdas Pophale) SiO2 
 PCOD9113150
Probable space group: P 2
;
_chemical_formula_sum "Si O2"
_cell_formula_units_Z 15
_cell_length_a 8.532887
_cell_length_b 9.562759
_cell_length_c 8.217642
_cell_angle_alpha 90.000000
_cell_angle_beta 108.726928
_cell_angle_gamma 90.000000
_cell_volume 635.043804
_symmetry_space_group_name_H-M "P 2"
_symmetry_group_IT_number 3
_symmetry_cell_setting 'monoclinic'
loop_
_space_group_symop_operation_xyz
x,y,z
-x,y,-z
loop_
_atom_site_type_symbol
_atom_site_label
_atom_site_fract_x
_atom_site_fract_y
_atom_site_fract_z
Si Si1 0.255892 0.947690 0.009980
Si Si2 0.728421 0.418830 0.099113
Si Si3 0.360477 0.535251 0.590410
Si Si4 0.071303 0.336915 0.356229
Si Si5 0.166036 0.771238 0.459943
Si Si6 0.194688 0.659700 0.100519
Si Si7 0.500000 0.155446 0.000000
Si Si8 0.062929 0.033258 0.262948
O O1 0.277984 0.781237 0.018421
O O2 0.145581 0.972194 0.130530
O O3 0.419512 0.039840 0.092426
O O4 0.134546 0.000646 0.822765
O O5 0.629968 0.479232 0.222160
O O6 0.921196 0.411455 0.214335
O O7 0.730186 0.512984 0.936850
O O8 0.652396 0.263956 0.062566
O O9 0.500000 0.520653 0.500000
O O10 0.211064 0.443266 0.460810
O O11 0.317119 0.698937 0.601340
O O12 0.113095 0.195236 0.277443
O O13 0.000000 0.275367 0.500000
O O14 0.197099 0.703269 0.290843
O O15 0.000000 0.722383 0.500000
O O16 0.143254 0.936330 0.429053
O O17 0.000000 0.659053 0.000000
#
# Coordination Sequence:
#
# PCOD9113150 Si02
#       8
#     2   2   2   2   2   2   1   2
#     4  10  22  40  65  99 139 173 231 295 341 406
#     4  11  26  43  70 102 140 188 233 285 352 417
#     4  11  26  44  63  98 142 178 229 299 348 413
#     4  10  21  42  67  97 132 183 232 284 345 421
#     4  11  22  42  70  99 134 177 229 286 348 421
#     4  11  21  42  72 104 130 179 239 287 342 415
#     4  12  26  44  66 104 144 186 226 294 354 396
#     4  10  20  41  68  96 128 181 235 278 344 424
#
# _framework density 23.620418999999998
#
# number of rings (size 3 to 8) (size 9 to 14) (size 15 to 20)
#    0.000    1.333    4.000    3.200    3.733    1.600 
#    2.400    0.667    0.000    0.000    0.000    0.000 
#    0.000    0.000    0.000    0.000    0.000    0.000 
#
# Total GULP energy -83564.059228 kJ/mol
# GULP energy per Si atom -5570.937282 kJ/mol
# Density = 2.356666 g / cm^3
# Si number density = 23.620419 Si / 1000 Ang^3
#
#
#
# Elastic Constant Matrix: (Units=GPa)
#
#
# Indices 1 2 3 4 5 6 
#
# 1 78.0595 23.8035 5.1994 0.0000 -13.9605 0.0000
# 2 23.8035 109.1252 18.2344 0.0000 -7.4519 0.0000
# 3 5.1994 18.2344 51.0232 0.0000 -20.4756 0.0000
# 4 0.0000 0.0000 0.0000 -6.3742 0.0000 -25.6339
# 5 -13.9605 -7.4519 -20.4756 0.0000 27.2174 0.0000
# 6 0.0000 0.0000 0.0000 -25.6339 0.0000 24.9140
#
#
#
# Elastic Compliance Matrix: (Units=1/GPa)
#
#
# Indices 1 2 3 4 5 6 
#
# 1 0.015278 -0.003255 0.003429 0.000000 0.009525 0.000000
# 2 -0.003255 0.010439 -0.004186 0.000000 -0.001960 0.000000
# 3 0.003429 -0.004186 0.030069 0.000000 0.023234 0.000000
# 4 0.000000 0.000000 0.000000 -0.030536 0.000000 -0.031418
# 5 0.009525 -0.001960 0.023234 0.000000 0.058569 0.000000
# 6 0.000000 0.000000 0.000000 -0.031418 0.000000 0.007812
#
#
# Mechanical properties :
#
#
# Convention : Reuss Voigt Hill
#
# Bulk Modulus (GPa) = 20.93690 36.96472 28.95081
# Shear Modulus (GPa) = 43.26090 21.88281 32.57186
#
# Velocity S-wave (km/s) = 4.28425 3.04704 3.71748
# Velocity P-wave (km/s) = 5.77548 5.29743 5.54161
#
# Compressibility (1/GPa) = 0.04776256
#
# Stress axis : x y z
#
# Youngs Moduli (GPa) = 65.45161 95.79103 33.25674
#
# Poissons Ratio (x) = 0.31182 -0.11403
# Poissons Ratio (y) = 0.21306 0.13921
# Poissons Ratio (z) = -0.22442 0.40096
#
# Static dielectric constant tensor:
#      x y z
#    x 2.022790 0.000000 0.031690 
#    y 0.000000 1.914760 0.000000 
#    z 0.031690 0.000000 1.997070 
# 
# From -- ./inp_files/5580.got.cif
#   From: 2010.05.17/outbox.cif.g08.bks.cpg/sg3_3_cif.got.tgz:5580.got - 2010.06.03 18:33:08.
