data_PCOD9113118
_publ_section_title
;
Structure prediction by ZEFSAII (Michael W. Deem and Ramdas Pophale) SiO2 
 PCOD9113118
Probable space group: P 2
;
_chemical_formula_sum "Si O2"
_cell_formula_units_Z 15
_cell_length_a 10.513066
_cell_length_b 7.766019
_cell_length_c 18.250333
_cell_angle_alpha 90.000000
_cell_angle_beta 29.995859
_cell_angle_gamma 90.000000
_cell_volume 744.927945
_symmetry_space_group_name_H-M "P 2"
_symmetry_group_IT_number 3
_symmetry_cell_setting 'monoclinic'
loop_
_space_group_symop_operation_xyz
x,y,z
-x,y,-z
loop_
_atom_site_type_symbol
_atom_site_label
_atom_site_fract_x
_atom_site_fract_y
_atom_site_fract_z
Si Si1 0.044953 0.993980 0.191970
Si Si2 0.895362 0.335948 0.933320
Si Si3 0.334259 0.747428 0.428876
Si Si4 0.666340 0.667789 0.990229
Si Si5 0.303402 0.073548 0.353172
Si Si6 0.590650 0.405387 0.238037
Si Si7 0.500000 0.870760 0.500000
Si Si8 0.763488 0.870712 0.745515
O O1 0.181170 0.961561 0.203391
O O2 0.745596 0.985617 0.358498
O O3 0.115310 0.157940 0.107054
O O4 0.128105 0.819916 0.108967
O O5 0.181136 0.370637 0.818867
O O6 0.804083 0.488466 0.926702
O O7 0.720773 0.370685 0.093089
O O8 0.416996 0.921427 0.345958
O O9 0.448212 0.583405 0.329458
O O10 0.433462 0.755882 0.462519
O O11 0.027539 0.779886 0.587970
O O12 0.444996 0.719702 0.156478
O O13 0.500000 0.673071 0.000000
O O14 0.359459 0.021695 0.242020
O O15 0.000000 0.068198 0.500000
O O16 0.388196 0.252874 0.342561
#
# Coordination Sequence:
#
# PCOD9113118 Si02
#       8
#     2   2   2   2   2   2   1   2
#     4  10  21  40  62  88 125 163 208 263 320 379
#     4  11  24  39  59  89 124 166 212 258 314 380
#     4  10  21  40  62  88 125 163 208 263 320 379
#     4  10  21  38  60  88 119 158 209 257 313 377
#     4  10  21  38  60  88 119 158 209 257 313 377
#     4  11  24  39  59  89 124 166 212 258 314 380
#     4  10  20  40  66  90 124 168 208 260 326 386
#     4   9  20  39  64  91 122 163 206 266 324 373
#
# _framework density 20.136175000000001
#
# number of rings (size 3 to 8) (size 9 to 14) (size 15 to 20)
#    0.000    1.867    0.000    3.200    0.000    5.333 
#    0.000   23.333    0.000    0.000    0.000    0.000 
#    0.000    0.000    0.000    0.000    0.000    0.000 
#
# Total GULP energy -83504.194447 kJ/mol
# GULP energy per Si atom -5566.946296 kJ/mol
# Density = 2.009034 g / cm^3
# Si number density = 20.136175 Si / 1000 Ang^3
#
#
#
# Elastic Constant Matrix: (Units=GPa)
#
#
# Indices 1 2 3 4 5 6 
#
# 1 78.4339 60.4454 51.6698 0.0000 -6.1441 0.0000
# 2 60.4454 175.7718 57.8636 0.0000 -2.1784 0.0000
# 3 51.6698 57.8636 77.6742 0.0000 5.5807 0.0000
# 4 0.0000 0.0000 0.0000 29.1533 0.0000 4.5341
# 5 -6.1441 -2.1784 5.5807 0.0000 20.5304 0.0000
# 6 0.0000 0.0000 0.0000 4.5341 0.0000 24.1861
#
#
#
# Elastic Compliance Matrix: (Units=1/GPa)
#
#
# Indices 1 2 3 4 5 6 
#
# 1 0.027385 -0.003951 -0.016148 0.000000 0.012166 0.000000
# 2 -0.003951 0.008223 -0.003544 0.000000 0.000654 0.000000
# 3 -0.016148 -0.003544 0.027161 0.000000 -0.012592 0.000000
# 4 0.000000 0.000000 0.000000 0.035332 0.000000 -0.006623
# 5 0.012166 0.000654 -0.012592 0.000000 0.055841 0.000000
# 6 0.000000 0.000000 0.000000 -0.006623 0.000000 0.042588
#
#
# Mechanical properties :
#
#
# Convention : Reuss Voigt Hill
#
# Bulk Modulus (GPa) = 64.58734 74.64861 69.61798
# Shear Modulus (GPa) = 20.08231 25.56737 22.82484
#
# Velocity S-wave (km/s) = 3.16147 3.56718 3.37044
# Velocity P-wave (km/s) = 6.74325 7.35655 7.05656
#
# Compressibility (1/GPa) = 0.01548291
#
# Stress axis : x y z
#
# Youngs Moduli (GPa) = 36.51664 121.61452 36.81744
#
# Poissons Ratio (x) = 0.48046 0.59452
# Poissons Ratio (y) = 0.14427 0.13050
# Poissons Ratio (z) = 0.58966 0.43106
#
# Static dielectric constant tensor:
#      x y z
#    x 1.798260 0.000000 0.153080 
#    y 0.000000 1.679330 0.000000 
#    z 0.153080 0.000000 1.967870 
# 
# From -- ./inp_files/15882.got.cif
#   From: 2010.05.17/outbox.cif.g08.bks.cpg/sg3_8_cif.got.tgz:15882.got - 2010.06.03 18:33:08.
