data_PCOD9113757
_publ_section_title
;
Structure prediction by ZEFSAII (Michael W. Deem and Ramdas Pophale) SiO2 
 PCOD9113757
Probable space group: P 2
;
_chemical_formula_sum "Si O2"
_cell_formula_units_Z 12
_cell_length_a 10.315879
_cell_length_b 5.184237
_cell_length_c 17.691918
_cell_angle_alpha 90.000000
_cell_angle_beta 148.012557
_cell_angle_gamma 90.000000
_cell_volume 501.214186
_symmetry_space_group_name_H-M "P 2"
_symmetry_group_IT_number 3
_symmetry_cell_setting 'monoclinic'
loop_
_space_group_symop_operation_xyz
x,y,z
-x,y,-z
loop_
_atom_site_type_symbol
_atom_site_label
_atom_site_fract_x
_atom_site_fract_y
_atom_site_fract_z
Si Si1 0.441733 0.918460 0.810696
Si Si2 0.629088 0.500555 0.483231
Si Si3 0.971337 0.138084 0.126250
Si Si4 0.521916 0.998688 0.678704
Si Si5 0.365766 0.525377 0.996522
Si Si6 0.061998 0.874295 0.738693
O O1 0.205021 0.010308 0.740725
O O2 0.418968 0.966645 0.711594
O O3 0.473713 0.620226 0.853749
O O4 0.707237 0.028413 0.968202
O O5 0.500000 0.470048 0.500000
O O6 0.621471 0.223673 0.437959
O O7 0.884887 0.649407 0.622017
O O8 0.486889 0.719439 0.364988
O O9 0.891021 0.431294 0.096445
O O10 0.194534 0.085424 0.181937
O O11 0.051541 0.048790 0.250742
O O12 0.272452 0.736053 0.890832
O O13 0.500000 0.341926 0.000000
#
# Coordination Sequence:
#
# PCOD9113757 Si02
#       6
#     2   2   2   2   2   2
#     4  10  24  44  66 111 143 183 236 313 377 433
#     4  12  26  49  73 104 141 200 250 294 348 448
#     4  11  21  42  72 106 140 190 239 308 362 441
#     4  12  28  45  73 106 149 189 242 298 372 429
#     4   9  19  38  72 105 137 181 237 298 364 428
#     4  10  22  43  72 101 143 185 247 292 357 438
#
# _framework density 23.941863000000001
#
# number of rings (size 3 to 8) (size 9 to 14) (size 15 to 20)
#    0.000    1.333    1.667    4.500    7.000    0.667 
#    0.000    1.667    0.000    0.000    0.000    0.000 
#    0.000    0.000    0.000    0.000    0.000    0.000 
#
# Total GULP energy -66934.941066 kJ/mol
# GULP energy per Si atom -5577.911755 kJ/mol
# Density = 2.388737 g / cm^3
# Si number density = 23.941863 Si / 1000 Ang^3
#
#
#
# Elastic Constant Matrix: (Units=GPa)
#
#
# Indices 1 2 3 4 5 6 
#
# 1 151.6395 37.9715 33.2710 0.0000 -32.7111 0.0000
# 2 37.9715 66.1584 13.8924 0.0000 -21.9971 0.0000
# 3 33.2710 13.8924 69.7444 0.0000 -7.4835 0.0000
# 4 0.0000 0.0000 0.0000 41.3282 0.0000 8.1819
# 5 -32.7111 -21.9971 -7.4835 0.0000 49.6867 0.0000
# 6 0.0000 0.0000 0.0000 8.1819 0.0000 23.5164
#
#
#
# Elastic Compliance Matrix: (Units=1/GPa)
#
#
# Indices 1 2 3 4 5 6 
#
# 1 0.008951 -0.003124 -0.003216 0.000000 0.004025 0.000000
# 2 -0.003124 0.019342 -0.001692 0.000000 0.006252 0.000000
# 3 -0.003216 -0.001692 0.016163 0.000000 -0.000432 0.000000
# 4 0.000000 0.000000 0.000000 0.025986 0.000000 -0.009041
# 5 0.004025 0.006252 -0.000432 0.000000 0.025479 0.000000
# 6 0.000000 0.000000 0.000000 -0.009041 0.000000 0.045669
#
#
# Mechanical properties :
#
#
# Convention : Reuss Voigt Hill
#
# Bulk Modulus (GPa) = 35.21982 50.86803 43.04393
# Shear Modulus (GPa) = 29.91922 36.40008 33.15965
#
# Velocity S-wave (km/s) = 3.53889 3.90340 3.72561
# Velocity P-wave (km/s) = 5.60721 6.45043 6.04354
#
# Compressibility (1/GPa) = 0.02839310
#
# Stress axis : x y z
#
# Youngs Moduli (GPa) = 111.72371 51.70123 61.87054
#
# Poissons Ratio (x) = 0.16149 0.19896
# Poissons Ratio (y) = 0.34897 0.10468
# Poissons Ratio (z) = 0.35927 0.08747
#
# Static dielectric constant tensor:
#      x y z
#    x 2.065420 0.000000 0.070080 
#    y 0.000000 2.247850 0.000000 
#    z 0.070080 0.000000 1.927580 
# 
# From -- ./inp_files/6692.got.cif
#   From: 2010.05.17/outbox.cif.g08.bks.cpg/sg3_4_cif.got.tgz:6692.got - 2010.06.03 18:33:08.
