data_PCOD9113566
_publ_section_title
;
Structure prediction by ZEFSAII (Michael W. Deem and Ramdas Pophale) SiO2 
 PCOD9113566
Probable space group: P 2
;
_chemical_formula_sum "Si O2"
_cell_formula_units_Z 14
_cell_length_a 15.629972
_cell_length_b 6.212670
_cell_length_c 8.998515
_cell_angle_alpha 90.000000
_cell_angle_beta 50.339973
_cell_angle_gamma 90.000000
_cell_volume 672.683275
_symmetry_space_group_name_H-M "P 2"
_symmetry_group_IT_number 3
_symmetry_cell_setting 'monoclinic'
loop_
_space_group_symop_operation_xyz
x,y,z
-x,y,-z
loop_
_atom_site_type_symbol
_atom_site_label
_atom_site_fract_x
_atom_site_fract_y
_atom_site_fract_z
Si Si1 0.587762 0.290730 0.155296
Si Si2 0.022176 0.797862 0.144212
Si Si3 0.013027 0.194150 0.644015
Si Si4 0.500000 0.997257 0.000000
Si Si5 0.591532 0.677098 0.648203
Si Si6 0.186689 0.535332 0.132281
Si Si7 0.820513 0.555077 0.523441
Si Si8 0.500000 0.970146 0.500000
O O1 0.494459 0.477967 0.256668
O O2 0.565157 0.125013 0.314058
O O3 0.705144 0.408835 0.039023
O O4 0.577335 0.153199 0.014352
O O5 0.140460 0.715618 0.073087
O O6 0.922022 0.696914 0.351260
O O7 0.012221 0.048847 0.187910
O O8 0.000000 0.738884 0.000000
O O9 0.131061 0.312370 0.527718
O O10 0.000000 0.072568 0.500000
O O11 0.917455 0.373412 0.739920
O O12 0.562418 0.841619 0.814774
O O13 0.713793 0.586368 0.540334
O O14 0.576809 0.814809 0.514605
O O15 0.207754 0.618226 0.275812
#
# Coordination Sequence:
#
# PCOD9113566 Si02
#       8
#     2   2   2   1   2   2   2   1
#     4  11  23  42  65  94 132 170 216 272 325 386
#     4  11  24  39  60  91 126 163 203 254 320 389
#     4   9  20  39  62  88 120 160 208 260 314 375
#     4  10  22  38  64 102 126 164 224 268 328 390
#     4  11  23  42  65  93 131 170 215 272 326 385
#     4  10  22  41  65  90 119 161 210 262 315 372
#     4  10  22  41  65  90 119 161 211 262 315 372
#     4  10  26  42  60  94 132 178 218 256 330 400
#
# _framework density 20.812170999999999
#
# number of rings (size 3 to 8) (size 9 to 14) (size 15 to 20)
#    0.000    1.714    0.000    4.714    0.000   13.714 
#    0.000    0.000    0.000    0.000    0.000    0.000 
#    0.000    0.000    0.000    0.000    0.000    0.000 
#
# Total GULP energy -78221.344853 kJ/mol
# GULP energy per Si atom -5587.238918 kJ/mol
# Density = 2.076480 g / cm^3
# Si number density = 20.812171 Si / 1000 Ang^3
#
#
#
# Elastic Constant Matrix: (Units=GPa)
#
#
# Indices 1 2 3 4 5 6 
#
# 1 165.4119 66.2866 66.3561 0.0000 -7.2904 0.0000
# 2 66.2866 83.6176 32.8783 0.0000 5.9376 0.0000
# 3 66.3561 32.8783 49.5488 0.0000 3.6119 0.0000
# 4 0.0000 0.0000 0.0000 8.3710 0.0000 -11.8664
# 5 -7.2904 5.9376 3.6119 0.0000 39.9455 0.0000
# 6 0.0000 0.0000 0.0000 -11.8664 0.0000 16.0305
#
#
#
# Elastic Compliance Matrix: (Units=1/GPa)
#
#
# Indices 1 2 3 4 5 6 
#
# 1 0.015629 -0.005932 -0.017381 0.000000 0.005306 0.000000
# 2 -0.005932 0.018516 -0.004089 0.000000 -0.003465 0.000000
# 3 -0.017381 -0.004089 0.046667 0.000000 -0.006784 0.000000
# 4 0.000000 0.000000 0.000000 -2.421547 0.000000 -1.792521
# 5 0.005306 -0.003465 -0.006784 0.000000 0.027131 0.000000
# 6 0.000000 0.000000 0.000000 -1.792521 0.000000 -1.264511
#
#
# Mechanical properties :
#
#
# Convention : Reuss Voigt Hill
#
# Bulk Modulus (GPa) = 38.45126 69.95780 54.20453
# Shear Modulus (GPa) = -1.42262 21.73988 10.15863
#
# Velocity S-wave (km/s) = -0.82767 3.23550 2.21172
# Velocity P-wave (km/s) = 4.19549 6.90252 5.71169
#
# Compressibility (1/GPa) = 0.02600695
#
# Stress axis : x y z
#
# Youngs Moduli (GPa) = 63.98272 54.00773 21.42858
#
# Poissons Ratio (x) = 0.32040 0.37245
# Poissons Ratio (y) = 0.37957 0.08762
# Poissons Ratio (z) = 1.11209 0.22083
#
# Static dielectric constant tensor:
#      x y z
#    x 1.740790 0.000000 0.049780 
#    y 0.000000 1.774860 0.000000 
#    z 0.049780 0.000000 1.773260 
# 
# From -- ./inp_files/6677.got.cif
#   From: 2010.05.17/outbox.cif.g08.bks.cpg/sg3_4_cif.got.tgz:6677.got - 2010.06.03 18:33:08.
