data_PCOD9113522
_publ_section_title
;
Structure prediction by ZEFSAII (Michael W. Deem and Ramdas Pophale) SiO2 
 PCOD9113522
Probable space group: P 2
;
_chemical_formula_sum "Si O2"
_cell_formula_units_Z 12
_cell_length_a 16.148799
_cell_length_b 4.769028
_cell_length_c 10.779586
_cell_angle_alpha 90.000000
_cell_angle_beta 145.965229
_cell_angle_gamma 90.000000
_cell_volume 464.648267
_symmetry_space_group_name_H-M "P 2"
_symmetry_group_IT_number 3
_symmetry_cell_setting 'monoclinic'
loop_
_space_group_symop_operation_xyz
x,y,z
-x,y,-z
loop_
_atom_site_type_symbol
_atom_site_label
_atom_site_fract_x
_atom_site_fract_y
_atom_site_fract_z
Si Si1 0.190628 0.326010 0.495488
Si Si2 0.833677 0.455603 0.805733
Si Si3 0.616357 0.855075 0.242324
Si Si4 0.461780 0.795281 0.582293
Si Si5 0.918728 0.996151 0.273991
Si Si6 0.753900 0.448996 0.971633
O O1 0.187290 0.270828 0.343079
O O2 0.241210 0.647641 0.570817
O O3 0.041157 0.199933 0.363806
O O4 0.319446 0.150167 0.718872
O O5 0.703217 0.680147 0.640376
O O6 0.808607 0.318656 0.908441
O O7 0.000000 0.571056 0.000000
O O8 0.541618 0.909988 0.283003
O O9 0.500000 0.742974 0.000000
O O10 0.500000 0.950701 0.500000
O O11 0.585766 0.550574 0.747165
O O12 0.782530 0.216237 0.111741
O O13 0.000000 0.900165 0.500000
O O14 0.853336 0.725370 0.123127
#
# Coordination Sequence:
#
# PCOD9113522 Si02
#       6
#     2   2   2   2   2   2
#     4  11  25  45  69 109 136 184 245 295 349 429
#     4  10  21  46  73 103 136 183 236 299 352 420
#     4  11  25  44  74 100 144 189 236 298 359 431
#     4   9  23  44  70 103 142 183 238 294 361 424
#     4  12  27  44  72 102 146 191 236 294 351 431
#     4  11  25  46  71 103 142 189 234 295 360 420
#
# _framework density 25.825987000000001
#
# number of rings (size 3 to 8) (size 9 to 14) (size 15 to 20)
#    0.000    1.333    1.667    2.000    7.000    6.667 
#    0.000    7.500    0.000    0.000    0.000    0.000 
#    0.000    0.000    0.000    0.000    0.000    0.000 
#
# Total GULP energy -67069.518798 kJ/mol
# GULP energy per Si atom -5589.126567 kJ/mol
# Density = 2.576721 g / cm^3
# Si number density = 25.825987 Si / 1000 Ang^3
#
#
#
# Elastic Constant Matrix: (Units=GPa)
#
#
# Indices 1 2 3 4 5 6 
#
# 1 111.7643 16.8912 45.1826 0.0000 4.0760 0.0000
# 2 16.8912 94.4306 30.9876 0.0000 7.1194 0.0000
# 3 45.1826 30.9876 160.2952 0.0000 8.9409 0.0000
# 4 0.0000 0.0000 0.0000 42.9547 0.0000 10.4147
# 5 4.0760 7.1194 8.9409 0.0000 48.0873 0.0000
# 6 0.0000 0.0000 0.0000 10.4147 0.0000 14.1388
#
#
#
# Elastic Compliance Matrix: (Units=1/GPa)
#
#
# Indices 1 2 3 4 5 6 
#
# 1 0.010178 -0.000925 -0.002677 0.000000 -0.000228 0.000000
# 2 -0.000925 0.011470 -0.001886 0.000000 -0.001269 0.000000
# 3 -0.002677 -0.001886 0.007406 0.000000 -0.000871 0.000000
# 4 0.000000 0.000000 0.000000 0.028342 0.000000 -0.020877
# 5 -0.000228 -0.001269 -0.000871 0.000000 0.021165 0.000000
# 6 0.000000 0.000000 0.000000 -0.020877 0.000000 0.086106
#
#
# Mechanical properties :
#
#
# Convention : Reuss Voigt Hill
#
# Bulk Modulus (GPa) = 55.31602 61.40144 58.35873
# Shear Modulus (GPa) = 27.52267 39.26472 33.39369
#
# Velocity S-wave (km/s) = 3.26804 3.90341 3.59977
# Velocity P-wave (km/s) = 5.97540 6.64395 6.31852
#
# Compressibility (1/GPa) = 0.01807795
#
# Stress axis : x y z
#
# Youngs Moduli (GPa) = 98.25268 87.18602 135.02027
#
# Poissons Ratio (x) = 0.08063 0.36150
# Poissons Ratio (y) = 0.09086 0.25462
# Poissons Ratio (z) = 0.26306 0.16442
#
# Static dielectric constant tensor:
#      x y z
#    x 2.062070 0.000000 -0.003500 
#    y 0.000000 1.954660 0.000000 
#    z -0.003500 0.000000 2.044570 
# 
# From -- ./inp_files/12384.got.cif
#   From: 2010.05.17/outbox.cif.g08.bks.cpg/sg3_7_cif.got.tgz:12384.got - 2010.06.03 18:33:08.
