data_PCOD9113059
_publ_section_title
;
Structure prediction by ZEFSAII (Michael W. Deem and Ramdas Pophale) SiO2 
 PCOD9113059
Probable space group: P 2
;
_chemical_formula_sum "Si O2"
_cell_formula_units_Z 14
_cell_length_a 14.445565
_cell_length_b 9.198343
_cell_length_c 14.613241
_cell_angle_alpha 90.000000
_cell_angle_beta 159.688829
_cell_angle_gamma 90.000000
_cell_volume 674.013270
_symmetry_space_group_name_H-M "P 2"
_symmetry_group_IT_number 3
_symmetry_cell_setting 'monoclinic'
loop_
_space_group_symop_operation_xyz
x,y,z
-x,y,-z
loop_
_atom_site_type_symbol
_atom_site_label
_atom_site_fract_x
_atom_site_fract_y
_atom_site_fract_z
Si Si1 0.384866 0.808840 0.980839
Si Si2 0.500000 0.967992 0.500000
Si Si3 0.876447 0.996589 0.478397
Si Si4 0.183550 0.325360 0.000237
Si Si5 0.661519 0.655466 0.876954
Si Si6 0.675665 0.143884 0.477106
Si Si7 0.209465 0.713223 0.306712
Si Si8 0.000000 0.448948 0.000000
O O1 0.425974 0.716039 0.108327
O O2 0.583606 0.944939 0.177193
O O3 0.500000 0.726656 0.000000
O O4 0.085455 0.864375 0.687851
O O5 0.266395 0.846303 0.291459
O O6 0.566467 0.058123 0.467631
O O7 0.829568 0.062684 0.536511
O O8 0.000000 0.072923 0.500000
O O9 0.258121 0.486831 0.037063
O O10 0.412366 0.212998 0.188117
O O11 0.184237 0.348045 0.110206
O O12 0.889731 0.266753 0.705193
O O13 0.440899 0.687812 0.595623
O O14 0.930890 0.738310 0.098495
O O15 0.172354 0.561009 0.219546
#
# Coordination Sequence:
#
# PCOD9113059 Si02
#       8
#     2   1   2   2   2   2   2   1
#     4  10  20  38  66  93 116 148 194 259 318 354
#     4  12  24  38  58  90 120 148 196 248 300 350
#     4  10  22  41  64  89 120 158 200 247 307 366
#     4  11  24  39  58  82 117 164 198 235 289 352
#     4  11  22  41  61  88 121 153 204 251 301 366
#     4  12  25  39  58  86 122 161 200 240 289 356
#     4  11  24  37  63  88 116 158 196 255 312 350
#     4  10  22  42  60  84 120 160 208 244 298 370
#
# _framework density 20.771104999999999
#
# number of rings (size 3 to 8) (size 9 to 14) (size 15 to 20)
#    0.000    1.143    0.000    7.714    0.000    5.714 
#    0.000    1.429    0.000    0.000    0.000    0.000 
#    0.000    0.000    0.000    0.000    0.000    0.000 
#
# Total GULP energy -78010.030394 kJ/mol
# GULP energy per Si atom -5572.145028 kJ/mol
# Density = 2.072383 g / cm^3
# Si number density = 20.771105 Si / 1000 Ang^3
#
#
#
# Elastic Constant Matrix: (Units=GPa)
#
#
# Indices 1 2 3 4 5 6 
#
# 1 176.0292 47.0864 28.8938 0.0000 2.5766 0.0000
# 2 47.0864 55.7023 23.5509 0.0000 5.0083 0.0000
# 3 28.8938 23.5509 112.4156 0.0000 2.0732 0.0000
# 4 0.0000 0.0000 0.0000 57.8400 0.0000 20.3527
# 5 2.5766 5.0083 2.0732 0.0000 31.2867 0.0000
# 6 0.0000 0.0000 0.0000 20.3527 0.0000 31.0829
#
#
#
# Elastic Compliance Matrix: (Units=1/GPa)
#
#
# Indices 1 2 3 4 5 6 
#
# 1 0.007388 -0.006007 -0.000648 0.000000 0.000396 0.000000
# 2 -0.006007 0.024845 -0.003601 0.000000 -0.003244 0.000000
# 3 -0.000648 -0.003601 0.009817 0.000000 -0.000021 0.000000
# 4 0.000000 0.000000 0.000000 0.022465 0.000000 -0.014710
# 5 0.000396 -0.003244 -0.000021 0.000000 0.032450 0.000000
# 6 0.000000 0.000000 0.000000 -0.014710 0.000000 0.041804
#
#
# Mechanical properties :
#
#
# Convention : Reuss Voigt Hill
#
# Bulk Modulus (GPa) = 46.43013 60.35660 53.39337
# Shear Modulus (GPa) = 30.03702 40.34963 35.19333
#
# Velocity S-wave (km/s) = 3.80688 4.41226 4.12070
# Velocity P-wave (km/s) = 6.45948 7.42148 6.95713
#
# Compressibility (1/GPa) = 0.02153774
#
# Stress axis : x y z
#
# Youngs Moduli (GPa) = 135.34929 40.24982 101.86544
#
# Poissons Ratio (x) = 0.24179 0.06599
# Poissons Ratio (y) = 0.81307 0.36683
# Poissons Ratio (z) = 0.08768 0.14494
#
# Static dielectric constant tensor:
#      x y z
#    x 1.802730 0.000000 -0.097670 
#    y 0.000000 1.752910 0.000000 
#    z -0.097670 0.000000 1.513260 
# 
# From -- ./inp_files/14031.got.cif
#   From: 2010.05.17/outbox.cif.g08.bks.cpg/sg3_8_cif.got.tgz:14031.got - 2010.06.03 18:33:08.
