data_PCOD9113466
_publ_section_title
;
Structure prediction by ZEFSAII (Michael W. Deem and Ramdas Pophale) SiO2 
 PCOD9113466
Probable space group: P 2
;
_chemical_formula_sum "Si O2"
_cell_formula_units_Z 9
_cell_length_a 13.151155
_cell_length_b 5.318446
_cell_length_c 5.275036
_cell_angle_alpha 90.000000
_cell_angle_beta 67.405122
_cell_angle_gamma 90.000000
_cell_volume 340.636231
_symmetry_space_group_name_H-M "P 2"
_symmetry_group_IT_number 3
_symmetry_cell_setting 'monoclinic'
loop_
_space_group_symop_operation_xyz
x,y,z
-x,y,-z
loop_
_atom_site_type_symbol
_atom_site_label
_atom_site_fract_x
_atom_site_fract_y
_atom_site_fract_z
Si Si1 0.619529 0.713380 0.255881
Si Si2 0.500000 0.046809 0.000000
Si Si3 0.925023 0.885851 0.817516
Si Si4 0.128350 0.386151 0.948580
Si Si5 0.676025 0.213942 0.448321
O O1 0.500000 0.725908 0.500000
O O2 0.592929 0.857258 0.022151
O O3 0.649199 0.419485 0.251295
O O4 0.685364 0.923471 0.356831
O O5 0.426043 0.215849 0.260801
O O6 0.847329 0.646270 0.932605
O O7 0.000000 0.852337 0.500000
O O8 0.862121 0.148822 0.875168
O O9 0.000000 0.902861 0.000000
O O10 0.200573 0.320290 0.630734
O O11 0.000000 0.407743 0.000000
#
# Coordination Sequence:
#
# PCOD9113466 Si02
#       5
#     2   1   2   2   2
#     4  10  22  41  68  99 136 178 233 295 350 430
#     4  10  24  46  74 100 146 190 232 306 370 426
#     4  10  21  42  68  93 136 186 233 290 353 423
#     4  10  22  43  67 100 141 178 233 294 350 430
#     4  11  23  43  68 106 137 184 242 286 360 432
#
# _framework density 26.421146
#
# number of rings (size 3 to 8) (size 9 to 14) (size 15 to 20)
#    0.000    1.778    0.000    4.000    0.000    8.000 
#   24.000    0.000    0.000    0.000    0.000    0.000 
#    0.000    0.000    0.000    0.000    0.000    0.000 
#
# Total GULP energy -50188.041144 kJ/mol
# GULP energy per Si atom -5576.449016 kJ/mol
# Density = 2.636101 g / cm^3
# Si number density = 26.421146 Si / 1000 Ang^3
#
#
#
# Elastic Constant Matrix: (Units=GPa)
#
#
# Indices 1 2 3 4 5 6 
#
# 1 44.3033 5.9426 38.7455 0.0000 -15.4069 0.0000
# 2 5.9426 237.0912 79.8248 0.0000 -20.8188 0.0000
# 3 38.7455 79.8248 166.8848 0.0000 -17.8541 0.0000
# 4 0.0000 0.0000 0.0000 27.9311 0.0000 -32.9864
# 5 -15.4069 -20.8188 -17.8541 0.0000 43.5367 0.0000
# 6 0.0000 0.0000 0.0000 -32.9864 0.0000 16.7631
#
#
#
# Elastic Compliance Matrix: (Units=1/GPa)
#
#
# Indices 1 2 3 4 5 6 
#
# 1 0.032295 0.002631 -0.007739 0.000000 0.009513 0.000000
# 2 0.002631 0.005335 -0.002918 0.000000 0.002286 0.000000
# 3 -0.007739 -0.002918 0.009144 0.000000 -0.000384 0.000000
# 4 0.000000 0.000000 0.000000 -0.027042 0.000000 -0.053213
# 5 0.009513 0.002286 -0.000384 0.000000 0.027271 0.000000
# 6 0.000000 0.000000 0.000000 -0.053213 0.000000 -0.045058
#
#
# Mechanical properties :
#
#
# Convention : Reuss Voigt Hill
#
# Bulk Modulus (GPa) = 32.54952 77.47835 55.01394
# Shear Modulus (GPa) = 177.07139 39.23060 108.15099
#
# Velocity S-wave (km/s) = 8.19538 3.85751 6.40487
# Velocity P-wave (km/s) = 10.09449 7.01631 8.69273
#
# Compressibility (1/GPa) = 0.03072242
#
# Stress axis : x y z
#
# Youngs Moduli (GPa) = 30.96450 187.43879 109.36568
#
# Poissons Ratio (x) = -0.49323 0.84636
# Poissons Ratio (y) = -0.08148 0.31916
# Poissons Ratio (z) = 0.23963 0.54700
#
# Static dielectric constant tensor:
#      x y z
#    x 3.476690 0.000000 0.660150 
#    y 0.000000 2.127700 0.000000 
#    z 0.660150 0.000000 2.505990 
# 
# From -- ./inp_files/1856.got.cif
#   From: 2010.05.17/outbox.cif.g08.bks.cpg/sg3_1_cif.got.tgz:1856.got - 2010.06.03 18:33:08.
