data_PCOD9113525
_publ_section_title
;
Structure prediction by ZEFSAII (Michael W. Deem and Ramdas Pophale) SiO2 
 PCOD9113525
Probable space group: P 2
;
_chemical_formula_sum "Si O2"
_cell_formula_units_Z 16
_cell_length_a 9.026897
_cell_length_b 6.882470
_cell_length_c 13.063794
_cell_angle_alpha 90.000000
_cell_angle_beta 50.322683
_cell_angle_gamma 90.000000
_cell_volume 624.664396
_symmetry_space_group_name_H-M "P 2"
_symmetry_group_IT_number 3
_symmetry_cell_setting 'monoclinic'
loop_
_space_group_symop_operation_xyz
x,y,z
-x,y,-z
loop_
_atom_site_type_symbol
_atom_site_label
_atom_site_fract_x
_atom_site_fract_y
_atom_site_fract_z
Si Si1 0.509814 0.222670 0.877246
Si Si2 0.201140 0.827733 0.369525
Si Si3 0.443479 0.646042 0.908566
Si Si4 0.650520 0.151467 0.531001
Si Si5 0.310408 0.898736 0.826808
Si Si6 0.083313 0.169036 0.277826
Si Si7 0.068392 0.251387 0.858394
Si Si8 0.412091 0.522785 0.650767
O O1 0.397803 0.421810 0.915156
O O2 0.733323 0.282002 0.760026
O O3 0.439967 0.057222 0.832224
O O4 0.500000 0.155109 0.000000
O O5 0.370860 0.701616 0.243965
O O6 0.738714 0.766101 0.053093
O O7 0.000000 0.735766 0.500000
O O8 0.127454 0.960688 0.307807
O O9 0.379611 0.730825 0.717989
O O10 0.500000 0.682291 0.000000
O O11 0.500000 0.108673 0.500000
O O12 0.864076 0.215851 0.402713
O O13 0.552911 0.343570 0.624706
O O14 0.708770 0.967591 0.578876
O O15 0.173497 0.043538 0.827835
O O16 0.091569 0.198930 0.153454
O O17 0.207694 0.415493 0.751800
O O18 0.000000 0.309264 0.000000
O O19 0.500000 0.561076 0.500000
#
# Coordination Sequence:
#
# PCOD9113525 Si02
#       8
#     2   2   2   2   2   2   2   2
#     4  11  25  49  77 110 159 209 256 336 413 482
#     4  10  23  44  72 117 156 206 264 325 398 470
#     4  11  25  46  77 111 150 203 265 320 396 482
#     4  10  21  47  81 111 162 208 264 328 404 484
#     4  12  26  47  81 112 157 208 271 325 406 479
#     4  11  23  45  76 114 157 207 260 329 402 479
#     4  12  27  48  81 119 166 212 268 339 411 482
#     4  11  25  52  80 115 151 214 273 327 404 479
#
# _framework density 25.613755000000001
#
# number of rings (size 3 to 8) (size 9 to 14) (size 15 to 20)
#    0.000    1.000    3.750    2.625    3.500    2.000 
#    9.000    0.000    0.000    0.750    0.000    0.000 
#    0.000    0.000    0.000    0.000    0.000    0.000 
#
# Total GULP energy -89206.480384 kJ/mol
# GULP energy per Si atom -5575.405024 kJ/mol
# Density = 2.555546 g / cm^3
# Si number density = 25.613755 Si / 1000 Ang^3
#
#
#
# Elastic Constant Matrix: (Units=GPa)
#
#
# Indices 1 2 3 4 5 6 
#
# 1 148.3037 56.0824 42.4462 0.0000 9.4483 0.0000
# 2 56.0824 141.8494 46.9847 0.0000 3.5975 0.0000
# 3 42.4462 46.9847 126.2428 0.0000 7.7557 0.0000
# 4 0.0000 0.0000 0.0000 27.5529 0.0000 -8.1198
# 5 9.4483 3.5975 7.7557 0.0000 36.8889 0.0000
# 6 0.0000 0.0000 0.0000 -8.1198 0.0000 16.9008
#
#
#
# Elastic Compliance Matrix: (Units=1/GPa)
#
#
# Indices 1 2 3 4 5 6 
#
# 1 0.008348 -0.002696 -0.001711 0.000000 -0.001516 0.000000
# 2 -0.002696 0.008912 -0.002431 0.000000 0.000332 0.000000
# 3 -0.001711 -0.002431 0.009482 0.000000 -0.001318 0.000000
# 4 0.000000 0.000000 0.000000 0.042280 0.000000 0.020313
# 5 -0.001516 0.000332 -0.001318 0.000000 0.027741 0.000000
# 6 0.000000 0.000000 0.000000 0.020313 0.000000 0.068928
#
#
# Mechanical properties :
#
#
# Convention : Reuss Voigt Hill
#
# Bulk Modulus (GPa) = 76.52066 78.60251 77.56158
# Shear Modulus (GPa) = 27.21490 34.32737 30.77113
#
# Velocity S-wave (km/s) = 3.26315 3.66484 3.46981
# Velocity P-wave (km/s) = 6.64359 6.97583 6.81174
#
# Compressibility (1/GPa) = 0.01306837
#
# Stress axis : x y z
#
# Youngs Moduli (GPa) = 119.78253 112.20456 105.46120
#
# Poissons Ratio (x) = 0.30246 0.18040
# Poissons Ratio (y) = 0.32289 0.25638
# Poissons Ratio (z) = 0.20490 0.27277
#
# Static dielectric constant tensor:
#      x y z
#    x 2.119850 0.000000 -0.061710 
#    y 0.000000 1.999870 0.000000 
#    z -0.061710 0.000000 2.206850 
# 
# From -- ./inp_files/10529.got.cif
#   From: 2010.05.17/outbox.cif.g08.bks.cpg/sg3_6_cif.got.tgz:10529.got - 2010.06.03 18:33:08.
