data_PCOD9113541
_publ_section_title
;
Structure prediction by ZEFSAII (Michael W. Deem and Ramdas Pophale) SiO2 
 PCOD9113541
Probable space group: P 2
;
_chemical_formula_sum "Si O2"
_cell_formula_units_Z 11
_cell_length_a 13.083626
_cell_length_b 6.160538
_cell_length_c 7.844329
_cell_angle_alpha 90.000000
_cell_angle_beta 46.735380
_cell_angle_gamma 90.000000
_cell_volume 460.416540
_symmetry_space_group_name_H-M "P 2"
_symmetry_group_IT_number 3
_symmetry_cell_setting 'monoclinic'
loop_
_space_group_symop_operation_xyz
x,y,z
-x,y,-z
loop_
_atom_site_type_symbol
_atom_site_label
_atom_site_fract_x
_atom_site_fract_y
_atom_site_fract_z
Si Si1 0.707130 0.456090 0.702459
Si Si2 0.000000 0.391981 0.500000
Si Si3 0.724693 0.493343 0.294654
Si Si4 0.616865 0.762517 0.109837
Si Si5 0.500000 0.072415 0.000000
Si Si6 0.147452 0.101189 0.054316
Si Si7 0.000000 0.791732 0.000000
O O1 0.875382 0.493909 0.529182
O O2 0.664415 0.487902 0.554445
O O3 0.646552 0.618298 0.910931
O O4 0.637218 0.225873 0.834017
O O5 0.909228 0.257061 0.736536
O O6 0.863714 0.642322 0.150140
O O7 0.627549 0.604293 0.261190
O O8 0.776326 0.256222 0.171855
O O9 0.498435 0.927335 0.174925
O O10 0.743607 0.927711 0.001171
O O11 0.016982 0.960379 0.135369
#
# Coordination Sequence:
#
# PCOD9113541 Si02
#       7
#     2   1   2   2   1   2   1
#     4  12  27  47  78 107 149 196 245 308 369 436
#     4  12  22  42  78 110 150 188 240 314 366 428
#     4  11  24  46  70 112 146 192 245 306 361 439
#     4  11  25  48  73 107 146 194 249 300 366 440
#     4  12  26  54  72 102 154 200 246 300 370 444
#     4  11  23  42  68 111 151 185 238 305 365 434
#     4  10  22  36  68 104 156 186 238 292 372 436
#
# _framework density 23.891411000000002
#
# number of rings (size 3 to 8) (size 9 to 14) (size 15 to 20)
#    0.000    0.727    3.636    3.273    5.091    2.909 
#    0.000   13.636    0.000    0.000    0.000    0.000 
#    0.000    0.000    0.000    0.000    0.000    0.000 
#
# Total GULP energy -61446.846782 kJ/mol
# GULP energy per Si atom -5586.076980 kJ/mol
# Density = 2.383703 g / cm^3
# Si number density = 23.891411 Si / 1000 Ang^3
#
#
#
# Elastic Constant Matrix: (Units=GPa)
#
#
# Indices 1 2 3 4 5 6 
#
# 1 178.3763 63.7440 45.0410 0.0000 9.1275 0.0000
# 2 63.7440 113.1979 36.7905 0.0000 14.7182 0.0000
# 3 45.0410 36.7905 96.6381 0.0000 26.0638 0.0000
# 4 0.0000 0.0000 0.0000 -174.6171 0.0000 -188.6186
# 5 9.1275 14.7182 26.0638 0.0000 51.2188 0.0000
# 6 0.0000 0.0000 0.0000 -188.6186 0.0000 -155.4463
#
#
#
# Elastic Compliance Matrix: (Units=1/GPa)
#
#
# Indices 1 2 3 4 5 6 
#
# 1 0.007415 -0.003526 -0.002353 0.000000 0.000889 0.000000
# 2 -0.003526 0.011812 -0.002442 0.000000 -0.001523 0.000000
# 3 -0.002353 -0.002442 0.013993 0.000000 -0.005999 0.000000
# 4 0.000000 0.000000 0.000000 0.018432 0.000000 -0.022366
# 5 0.000889 -0.001523 -0.005999 0.000000 0.022856 0.000000
# 6 0.000000 0.000000 0.000000 -0.022366 0.000000 0.020705
#
#
# Mechanical properties :
#
#
# Convention : Reuss Voigt Hill
#
# Bulk Modulus (GPa) = 60.33211 75.48479 67.90845
# Shear Modulus (GPa) = 42.59584 -39.59314 1.50135
#
# Velocity S-wave (km/s) = 4.22701 -4.07530 0.79358
# Velocity P-wave (km/s) = 7.00935 3.08535 5.41527
#
# Compressibility (1/GPa) = 0.01657492
#
# Stress axis : x y z
#
# Youngs Moduli (GPa) = 134.86166 84.66212 71.46618
#
# Poissons Ratio (x) = 0.29854 0.16819
# Poissons Ratio (y) = 0.47556 0.17455
# Poissons Ratio (z) = 0.31738 0.20679
#
# Static dielectric constant tensor:
#      x y z
#    x 2.030400 0.000000 -0.030980 
#    y 0.000000 1.889820 0.000000 
#    z -0.030980 0.000000 2.241410 
# 
# From -- ./inp_files/6432.got.cif
#   From: 2010.05.17/outbox.cif.g08.bks.cpg/sg3_4_cif.got.tgz:6432.got - 2010.06.03 18:33:08.
