data_PCOD9113045
_publ_section_title
;
Structure prediction by ZEFSAII (Michael W. Deem and Ramdas Pophale) SiO2 
 PCOD9113045
Probable space group: P 2
;
_chemical_formula_sum "Si O2"
_cell_formula_units_Z 14
_cell_length_a 6.086156
_cell_length_b 6.243207
_cell_length_c 17.021764
_cell_angle_alpha 90.000000
_cell_angle_beta 82.398391
_cell_angle_gamma 90.000000
_cell_volume 641.094210
_symmetry_space_group_name_H-M "P 2"
_symmetry_group_IT_number 3
_symmetry_cell_setting 'monoclinic'
loop_
_space_group_symop_operation_xyz
x,y,z
-x,y,-z
loop_
_atom_site_type_symbol
_atom_site_label
_atom_site_fract_x
_atom_site_fract_y
_atom_site_fract_z
Si Si1 0.640346 0.599570 0.069301
Si Si2 0.625467 0.017472 0.281157
Si Si3 0.956219 0.943765 0.135336
Si Si4 0.307199 0.667597 0.214265
Si Si5 0.325947 0.398618 0.357262
Si Si6 0.000000 0.256929 0.000000
Si Si7 0.000000 0.457361 0.500000
Si Si8 0.351109 0.743545 0.575114
O O1 0.790970 0.794738 0.092612
O O2 0.470233 0.542815 0.147175
O O3 0.500000 0.665509 0.000000
O O4 0.799113 0.405808 0.037570
O O5 0.481044 0.214591 0.316738
O O6 0.814060 0.065050 0.208641
O O7 0.459017 0.847882 0.248429
O O8 0.725234 0.904277 0.353787
O O9 0.123050 0.785879 0.171829
O O10 0.067083 0.108423 0.070228
O O11 0.216552 0.516154 0.287420
O O12 0.484006 0.571633 0.392428
O O13 0.149640 0.327769 0.431229
O O14 0.845145 0.612234 0.455530
O O15 0.500000 0.852930 0.500000
#
# Coordination Sequence:
#
# PCOD9113045 Si02
#       8
#     2   2   2   2   2   1   1   2
#     4  11  24  42  63  88 124 163 200 255 309 363
#     4  10  22  39  62  90 124 161 203 255 307 362
#     4  11  24  42  64  92 123 161 208 254 306 369
#     4  10  22  41  63  89 122 161 206 253 304 362
#     4  10  21  39  60  90 125 161 204 254 308 361
#     4  12  24  38  62  94 122 158 206 252 308 370
#     4  10  20  38  64  88 124 166 204 254 308 364
#     4   9  20  38  59  87 122 161 205 251 302 361
#
# _framework density 21.837665999999999
#
# number of rings (size 3 to 8) (size 9 to 14) (size 15 to 20)
#    0.000    1.714    0.000    3.857    0.000    8.000 
#    0.000    7.143    0.000    0.000    0.000    0.000 
#    0.000    0.000    0.000    0.000    0.000    0.000 
#
# Total GULP energy -78311.011286 kJ/mol
# GULP energy per Si atom -5593.643663 kJ/mol
# Density = 2.178796 g / cm^3
# Si number density = 21.837666 Si / 1000 Ang^3
#
#
#
# Elastic Constant Matrix: (Units=GPa)
#
#
# Indices 1 2 3 4 5 6 
#
# 1 77.0636 19.9406 55.5751 0.0000 3.2570 0.0000
# 2 19.9406 58.2070 64.5980 0.0000 -15.5768 0.0000
# 3 55.5751 64.5980 178.3717 0.0000 -19.2533 0.0000
# 4 0.0000 0.0000 0.0000 10.9979 0.0000 -13.1242
# 5 3.2570 -15.5768 -19.2533 0.0000 48.8260 0.0000
# 6 0.0000 0.0000 0.0000 -13.1242 0.0000 20.9788
#
#
#
# Elastic Compliance Matrix: (Units=1/GPa)
#
#
# Indices 1 2 3 4 5 6 
#
# 1 0.017287 -0.000789 -0.005485 0.000000 -0.003568 0.000000
# 2 -0.000789 0.030130 -0.010050 0.000000 0.005702 0.000000
# 3 -0.005485 -0.010050 0.011122 0.000000 0.001545 0.000000
# 4 0.000000 0.000000 0.000000 0.358748 0.000000 0.224431
# 5 -0.003568 0.005702 0.001545 0.000000 0.023147 0.000000
# 6 0.000000 0.000000 0.000000 0.224431 0.000000 0.188070
#
#
# Mechanical properties :
#
#
# Convention : Reuss Voigt Hill
#
# Bulk Modulus (GPa) = 38.62647 65.98553 52.30600
# Shear Modulus (GPa) = 7.46508 27.72912 17.59710
#
# Velocity S-wave (km/s) = 1.85091 3.56727 2.84177
# Velocity P-wave (km/s) = 4.72168 6.87380 5.89675
#
# Compressibility (1/GPa) = 0.02588898
#
# Stress axis : x y z
#
# Youngs Moduli (GPa) = 57.84630 33.18921 89.91258
#
# Poissons Ratio (x) = 0.02620 0.49320
# Poissons Ratio (y) = 0.04567 0.90365
# Poissons Ratio (z) = 0.31731 0.33356
#
# Static dielectric constant tensor:
#      x y z
#    x 1.780780 0.000000 -0.022200 
#    y 0.000000 1.762280 0.000000 
#    z -0.022200 0.000000 1.820470 
# 
# From -- ./inp_files/3503.got.cif
#   From: 2010.05.17/outbox.cif.g08.bks.cpg/sg3_2_cif.got.tgz:3503.got - 2010.06.03 18:33:08.
