data_PCOD9113274
_publ_section_title
;
Structure prediction by ZEFSAII (Michael W. Deem and Ramdas Pophale) SiO2 
 PCOD9113274
Probable space group: P 2
;
_chemical_formula_sum "Si O2"
_cell_formula_units_Z 15
_cell_length_a 11.758187
_cell_length_b 4.970863
_cell_length_c 16.271206
_cell_angle_alpha 90.000000
_cell_angle_beta 139.073928
_cell_angle_gamma 90.000000
_cell_volume 623.001871
_symmetry_space_group_name_H-M "P 2"
_symmetry_group_IT_number 3
_symmetry_cell_setting 'monoclinic'
loop_
_space_group_symop_operation_xyz
x,y,z
-x,y,-z
loop_
_atom_site_type_symbol
_atom_site_label
_atom_site_fract_x
_atom_site_fract_y
_atom_site_fract_z
Si Si1 0.811884 0.474530 0.929217
Si Si2 0.752114 0.476357 0.231609
Si Si3 0.497487 0.230614 0.673370
Si Si4 0.128219 0.786950 0.323448
Si Si5 0.500000 0.961483 0.500000
Si Si6 0.100923 0.281768 0.844684
Si Si7 0.469312 0.718159 0.750590
Si Si8 0.028247 0.972515 0.608243
O O1 0.700340 0.286559 0.806754
O O2 0.677784 0.718372 0.866445
O O3 0.835766 0.342258 0.030445
O O4 0.000000 0.549070 0.000000
O O5 0.744724 0.343006 0.137247
O O6 0.591825 0.551487 0.202728
O O7 0.891732 0.270894 0.348725
O O8 0.833680 0.773414 0.274071
O O9 0.483840 0.135703 0.573618
O O10 0.413138 0.519567 0.645791
O O11 0.421202 0.018259 0.698611
O O12 0.321739 0.796342 0.394304
O O13 0.992150 0.993409 0.207016
O O14 0.129513 0.913399 0.416603
O O15 0.047149 0.492928 0.266681
O O16 0.000000 0.884118 0.500000
#
# Coordination Sequence:
#
# PCOD9113274 Si02
#       8
#     2   2   2   2   1   2   2   2
#     4  10  24  43  70  93 134 171 223 270 322 397
#     4  10  21  40  64  89 136 158 217 272 323 393
#     4  10  26  42  64 101 125 179 210 275 332 384
#     4  10  25  39  65  98 126 178 214 265 336 379
#     4  12  26  46  68  94 148 164 230 274 326 408
#     4  10  23  44  65  98 130 172 221 268 330 390
#     4  10  24  42  65 100 123 170 221 260 339 382
#     4  10  21  38  61  92 123 175 211 266 318 390
#
# _framework density 24.076975000000001
#
# number of rings (size 3 to 8) (size 9 to 14) (size 15 to 20)
#    0.800    1.067    0.000    2.000    7.467    3.200 
#    0.000    0.000    2.933    0.000    0.000    0.000 
#    0.000    0.000    0.000    0.000    0.000    0.000 
#
# Total GULP energy -83676.343236 kJ/mol
# GULP energy per Si atom -5578.422882 kJ/mol
# Density = 2.402217 g / cm^3
# Si number density = 24.076975 Si / 1000 Ang^3
#
#
#
# Elastic Constant Matrix: (Units=GPa)
#
#
# Indices 1 2 3 4 5 6 
#
# 1 101.6695 14.9831 15.7448 0.0000 4.7819 0.0000
# 2 14.9831 97.7639 -6.3123 0.0000 17.8809 0.0000
# 3 15.7448 -6.3123 71.9186 0.0000 -12.1395 0.0000
# 4 0.0000 0.0000 0.0000 13.2142 0.0000 -2.9041
# 5 4.7819 17.8809 -12.1395 0.0000 30.4589 0.0000
# 6 0.0000 0.0000 0.0000 -2.9041 0.0000 17.4785
#
#
#
# Elastic Compliance Matrix: (Units=1/GPa)
#
#
# Indices 1 2 3 4 5 6 
#
# 1 0.010567 -0.001449 -0.002763 0.000000 -0.001910 0.000000
# 2 -0.001449 0.011659 0.000240 0.000000 -0.006521 0.000000
# 3 -0.002763 0.000240 0.015632 0.000000 0.006523 0.000000
# 4 0.000000 0.000000 0.000000 0.078544 0.000000 0.013050
# 5 -0.001910 -0.006521 0.006523 0.000000 0.039559 0.000000
# 6 0.000000 0.000000 0.000000 0.013050 0.000000 0.059381
#
#
# Mechanical properties :
#
#
# Convention : Reuss Voigt Hill
#
# Bulk Modulus (GPa) = 33.42924 35.57589 34.50256
# Shear Modulus (GPa) = 21.43558 28.69275 25.06416
#
# Velocity S-wave (km/s) = 2.98702 3.45586 3.22996
# Velocity P-wave (km/s) = 5.08043 5.54364 5.31708
#
# Compressibility (1/GPa) = 0.02991393
#
# Stress axis : x y z
#
# Youngs Moduli (GPa) = 94.63464 85.77092 63.97311
#
# Poissons Ratio (x) = 0.12425 0.17675
# Poissons Ratio (y) = 0.13709 -0.01533
# Poissons Ratio (z) = 0.26146 -0.02056
#
# Static dielectric constant tensor:
#      x y z
#    x 2.096050 0.000000 -0.005780 
#    y 0.000000 1.874440 0.000000 
#    z -0.005780 0.000000 1.916510 
# 
# From -- ./inp_files/13632.got.cif
#   From: 2010.05.17/outbox.cif.g08.bks.cpg/sg3_7_cif.got.tgz:13632.got - 2010.06.03 18:33:08.
