data_PCOD9113721
_publ_section_title
;
Structure prediction by ZEFSAII (Michael W. Deem and Ramdas Pophale) SiO2 
 PCOD9113721
Probable space group: P 2
;
_chemical_formula_sum "Si O2"
_cell_formula_units_Z 13
_cell_length_a 8.438639
_cell_length_b 5.098667
_cell_length_c 15.897009
_cell_angle_alpha 90.000000
_cell_angle_beta 125.716790
_cell_angle_gamma 90.000000
_cell_volume 555.333279
_symmetry_space_group_name_H-M "P 2"
_symmetry_group_IT_number 3
_symmetry_cell_setting 'monoclinic'
loop_
_space_group_symop_operation_xyz
x,y,z
-x,y,-z
loop_
_atom_site_type_symbol
_atom_site_label
_atom_site_fract_x
_atom_site_fract_y
_atom_site_fract_z
Si Si1 0.619968 0.546040 0.130550
Si Si2 0.013116 0.604618 0.674238
Si Si3 0.109003 0.093257 0.448286
Si Si4 0.224123 0.378253 0.075427
Si Si5 0.500000 0.107671 0.500000
Si Si6 0.793899 0.046904 0.089546
Si Si7 0.800553 0.286589 0.740936
O O1 0.397297 0.550015 0.089658
O O2 0.678789 0.282464 0.100148
O O3 0.759715 0.537316 0.254825
O O4 0.698866 0.787471 0.099168
O O5 0.908559 0.402109 0.577744
O O6 0.915416 0.527408 0.732664
O O7 0.999459 0.909215 0.651450
O O8 0.329166 0.988448 0.504695
O O9 0.000000 0.041126 0.500000
O O10 0.276291 0.340520 0.189465
O O11 0.220986 0.118830 0.014355
O O12 0.000000 0.482028 0.000000
O O13 0.637077 0.225094 0.618839
O O14 0.022490 0.083481 0.184284
#
# Coordination Sequence:
#
# PCOD9113721 Si02
#       7
#     2   2   2   2   1   2   2
#     4  11  22  43  72  99 139 189 233 294 369 433
#     4  10  22  44  69 100 141 184 237 300 360 430
#     4  11  24  43  68 103 144 189 247 299 359 439
#     4  10  23  44  72 109 143 187 249 303 371 445
#     4  10  22  42  72 100 148 188 238 300 368 416
#     4  10  23  45  70 101 142 184 236 297 362 434
#     4   9  21  45  72 103 145 187 240 303 364 437
#
# _framework density 23.409365999999999
#
# number of rings (size 3 to 8) (size 9 to 14) (size 15 to 20)
#    0.000    1.846    0.000    3.692    2.154    4.923 
#    2.769   27.692    0.000    0.000    0.000    0.000 
#    0.000    0.000    0.000    0.000    0.000    0.000 
#
# Total GULP energy -72412.612650 kJ/mol
# GULP energy per Si atom -5570.200973 kJ/mol
# Density = 2.335609 g / cm^3
# Si number density = 23.409366 Si / 1000 Ang^3
#
#
#
# Elastic Constant Matrix: (Units=GPa)
#
#
# Indices 1 2 3 4 5 6 
#
# 1 178.5960 34.9086 56.8266 0.0000 -4.2337 0.0000
# 2 34.9086 92.8344 13.8978 0.0000 -7.3986 0.0000
# 3 56.8266 13.8978 133.9279 0.0000 -4.0940 0.0000
# 4 0.0000 0.0000 0.0000 21.0823 0.0000 -7.3961
# 5 -4.2337 -7.3986 -4.0940 0.0000 53.8959 0.0000
# 6 0.0000 0.0000 0.0000 -7.3961 0.0000 17.7256
#
#
#
# Elastic Compliance Matrix: (Units=1/GPa)
#
#
# Indices 1 2 3 4 5 6 
#
# 1 0.006884 -0.002182 -0.002693 0.000000 0.000037 0.000000
# 2 -0.002182 0.011743 -0.000249 0.000000 0.001422 0.000000
# 3 -0.002693 -0.000249 0.008648 0.000000 0.000411 0.000000
# 4 0.000000 0.000000 0.000000 0.055567 0.000000 0.023186
# 5 0.000037 0.001422 0.000411 0.000000 0.018784 0.000000
# 6 0.000000 0.000000 0.000000 0.023186 0.000000 0.066090
#
#
# Mechanical properties :
#
#
# Convention : Reuss Voigt Hill
#
# Bulk Modulus (GPa) = 58.73642 68.51382 63.62512
# Shear Modulus (GPa) = 27.22719 38.52244 32.87482
#
# Velocity S-wave (km/s) = 3.41411 4.06100 3.75152
# Velocity P-wave (km/s) = 6.37864 7.16381 6.78259
#
# Compressibility (1/GPa) = 0.01702521
#
# Stress axis : x y z
#
# Youngs Moduli (GPa) = 145.27301 85.15643 115.63555
#
# Poissons Ratio (x) = 0.18584 0.31143
# Poissons Ratio (y) = 0.31704 0.02881
# Poissons Ratio (z) = 0.39125 0.02122
#
# Static dielectric constant tensor:
#      x y z
#    x 2.043450 0.000000 0.071940 
#    y 0.000000 1.880590 0.000000 
#    z 0.071940 0.000000 2.023290 
# 
# From -- ./inp_files/13392.got.cif
#   From: 2010.05.17/outbox.cif.g08.bks.cpg/sg3_7_cif.got.tgz:13392.got - 2010.06.03 18:33:08.
