data_PCOD9113851
_publ_section_title
;
Structure prediction by ZEFSAII (Michael W. Deem and Ramdas Pophale) SiO2 
 PCOD9113851
Probable space group: P 2
;
_chemical_formula_sum "Si O2"
_cell_formula_units_Z 12
_cell_length_a 5.163645
_cell_length_b 5.201349
_cell_length_c 21.392163
_cell_angle_alpha 90.000000
_cell_angle_beta 121.690179
_cell_angle_gamma 90.000000
_cell_volume 488.884413
_symmetry_space_group_name_H-M "P 2"
_symmetry_group_IT_number 3
_symmetry_cell_setting 'monoclinic'
loop_
_space_group_symop_operation_xyz
x,y,z
-x,y,-z
loop_
_atom_site_type_symbol
_atom_site_label
_atom_site_fract_x
_atom_site_fract_y
_atom_site_fract_z
Si Si1 0.342027 0.748750 0.913478
Si Si2 0.694017 0.532556 0.839880
Si Si3 0.354812 0.721493 0.413795
Si Si4 0.180053 0.134420 0.800880
Si Si5 0.728543 0.821988 0.299732
Si Si6 0.421032 0.236069 0.341375
O O1 0.586121 0.675058 0.890573
O O2 0.057687 0.551893 0.881466
O O3 0.198915 0.018137 0.872071
O O4 0.500000 0.767398 0.000000
O O5 0.496538 0.272247 0.822985
O O6 0.564381 0.669516 0.760781
O O7 0.500000 0.708332 0.500000
O O8 0.488319 0.500560 0.385638
O O9 0.991794 0.674949 0.369291
O O10 0.385824 0.008819 0.389153
O O11 0.884653 0.281220 0.738592
O O12 0.139512 0.885578 0.751719
O O13 0.653895 0.089079 0.324826
#
# Coordination Sequence:
#
# PCOD9113851 Si02
#       6
#     2   2   2   2   2   2
#     4  11  25  44  66 104 150 192 250 319 386 454
#     4  11  23  42  71 101 142 191 252 312 375 456
#     4  11  25  44  66 105 151 190 250 318 383 454
#     4  10  23  39  69 100 137 189 250 310 369 459
#     4  10  23  39  67 102 137 189 249 305 374 451
#     4  11  23  42  72 100 140 197 249 310 379 457
#
# _framework density 24.545680000000001
#
# number of rings (size 3 to 8) (size 9 to 14) (size 15 to 20)
#    0.000    1.333    3.333    1.000    4.667    1.333 
#    0.000    5.000    0.000    0.000    0.000    0.000 
#    0.000    0.000    0.000    0.000    0.000    0.000 
#
# Total GULP energy -67026.040411 kJ/mol
# GULP energy per Si atom -5585.503368 kJ/mol
# Density = 2.448981 g / cm^3
# Si number density = 24.545680 Si / 1000 Ang^3
#
#
#
# Elastic Constant Matrix: (Units=GPa)
#
#
# Indices 1 2 3 4 5 6 
#
# 1 99.0265 52.7212 32.8211 0.0000 -7.2494 0.0000
# 2 52.7212 124.4180 60.0330 0.0000 -0.7948 0.0000
# 3 32.8211 60.0330 221.2307 0.0000 -4.3081 0.0000
# 4 0.0000 0.0000 0.0000 19.0394 0.0000 -5.1774
# 5 -7.2494 -0.7948 -4.3081 0.0000 19.1668 0.0000
# 6 0.0000 0.0000 0.0000 -5.1774 0.0000 56.1731
#
#
#
# Elastic Compliance Matrix: (Units=1/GPa)
#
#
# Indices 1 2 3 4 5 6 
#
# 1 0.013512 -0.005492 -0.000421 0.000000 0.004788 0.000000
# 2 -0.005492 0.011481 -0.002342 0.000000 -0.002128 0.000000
# 3 -0.000421 -0.002342 0.005236 0.000000 0.000921 0.000000
# 4 0.000000 0.000000 0.000000 0.053873 0.000000 0.004965
# 5 0.004788 -0.002128 0.000921 0.000000 0.054103 0.000000
# 6 0.000000 0.000000 0.000000 0.004965 0.000000 0.018260
#
#
# Mechanical properties :
#
#
# Convention : Reuss Voigt Hill
#
# Bulk Modulus (GPa) = 72.89110 81.75842 77.32476
# Shear Modulus (GPa) = 28.16123 38.81586 33.48855
#
# Velocity S-wave (km/s) = 3.39085 3.98096 3.69770
# Velocity P-wave (km/s) = 6.71499 7.38321 7.05701
#
# Compressibility (1/GPa) = 0.01371910
#
# Stress axis : x y z
#
# Youngs Moduli (GPa) = 74.00660 87.09936 190.98041
#
# Poissons Ratio (x) = 0.47835 0.08042
# Poissons Ratio (y) = 0.40644 0.44731
# Poissons Ratio (z) = 0.03116 0.20400
#
# Static dielectric constant tensor:
#      x y z
#    x 2.096970 0.000000 0.007720 
#    y 0.000000 2.092680 0.000000 
#    z 0.007720 0.000000 1.925470 
# 
# From -- ./inp_files/14556.got.cif
#   From: 2010.05.17/outbox.cif.g08.bks.cpg/sg3_8_cif.got.tgz:14556.got - 2010.06.03 18:33:08.
