data_PCOD9113876
_publ_section_title
;
Structure prediction by ZEFSAII (Michael W. Deem and Ramdas Pophale) SiO2 
 PCOD9113876
Probable space group: P 2
;
_chemical_formula_sum "Si O2"
_cell_formula_units_Z 13
_cell_length_a 18.360100
_cell_length_b 5.740982
_cell_length_c 5.162266
_cell_angle_alpha 90.000000
_cell_angle_beta 74.615604
_cell_angle_gamma 90.000000
_cell_volume 524.631280
_symmetry_space_group_name_H-M "P 2"
_symmetry_group_IT_number 3
_symmetry_cell_setting 'monoclinic'
loop_
_space_group_symop_operation_xyz
x,y,z
-x,y,-z
loop_
_atom_site_type_symbol
_atom_site_label
_atom_site_fract_x
_atom_site_fract_y
_atom_site_fract_z
Si Si1 0.352955 0.436010 0.604561
Si Si2 0.068205 0.390943 0.816367
Si Si3 0.846545 0.768285 0.588698
Si Si4 0.587249 0.185711 0.937683
Si Si5 0.794711 0.161468 0.224505
Si Si6 0.700012 0.824047 0.979684
Si Si7 0.000000 0.012460 0.500000
O O1 0.395708 0.382219 0.296300
O O2 0.269047 0.340804 0.628252
O O3 0.392575 0.286476 0.797101
O O4 0.341850 0.687146 0.749823
O O5 0.117966 0.550231 0.589351
O O6 0.130391 0.286058 0.947672
O O7 0.027680 0.182907 0.701924
O O8 0.000000 0.534648 0.000000
O O9 0.768372 0.677120 0.792023
O O10 0.923607 0.869772 0.649255
O O11 0.818414 0.972822 0.419145
O O12 0.639901 0.956212 0.855461
O O13 0.500000 0.121524 0.000000
O O14 0.753151 0.025474 0.039791
#
# Coordination Sequence:
#
# PCOD9113876 Si02
#       7
#     2   2   2   2   2   2   1
#     4  11  25  44  79 111 148 193 254 305 377 457
#     4  11  24  40  64  95 140 189 239 301 376 433
#     4  11  23  41  66  99 139 190 253 304 374 448
#     4  11  26  50  76 113 154 198 244 313 381 459
#     4  10  23  42  65  99 140 185 246 308 371 441
#     4  11  25  44  77 103 147 194 249 304 381 449
#     4  10  24  40  62  94 142 184 244 304 364 440
#
# _framework density 24.779309000000001
#
# number of rings (size 3 to 8) (size 9 to 14) (size 15 to 20)
#    0.000    1.231    1.538    2.769    4.308    9.231 
#    0.000    3.077    0.000    0.000    0.000    0.000 
#    0.000    0.000    0.000    0.000    0.000    0.000 
#
# Total GULP energy -72645.737351 kJ/mol
# GULP energy per Si atom -5588.133642 kJ/mol
# Density = 2.472291 g / cm^3
# Si number density = 24.779309 Si / 1000 Ang^3
#
#
#
# Elastic Constant Matrix: (Units=GPa)
#
#
# Indices 1 2 3 4 5 6 
#
# 1 212.1621 48.8838 48.1555 0.0000 -5.7505 0.0000
# 2 48.8838 71.8931 21.3120 0.0000 1.7331 0.0000
# 3 48.1555 21.3120 84.4549 0.0000 -5.1786 0.0000
# 4 0.0000 0.0000 0.0000 34.6235 0.0000 14.2765
# 5 -5.7505 1.7331 -5.1786 0.0000 35.0154 0.0000
# 6 0.0000 0.0000 0.0000 14.2765 0.0000 15.3341
#
#
#
# Elastic Compliance Matrix: (Units=1/GPa)
#
#
# Indices 1 2 3 4 5 6 
#
# 1 0.006104 -0.003407 -0.002572 0.000000 0.000791 0.000000
# 2 -0.003407 0.016996 -0.002455 0.000000 -0.001764 0.000000
# 3 -0.002572 -0.002455 0.014035 0.000000 0.001775 0.000000
# 4 0.000000 0.000000 0.000000 0.046879 0.000000 -0.043645
# 5 0.000791 -0.001764 0.001775 0.000000 0.029038 0.000000
# 6 0.000000 0.000000 0.000000 -0.043645 0.000000 0.105849
#
#
# Mechanical properties :
#
#
# Convention : Reuss Voigt Hill
#
# Bulk Modulus (GPa) = 49.33792 67.24585 58.29188
# Shear Modulus (GPa) = 20.61656 33.67187 27.14421
#
# Velocity S-wave (km/s) = 2.88758 3.69028 3.31333
# Velocity P-wave (km/s) = 5.57420 6.73457 6.18167
#
# Compressibility (1/GPa) = 0.02026839
#
# Stress axis : x y z
#
# Youngs Moduli (GPa) = 163.83992 58.83712 71.24831
#
# Poissons Ratio (x) = 0.20044 0.18325
# Poissons Ratio (y) = 0.55815 0.17489
# Poissons Ratio (z) = 0.42140 0.14442
#
# Static dielectric constant tensor:
#      x y z
#    x 1.979490 0.000000 -0.099020 
#    y 0.000000 2.038900 0.000000 
#    z -0.099020 0.000000 2.145430 
# 
# From -- ./inp_files/3441.got.cif
#   From: 2010.05.17/outbox.cif.g08.bks.cpg/sg3_2_cif.got.tgz:3441.got - 2010.06.03 18:33:08.
