data_PCOD9113813
_publ_section_title
;
Structure prediction by ZEFSAII (Michael W. Deem and Ramdas Pophale) SiO2 
 PCOD9113813
Probable space group: P 2
;
_chemical_formula_sum "Si O2"
_cell_formula_units_Z 15
_cell_length_a 5.979648
_cell_length_b 5.201566
_cell_length_c 23.604309
_cell_angle_alpha 90.000000
_cell_angle_beta 122.459949
_cell_angle_gamma 90.000000
_cell_volume 619.474551
_symmetry_space_group_name_H-M "P 2"
_symmetry_group_IT_number 3
_symmetry_cell_setting 'monoclinic'
loop_
_space_group_symop_operation_xyz
x,y,z
-x,y,-z
loop_
_atom_site_type_symbol
_atom_site_label
_atom_site_fract_x
_atom_site_fract_y
_atom_site_fract_z
Si Si1 0.500000 0.168000 0.500000
Si Si2 0.000944 0.128994 0.620522
Si Si3 0.590366 0.692233 0.076829
Si Si4 0.489357 0.801267 0.299415
Si Si5 0.748329 0.512782 0.435864
Si Si6 0.162541 0.530116 0.173690
Si Si7 0.977047 0.205613 0.739218
Si Si8 0.462650 0.182242 0.131018
O O1 0.734846 0.006336 0.559665
O O2 0.602454 0.353055 0.464418
O O3 0.945969 0.283664 0.670251
O O4 0.114746 0.309107 0.587528
O O5 0.228708 0.936680 0.668633
O O6 0.519677 0.416722 0.095068
O O7 0.913474 0.702644 0.121124
O O8 0.447102 0.918119 0.093321
O O9 0.500000 0.704663 0.000000
O O10 0.546249 0.654140 0.366327
O O11 0.428904 0.672003 0.229990
O O12 0.241995 0.989405 0.277198
O O13 0.000000 0.657884 0.500000
O O14 0.083662 0.426441 0.224571
O O15 0.230921 0.299406 0.139597
O O16 0.278772 0.138364 0.795071
#
# Coordination Sequence:
#
# PCOD9113813 Si02
#       8
#     1   2   2   2   2   2   2   2
#     4  10  22  46  62  88 138 188 236 314 374 456
#     4  11  24  41  67  93 135 184 242 308 382 455
#     4  11  26  50  78 116 158 208 258 316 385 466
#     4  12  23  40  68 103 135 185 250 307 380 465
#     4  10  24  43  62  93 134 183 241 303 381 456
#     4  11  26  46  74 110 151 195 253 312 384 462
#     4  11  24  42  67 104 142 187 241 309 380 458
#     4  11  25  46  79 110 157 202 256 318 383 458
#
# _framework density 24.214072000000002
#
# number of rings (size 3 to 8) (size 9 to 14) (size 15 to 20)
#    0.000    1.067    1.333    4.400    3.733    6.400 
#    0.000    2.667    0.000    0.000    0.000    0.000 
#    0.000    0.000    0.000    0.000    0.000    0.000 
#
# Total GULP energy -83863.808918 kJ/mol
# GULP energy per Si atom -5590.920595 kJ/mol
# Density = 2.415896 g / cm^3
# Si number density = 24.214072 Si / 1000 Ang^3
#
#
#
# Elastic Constant Matrix: (Units=GPa)
#
#
# Indices 1 2 3 4 5 6 
#
# 1 88.8739 28.4163 56.8553 0.0000 -17.0480 0.0000
# 2 28.4163 80.0858 50.1562 0.0000 3.3201 0.0000
# 3 56.8553 50.1562 186.8332 0.0000 -12.4372 0.0000
# 4 0.0000 0.0000 0.0000 16.8803 0.0000 -36.8408
# 5 -17.0480 3.3201 -12.4372 0.0000 26.8500 0.0000
# 6 0.0000 0.0000 0.0000 -36.8408 0.0000 -4.9492
#
#
#
# Elastic Compliance Matrix: (Units=1/GPa)
#
#
# Indices 1 2 3 4 5 6 
#
# 1 0.016503 -0.004207 -0.003261 0.000000 0.009488 0.000000
# 2 -0.004207 0.016476 -0.003566 0.000000 -0.006360 0.000000
# 3 -0.003261 -0.003566 0.007423 0.000000 0.001809 0.000000
# 4 0.000000 0.000000 0.000000 0.003435 0.000000 -0.025570
# 5 0.009488 -0.006360 0.001809 0.000000 0.044892 0.000000
# 6 0.000000 0.000000 0.000000 -0.025570 0.000000 -0.011716
#
#
# Mechanical properties :
#
#
# Convention : Reuss Voigt Hill
#
# Bulk Modulus (GPa) = 54.54430 69.62761 62.08596
# Shear Modulus (GPa) = 47.53138 22.44722 34.98930
#
# Velocity S-wave (km/s) = 4.43534 3.04802 3.80544
# Velocity P-wave (km/s) = 6.98602 6.41909 6.70855
#
# Compressibility (1/GPa) = 0.01833372
#
# Stress axis : x y z
#
# Youngs Moduli (GPa) = 60.59418 60.69252 134.72336
#
# Poissons Ratio (x) = 0.25531 0.43936
# Poissons Ratio (y) = 0.25490 0.48048
# Poissons Ratio (z) = 0.19761 0.21646
#
# Static dielectric constant tensor:
#      x y z
#    x 2.027260 0.000000 0.065660 
#    y 0.000000 2.035430 0.000000 
#    z 0.065660 0.000000 1.938150 
# 
# From -- ./inp_files/16187.got.cif
#   From: 2010.05.17/outbox.cif.g08.bks.cpg/sg3_9_cif.got.tgz:16187.got - 2010.06.03 18:33:08.
