data_PCOD9113069
_publ_section_title
;
Structure prediction by ZEFSAII (Michael W. Deem and Ramdas Pophale) SiO2 
 PCOD9113069
Probable space group: P 2
;
_chemical_formula_sum "Si O2"
_cell_formula_units_Z 13
_cell_length_a 9.375144
_cell_length_b 8.321978
_cell_length_c 9.310830
_cell_angle_alpha 90.000000
_cell_angle_beta 59.374410
_cell_angle_gamma 90.000000
_cell_volume 625.102369
_symmetry_space_group_name_H-M "P 2"
_symmetry_group_IT_number 3
_symmetry_cell_setting 'monoclinic'
loop_
_space_group_symop_operation_xyz
x,y,z
-x,y,-z
loop_
_atom_site_type_symbol
_atom_site_label
_atom_site_fract_x
_atom_site_fract_y
_atom_site_fract_z
Si Si1 0.659413 0.875000 0.487175
Si Si2 0.500000 0.850516 0.000000
Si Si3 0.796685 0.699579 0.702013
Si Si4 0.850991 0.202829 0.975787
Si Si5 0.008133 0.856143 0.835999
Si Si6 0.835826 0.327951 0.669608
Si Si7 0.509634 0.126605 0.758313
O O1 0.500000 0.784554 0.500000
O O2 0.742909 0.795176 0.585699
O O3 0.801193 0.897805 0.296063
O O4 0.583566 0.042132 0.580926
O O5 0.350214 0.733909 0.111145
O O6 0.516985 0.974676 0.121877
O O7 0.818581 0.516120 0.648030
O O8 0.946830 0.762362 0.725247
O O9 0.858159 0.303256 0.827120
O O10 0.670451 0.209326 0.143250
O O11 0.899130 0.018788 0.906431
O O12 0.000000 0.256842 0.000000
O O13 0.000000 0.778283 0.000000
O O14 0.661831 0.239003 0.728291
O O15 0.000000 0.265372 0.500000
#
# Coordination Sequence:
#
# PCOD9113069 Si02
#       7
#     2   1   2   2   2   2   2
#     4  11  23  41  67  97 129 172 226 278 324 389
#     4  10  20  38  70  94 118 166 226 278 310 388
#     4  11  25  42  66  94 137 175 218 267 344 392
#     4  11  22  40  64  96 128 169 225 275 324 388
#     4  11  22  41  68  97 130 173 225 278 324 384
#     4  12  25  42  64  95 137 181 214 263 338 407
#     4  11  21  42  66  96 126 171 223 272 327 385
#
# _framework density 20.796593000000001
#
# number of rings (size 3 to 8) (size 9 to 14) (size 15 to 20)
#    0.000    0.923    3.077    5.077    4.308    0.615 
#    0.000    3.846    0.000    0.000    0.000    0.000 
#    0.000    0.000    0.000    0.000    0.000    0.000 
#
# Total GULP energy -72483.363788 kJ/mol
# GULP energy per Si atom -5575.643368 kJ/mol
# Density = 2.074926 g / cm^3
# Si number density = 20.796593 Si / 1000 Ang^3
#
#
#
# Elastic Constant Matrix: (Units=GPa)
#
#
# Indices 1 2 3 4 5 6 
#
# 1 141.8833 11.0626 89.8337 0.0000 -15.7745 0.0000
# 2 11.0626 11.5701 27.0051 0.0000 -0.6515 0.0000
# 3 89.8337 27.0051 142.5633 0.0000 -31.0600 0.0000
# 4 0.0000 0.0000 0.0000 13.3646 0.0000 -9.0643
# 5 -15.7745 -0.6515 -31.0600 0.0000 65.6134 0.0000
# 6 0.0000 0.0000 0.0000 -9.0643 0.0000 3.9662
#
#
#
# Elastic Compliance Matrix: (Units=1/GPa)
#
#
# Indices 1 2 3 4 5 6 
#
# 1 0.012752 0.013395 -0.011011 0.000000 -0.002014 0.000000
# 2 0.013395 0.181030 -0.046427 0.000000 -0.016960 0.000000
# 3 -0.011011 -0.046427 0.024608 0.000000 0.008541 0.000000
# 4 0.000000 0.000000 0.000000 -0.136039 0.000000 -0.310901
# 5 -0.002014 -0.016960 0.008541 0.000000 0.018631 0.000000
# 6 0.000000 0.000000 0.000000 -0.310901 0.000000 -0.458398
#
#
# Mechanical properties :
#
#
# Convention : Reuss Voigt Hill
#
# Bulk Modulus (GPa) = 7.67441 61.31326 34.49384
# Shear Modulus (GPa) = -22.13424 27.79652 2.83114
#
# Velocity S-wave (km/s) = -3.26593 3.65991 1.16803
# Velocity P-wave (km/s) = 3.24400 6.88522 4.29434
#
# Compressibility (1/GPa) = 0.13030309
#
# Stress axis : x y z
#
# Youngs Moduli (GPa) = 78.42182 5.52394 40.63680
#
# Poissons Ratio (x) = -0.07399 0.44746
# Poissons Ratio (y) = -1.05047 1.88666
# Poissons Ratio (z) = 0.86352 0.25646
#
# Static dielectric constant tensor:
#      x y z
#    x 1.998980 0.000000 -0.050570 
#    y 0.000000 1.720200 0.000000 
#    z -0.050570 0.000000 1.780830 
# 
# From -- ./inp_files/5518.got.cif
#   From: 2010.05.17/outbox.cif.g08.bks.cpg/sg3_3_cif.got.tgz:5518.got - 2010.06.03 18:33:08.
