data_PCOD9113119
_publ_section_title
;
Structure prediction by ZEFSAII (Michael W. Deem and Ramdas Pophale) SiO2 
 PCOD9113119
Probable space group: P 2
;
_chemical_formula_sum "Si O2"
_cell_formula_units_Z 14
_cell_length_a 6.247911
_cell_length_b 6.117842
_cell_length_c 17.554849
_cell_angle_alpha 90.000000
_cell_angle_beta 106.407114
_cell_angle_gamma 90.000000
_cell_volume 643.687516
_symmetry_space_group_name_H-M "P 2"
_symmetry_group_IT_number 3
_symmetry_cell_setting 'monoclinic'
loop_
_space_group_symop_operation_xyz
x,y,z
-x,y,-z
loop_
_atom_site_type_symbol
_atom_site_label
_atom_site_fract_x
_atom_site_fract_y
_atom_site_fract_z
Si Si1 0.113963 0.254290 0.858507
Si Si2 0.500000 0.330710 0.000000
Si Si3 0.994765 0.501396 0.294301
Si Si4 0.216531 0.492539 0.569290
Si Si5 0.818824 0.603654 0.924432
Si Si6 0.610312 0.157592 0.637175
Si Si7 0.777301 0.879980 0.780136
Si Si8 0.500000 0.832857 0.500000
O O1 0.327225 0.199990 0.930706
O O2 0.160067 0.387479 0.785304
O O3 0.956881 0.417913 0.891968
O O4 0.976726 0.041644 0.822985
O O5 0.637652 0.484144 0.957075
O O6 0.180937 0.322092 0.336662
O O7 0.126200 0.697937 0.267362
O O8 0.861935 0.571011 0.355545
O O9 0.389962 0.296843 0.599184
O O10 0.340217 0.679966 0.533976
O O11 0.000000 0.422087 0.500000
O O12 0.710039 0.762389 0.851381
O O13 0.000000 0.711869 0.000000
O O14 0.601783 0.024183 0.715556
O O15 0.635527 0.986612 0.571269
#
# Coordination Sequence:
#
# PCOD9113119 Si02
#       8
#     2   1   2   2   2   2   2   1
#     4   9  21  39  63  94 129 165 208 262 313 366
#     4  10  20  40  66  92 128 170 210 258 312 366
#     4  10  23  45  66  91 127 166 209 259 313 370
#     4  12  25  43  66  94 129 164 205 258 315 374
#     4   9  20  40  62  92 132 166 207 265 314 362
#     4  11  24  44  66  93 127 165 209 258 313 372
#     4  10  21  43  68  91 126 168 209 258 313 369
#     4  12  26  42  66  96 124 164 210 256 312 374
#
# _framework density 21.749682
#
# number of rings (size 3 to 8) (size 9 to 14) (size 15 to 20)
#    0.000    1.714    0.000    3.857    0.000   10.286 
#    0.000   20.000    0.000    0.000    0.000    0.000 
#    0.000    0.000    0.000    0.000    0.000    0.000 
#
# Total GULP energy -78315.938441 kJ/mol
# GULP energy per Si atom -5593.995603 kJ/mol
# Density = 2.170018 g / cm^3
# Si number density = 21.749682 Si / 1000 Ang^3
#
#
#
# Elastic Constant Matrix: (Units=GPa)
#
#
# Indices 1 2 3 4 5 6 
#
# 1 60.6395 26.7834 61.0365 0.0000 2.5992 0.0000
# 2 26.7834 93.4705 67.1299 0.0000 16.7560 0.0000
# 3 61.0365 67.1299 171.4120 0.0000 6.0538 0.0000
# 4 0.0000 0.0000 0.0000 -43.2228 0.0000 8.6936
# 5 2.5992 16.7560 6.0538 0.0000 45.4773 0.0000
# 6 0.0000 0.0000 0.0000 8.6936 0.0000 10.2525
#
#
#
# Elastic Compliance Matrix: (Units=1/GPa)
#
#
# Indices 1 2 3 4 5 6 
#
# 1 0.025785 -0.001128 -0.008744 0.000000 0.000106 0.000000
# 2 -0.001128 0.016022 -0.005693 0.000000 -0.005081 0.000000
# 3 -0.008744 -0.005693 0.011138 0.000000 0.001115 0.000000
# 4 0.000000 0.000000 0.000000 -0.019765 0.000000 0.016760
# 5 0.000106 -0.005081 0.001115 0.000000 0.023707 0.000000
# 6 0.000000 0.000000 0.000000 0.016760 0.000000 0.083326
#
#
# Mechanical properties :
#
#
# Convention : Reuss Voigt Hill
#
# Bulk Modulus (GPa) = 45.84091 70.60239 58.22165
# Shear Modulus (GPa) = 27.99337 13.87290 20.93313
#
# Velocity S-wave (km/s) = 3.59147 2.52830 3.10571
# Velocity P-wave (km/s) = 6.19036 6.40741 6.29982
#
# Compressibility (1/GPa) = 0.02181458
#
# Stress axis : x y z
#
# Youngs Moduli (GPa) = 38.78149 62.41594 89.78518
#
# Poissons Ratio (x) = 0.07040 0.78506
# Poissons Ratio (y) = 0.04374 0.51118
# Poissons Ratio (z) = 0.33909 0.35536
#
# Static dielectric constant tensor:
#      x y z
#    x 1.766530 0.000000 0.015780 
#    y 0.000000 1.774030 0.000000 
#    z 0.015780 0.000000 1.821030 
# 
# From -- ./inp_files/14594.got.cif
#   From: 2010.05.17/outbox.cif.g08.bks.cpg/sg3_8_cif.got.tgz:14594.got - 2010.06.03 18:33:08.
