data_PCOD9113686
_publ_section_title
;
Structure prediction by ZEFSAII (Michael W. Deem and Ramdas Pophale) SiO2 
 PCOD9113686
Probable space group: P 2
;
_chemical_formula_sum "Si O2"
_cell_formula_units_Z 14
_cell_length_a 13.113104
_cell_length_b 6.200067
_cell_length_c 8.501717
_cell_angle_alpha 90.000000
_cell_angle_beta 75.758050
_cell_angle_gamma 90.000000
_cell_volume 669.963712
_symmetry_space_group_name_H-M "P 2"
_symmetry_group_IT_number 3
_symmetry_cell_setting 'monoclinic'
loop_
_space_group_symop_operation_xyz
x,y,z
-x,y,-z
loop_
_atom_site_type_symbol
_atom_site_label
_atom_site_fract_x
_atom_site_fract_y
_atom_site_fract_z
Si Si1 0.293444 0.171730 0.374580
Si Si2 0.111516 0.864492 0.539657
Si Si3 0.391320 0.502472 0.121446
Si Si4 0.481523 0.843657 0.327066
Si Si5 0.303401 0.811800 0.888200
Si Si6 0.112038 0.102883 0.873667
Si Si7 0.780511 0.483798 0.334331
O O1 0.313247 0.320921 0.215947
O O2 0.283331 0.316692 0.535138
O O3 0.193344 0.012022 0.411094
O O4 0.395494 0.027511 0.353597
O O5 0.156784 0.629376 0.563586
O O6 0.000000 0.851400 0.500000
O O7 0.100618 0.978352 0.712851
O O8 0.435229 0.641563 0.250313
O O9 0.500000 0.419589 0.000000
O O10 0.329666 0.667207 0.030014
O O11 0.500000 0.785041 0.500000
O O12 0.587712 0.924438 0.202004
O O13 0.282924 0.647352 0.751201
O O14 0.205043 0.975047 0.930940
O O15 0.148450 0.342308 0.810796
O O16 0.000000 0.102111 0.000000
#
# Coordination Sequence:
#
# PCOD9113686 Si02
#       7
#     2   2   2   2   2   2   2
#     4  11  23  41  64  93 123 166 214 256 312 376
#     4  10  23  43  64  90 127 164 210 264 313 370
#     4  10  24  40  62  95 129 164 207 258 319 379
#     4  11  22  39  63  90 125 166 207 257 312 374
#     4  10  23  43  62  91 130 164 205 262 318 374
#     4  10  23  42  66  93 123 165 210 258 319 377
#     4  10  22  42  65  92 123 165 214 257 313 378
#
# _framework density 20.896653000000001
#
# number of rings (size 3 to 8) (size 9 to 14) (size 15 to 20)
#    0.000    1.714    0.000    4.286    0.000   16.000 
#    0.000    2.857    0.000    0.000    0.000    0.000 
#    0.000    0.000    0.000    0.000    0.000    0.000 
#
# Total GULP energy -78264.051175 kJ/mol
# GULP energy per Si atom -5590.289370 kJ/mol
# Density = 2.084909 g / cm^3
# Si number density = 20.896653 Si / 1000 Ang^3
#
#
#
# Elastic Constant Matrix: (Units=GPa)
#
#
# Indices 1 2 3 4 5 6 
#
# 1 123.8491 47.4664 67.2595 0.0000 -23.5520 0.0000
# 2 47.4664 82.8482 44.7927 0.0000 -27.4562 0.0000
# 3 67.2595 44.7927 102.1859 0.0000 -16.5487 0.0000
# 4 0.0000 0.0000 0.0000 28.6714 0.0000 -9.1167
# 5 -23.5520 -27.4562 -16.5487 0.0000 49.2077 0.0000
# 6 0.0000 0.0000 0.0000 -9.1167 0.0000 11.3239
#
#
#
# Elastic Compliance Matrix: (Units=1/GPa)
#
#
# Indices 1 2 3 4 5 6 
#
# 1 0.013648 -0.003130 -0.007230 0.000000 0.002354 0.000000
# 2 -0.003130 0.019086 -0.005102 0.000000 0.007435 0.000000
# 3 -0.007230 -0.005102 0.016668 0.000000 -0.000702 0.000000
# 4 0.000000 0.000000 0.000000 0.046879 0.000000 0.037741
# 5 0.002354 0.007435 -0.000702 0.000000 0.025362 0.000000
# 6 0.000000 0.000000 0.000000 0.037741 0.000000 0.118694
#
#
# Mechanical properties :
#
#
# Convention : Reuss Voigt Hill
#
# Bulk Modulus (GPa) = 54.11867 69.76895 61.94381
# Shear Modulus (GPa) = 18.02326 27.79824 22.91075
#
# Velocity S-wave (km/s) = 2.94001 3.65125 3.31476
# Velocity P-wave (km/s) = 6.12204 7.15790 6.66014
#
# Compressibility (1/GPa) = 0.01847791
#
# Stress axis : x y z
#
# Youngs Moduli (GPa) = 73.26998 52.39385 59.99681
#
# Poissons Ratio (x) = 0.16401 0.43377
# Poissons Ratio (y) = 0.22936 0.30609
# Poissons Ratio (z) = 0.52973 0.26730
#
# Static dielectric constant tensor:
#      x y z
#    x 1.728880 0.000000 -0.011400 
#    y 0.000000 1.790870 0.000000 
#    z -0.011400 0.000000 1.753530 
# 
# From -- ./inp_files/6616.got.cif
#   From: 2010.05.17/outbox.cif.g08.bks.cpg/sg3_4_cif.got.tgz:6616.got - 2010.06.03 18:33:08.
