data_PCOD9113500
_publ_section_title
;
Structure prediction by ZEFSAII (Michael W. Deem and Ramdas Pophale) SiO2 
 PCOD9113500
Probable space group: P 2
;
_chemical_formula_sum "Si O2"
_cell_formula_units_Z 14
_cell_length_a 16.882134
_cell_length_b 6.241505
_cell_length_c 6.174933
_cell_angle_alpha 90.000000
_cell_angle_beta 82.239464
_cell_angle_gamma 90.000000
_cell_volume 644.692950
_symmetry_space_group_name_H-M "P 2"
_symmetry_group_IT_number 3
_symmetry_cell_setting 'monoclinic'
loop_
_space_group_symop_operation_xyz
x,y,z
-x,y,-z
loop_
_atom_site_type_symbol
_atom_site_label
_atom_site_fract_x
_atom_site_fract_y
_atom_site_fract_z
Si Si1 0.564726 0.716050 0.814594
Si Si2 0.355101 0.339991 0.475974
Si Si3 0.211685 0.264512 0.806730
Si Si4 0.000000 0.657246 0.500000
Si Si5 0.136093 0.982750 0.457566
Si Si6 0.500000 0.051723 0.500000
Si Si7 0.709867 0.995385 0.847772
Si Si8 0.931965 0.320557 0.859734
O O1 0.601824 0.544394 0.638915
O O2 0.520476 0.900662 0.694455
O O3 0.638769 0.828972 0.907309
O O4 0.500000 0.616856 0.000000
O O5 0.280716 0.393967 0.658072
O O6 0.422790 0.199230 0.569943
O O7 0.321755 0.189722 0.293650
O O8 0.162754 0.132534 0.645037
O O9 0.256407 0.096527 0.946301
O O10 0.147201 0.386431 0.977307
O O11 0.926230 0.803096 0.452178
O O12 0.968058 0.510764 0.705270
O O13 0.216463 0.894376 0.314457
O O14 0.093825 0.132660 0.293711
O O15 0.000000 0.245431 0.000000
#
# Coordination Sequence:
#
# PCOD9113500 Si02
#       8
#     2   2   2   1   2   1   2   2
#     4  11  23  39  64  95 125 162 209 255 308 370
#     4  10  22  40  64  94 126 162 207 259 308 363
#     4  10  21  44  67  86 125 168 204 255 312 363
#     4  12  24  40  64  96 126 158 206 256 308 372
#     4  10  23  44  64  89 127 165 206 256 308 366
#     4  10  22  42  62  90 128 166 206 256 308 362
#     4   9  22  40  62  91 124 163 208 257 307 364
#     4  11  24  41  64  93 125 162 204 256 310 368
#
# _framework density 21.715765999999999
#
# number of rings (size 3 to 8) (size 9 to 14) (size 15 to 20)
#    0.000    1.714    0.000    3.429    0.000   12.000 
#    0.000    7.143    0.000    0.000    0.000    0.000 
#    0.000    0.000    0.000    0.000    0.000    0.000 
#
# Total GULP energy -78333.259718 kJ/mol
# GULP energy per Si atom -5595.232837 kJ/mol
# Density = 2.166634 g / cm^3
# Si number density = 21.715766 Si / 1000 Ang^3
#
#
#
# Elastic Constant Matrix: (Units=GPa)
#
#
# Indices 1 2 3 4 5 6 
#
# 1 158.1624 59.8455 78.4311 0.0000 -17.9111 0.0000
# 2 59.8455 60.8072 40.5047 0.0000 -18.6358 0.0000
# 3 78.4311 40.5047 112.9990 0.0000 -28.4837 0.0000
# 4 0.0000 0.0000 0.0000 15.8249 0.0000 -7.2218
# 5 -17.9111 -18.6358 -28.4837 0.0000 56.2189 0.0000
# 6 0.0000 0.0000 0.0000 -7.2218 0.0000 3.9728
#
#
#
# Elastic Compliance Matrix: (Units=1/GPa)
#
#
# Indices 1 2 3 4 5 6 
#
# 1 0.012385 -0.008852 -0.005925 0.000000 -0.001990 0.000000
# 2 -0.008852 0.028629 -0.002793 0.000000 0.005255 0.000000
# 3 -0.005925 -0.002793 0.015194 0.000000 0.004885 0.000000
# 4 0.000000 0.000000 0.000000 0.370753 0.000000 0.673952
# 5 -0.001990 0.005255 0.004885 0.000000 0.021370 0.000000
# 6 0.000000 0.000000 0.000000 0.673952 0.000000 1.476812
#
#
# Mechanical properties :
#
#
# Convention : Reuss Voigt Hill
#
# Bulk Modulus (GPa) = 47.46666 76.61458 62.04062
# Shear Modulus (GPa) = 2.54155 25.41584 13.97869
#
# Velocity S-wave (km/s) = 1.08301 3.42480 2.53990
# Velocity P-wave (km/s) = 4.84453 7.14117 6.10187
#
# Compressibility (1/GPa) = 0.02106742
#
# Stress axis : x y z
#
# Youngs Moduli (GPa) = 80.74434 34.92990 65.81358
#
# Poissons Ratio (x) = 0.30921 0.38993
# Poissons Ratio (y) = 0.71478 0.18383
# Poissons Ratio (z) = 0.47839 0.09757
#
# Static dielectric constant tensor:
#      x y z
#    x 1.797180 0.000000 -0.017120 
#    y 0.000000 1.753960 0.000000 
#    z -0.017120 0.000000 1.785620 
# 
# From -- ./inp_files/3471.got.cif
#   From: 2010.05.17/outbox.cif.g08.bks.cpg/sg3_2_cif.got.tgz:3471.got - 2010.06.03 18:33:08.
