data_PCOD9113977
_publ_section_title
;
Structure prediction by ZEFSAII (Michael W. Deem and Ramdas Pophale) SiO2 
 PCOD9113977
Probable space group: P 2
;
_chemical_formula_sum "Si O2"
_cell_formula_units_Z 12
_cell_length_a 7.892559
_cell_length_b 5.244263
_cell_length_c 18.307106
_cell_angle_alpha 90.000000
_cell_angle_beta 45.982542
_cell_angle_gamma 90.000000
_cell_volume 544.914367
_symmetry_space_group_name_H-M "P 2"
_symmetry_group_IT_number 3
_symmetry_cell_setting 'monoclinic'
loop_
_space_group_symop_operation_xyz
x,y,z
-x,y,-z
loop_
_atom_site_type_symbol
_atom_site_label
_atom_site_fract_x
_atom_site_fract_y
_atom_site_fract_z
Si Si1 0.688461 0.967840 0.992365
Si Si2 0.088542 0.572447 0.187147
Si Si3 0.221354 0.665804 0.584985
Si Si4 0.016651 0.150613 0.579679
Si Si5 0.599011 0.181286 0.807195
Si Si6 0.106870 0.357162 0.896750
O O1 0.759614 0.744596 0.915420
O O2 0.500000 0.129445 0.000000
O O3 0.923491 0.117547 0.945134
O O4 0.527536 0.944804 0.112697
O O5 0.247786 0.369517 0.185394
O O6 0.922779 0.715475 0.295910
O O7 0.911395 0.453898 0.180361
O O8 0.500000 0.633494 0.500000
O O9 0.116882 0.402299 0.587177
O O10 0.172151 0.904556 0.548234
O O11 0.000000 0.200312 0.500000
O O12 0.769132 0.092265 0.692584
O O13 0.374986 0.317820 0.838577
O O14 0.000000 0.507267 0.000000
#
# Coordination Sequence:
#
# PCOD9113977 Si02
#       6
#     2   2   2   2   2   2
#     4  11  22  40  67  94 139 182 229 292 356 429
#     4  11  25  44  70  99 145 191 242 299 369 431
#     4  11  26  47  77 109 144 194 250 304 375 441
#     4  11  25  49  75 109 147 191 248 311 373 430
#     4  10  24  47  67 103 144 190 246 294 368 440
#     4  10  24  42  62 101 135 185 239 291 358 436
#
# _framework density 22.021809999999999
#
# number of rings (size 3 to 8) (size 9 to 14) (size 15 to 20)
#    0.000    1.333    1.667    2.000    9.333    3.333 
#    6.000    0.000    0.000    0.000    0.000    0.000 
#    0.000    0.000    0.000    0.000    0.000    0.000 
#
# Total GULP energy -66859.324061 kJ/mol
# GULP energy per Si atom -5571.610338 kJ/mol
# Density = 2.197169 g / cm^3
# Si number density = 22.021810 Si / 1000 Ang^3
#
#
#
# Elastic Constant Matrix: (Units=GPa)
#
#
# Indices 1 2 3 4 5 6 
#
# 1 130.6436 7.8796 39.8183 0.0000 6.6435 0.0000
# 2 7.8796 59.7122 24.8680 0.0000 10.9772 0.0000
# 3 39.8183 24.8680 163.3156 0.0000 2.2625 0.0000
# 4 0.0000 0.0000 0.0000 34.5072 0.0000 6.8914
# 5 6.6435 10.9772 2.2625 0.0000 53.8711 0.0000
# 6 0.0000 0.0000 0.0000 6.8914 0.0000 18.4811
#
#
#
# Elastic Compliance Matrix: (Units=1/GPa)
#
#
# Indices 1 2 3 4 5 6 
#
# 1 0.008317 -0.000095 -0.002001 0.000000 -0.000922 0.000000
# 2 -0.000095 0.018580 -0.002755 0.000000 -0.003659 0.000000
# 3 -0.002001 -0.002755 0.007023 0.000000 0.000513 0.000000
# 4 0.000000 0.000000 0.000000 0.031311 0.000000 -0.011676
# 5 -0.000922 -0.003659 0.000513 0.000000 0.019401 0.000000
# 6 0.000000 0.000000 0.000000 -0.011676 0.000000 0.058463
#
#
# Mechanical properties :
#
#
# Convention : Reuss Voigt Hill
#
# Bulk Modulus (GPa) = 41.29091 55.42258 48.35675
# Shear Modulus (GPa) = 31.08136 40.11225 35.59680
#
# Velocity S-wave (km/s) = 3.76092 4.27251 4.02485
# Velocity P-wave (km/s) = 6.13597 7.03995 6.60344
#
# Compressibility (1/GPa) = 0.02421841
#
# Stress axis : x y z
#
# Youngs Moduli (GPa) = 120.23912 53.82265 142.38316
#
# Poissons Ratio (x) = 0.00510 0.28484
# Poissons Ratio (y) = 0.01140 0.39231
# Poissons Ratio (z) = 0.24054 0.14830
#
# Static dielectric constant tensor:
#      x y z
#    x 1.861080 0.000000 -0.006970 
#    y 0.000000 1.861910 0.000000 
#    z -0.006970 0.000000 1.832720 
# 
# From -- ./inp_files/14799.got.cif
#   From: 2010.05.17/outbox.cif.g08.bks.cpg/sg3_8_cif.got.tgz:14799.got - 2010.06.03 18:33:08.
