data_PCOD9113016
_publ_section_title
;
Structure prediction by ZEFSAII (Michael W. Deem and Ramdas Pophale) SiO2 
 PCOD9113016
Probable space group: P 2
;
_chemical_formula_sum "Si O2"
_cell_formula_units_Z 12
_cell_length_a 5.632357
_cell_length_b 9.298949
_cell_length_c 10.743966
_cell_angle_alpha 90.000000
_cell_angle_beta 81.085296
_cell_angle_gamma 90.000000
_cell_volume 555.917697
_symmetry_space_group_name_H-M "P 2"
_symmetry_group_IT_number 3
_symmetry_cell_setting 'monoclinic'
loop_
_space_group_symop_operation_xyz
x,y,z
-x,y,-z
loop_
_atom_site_type_symbol
_atom_site_label
_atom_site_fract_x
_atom_site_fract_y
_atom_site_fract_z
Si Si1 0.399395 0.788430 0.378517
Si Si2 0.000000 0.567407 0.500000
Si Si3 0.758061 0.543262 0.266963
Si Si4 0.000000 0.637132 0.000000
Si Si5 0.000000 0.108631 0.000000
Si Si6 0.500000 0.805532 0.000000
Si Si7 0.441358 0.299806 0.868486
Si Si8 0.703019 0.011639 0.805616
O O1 0.500000 0.846437 0.500000
O O2 0.203527 0.667876 0.424092
O O3 0.616416 0.694391 0.298553
O O4 0.266056 0.918785 0.319344
O O5 0.121657 0.496597 0.612003
O O6 0.580254 0.420543 0.232730
O O7 0.938332 0.556929 0.134791
O O8 0.747215 0.716787 0.986904
O O9 0.799218 0.211014 0.077663
O O10 0.091996 0.012614 0.106808
O O11 0.504824 0.915975 0.114298
O O12 0.624575 0.176799 0.807609
O O13 0.500000 0.364487 0.000000
#
# Coordination Sequence:
#
# PCOD9113016 Si02
#       8
#     2   1   2   1   1   1   2   2
#     4  10  23  44  67  93 128 177 229 282 341 408
#     4  10  24  44  66  92 132 180 230 294 340 414
#     4  11  24  43  67  98 135 179 230 285 345 413
#     4  12  26  38  72 110 142 176 238 286 352 412
#     4  10  20  38  60  98 136 178 214 274 348 410
#     4  12  22  38  64 108 134 176 224 288 342 412
#     4  10  23  39  62  94 137 176 221 279 344 413
#     4  11  21  39  63  95 135 171 221 280 342 407
#
# _framework density 21.585926000000001
#
# number of rings (size 3 to 8) (size 9 to 14) (size 15 to 20)
#    0.000    1.333    4.167    2.000    1.167    5.333 
#    0.000    4.167    0.000    1.000    0.000    0.000 
#    0.000    0.000    0.000    0.000    0.000    0.000 
#
# Total GULP energy -66892.492685 kJ/mol
# GULP energy per Si atom -5574.374390 kJ/mol
# Density = 2.153680 g / cm^3
# Si number density = 21.585926 Si / 1000 Ang^3
#
#
#
# Elastic Constant Matrix: (Units=GPa)
#
#
# Indices 1 2 3 4 5 6 
#
# 1 72.6451 20.1706 31.5717 0.0000 23.1831 0.0000
# 2 20.1706 73.9942 63.9854 0.0000 39.1109 0.0000
# 3 31.5717 63.9854 141.0725 0.0000 42.2514 0.0000
# 4 0.0000 0.0000 0.0000 -40.4586 0.0000 -5.6354
# 5 23.1831 39.1109 42.2514 0.0000 45.8954 0.0000
# 6 0.0000 0.0000 0.0000 -5.6354 0.0000 14.8883
#
#
#
# Elastic Compliance Matrix: (Units=1/GPa)
#
#
# Indices 1 2 3 4 5 6 
#
# 1 0.016740 0.001211 -0.002007 0.000000 -0.007639 0.000000
# 2 0.001211 0.030388 -0.008443 0.000000 -0.018735 0.000000
# 3 -0.002007 -0.008443 0.012300 0.000000 -0.003115 0.000000
# 4 0.000000 0.000000 0.000000 -0.023479 0.000000 -0.008887
# 5 -0.007639 -0.018735 -0.003115 0.000000 0.044481 0.000000
# 6 0.000000 0.000000 0.000000 -0.008887 0.000000 0.063803
#
#
# Mechanical properties :
#
#
# Convention : Reuss Voigt Hill
#
# Bulk Modulus (GPa) = 24.42075 57.68523 41.05299
# Shear Modulus (GPa) = 28.35099 15.53064 21.94081
#
# Velocity S-wave (km/s) = 3.62802 2.68522 3.19163
# Velocity P-wave (km/s) = 5.37474 6.03286 5.71329
#
# Compressibility (1/GPa) = 0.04094878
#
# Stress axis : x y z
#
# Youngs Moduli (GPa) = 59.73793 32.90784 81.30115
#
# Poissons Ratio (x) = -0.03984 0.16320
# Poissons Ratio (y) = -0.07232 0.68639
# Poissons Ratio (z) = 0.11992 0.27783
#
# Static dielectric constant tensor:
#      x y z
#    x 1.928740 0.000000 -0.050310 
#    y 0.000000 1.789270 0.000000 
#    z -0.050310 0.000000 1.938120 
# 
# From -- ./inp_files/2129.got.cif
#   From: 2010.05.17/outbox.cif.g08.bks.cpg/sg3_2_cif.got.tgz:2129.got - 2010.06.03 18:33:08.
