data_PCOD9113668
_publ_section_title
;
Structure prediction by ZEFSAII (Michael W. Deem and Ramdas Pophale) SiO2 
 PCOD9113668
Probable space group: P 2
;
_chemical_formula_sum "Si O2"
_cell_formula_units_Z 16
_cell_length_a 11.020884
_cell_length_b 5.035848
_cell_length_c 27.636889
_cell_angle_alpha 90.000000
_cell_angle_beta 23.117032
_cell_angle_gamma 90.000000
_cell_volume 602.199155
_symmetry_space_group_name_H-M "P 2"
_symmetry_group_IT_number 3
_symmetry_cell_setting 'monoclinic'
loop_
_space_group_symop_operation_xyz
x,y,z
-x,y,-z
loop_
_atom_site_type_symbol
_atom_site_label
_atom_site_fract_x
_atom_site_fract_y
_atom_site_fract_z
Si Si1 0.311580 0.353740 0.409834
Si Si2 0.319063 0.025294 0.791606
Si Si3 0.286393 0.366356 0.043737
Si Si4 0.208014 0.713810 0.734158
Si Si5 0.986012 0.897731 0.590058
Si Si6 0.826615 0.379833 0.709122
Si Si7 0.727913 0.101757 0.053311
Si Si8 0.239084 0.730723 0.180662
O O1 0.552577 0.303376 0.277666
O O2 0.458177 0.575736 0.390964
O O3 0.000000 0.461068 0.500000
O O4 0.218901 0.073023 0.469205
O O5 0.194132 0.878737 0.788963
O O6 0.650490 0.915579 0.687204
O O7 0.079568 0.987865 0.924440
O O8 0.002871 0.456761 0.179101
O O9 0.500000 0.186839 0.000000
O O10 0.204110 0.252923 0.022429
O O11 0.502560 0.612832 0.949719
O O12 0.046253 0.843400 0.746541
O O13 0.943651 0.610141 0.630849
O O14 0.988743 0.109236 0.633669
O O15 0.454122 0.310949 0.845606
O O16 0.887240 0.487077 0.740702
O O17 0.451779 0.903774 0.138984
#
# Coordination Sequence:
#
# PCOD9113668 Si02
#       8
#     2   2   2   2   2   2   2   2
#     4  10  25  46  71 108 144 197 254 321 373 438
#     4  11  25  40  70 113 144 194 250 319 388 452
#     4   9  19  31  60  98 147 186 225 290 378 452
#     4  11  22  40  72 109 150 187 252 308 393 446
#     4  11  27  49  75  99 149 203 263 311 364 446
#     4  11  25  50  72 100 146 207 250 306 375 453
#     4  11  21  40  65 107 154 190 243 304 386 464
#     4  10  22  41  67 108 148 197 233 307 376 472
#
# _framework density 26.569285000000001
#
# number of rings (size 3 to 8) (size 9 to 14) (size 15 to 20)
#    0.000    1.500    3.750    0.000    7.000    2.000 
#    2.250    0.625    0.000    0.000    0.000    0.000 
#    0.000    0.000    0.000    0.000    0.000    0.000 
#
# Total GULP energy -89160.046360 kJ/mol
# GULP energy per Si atom -5572.502898 kJ/mol
# Density = 2.650881 g / cm^3
# Si number density = 26.569285 Si / 1000 Ang^3
#
#
#
# Elastic Constant Matrix: (Units=GPa)
#
#
# Indices 1 2 3 4 5 6 
#
# 1 19.7153 4.2819 14.7636 0.0001 4.2846 0.0001
# 2 4.2819 96.9479 21.4883 -0.0001 -8.9941 -0.0001
# 3 14.7636 21.4883 142.6578 -0.0004 27.6073 -0.0009
# 4 0.0001 -0.0001 -0.0004 29.9249 0.0000 0.5328
# 5 4.2846 -8.9941 27.6073 0.0000 48.0570 0.0001
# 6 0.0001 -0.0001 -0.0009 0.5328 0.0001 28.7225
#
#
#
# Elastic Compliance Matrix: (Units=1/GPa)
#
#
# Indices 1 2 3 4 5 6 
#
# 1 0.055340 -0.001542 -0.005045 0.000000 -0.002324 0.000000
# 2 -0.001542 0.011196 -0.002204 0.000000 0.003499 0.000000
# 3 -0.005045 -0.002204 0.008839 0.000000 -0.005041 0.000000
# 4 0.000000 0.000000 0.000000 0.033428 0.000000 -0.000620
# 5 -0.002324 0.003499 -0.005041 0.000000 0.024566 0.000000
# 6 0.000000 0.000000 0.000000 -0.000620 0.000000 0.034827
#
#
# Mechanical properties :
#
#
# Convention : Reuss Voigt Hill
#
# Bulk Modulus (GPa) = 17.30285 37.82094 27.56190
# Shear Modulus (GPa) = 24.38509 35.92669 30.15589
#
# Velocity S-wave (km/s) = 3.03280 3.68120 3.37262
# Velocity P-wave (km/s) = 4.33478 5.68630 5.05590
#
# Compressibility (1/GPa) = 0.05779394
#
# Stress axis : x y z
#
# Youngs Moduli (GPa) = 18.07011 89.31739 113.13041
#
# Poissons Ratio (x) = 0.13769 0.57076
# Poissons Ratio (y) = 0.02786 0.24934
# Poissons Ratio (z) = 0.09117 0.19686
#
# Static dielectric constant tensor:
#      x y z
#    x 2.360320 0.000000 -0.135680 
#    y 0.000000 2.215310 0.000000 
#    z -0.135680 0.000000 3.454350 
# 
# From -- ./inp_files/16611.got.cif
#   From: 2010.05.17/outbox.cif.g08.bks.cpg/sg3_9_cif.got.tgz:16611.got - 2010.06.03 18:33:08.
