data_PCOD9113835
_publ_section_title
;
Structure prediction by ZEFSAII (Michael W. Deem and Ramdas Pophale) SiO2 
 PCOD9113835
Probable space group: P 2
;
_chemical_formula_sum "Si O2"
_cell_formula_units_Z 14
_cell_length_a 8.682958
_cell_length_b 5.952518
_cell_length_c 16.067956
_cell_angle_alpha 90.000000
_cell_angle_beta 136.541460
_cell_angle_gamma 90.000000
_cell_volume 571.228481
_symmetry_space_group_name_H-M "P 2"
_symmetry_group_IT_number 3
_symmetry_cell_setting 'monoclinic'
loop_
_space_group_symop_operation_xyz
x,y,z
-x,y,-z
loop_
_atom_site_type_symbol
_atom_site_label
_atom_site_fract_x
_atom_site_fract_y
_atom_site_fract_z
Si Si1 0.853249 0.480760 0.758566
Si Si2 0.500000 0.632441 0.500000
Si Si3 0.786995 0.813550 0.880348
Si Si4 0.469411 0.479031 0.136204
Si Si5 0.824607 0.789782 0.200255
Si Si6 0.500000 0.131887 0.000000
Si Si7 0.506986 0.186287 0.704773
Si Si8 0.842179 0.906526 0.520718
O O1 0.689257 0.487398 0.616045
O O2 0.809003 0.694894 0.800264
O O3 0.750256 0.262935 0.763267
O O4 0.084744 0.563368 0.810105
O O5 0.632381 0.761549 0.477165
O O6 0.761272 0.602365 0.932978
O O7 0.573810 0.971683 0.785776
O O8 0.000000 0.943267 0.000000
O O9 0.618495 0.684047 0.166770
O O10 0.561885 0.380181 0.258695
O O11 0.461931 0.287356 0.065053
O O12 0.719343 0.977233 0.099343
O O13 0.994591 0.900411 0.334114
O O14 0.300390 0.125818 0.563991
O O15 0.000000 0.848061 0.500000
#
# Coordination Sequence:
#
# PCOD9113835 Si02
#       8
#     2   1   2   2   2   1   2   2
#     4  10  25  47  73 106 147 195 249 322 384 463
#     4  10  22  48  72 106 150 196 252 328 382 462
#     4  11  25  46  72 103 152 197 249 320 385 450
#     4  11  26  47  74 110 149 199 258 318 382 478
#     4  11  27  50  76 109 157 202 249 328 397 449
#     4  12  26  48  78 110 154 196 268 316 384 482
#     4  11  25  49  75 109 149 201 262 312 386 483
#     4  11  23  48  79 107 152 205 248 321 400 455
#
# _framework density 24.508579999999998
#
# number of rings (size 3 to 8) (size 9 to 14) (size 15 to 20)
#    0.000    1.143    1.429    3.000    8.000    4.000 
#   12.857    1.429    0.000    0.000    0.000    0.000 
#    0.000    0.000    0.000    0.000    0.000    0.000 
#
# Total GULP energy -78038.240211 kJ/mol
# GULP energy per Si atom -5574.160015 kJ/mol
# Density = 2.445280 g / cm^3
# Si number density = 24.508580 Si / 1000 Ang^3
#
#
#
# Elastic Constant Matrix: (Units=GPa)
#
#
# Indices 1 2 3 4 5 6 
#
# 1 121.4315 29.8997 3.6015 0.0000 3.5298 0.0000
# 2 29.8997 61.7835 23.0381 0.0000 -4.1956 0.0000
# 3 3.6015 23.0381 120.5893 0.0000 -3.4914 0.0000
# 4 0.0000 0.0000 0.0000 35.2638 0.0000 -8.1985
# 5 3.5298 -4.1956 -3.4914 0.0000 29.9998 0.0000
# 6 0.0000 0.0000 0.0000 -8.1985 0.0000 43.2270
#
#
#
# Elastic Compliance Matrix: (Units=1/GPa)
#
#
# Indices 1 2 3 4 5 6 
#
# 1 0.009482 -0.004934 0.000609 0.000000 -0.001735 0.000000
# 2 -0.004934 0.020122 -0.003611 0.000000 0.002974 0.000000
# 3 0.000609 -0.003611 0.008978 0.000000 0.000468 0.000000
# 4 0.000000 0.000000 0.000000 0.029666 0.000000 0.005626
# 5 -0.001735 0.002974 0.000468 0.000000 0.034008 0.000000
# 6 0.000000 0.000000 0.000000 0.005626 0.000000 0.024201
#
#
# Mechanical properties :
#
#
# Convention : Reuss Voigt Hill
#
# Bulk Modulus (GPa) = 44.03160 46.32032 45.17596
# Shear Modulus (GPa) = 33.35612 38.18245 35.76929
#
# Velocity S-wave (km/s) = 3.69317 3.95133 3.82443
# Velocity P-wave (km/s) = 6.01588 6.30540 6.16234
#
# Compressibility (1/GPa) = 0.02271096
#
# Stress axis : x y z
#
# Youngs Moduli (GPa) = 105.45967 49.69781 111.38615
#
# Poissons Ratio (x) = 0.24520 -0.06785
# Poissons Ratio (y) = 0.52032 0.40218
# Poissons Ratio (z) = -0.06424 0.17944
#
# Static dielectric constant tensor:
#      x y z
#    x 2.036280 0.000000 -0.018080 
#    y 0.000000 1.917710 0.000000 
#    z -0.018080 0.000000 1.957160 
# 
# From -- ./inp_files/14915.got.cif
#   From: 2010.05.17/outbox.cif.g08.bks.cpg/sg3_8_cif.got.tgz:14915.got - 2010.06.03 18:33:08.
