data_PCOD9113362
_publ_section_title
;
Structure prediction by ZEFSAII (Michael W. Deem and Ramdas Pophale) SiO2 
 PCOD9113362
Probable space group: P 2
;
_chemical_formula_sum "Si O2"
_cell_formula_units_Z 16
_cell_length_a 9.244796
_cell_length_b 9.340586
_cell_length_c 9.334437
_cell_angle_alpha 90.000000
_cell_angle_beta 94.030697
_cell_angle_gamma 90.000000
_cell_volume 804.051824
_symmetry_space_group_name_H-M "P 2"
_symmetry_group_IT_number 3
_symmetry_cell_setting 'monoclinic'
loop_
_space_group_symop_operation_xyz
x,y,z
-x,y,-z
loop_
_atom_site_type_symbol
_atom_site_label
_atom_site_fract_x
_atom_site_fract_y
_atom_site_fract_z
Si Si1 0.142765 0.964870 0.603808
Si Si2 0.637167 0.631675 0.724976
Si Si3 0.414385 0.936384 0.140929
Si Si4 0.345690 0.453536 0.771495
Si Si5 0.416457 0.153188 0.639176
Si Si6 0.829640 0.576652 0.001358
Si Si7 0.847552 0.905573 0.064590
Si Si8 0.170313 0.630584 0.539182
O O1 0.136446 0.971680 0.776835
O O2 0.175431 0.799034 0.573954
O O3 0.000000 0.001649 0.500000
O O4 0.278154 0.063315 0.575804
O O5 0.601007 0.796742 0.760232
O O6 0.495110 0.539690 0.753288
O O7 0.708070 0.609836 0.575256
O O8 0.767904 0.592236 0.839103
O O9 0.491484 0.055241 0.243460
O O10 0.500000 0.898220 0.000000
O O11 0.262512 0.977318 0.056044
O O12 0.368622 0.293051 0.721684
O O13 0.278725 0.469864 0.924633
O O14 0.222577 0.530325 0.669406
O O15 0.500000 0.194141 0.500000
O O16 0.810014 0.735247 0.071419
O O17 0.000000 0.541322 0.000000
O O18 0.000000 0.908677 0.000000
O O19 0.000000 0.599675 0.500000
#
# Coordination Sequence:
#
# PCOD9113362 Si02
#       8
#     2   2   2   2   2   2   2   2
#     4  11  24  42  66  98 129 168 218 274 329 388
#     4  11  22  38  66  99 125 166 215 272 325 381
#     4  11  22  41  67  95 130 166 214 275 328 388
#     4  12  24  44  63  93 132 173 219 263 318 390
#     4  12  27  44  63  91 135 181 219 266 322 387
#     4  10  21  40  68  98 130 160 209 271 331 384
#     4  10  21  39  69 101 128 161 210 276 334 384
#     4  11  23  39  67  96 128 167 217 270 328 385
#
# _framework density 19.899215999999999
#
# number of rings (size 3 to 8) (size 9 to 14) (size 15 to 20)
#    0.000    1.000    2.500    5.250   10.500    1.500 
#    0.000    1.875    0.000    0.000    0.000    0.000 
#    0.000    0.000    0.000    0.000    0.000    0.000 
#
# Total GULP energy -89315.674160 kJ/mol
# GULP energy per Si atom -5582.229635 kJ/mol
# Density = 1.985392 g / cm^3
# Si number density = 19.899216 Si / 1000 Ang^3
#
#
#
# Elastic Constant Matrix: (Units=GPa)
#
#
# Indices 1 2 3 4 5 6 
#
# 1 100.2253 36.0895 -7.7944 0.0000 23.4205 0.0000
# 2 36.0895 44.2704 -5.3637 0.0000 19.9642 0.0000
# 3 -7.7944 -5.3637 28.1067 0.0000 7.4475 0.0000
# 4 0.0000 0.0000 0.0000 42.7214 0.0000 -5.0144
# 5 23.4205 19.9642 7.4475 0.0000 41.9011 0.0000
# 6 0.0000 0.0000 0.0000 -5.0144 0.0000 4.2004
#
#
#
# Elastic Compliance Matrix: (Units=1/GPa)
#
#
# Indices 1 2 3 4 5 6 
#
# 1 0.014708 -0.009693 0.003341 0.000000 -0.004197 0.000000
# 2 -0.009693 0.037842 0.008264 0.000000 -0.014081 0.000000
# 3 0.003341 0.008264 0.041579 0.000000 -0.013195 0.000000
# 4 0.000000 0.000000 0.000000 0.027222 0.000000 0.032497
# 5 -0.004197 -0.014081 -0.013195 0.000000 0.035266 0.000000
# 6 0.000000 0.000000 0.000000 0.032497 0.000000 0.276869
#
#
# Mechanical properties :
#
#
# Convention : Reuss Voigt Hill
#
# Bulk Modulus (GPa) = 10.20888 24.27392 17.24140
# Shear Modulus (GPa) = 10.81523 27.74264 19.27893
#
# Velocity S-wave (km/s) = 2.33384 3.73789 3.11598
# Velocity P-wave (km/s) = 3.52191 5.55464 4.65069
#
# Compressibility (1/GPa) = 0.09795392
#
# Stress axis : x y z
#
# Youngs Moduli (GPa) = 67.98866 26.42594 24.05074
#
# Poissons Ratio (x) = 0.25615 -0.08036
# Poissons Ratio (y) = 0.65901 -0.19877
# Poissons Ratio (z) = -0.22716 -0.21840
#
# Static dielectric constant tensor:
#      x y z
#    x 1.571010 0.000000 -0.104600 
#    y 0.000000 1.695260 0.000000 
#    z -0.104600 0.000000 1.673370 
# 
# From -- ./inp_files/5588.got.cif
#   From: 2010.05.17/outbox.cif.g08.bks.cpg/sg3_3_cif.got.tgz:5588.got - 2010.06.03 18:33:08.
