data_PCOD9113798
_publ_section_title
;
Structure prediction by ZEFSAII (Michael W. Deem and Ramdas Pophale) SiO2 
 PCOD9113798
Probable space group: P 2
;
_chemical_formula_sum "Si O2"
_cell_formula_units_Z 12
_cell_length_a 13.079128
_cell_length_b 5.292438
_cell_length_c 9.652998
_cell_angle_alpha 90.000000
_cell_angle_beta 134.327888
_cell_angle_gamma 90.000000
_cell_volume 477.988016
_symmetry_space_group_name_H-M "P 2"
_symmetry_group_IT_number 3
_symmetry_cell_setting 'monoclinic'
loop_
_space_group_symop_operation_xyz
x,y,z
-x,y,-z
loop_
_atom_site_type_symbol
_atom_site_label
_atom_site_fract_x
_atom_site_fract_y
_atom_site_fract_z
Si Si1 0.441296 0.821800 0.795962
Si Si2 0.156679 0.817329 0.383757
Si Si3 0.729474 0.482158 0.730246
Si Si4 0.471402 0.313185 0.676696
Si Si5 0.907663 0.001630 0.274005
Si Si6 0.888802 0.498615 0.152584
O O1 0.273004 0.871207 0.610508
O O2 0.454886 0.523605 0.779241
O O3 0.508997 0.029827 0.755561
O O4 0.500000 0.884766 0.000000
O O5 0.235188 0.743424 0.316000
O O6 0.055655 0.574829 0.326775
O O7 0.029662 0.019858 0.266963
O O8 0.593183 0.446216 0.700221
O O9 0.676670 0.309226 0.551827
O O10 0.854123 0.446728 0.959770
O O11 0.835970 0.271000 0.197505
O O12 0.000000 0.964852 0.500000
O O13 0.818232 0.758802 0.143134
#
# Coordination Sequence:
#
# PCOD9113798 Si02
#       6
#     2   2   2   2   2   2
#     4  11  24  45  68  97 134 182 230 271 341 402
#     4   9  24  42  67  98 135 177 220 286 333 400
#     4  10  22  45  66  99 137 169 232 274 346 401
#     4  10  25  42  68 101 131 180 222 293 324 403
#     4  10  23  42  62  99 133 176 224 272 340 400
#     4  10  23  40  67  98 128 184 216 281 345 396
#
# _framework density 25.105229999999999
#
# number of rings (size 3 to 8) (size 9 to 14) (size 15 to 20)
#    1.000    1.000    0.000    1.500    4.667   12.000 
#    3.000    0.000    0.000    0.000    0.000    0.000 
#    0.000    0.000    0.000    0.000    0.000    0.000 
#
# Total GULP energy -66841.423101 kJ/mol
# GULP energy per Si atom -5570.118592 kJ/mol
# Density = 2.504809 g / cm^3
# Si number density = 25.105230 Si / 1000 Ang^3
#
#
#
# Elastic Constant Matrix: (Units=GPa)
#
#
# Indices 1 2 3 4 5 6 
#
# 1 38.8773 3.6259 3.1845 0.0000 5.1404 0.0000
# 2 3.6259 138.9686 42.2707 0.0000 -4.2828 0.0000
# 3 3.1845 42.2707 162.8175 0.0000 -16.8164 0.0000
# 4 0.0000 0.0000 0.0000 16.6961 0.0000 0.9241
# 5 5.1404 -4.2828 -16.8164 0.0000 26.0205 0.0000
# 6 0.0000 0.0000 0.0000 0.9241 0.0000 13.0652
#
#
#
# Elastic Compliance Matrix: (Units=1/GPa)
#
#
# Indices 1 2 3 4 5 6 
#
# 1 0.026650 -0.000579 -0.000991 0.000000 -0.006000 0.000000
# 2 -0.000579 0.007825 -0.002010 0.000000 0.000104 0.000000
# 3 -0.000991 -0.002010 0.007146 0.000000 0.004483 0.000000
# 4 0.000000 0.000000 0.000000 0.060130 0.000000 -0.004253
# 5 -0.006000 0.000104 0.004483 0.000000 0.042531 0.000000
# 6 0.000000 0.000000 0.000000 -0.004253 0.000000 0.076840
#
#
# Mechanical properties :
#
#
# Convention : Reuss Voigt Hill
#
# Bulk Modulus (GPa) = 29.01625 48.75840 38.88733
# Shear Modulus (GPa) = 20.85341 30.59518 25.72429
#
# Velocity S-wave (km/s) = 2.88521 3.49474 3.20450
# Velocity P-wave (km/s) = 4.76258 5.97897 5.40510
#
# Compressibility (1/GPa) = 0.03446345
#
# Stress axis : x y z
#
# Youngs Moduli (GPa) = 37.52275 127.78825 139.93846
#
# Poissons Ratio (x) = 0.07398 0.13864
# Poissons Ratio (y) = 0.02172 0.28122
# Poissons Ratio (z) = 0.03717 0.25681
#
# Static dielectric constant tensor:
#      x y z
#    x 2.100390 0.000000 0.001720 
#    y 0.000000 2.038360 0.000000 
#    z 0.001720 0.000000 1.964400 
# 
# From -- ./inp_files/8356.got.cif
#   From: 2010.05.17/outbox.cif.g08.bks.cpg/sg3_5_cif.got.tgz:8356.got - 2010.06.03 18:33:08.
