data_PCOD9113033
_publ_section_title
;
Structure prediction by ZEFSAII (Michael W. Deem and Ramdas Pophale) SiO2 
 PCOD9113033
Probable space group: P 2
;
_chemical_formula_sum "Si O2"
_cell_formula_units_Z 14
_cell_length_a 8.532342
_cell_length_b 6.625700
_cell_length_c 17.282984
_cell_angle_alpha 90.000000
_cell_angle_beta 41.526919
_cell_angle_gamma 90.000000
_cell_volume 647.759575
_symmetry_space_group_name_H-M "P 2"
_symmetry_group_IT_number 3
_symmetry_cell_setting 'monoclinic'
loop_
_space_group_symop_operation_xyz
x,y,z
-x,y,-z
loop_
_atom_site_type_symbol
_atom_site_label
_atom_site_fract_x
_atom_site_fract_y
_atom_site_fract_z
Si Si1 0.189129 0.073220 0.986901
Si Si2 0.663757 0.920163 0.747036
Si Si3 0.134283 0.562168 0.237849
Si Si4 0.618198 0.813048 0.535843
Si Si5 0.000000 0.813378 0.500000
Si Si6 0.867530 0.877876 0.225521
Si Si7 0.500000 0.312100 0.000000
Si Si8 0.914820 0.155956 0.341753
O O1 0.333006 0.187991 0.001757
O O2 0.395123 0.979244 0.857682
O O3 0.000000 0.184138 0.000000
O O4 0.027359 0.909827 0.091720
O O5 0.718938 0.692320 0.754011
O O6 0.799542 0.944664 0.616088
O O7 0.823934 0.063561 0.741700
O O8 0.995565 0.721484 0.235652
O O9 0.952151 0.392615 0.335335
O O10 0.324772 0.448914 0.114776
O O11 0.500000 0.733057 0.500000
O O12 0.404700 0.812956 0.676105
O O13 0.842321 0.705724 0.493045
O O14 0.735780 0.028000 0.462996
O O15 0.850352 0.090456 0.278486
#
# Coordination Sequence:
#
# PCOD9113033 Si02
#       8
#     2   2   2   2   1   2   1   2
#     4  12  23  40  68  97 135 176 223 271 338 395
#     4  10  21  39  64  95 130 174 220 272 325 395
#     4  11  20  38  71  97 130 174 226 272 330 398
#     4   9  19  37  62  88 124 167 216 259 319 388
#     4  10  20  40  64  86 128 170 212 270 322 378
#     4  10  20  38  62  96 130 171 215 274 332 385
#     4  12  22  42  68  98 138 172 222 276 334 392
#     4   9  18  37  64  95 123 170 222 262 325 393
#
# _framework density 21.612957999999999
#
# number of rings (size 3 to 8) (size 9 to 14) (size 15 to 20)
#    0.000    1.714    2.857    3.429    0.000    0.000 
#    0.000   22.143    0.000    0.000    0.000    0.000 
#    0.000    0.000    0.000    0.000    0.000    0.000 
#
# Total GULP energy -77943.329726 kJ/mol
# GULP energy per Si atom -5567.380695 kJ/mol
# Density = 2.156377 g / cm^3
# Si number density = 21.612958 Si / 1000 Ang^3
#
#
#
# Elastic Constant Matrix: (Units=GPa)
#
#
# Indices 1 2 3 4 5 6 
#
# 1 145.3848 23.3878 30.5728 0.0000 -29.7857 0.0000
# 2 23.3878 67.6348 19.2532 0.0000 -1.2992 0.0000
# 3 30.5728 19.2532 179.7682 0.0000 -21.4228 0.0000
# 4 0.0000 0.0000 0.0000 30.8926 0.0000 -1.2967
# 5 -29.7857 -1.2992 -21.4228 0.0000 38.4608 0.0000
# 6 0.0000 0.0000 0.0000 -1.2967 0.0000 9.2934
#
#
#
# Elastic Compliance Matrix: (Units=1/GPa)
#
#
# Indices 1 2 3 4 5 6 
#
# 1 0.008732 -0.002776 -0.000421 0.000000 0.006434 0.000000
# 2 -0.002776 0.016139 -0.001551 0.000000 -0.002468 0.000000
# 3 -0.000421 -0.001551 0.006164 0.000000 0.003055 0.000000
# 4 0.000000 0.000000 0.000000 0.032561 0.000000 0.004543
# 5 0.006434 -0.002468 0.003055 0.000000 0.032602 0.000000
# 6 0.000000 0.000000 0.000000 0.004543 0.000000 0.108237
#
#
# Mechanical properties :
#
#
# Convention : Reuss Voigt Hill
#
# Bulk Modulus (GPa) = 46.42450 59.91281 53.16865
# Shear Modulus (GPa) = 22.61322 37.03428 29.82375
#
# Velocity S-wave (km/s) = 3.23814 4.14396 3.71873
# Velocity P-wave (km/s) = 5.95880 7.11881 6.56448
#
# Compressibility (1/GPa) = 0.02154035
#
# Stress axis : x y z
#
# Youngs Moduli (GPa) = 114.52783 61.96109 162.22006
#
# Poissons Ratio (x) = 0.17200 0.06828
# Poissons Ratio (y) = 0.31792 0.25153
# Poissons Ratio (z) = 0.04821 0.09607
#
# Static dielectric constant tensor:
#      x y z
#    x 1.910180 0.000000 0.052110 
#    y 0.000000 1.773890 0.000000 
#    z 0.052110 0.000000 1.839930 
# 
# From -- ./inp_files/6650.got.cif
#   From: 2010.05.17/outbox.cif.g08.bks.cpg/sg3_4_cif.got.tgz:6650.got - 2010.06.03 18:33:08.
