data_PCOD9113710
_publ_section_title
;
Structure prediction by ZEFSAII (Michael W. Deem and Ramdas Pophale) SiO2 
 PCOD9113710
Probable space group: P 2
;
_chemical_formula_sum "Si O2"
_cell_formula_units_Z 14
_cell_length_a 15.883200
_cell_length_b 5.665523
_cell_length_c 7.530895
_cell_angle_alpha 90.000000
_cell_angle_beta 121.927659
_cell_angle_gamma 90.000000
_cell_volume 575.158105
_symmetry_space_group_name_H-M "P 2"
_symmetry_group_IT_number 3
_symmetry_cell_setting 'monoclinic'
loop_
_space_group_symop_operation_xyz
x,y,z
-x,y,-z
loop_
_atom_site_type_symbol
_atom_site_label
_atom_site_fract_x
_atom_site_fract_y
_atom_site_fract_z
Si Si1 0.061891 0.356760 0.885843
Si Si2 0.220155 0.871788 0.641908
Si Si3 0.257286 0.606067 0.036965
Si Si4 0.433564 0.901090 0.293269
Si Si5 0.576808 0.619242 0.240812
Si Si6 0.357466 0.237332 0.908083
Si Si7 0.012335 0.853778 0.227579
O O1 0.176617 0.438696 0.041220
O O2 0.018588 0.591181 0.742641
O O3 0.045719 0.096343 0.782630
O O4 0.000000 0.338963 0.000000
O O5 0.206069 0.742961 0.815488
O O6 0.317385 0.747882 0.663170
O O7 0.125618 0.876367 0.412698
O O8 0.253186 0.134948 0.727125
O O9 0.325547 0.790725 0.221183
O O10 0.336372 0.444912 0.022612
O O11 0.500000 0.058827 0.500000
O O12 0.517670 0.704490 0.344050
O O13 0.409120 0.042266 0.085765
O O14 0.500000 0.686080 0.000000
O O15 0.593424 0.344492 0.213421
O O16 0.000000 0.841728 0.000000
#
# Coordination Sequence:
#
# PCOD9113710 Si02
#       7
#     2   2   2   2   2   2   2
#     4  10  24  46  71  95 142 187 237 298 377 431
#     4  10  23  41  70 102 132 187 241 289 355 442
#     4  10  23  43  68  98 143 186 236 302 359 445
#     4  11  25  43  68 111 146 186 240 306 370 440
#     4  11  21  42  71  98 142 189 235 288 353 448
#     4  10  22  42  69  95 146 184 243 285 367 438
#     4  10  24  46  69 100 140 180 239 303 365 430
#
# _framework density 24.341134
#
# number of rings (size 3 to 8) (size 9 to 14) (size 15 to 20)
#    0.000    1.714    4.286    0.000   10.000    3.429 
#    5.143    0.000    0.000    0.000    0.000    0.000 
#    0.000    0.000    0.000    0.000    0.000    0.000 
#
# Total GULP energy -78026.062721 kJ/mol
# GULP energy per Si atom -5573.290194 kJ/mol
# Density = 2.428573 g / cm^3
# Si number density = 24.341134 Si / 1000 Ang^3
#
#
#
# Elastic Constant Matrix: (Units=GPa)
#
#
# Indices 1 2 3 4 5 6 
#
# 1 98.4412 15.3814 19.6445 0.0000 14.2652 0.0000
# 2 15.3814 122.4564 13.1802 0.0000 15.4217 0.0000
# 3 19.6445 13.1802 146.3346 0.0000 29.1650 0.0000
# 4 0.0000 0.0000 0.0000 12.6761 0.0000 15.5929
# 5 14.2652 15.4217 29.1650 0.0000 35.3226 0.0000
# 6 0.0000 0.0000 0.0000 15.5929 0.0000 39.6962
#
#
#
# Elastic Compliance Matrix: (Units=1/GPa)
#
#
# Indices 1 2 3 4 5 6 
#
# 1 0.010934 -0.000862 -0.000700 0.000000 -0.003461 0.000000
# 2 -0.000862 0.008709 0.000024 0.000000 -0.003474 0.000000
# 3 -0.000700 0.000024 0.008225 0.000000 -0.006518 0.000000
# 4 0.000000 0.000000 0.000000 0.152646 0.000000 -0.059960
# 5 -0.003461 -0.003474 -0.006518 0.000000 0.036607 0.000000
# 6 0.000000 0.000000 0.000000 -0.059960 0.000000 0.048744
#
#
# Mechanical properties :
#
#
# Convention : Reuss Voigt Hill
#
# Bulk Modulus (GPa) = 40.33777 51.51604 45.92690
# Shear Modulus (GPa) = 18.03703 38.80737 28.42220
#
# Velocity S-wave (km/s) = 2.72510 3.99722 3.42081
# Velocity P-wave (km/s) = 5.14873 6.52026 5.87466
#
# Compressibility (1/GPa) = 0.02479066
#
# Stress axis : x y z
#
# Youngs Moduli (GPa) = 91.45451 114.81846 121.58523
#
# Poissons Ratio (x) = 0.09899 0.08516
# Poissons Ratio (y) = 0.07885 -0.00287
# Poissons Ratio (z) = 0.06405 -0.00271
#
# Static dielectric constant tensor:
#      x y z
#    x 1.994860 0.000000 -0.007340 
#    y 0.000000 2.042890 0.000000 
#    z -0.007340 0.000000 1.912290 
# 
# From -- ./inp_files/8940.got.cif
#   From: 2010.05.17/outbox.cif.g08.bks.cpg/sg3_5_cif.got.tgz:8940.got - 2010.06.03 18:33:08.
