data_PCOD9113227
_publ_section_title
;
Structure prediction by ZEFSAII (Michael W. Deem and Ramdas Pophale) SiO2 
 PCOD9113227
Probable space group: P 2
;
_chemical_formula_sum "Si O2"
_cell_formula_units_Z 14
_cell_length_a 15.495218
_cell_length_b 8.136519
_cell_length_c 16.091909
_cell_angle_alpha 90.000000
_cell_angle_beta 162.158146
_cell_angle_gamma 90.000000
_cell_volume 621.612220
_symmetry_space_group_name_H-M "P 2"
_symmetry_group_IT_number 3
_symmetry_cell_setting 'monoclinic'
loop_
_space_group_symop_operation_xyz
x,y,z
-x,y,-z
loop_
_atom_site_type_symbol
_atom_site_label
_atom_site_fract_x
_atom_site_fract_y
_atom_site_fract_z
Si Si1 0.290020 0.110790 0.731339
Si Si2 0.156819 0.912300 0.334916
Si Si3 0.000000 0.240414 0.000000
Si Si4 0.629211 0.589012 0.381574
Si Si5 0.711846 0.496793 0.271397
Si Si6 0.500000 0.006726 0.500000
Si Si7 0.576569 0.076421 0.825753
Si Si8 0.910579 0.402146 0.093458
O O1 0.239301 0.303348 0.662965
O O2 0.439806 0.035048 0.788930
O O3 0.000000 0.038007 0.500000
O O4 0.500000 0.107037 0.000000
O O5 0.245066 0.759685 0.471569
O O6 0.304748 0.899541 0.381391
O O7 0.319618 0.066382 0.525988
O O8 0.827802 0.951868 0.031986
O O9 0.016325 0.343326 0.100063
O O10 0.276121 0.125248 0.248704
O O11 0.623676 0.578091 0.276776
O O12 0.841718 0.456804 0.618060
O O13 0.314069 0.549466 0.123217
O O14 0.000000 0.568405 0.500000
O O15 0.500000 0.505941 0.000000
O O16 0.726126 0.253562 0.963096
#
# Coordination Sequence:
#
# PCOD9113227 Si02
#       8
#     2   2   1   2   2   1   2   2
#     4  10  21  36  64 101 128 164 223 290 331 388
#     4  12  26  43  68  98 142 189 221 284 355 423
#     4  12  24  42  70 104 134 180 242 294 334 398
#     4  12  26  44  67 106 139 178 232 287 353 408
#     4  10  21  38  65  97 129 172 220 281 342 406
#     4  12  22  44  66  98 138 184 240 274 356 424
#     4  12  23  44  69 100 131 184 233 279 345 414
#     4  12  24  42  71  99 135 176 239 294 328 404
#
# _framework density 22.522079999999999
#
# number of rings (size 3 to 8) (size 9 to 14) (size 15 to 20)
#    0.000    0.571    4.286    4.286    4.000    1.143 
#    0.000    2.857    0.000    0.000    0.000    0.000 
#    0.000    0.000    0.000    0.000    0.000    0.000 
#
# Total GULP energy -78339.531024 kJ/mol
# GULP energy per Si atom -5595.680787 kJ/mol
# Density = 2.247082 g / cm^3
# Si number density = 22.522080 Si / 1000 Ang^3
#
#
#
# Elastic Constant Matrix: (Units=GPa)
#
#
# Indices 1 2 3 4 5 6 
#
# 1 167.4012 13.9367 19.3528 0.0000 9.4075 0.0000
# 2 13.9367 56.6995 11.1206 0.0000 -0.7238 0.0000
# 3 19.3528 11.1206 91.2132 0.0000 9.9962 0.0000
# 4 0.0000 0.0000 0.0000 38.2332 0.0000 -21.0655
# 5 9.4075 -0.7238 9.9962 0.0000 39.9441 0.0000
# 6 0.0000 0.0000 0.0000 -21.0655 0.0000 28.9956
#
#
#
# Elastic Compliance Matrix: (Units=1/GPa)
#
#
# Indices 1 2 3 4 5 6 
#
# 1 0.006276 -0.001356 -0.001030 0.000000 -0.001245 0.000000
# 2 -0.001356 0.018394 -0.002083 0.000000 0.001174 0.000000
# 3 -0.001030 -0.002083 0.011735 0.000000 -0.002732 0.000000
# 4 0.000000 0.000000 0.000000 0.043613 0.000000 0.031685
# 5 -0.001245 0.001174 -0.002732 0.000000 0.026033 0.000000
# 6 0.000000 0.000000 0.000000 0.031685 0.000000 0.057508
#
#
# Mechanical properties :
#
#
# Convention : Reuss Voigt Hill
#
# Bulk Modulus (GPa) = 36.40932 44.90380 40.65656
# Shear Modulus (GPa) = 27.52503 39.49483 33.50993
#
# Velocity S-wave (km/s) = 3.49970 4.19215 3.86148
# Velocity P-wave (km/s) = 5.70365 6.58886 6.16217
#
# Compressibility (1/GPa) = 0.02746549
#
# Stress axis : x y z
#
# Youngs Moduli (GPa) = 159.34723 54.36587 85.21357
#
# Poissons Ratio (x) = 0.07375 0.08774
# Poissons Ratio (y) = 0.21615 0.17754
# Poissons Ratio (z) = 0.16408 0.11327
#
# Static dielectric constant tensor:
#      x y z
#    x 1.754870 0.000000 0.033370 
#    y 0.000000 1.886020 0.000000 
#    z 0.033370 0.000000 1.774890 
# 
# From -- ./inp_files/14001.got.cif
#   From: 2010.05.17/outbox.cif.g08.bks.cpg/sg3_8_cif.got.tgz:14001.got - 2010.06.03 18:33:08.
