data_PCOD9113432
_publ_section_title
;
Structure prediction by ZEFSAII (Michael W. Deem and Ramdas Pophale) SiO2 
 PCOD9113432
Probable space group: P 2
;
_chemical_formula_sum "Si O2"
_cell_formula_units_Z 13
_cell_length_a 11.970255
_cell_length_b 6.095256
_cell_length_c 13.012617
_cell_angle_alpha 90.000000
_cell_angle_beta 146.254432
_cell_angle_gamma 90.000000
_cell_volume 527.410398
_symmetry_space_group_name_H-M "P 2"
_symmetry_group_IT_number 3
_symmetry_cell_setting 'monoclinic'
loop_
_space_group_symop_operation_xyz
x,y,z
-x,y,-z
loop_
_atom_site_type_symbol
_atom_site_label
_atom_site_fract_x
_atom_site_fract_y
_atom_site_fract_z
Si Si1 0.616851 0.029830 0.185998
Si Si2 0.000000 0.008731 0.000000
Si Si3 0.953510 0.980557 0.293217
Si Si4 0.176383 0.295933 0.309514
Si Si5 0.489812 0.324775 0.714146
Si Si6 0.146415 0.658341 0.956155
Si Si7 0.794521 0.651134 0.398539
O O1 0.512055 0.120931 0.208504
O O2 0.838724 0.067919 0.305845
O O3 0.628074 0.765987 0.201213
O O4 0.500000 0.123450 0.000000
O O5 0.869164 0.848640 0.971012
O O6 0.856221 0.161044 0.820673
O O7 0.147771 0.849415 0.481404
O O8 0.834966 0.794176 0.136613
O O9 0.027660 0.169816 0.275316
O O10 0.399208 0.289722 0.530502
O O11 0.069879 0.532036 0.212925
O O12 0.684795 0.478945 0.882104
O O13 0.300491 0.454268 0.616535
O O14 0.000000 0.593476 0.500000
#
# Coordination Sequence:
#
# PCOD9113432 Si02
#       7
#     2   1   2   2   2   2   2
#     4  11  23  37  59 102 145 191 236 277 333 425
#     4  10  26  52  76  96 146 180 240 316 384 422
#     4  10  21  41  66  95 151 189 229 285 351 417
#     4  11  23  46  74 100 135 186 236 302 365 432
#     4  12  25  40  73 105 141 183 242 285 352 432
#     4  11  24  47  74 106 134 189 239 305 360 426
#     4  10  22  37  62  97 144 195 227 273 338 415
#
# _framework density 24.648734999999999
#
# number of rings (size 3 to 8) (size 9 to 14) (size 15 to 20)
#    0.000    1.231    3.077    2.308    2.154    4.308 
#    0.000    4.615    0.000    0.000    0.000    0.000 
#    0.000    0.000    0.000    0.000    0.000    0.000 
#
# Total GULP energy -72536.062666 kJ/mol
# GULP energy per Si atom -5579.697128 kJ/mol
# Density = 2.459263 g / cm^3
# Si number density = 24.648735 Si / 1000 Ang^3
#
#
#
# Elastic Constant Matrix: (Units=GPa)
#
#
# Indices 1 2 3 4 5 6 
#
# 1 76.8402 29.2443 39.2310 0.0000 -17.9017 0.0000
# 2 29.2443 65.5041 31.1823 0.0000 -4.9649 0.0000
# 3 39.2310 31.1823 168.7860 0.0000 -10.7216 0.0000
# 4 0.0000 0.0000 0.0000 36.0654 0.0000 1.7030
# 5 -17.9017 -4.9649 -10.7216 0.0000 36.8458 0.0000
# 6 0.0000 0.0000 0.0000 1.7030 0.0000 44.0421
#
#
#
# Elastic Compliance Matrix: (Units=1/GPa)
#
#
# Indices 1 2 3 4 5 6 
#
# 1 0.018540 -0.006458 -0.002648 0.000000 0.007367 0.000000
# 2 -0.006458 0.019057 -0.002095 0.000000 -0.001179 0.000000
# 3 -0.002648 -0.002095 0.006956 0.000000 0.000455 0.000000
# 4 0.000000 0.000000 0.000000 0.027778 0.000000 -0.001074
# 5 0.007367 -0.001179 0.000455 0.000000 0.030693 0.000000
# 6 0.000000 0.000000 0.000000 -0.001074 0.000000 0.022747
#
#
# Mechanical properties :
#
#
# Convention : Reuss Voigt Hill
#
# Bulk Modulus (GPa) = 45.14362 56.71615 50.92989
# Shear Modulus (GPa) = 32.14241 37.48885 34.81563
#
# Velocity S-wave (km/s) = 3.61504 3.90413 3.76236
# Velocity P-wave (km/s) = 5.98157 6.58656 6.29134
#
# Compressibility (1/GPa) = 0.02215152
#
# Stress axis : x y z
#
# Youngs Moduli (GPa) = 53.93641 52.47361 143.75954
#
# Poissons Ratio (x) = 0.33889 0.38071
# Poissons Ratio (y) = 0.34834 0.30111
# Poissons Ratio (z) = 0.14284 0.10991
#
# Static dielectric constant tensor:
#      x y z
#    x 2.064810 0.000000 -0.042180 
#    y 0.000000 1.960300 0.000000 
#    z -0.042180 0.000000 2.384900 
# 
# From -- ./inp_files/13856.got.cif
#   From: 2010.05.17/outbox.cif.g08.bks.cpg/sg3_7_cif.got.tgz:13856.got - 2010.06.03 18:33:08.
