data_PCOD9113536
_publ_section_title
;
Structure prediction by ZEFSAII (Michael W. Deem and Ramdas Pophale) SiO2 
 PCOD9113536
Probable space group: P 2
;
_chemical_formula_sum "Si O2"
_cell_formula_units_Z 10
_cell_length_a 11.260507
_cell_length_b 8.205019
_cell_length_c 8.220432
_cell_angle_alpha 90.000000
_cell_angle_beta 141.613924
_cell_angle_gamma 90.000000
_cell_volume 471.621853
_symmetry_space_group_name_H-M "P 2"
_symmetry_group_IT_number 3
_symmetry_cell_setting 'monoclinic'
loop_
_space_group_symop_operation_xyz
x,y,z
-x,y,-z
loop_
_atom_site_type_symbol
_atom_site_label
_atom_site_fract_x
_atom_site_fract_y
_atom_site_fract_z
Si Si1 0.269755 0.429120 0.241813
Si Si2 0.500000 0.978315 0.000000
Si Si3 0.677861 0.273627 0.025558
Si Si4 0.738033 0.408852 0.413873
Si Si5 0.862159 0.781996 0.507024
Si Si6 0.000000 0.730533 0.000000
O O1 0.500000 0.445920 0.500000
O O2 0.223031 0.320129 0.035090
O O3 0.204836 0.353666 0.344407
O O4 0.171107 0.606345 0.130935
O O5 0.588876 0.095894 0.956043
O O6 0.333433 0.873618 0.742120
O O7 0.493827 0.395595 0.830865
O O8 0.791599 0.305321 0.313792
O O9 0.814461 0.589791 0.469296
O O10 0.000000 0.808977 0.500000
O O11 0.944228 0.824741 0.774707
#
# Coordination Sequence:
#
# PCOD9113536 Si02
#       6
#     2   1   2   2   2   1
#     4   9  17  33  57  86 112 141 189 250 298 331
#     4  10  22  40  60  86 126 166 196 230 296 376
#     4   9  17  35  59  82 111 153 196 240 292 344
#     4   8  16  31  56  81 104 139 195 244 278 331
#     4  11  22  39  59  88 124 159 197 244 298 354
#     4  10  22  36  60  96 118 146 206 254 294 352
#
# _framework density 21.203427000000001
#
# number of rings (size 3 to 8) (size 9 to 14) (size 15 to 20)
#    0.000    2.800    0.000    2.400    0.000    3.200 
#    0.000   24.000    0.000    4.800    0.000    0.000 
#    0.000    0.000    0.000    0.000    0.000    0.000 
#
# Total GULP energy -55719.498392 kJ/mol
# GULP energy per Si atom -5571.949839 kJ/mol
# Density = 2.115517 g / cm^3
# Si number density = 21.203427 Si / 1000 Ang^3
#
#
#
# Elastic Constant Matrix: (Units=GPa)
#
#
# Indices 1 2 3 4 5 6 
#
# 1 160.1119 46.3542 102.7037 0.0000 -38.3199 0.0000
# 2 46.3542 36.2303 30.0854 0.0000 -15.2564 0.0000
# 3 102.7037 30.0854 126.5915 0.0000 -37.5834 0.0000
# 4 0.0000 0.0000 0.0000 -21.3104 0.0000 -1.4761
# 5 -38.3199 -15.2564 -37.5834 0.0000 60.1675 0.0000
# 6 0.0000 0.0000 0.0000 -1.4761 0.0000 -0.9970
#
#
#
# Elastic Compliance Matrix: (Units=1/GPa)
#
#
# Indices 1 2 3 4 5 6 
#
# 1 0.016658 -0.012339 -0.010265 0.000000 0.001069 0.000000
# 2 -0.012339 0.044520 0.000551 0.000000 0.003774 0.000000
# 3 -0.010265 0.000551 0.017429 0.000000 0.004489 0.000000
# 4 0.000000 0.000000 0.000000 -0.052288 0.000000 0.077413
# 5 0.001069 0.003774 0.004489 0.000000 0.021062 0.000000
# 6 0.000000 0.000000 0.000000 0.077413 0.000000 -1.117604
#
#
# Mechanical properties :
#
#
# Convention : Reuss Voigt Hill
#
# Bulk Modulus (GPa) = 28.98489 75.69116 52.33802
# Shear Modulus (GPa) = -4.92798 17.15803 6.11502
#
# Velocity S-wave (km/s) = -1.52617 2.84775 1.70007
# Velocity P-wave (km/s) = 3.25484 6.82554 5.34705
#
# Compressibility (1/GPa) = 0.03450073
#
# Stress axis : x y z
#
# Youngs Moduli (GPa) = 60.03052 22.46174 57.37429
#
# Poissons Ratio (x) = 0.27715 0.58895
# Poissons Ratio (y) = 0.74071 -0.03159
# Poissons Ratio (z) = 0.61622 -0.01237
#
# Static dielectric constant tensor:
#      x y z
#    x 1.859260 0.000000 -0.027690 
#    y 0.000000 1.716320 0.000000 
#    z -0.027690 0.000000 1.836050 
# 
# From -- ./inp_files/6895.got.cif
#   From: 2010.05.17/outbox.cif.g08.bks.cpg/sg3_4_cif.got.tgz:6895.got - 2010.06.03 18:33:08.
