data_PCOD9113067
_publ_section_title
;
Structure prediction by ZEFSAII (Michael W. Deem and Ramdas Pophale) SiO2 
 PCOD9113067
Probable space group: P 2
;
_chemical_formula_sum "Si O2"
_cell_formula_units_Z 12
_cell_length_a 21.992453
_cell_length_b 5.567336
_cell_length_c 12.498165
_cell_angle_alpha 90.000000
_cell_angle_beta 20.848636
_cell_angle_gamma 90.000000
_cell_volume 544.622773
_symmetry_space_group_name_H-M "P 2"
_symmetry_group_IT_number 3
_symmetry_cell_setting 'monoclinic'
loop_
_space_group_symop_operation_xyz
x,y,z
-x,y,-z
loop_
_atom_site_type_symbol
_atom_site_label
_atom_site_fract_x
_atom_site_fract_y
_atom_site_fract_z
Si Si1 0.471340 0.340710 0.920090
Si Si2 0.645127 0.823077 0.989041
Si Si3 0.670758 0.930947 0.367262
Si Si4 0.000000 0.698528 0.500000
Si Si5 0.500000 0.301966 0.500000
Si Si6 0.834325 0.552151 0.972225
Si Si7 0.832149 0.314282 0.210036
O O1 0.658505 0.380491 0.557801
O O2 0.500000 0.318597 0.000000
O O3 0.361573 0.582746 0.074394
O O4 0.394416 0.083566 0.002532
O O5 0.823259 0.836773 0.761971
O O6 0.480170 0.774321 0.336429
O O7 0.561799 0.145151 0.496559
O O8 0.800019 0.030783 0.242456
O O9 0.784440 0.821230 0.087198
O O10 0.971458 0.545398 0.654536
O O11 0.336566 0.451215 0.799404
O O12 0.857967 0.427447 0.048798
O O13 0.000000 0.366153 0.000000
#
# Coordination Sequence:
#
# PCOD9113067 Si02
#       7
#     2   2   2   1   1   2   2
#     4  11  25  48  76 103 147 191 243 296 362 432
#     4  11  25  47  69 108 143 194 237 295 366 423
#     4  10  21  43  67  94 135 185 240 283 365 424
#     4  12  28  40  70 108 152 186 240 308 354 442
#     4  10  20  38  70  90 136 182 234 284 358 432
#     4  11  23  43  64 102 137 188 232 298 356 427
#     4  10  24  43  69 103 133 188 237 302 348 429
#
# _framework density 22.033601999999998
#
# number of rings (size 3 to 8) (size 9 to 14) (size 15 to 20)
#    0.000    1.333    1.667    3.000    7.000    2.667 
#    3.000    0.000    0.000    0.000    0.000    0.000 
#    0.000    0.000    0.000    0.000    0.000    0.000 
#
# Total GULP energy -66865.001322 kJ/mol
# GULP energy per Si atom -5572.083444 kJ/mol
# Density = 2.198345 g / cm^3
# Si number density = 22.033602 Si / 1000 Ang^3
#
#
#
# Elastic Constant Matrix: (Units=GPa)
#
#
# Indices 1 2 3 4 5 6 
#
# 1 152.9575 54.5579 71.0378 0.0000 -5.1770 0.0000
# 2 54.5579 81.1140 33.0537 0.0000 -16.4699 0.0000
# 3 71.0378 33.0537 112.2179 0.0000 3.4895 0.0000
# 4 0.0000 0.0000 0.0000 45.9310 0.0000 0.2431
# 5 -5.1770 -16.4699 3.4895 0.0000 45.9898 0.0000
# 6 0.0000 0.0000 0.0000 0.2431 0.0000 34.0038
#
#
#
# Elastic Compliance Matrix: (Units=1/GPa)
#
#
# Indices 1 2 3 4 5 6 
#
# 1 0.010855 -0.005170 -0.005342 0.000000 -0.000224 0.000000
# 2 -0.005170 0.017917 -0.002191 0.000000 0.006001 0.000000
# 3 -0.005342 -0.002191 0.013012 0.000000 -0.002373 0.000000
# 4 0.000000 0.000000 0.000000 0.021773 0.000000 -0.000156
# 5 -0.000224 0.006001 -0.002373 0.000000 0.024048 0.000000
# 6 0.000000 0.000000 0.000000 -0.000156 0.000000 0.029410
#
#
# Mechanical properties :
#
#
# Convention : Reuss Voigt Hill
#
# Bulk Modulus (GPa) = 61.05758 73.73201 67.39479
# Shear Modulus (GPa) = 33.81121 37.69427 35.75274
#
# Velocity S-wave (km/s) = 3.92156 4.14062 4.03258
# Velocity P-wave (km/s) = 6.94810 7.50971 7.23436
#
# Compressibility (1/GPa) = 0.01637798
#
# Stress axis : x y z
#
# Youngs Moduli (GPa) = 92.12196 55.81275 76.85160
#
# Poissons Ratio (x) = 0.28855 0.41053
# Poissons Ratio (y) = 0.47627 0.16840
# Poissons Ratio (z) = 0.49211 0.12230
#
# Static dielectric constant tensor:
#      x y z
#    x 1.814080 0.000000 -0.004110 
#    y 0.000000 1.911080 0.000000 
#    z -0.004110 0.000000 1.735550 
# 
# From -- ./inp_files/6431.got.cif
#   From: 2010.05.17/outbox.cif.g08.bks.cpg/sg3_4_cif.got.tgz:6431.got - 2010.06.03 18:33:08.
