data_PCOD9113315
_publ_section_title
;
Structure prediction by ZEFSAII (Michael W. Deem and Ramdas Pophale) SiO2 
 PCOD9113315
Probable space group: P 2
;
_chemical_formula_sum "Si O2"
_cell_formula_units_Z 16
_cell_length_a 7.895867
_cell_length_b 6.700008
_cell_length_c 20.006915
_cell_angle_alpha 90.000000
_cell_angle_beta 46.574343
_cell_angle_gamma 90.000000
_cell_volume 768.690540
_symmetry_space_group_name_H-M "P 2"
_symmetry_group_IT_number 3
_symmetry_cell_setting 'monoclinic'
loop_
_space_group_symop_operation_xyz
x,y,z
-x,y,-z
loop_
_atom_site_type_symbol
_atom_site_label
_atom_site_fract_x
_atom_site_fract_y
_atom_site_fract_z
Si Si1 0.690893 0.684180 0.353004
Si Si2 0.124646 0.832614 0.317176
Si Si3 0.408906 0.219669 0.256745
Si Si4 0.418503 0.552353 0.140493
Si Si5 0.981308 0.389269 0.192193
Si Si6 0.250176 0.545681 0.406149
Si Si7 0.910822 0.648208 0.950121
Si Si8 0.835264 0.977613 0.197716
O O1 0.417850 0.623100 0.421159
O O2 0.718699 0.838273 0.284449
O O3 0.858437 0.775969 0.365804
O O4 0.819190 0.484535 0.292572
O O5 0.297303 0.732074 0.215049
O O6 0.191668 0.721744 0.368456
O O7 0.192349 0.066291 0.304489
O O8 0.449044 0.369855 0.184327
O O9 0.367495 0.365483 0.331873
O O10 0.631905 0.078715 0.209313
O O11 0.231327 0.476322 0.139048
O O12 0.642329 0.609403 0.037523
O O13 0.942210 0.476169 0.128499
O O14 0.967160 0.155871 0.197831
O O15 0.000000 0.475512 0.500000
O O16 0.980046 0.846815 0.892192
O O17 0.000000 0.669171 0.000000
#
# Coordination Sequence:
#
# PCOD9113315 Si02
#       8
#     2   2   2   2   2   2   2   2
#     4  10  21  41  66  92 129 169 212 265 325 398
#     4  10  22  41  67  94 126 173 219 259 331 395
#     4  11  21  40  68  94 129 170 220 270 326 403
#     4  10  22  39  60  87 127 166 216 270 324 382
#     4  10  21  39  60  86 121 170 211 266 326 382
#     4  11  24  42  68  97 132 168 213 275 338 395
#     4  11  23  35  54  86 125 162 217 268 315 378
#     4  11  21  37  64  90 123 169 218 261 325 384
#
# _framework density 20.814620000000001
#
# number of rings (size 3 to 8) (size 9 to 14) (size 15 to 20)
#    0.000    1.500    2.500    2.625    3.500    3.500 
#    0.000    5.000    0.000    0.000    0.000    0.000 
#    0.000    0.000    0.000    0.000    0.000    0.000 
#
# Total GULP energy -89242.720139 kJ/mol
# GULP energy per Si atom -5577.670009 kJ/mol
# Density = 2.076725 g / cm^3
# Si number density = 20.814620 Si / 1000 Ang^3
#
#
#
# Elastic Constant Matrix: (Units=GPa)
#
#
# Indices 1 2 3 4 5 6 
#
# 1 103.2822 -2.5255 16.8597 0.0000 -27.5512 0.0000
# 2 -2.5255 144.7098 11.9530 0.0000 -3.1454 0.0000
# 3 16.8597 11.9530 67.2898 0.0000 -17.5545 0.0000
# 4 0.0000 0.0000 0.0000 25.1463 0.0000 -46.9469
# 5 -27.5512 -3.1454 -17.5545 0.0000 29.3227 0.0000
# 6 0.0000 0.0000 0.0000 -46.9469 0.0000 132.0653
#
#
#
# Elastic Compliance Matrix: (Units=1/GPa)
#
#
# Indices 1 2 3 4 5 6 
#
# 1 0.012957 0.000504 -0.000173 0.000000 0.012125 0.000000
# 2 0.000504 0.007033 -0.001251 0.000000 0.000479 0.000000
# 3 -0.000173 -0.001251 0.017835 0.000000 0.010380 0.000000
# 4 0.000000 0.000000 0.000000 0.118238 0.000000 0.042031
# 5 0.012125 0.000479 0.010380 0.000000 0.051762 0.000000
# 6 0.000000 0.000000 0.000000 0.042031 0.000000 0.022513
#
#
# Mechanical properties :
#
#
# Convention : Reuss Voigt Hill
#
# Bulk Modulus (GPa) = 27.78873 40.87292 34.33082
# Shear Modulus (GPa) = 20.47741 56.57318 38.52530
#
# Velocity S-wave (km/s) = 3.13996 5.21906 4.30685
# Velocity P-wave (km/s) = 5.15028 7.48314 6.42350
#
# Compressibility (1/GPa) = 0.03598582
#
# Stress axis : x y z
#
# Youngs Moduli (GPa) = 77.17738 142.18913 56.07096
#
# Poissons Ratio (x) = -0.07166 0.00969
# Poissons Ratio (y) = -0.03889 0.07012
# Poissons Ratio (z) = 0.01334 0.17781
#
# Static dielectric constant tensor:
#      x y z
#    x 1.586180 0.000000 0.116140 
#    y 0.000000 1.708950 0.000000 
#    z 0.116140 0.000000 1.657730 
# 
# From -- ./inp_files/8900.got.cif
#   From: 2010.05.17/outbox.cif.g08.bks.cpg/sg3_5_cif.got.tgz:8900.got - 2010.06.03 18:33:08.
