data_PCOD9113194
_publ_section_title
;
Structure prediction by ZEFSAII (Michael W. Deem and Ramdas Pophale) SiO2 
 PCOD9113194
Probable space group: P 2
;
_chemical_formula_sum "Si O2"
_cell_formula_units_Z 15
_cell_length_a 7.742959
_cell_length_b 6.852736
_cell_length_c 18.981154
_cell_angle_alpha 90.000000
_cell_angle_beta 138.473633
_cell_angle_gamma 90.000000
_cell_volume 667.703941
_symmetry_space_group_name_H-M "P 2"
_symmetry_group_IT_number 3
_symmetry_cell_setting 'monoclinic'
loop_
_space_group_symop_operation_xyz
x,y,z
-x,y,-z
loop_
_atom_site_type_symbol
_atom_site_label
_atom_site_fract_x
_atom_site_fract_y
_atom_site_fract_z
Si Si1 0.436491 0.397850 0.247133
Si Si2 0.816927 0.069247 0.382685
Si Si3 0.370461 0.548838 0.839694
Si Si4 0.395107 0.697589 0.596721
Si Si5 0.500000 0.494182 0.500000
Si Si6 0.048417 0.219367 0.308049
Si Si7 0.976699 0.844751 0.783063
Si Si8 0.072654 0.596125 0.941009
O O1 0.547323 0.180296 0.281525
O O2 0.527528 0.528705 0.208624
O O3 0.593212 0.497753 0.357654
O O4 0.127382 0.435694 0.151979
O O5 0.000000 0.159933 0.500000
O O6 0.977469 0.099467 0.358641
O O7 0.739747 0.862606 0.396289
O O8 0.206321 0.740575 0.808770
O O9 0.175737 0.368400 0.782869
O O10 0.627380 0.533648 0.965858
O O11 0.320344 0.633860 0.494846
O O12 0.696786 0.754541 0.680003
O O13 0.305083 0.348157 0.399737
O O14 0.060278 0.065862 0.249262
O O15 0.035802 0.786021 0.881416
O O16 0.000000 0.632832 0.000000
#
# Coordination Sequence:
#
# PCOD9113194 Si02
#       8
#     2   2   2   2   1   2   2   2
#     4   9  21  43  66  99 138 184 232 298 351 431
#     4  11  25  41  68 101 142 194 245 292 353 437
#     4  10  20  44  70 101 140 180 237 296 366 431
#     4  11  25  41  66  99 137 188 234 295 359 427
#     4  12  26  46  74 104 150 194 246 310 372 430
#     4  11  26  44  70 104 144 189 242 302 359 440
#     4  11  23  40  69 102 139 181 240 302 361 429
#     4   9  20  42  74 101 140 187 233 295 368 437
#
# _framework density 22.465045
#
# number of rings (size 3 to 8) (size 9 to 14) (size 15 to 20)
#    0.000    1.600    1.333    2.000    5.600    2.667 
#    0.000    6.667    0.000   12.800    0.000    0.000 
#    0.000    0.000    0.000    0.000    0.000    0.000 
#
# Total GULP energy -83664.075636 kJ/mol
# GULP energy per Si atom -5577.605042 kJ/mol
# Density = 2.241391 g / cm^3
# Si number density = 22.465045 Si / 1000 Ang^3
#
#
#
# Elastic Constant Matrix: (Units=GPa)
#
#
# Indices 1 2 3 4 5 6 
#
# 1 89.6980 34.9259 34.7443 0.0000 -7.9258 0.0000
# 2 34.9259 85.3441 43.4678 0.0000 -3.4982 0.0000
# 3 34.7443 43.4678 118.4192 0.0000 5.0735 0.0000
# 4 0.0000 0.0000 0.0000 15.7929 0.0000 -13.6910
# 5 -7.9258 -3.4982 5.0735 0.0000 46.7401 0.0000
# 6 0.0000 0.0000 0.0000 -13.6910 0.0000 29.5993
#
#
#
# Elastic Compliance Matrix: (Units=1/GPa)
#
#
# Indices 1 2 3 4 5 6 
#
# 1 0.014058 -0.004311 -0.002643 0.000000 0.002348 0.000000
# 2 -0.004311 0.015863 -0.004599 0.000000 0.000955 0.000000
# 3 -0.002643 -0.004599 0.010993 0.000000 -0.001986 0.000000
# 4 0.000000 0.000000 0.000000 0.105705 0.000000 0.048893
# 5 0.002348 0.000955 -0.001986 0.000000 0.022080 0.000000
# 6 0.000000 0.000000 0.000000 0.048893 0.000000 0.056400
#
#
# Mechanical properties :
#
#
# Convention : Reuss Voigt Hill
#
# Bulk Modulus (GPa) = 56.15117 57.74860 56.94989
# Shear Modulus (GPa) = 19.67408 30.44802 25.06105
#
# Velocity S-wave (km/s) = 2.96254 3.68550 3.34362
# Velocity P-wave (km/s) = 6.06229 6.62362 6.34916
#
# Compressibility (1/GPa) = 0.01780907
#
# Stress axis : x y z
#
# Youngs Moduli (GPa) = 71.13261 63.04024 90.96530
#
# Poissons Ratio (x) = 0.27175 0.24042
# Poissons Ratio (y) = 0.30664 0.41834
# Poissons Ratio (z) = 0.18800 0.28992
#
# Static dielectric constant tensor:
#      x y z
#    x 1.957180 0.000000 -0.030490 
#    y 0.000000 1.841600 0.000000 
#    z -0.030490 0.000000 1.819480 
# 
# From -- ./inp_files/15750.got.cif
#   From: 2010.05.17/outbox.cif.g08.bks.cpg/sg3_8_cif.got.tgz:15750.got - 2010.06.03 18:33:08.
