data_PCOD9113428
_publ_section_title
;
Structure prediction by ZEFSAII (Michael W. Deem and Ramdas Pophale) SiO2 
 PCOD9113428
Probable space group: P 2
;
_chemical_formula_sum "Si O2"
_cell_formula_units_Z 14
_cell_length_a 19.322870
_cell_length_b 7.334745
_cell_length_c 5.298855
_cell_angle_alpha 90.000000
_cell_angle_beta 120.303281
_cell_angle_gamma 90.000000
_cell_volume 648.386494
_symmetry_space_group_name_H-M "P 2"
_symmetry_group_IT_number 3
_symmetry_cell_setting 'monoclinic'
loop_
_space_group_symop_operation_xyz
x,y,z
-x,y,-z
loop_
_atom_site_type_symbol
_atom_site_label
_atom_site_fract_x
_atom_site_fract_y
_atom_site_fract_z
Si Si1 0.692099 0.451560 0.731191
Si Si2 0.597401 0.950852 0.186492
Si Si3 0.739976 0.136719 0.181059
Si Si4 0.592720 0.743800 0.677489
Si Si5 0.051719 0.585195 0.843842
Si Si6 0.179256 0.439474 0.401526
Si Si7 0.186744 0.746039 0.806435
O O1 0.606002 0.535458 0.617248
O O2 0.729256 0.454246 0.524598
O O3 0.708886 0.260761 0.893180
O O4 0.744212 0.615101 0.954907
O O5 0.623444 0.875245 0.508245
O O6 0.661793 0.102024 0.214849
O O7 0.500000 0.994626 0.000000
O O8 0.613191 0.795494 0.002338
O O9 0.813718 0.255604 0.428998
O O10 0.777548 0.942133 0.181143
O O11 0.500000 0.783335 0.500000
O O12 0.110835 0.745144 0.854752
O O13 0.000000 0.533031 0.500000
O O14 0.115982 0.432814 0.056782
O O15 0.000000 0.623552 0.000000
O O16 0.160888 0.624389 0.518376
#
# Coordination Sequence:
#
# PCOD9113428 Si02
#       7
#     2   2   2   2   2   2   2
#     4  10  22  38  62 100 128 177 224 278 333 395
#     4  10  22  41  66  95 135 186 229 286 340 380
#     4  11  23  40  68 104 137 176 234 281 326 410
#     4  10  21  41  65  91 130 182 228 277 341 394
#     4  11  22  44  77  99 133 180 217 272 341 408
#     4  10  23  40  70 101 132 177 226 266 346 392
#     4  10  21  42  72  94 134 176 221 274 333 401
#
# _framework density 21.592058000000002
#
# number of rings (size 3 to 8) (size 9 to 14) (size 15 to 20)
#    0.000    1.714    2.857    0.857    4.000    2.286 
#    2.571    0.000   12.571    0.000    0.000    0.000 
#    0.000    0.000    0.000    0.000    0.000    0.000 
#
# Total GULP energy -77935.305712 kJ/mol
# GULP energy per Si atom -5566.807551 kJ/mol
# Density = 2.154291 g / cm^3
# Si number density = 21.592058 Si / 1000 Ang^3
#
#
#
# Elastic Constant Matrix: (Units=GPa)
#
#
# Indices 1 2 3 4 5 6 
#
# 1 118.0494 45.8814 27.3368 0.0000 -31.9602 0.0000
# 2 45.8814 133.0628 35.4812 0.0000 -8.6012 0.0000
# 3 27.3368 35.4812 75.1868 0.0000 -13.2463 0.0000
# 4 0.0000 0.0000 0.0000 14.5124 0.0000 -4.5893
# 5 -31.9602 -8.6012 -13.2463 0.0000 27.7369 0.0000
# 6 0.0000 0.0000 0.0000 -4.5893 0.0000 15.3499
#
#
#
# Elastic Compliance Matrix: (Units=1/GPa)
#
#
# Indices 1 2 3 4 5 6 
#
# 1 0.014063 -0.003691 -0.000784 0.000000 0.014685 0.000000
# 2 -0.003691 0.009582 -0.003718 0.000000 -0.003057 0.000000
# 3 -0.000784 -0.003718 0.016354 0.000000 0.005753 0.000000
# 4 0.000000 0.000000 0.000000 0.076101 0.000000 0.022753
# 5 0.014685 -0.003057 0.005753 0.000000 0.054774 0.000000
# 6 0.000000 0.000000 0.000000 0.022753 0.000000 0.071949
#
#
# Mechanical properties :
#
#
# Convention : Reuss Voigt Hill
#
# Bulk Modulus (GPa) = 42.35189 60.41086 51.38137
# Shear Modulus (GPa) = 18.72099 26.02650 22.37375
#
# Velocity S-wave (km/s) = 2.94773 3.47562 3.22250
# Velocity P-wave (km/s) = 5.58951 6.64421 6.13955
#
# Compressibility (1/GPa) = 0.02361170
#
# Stress axis : x y z
#
# Youngs Moduli (GPa) = 71.10956 104.36529 61.14826
#
# Poissons Ratio (x) = 0.38518 0.04795
# Poissons Ratio (y) = 0.26244 0.22738
# Poissons Ratio (z) = 0.05576 0.38807
#
# Static dielectric constant tensor:
#      x y z
#    x 1.951520 0.000000 0.038430 
#    y 0.000000 1.783560 0.000000 
#    z 0.038430 0.000000 1.927480 
# 
# From -- ./inp_files/3847.got.cif
#   From: 2010.05.17/outbox.cif.g08.bks.cpg/sg3_2_cif.got.tgz:3847.got - 2010.06.03 18:33:08.
