data_PCOD9113374
_publ_section_title
;
Structure prediction by ZEFSAII (Michael W. Deem and Ramdas Pophale) SiO2 
 PCOD9113374
Probable space group: P 2
;
_chemical_formula_sum "Si O2"
_cell_formula_units_Z 11
_cell_length_a 6.341011
_cell_length_b 11.724565
_cell_length_c 7.570972
_cell_angle_alpha 90.000000
_cell_angle_beta 109.101898
_cell_angle_gamma 90.000000
_cell_volume 531.875802
_symmetry_space_group_name_H-M "P 2"
_symmetry_group_IT_number 3
_symmetry_cell_setting 'monoclinic'
loop_
_space_group_symop_operation_xyz
x,y,z
-x,y,-z
loop_
_atom_site_type_symbol
_atom_site_label
_atom_site_fract_x
_atom_site_fract_y
_atom_site_fract_z
Si Si1 0.422271 0.790480 0.182372
Si Si2 0.790259 0.019247 0.828793
Si Si3 0.920234 0.476913 0.681020
Si Si4 0.000000 0.632905 0.000000
Si Si5 0.029267 0.231224 0.716020
Si Si6 0.500000 0.630954 0.500000
Si Si7 0.500000 0.177079 0.000000
O O1 0.202507 0.714172 0.103764
O O2 0.572119 0.714297 0.357137
O O3 0.350918 0.907970 0.259292
O O4 0.500000 0.812624 0.000000
O O5 0.914451 0.113016 0.742559
O O6 0.617967 0.096254 0.890261
O O7 0.000000 0.973595 0.000000
O O8 0.690516 0.545179 0.615638
O O9 0.000000 0.475678 0.500000
O O10 0.908435 0.346954 0.746593
O O11 0.068209 0.550864 0.856198
O O12 0.000000 0.232368 0.500000
O O13 0.287430 0.238838 0.850898
#
# Coordination Sequence:
#
# PCOD9113374 Si02
#       7
#     2   2   2   1   2   1   1
#     4  11  21  40  63  91 125 169 209 264 322 375
#     4  10  21  40  63  94 130 164 213 262 320 389
#     4  10  22  43  61  92 127 165 216 264 313 383
#     4  10  22  38  62  86 124 170 210 260 316 372
#     4  10  24  42  64  96 132 169 212 270 325 382
#     4  10  24  40  64  94 126 168 216 264 314 388
#     4  10  22  40  64  92 128 170 208 258 330 386
#
# _framework density 20.681519999999999
#
# number of rings (size 3 to 8) (size 9 to 14) (size 15 to 20)
#    0.000    1.818    1.818    1.091    3.818    5.091 
#    8.182    0.909    0.000    0.000    0.000    0.000 
#    0.000    0.000    0.000    0.000    0.000    0.000 
#
# Total GULP energy -61238.433148 kJ/mol
# GULP energy per Si atom -5567.130286 kJ/mol
# Density = 2.063445 g / cm^3
# Si number density = 20.681520 Si / 1000 Ang^3
#
#
#
# Elastic Constant Matrix: (Units=GPa)
#
#
# Indices 1 2 3 4 5 6 
#
# 1 55.3754 31.2353 19.8028 0.0000 5.0117 0.0000
# 2 31.2353 143.9232 50.2779 0.0000 12.2645 0.0000
# 3 19.8028 50.2779 79.6580 0.0000 6.2739 0.0000
# 4 0.0000 0.0000 0.0000 19.7279 0.0000 6.8850
# 5 5.0117 12.2645 6.2739 0.0000 25.0007 0.0000
# 6 0.0000 0.0000 0.0000 6.8850 0.0000 20.3980
#
#
#
# Elastic Compliance Matrix: (Units=1/GPa)
#
#
# Indices 1 2 3 4 5 6 
#
# 1 0.021211 -0.003407 -0.002978 0.000000 -0.001833 0.000000
# 2 -0.003407 0.009690 -0.005048 0.000000 -0.002804 0.000000
# 3 -0.002978 -0.005048 0.016566 0.000000 -0.001084 0.000000
# 4 0.000000 0.000000 0.000000 0.057458 0.000000 -0.019394
# 5 -0.001833 -0.002804 -0.001084 0.000000 0.042014 0.000000
# 6 0.000000 0.000000 0.000000 -0.019394 0.000000 0.055570
#
#
# Mechanical properties :
#
#
# Convention : Reuss Voigt Hill
#
# Bulk Modulus (GPa) = 40.65030 53.50984 47.08007
# Shear Modulus (GPa) = 21.40631 24.86804 23.13717
#
# Velocity S-wave (km/s) = 3.22070 3.47137 3.34838
# Velocity P-wave (km/s) = 5.79039 6.48048 6.14513
#
# Compressibility (1/GPa) = 0.02460007
#
# Stress axis : x y z
#
# Youngs Moduli (GPa) = 47.14490 103.19912 60.36531
#
# Poissons Ratio (x) = 0.35157 0.17979
# Poissons Ratio (y) = 0.16061 0.30474
# Poissons Ratio (z) = 0.14042 0.52098
#
# Static dielectric constant tensor:
#      x y z
#    x 1.735710 0.000000 0.017670 
#    y 0.000000 1.764720 0.000000 
#    z 0.017670 0.000000 1.877400 
# 
# From -- ./inp_files/1057.got.cif
#   From: 2010.05.17/outbox.cif.g08.bks.cpg/sg3_1_cif.got.tgz:1057.got - 2010.06.03 18:33:08.
