data_PCOD9113187
_publ_section_title
;
Structure prediction by ZEFSAII (Michael W. Deem and Ramdas Pophale) SiO2 
 PCOD9113187
Probable space group: P 2
;
_chemical_formula_sum "Si O2"
_cell_formula_units_Z 14
_cell_length_a 9.025000
_cell_length_b 9.681631
_cell_length_c 11.952634
_cell_angle_alpha 90.000000
_cell_angle_beta 39.769751
_cell_angle_gamma 90.000000
_cell_volume 668.095311
_symmetry_space_group_name_H-M "P 2"
_symmetry_group_IT_number 3
_symmetry_cell_setting 'monoclinic'
loop_
_space_group_symop_operation_xyz
x,y,z
-x,y,-z
loop_
_atom_site_type_symbol
_atom_site_label
_atom_site_fract_x
_atom_site_fract_y
_atom_site_fract_z
Si Si1 0.289794 0.074350 0.558244
Si Si2 0.078475 0.584858 0.081388
Si Si3 0.500000 0.984128 0.000000
Si Si4 0.540696 0.464263 0.763671
Si Si5 0.723140 0.174795 0.679789
Si Si6 0.000000 0.643959 0.500000
Si Si7 0.722045 0.357880 0.303013
Si Si8 0.938227 0.826393 0.752604
O O1 0.500000 0.002416 0.500000
O O2 0.363350 0.135210 0.395058
O O3 0.231990 0.203859 0.674626
O O4 0.097804 0.960397 0.650561
O O5 0.981724 0.711843 0.207177
O O6 0.949495 0.445727 0.193943
O O7 0.354196 0.561166 0.933946
O O8 0.000000 0.609064 0.000000
O O9 0.622529 0.073238 0.831780
O O10 0.695680 0.885799 0.935782
O O11 0.645051 0.328094 0.760480
O O12 0.772866 0.551835 0.598393
O O13 0.370385 0.394679 0.767709
O O14 0.000000 0.171013 0.500000
O O15 0.924065 0.744326 0.644588
O O16 0.500000 0.409435 0.500000
#
# Coordination Sequence:
#
# PCOD9113187 Si02
#       8
#     2   2   1   2   2   1   2   2
#     4  11  24  44  73 105 139 193 244 299 362 430
#     4  10  25  43  67 105 140 181 237 304 361 426
#     4  12  28  44  68 102 152 192 236 296 356 448
#     4  11  23  42  72 104 136 181 242 306 352 417
#     4  12  24  46  72 107 142 187 247 303 365 423
#     4  12  26  44  74 100 144 202 238 294 360 442
#     4  10  20  43  71 101 134 177 241 298 358 413
#     4  12  26  45  67 103 147 193 236 286 364 446
#
# _framework density 20.955095
#
# number of rings (size 3 to 8) (size 9 to 14) (size 15 to 20)
#    0.000    0.857    5.000    2.571    2.000    5.143 
#    0.000    0.000    0.000    0.000    0.000    0.000 
#    0.000    0.000    0.000    0.000    0.000    0.000 
#
# Total GULP energy -78042.641584 kJ/mol
# GULP energy per Si atom -5574.474399 kJ/mol
# Density = 2.090740 g / cm^3
# Si number density = 20.955095 Si / 1000 Ang^3
#
#
#
# Elastic Constant Matrix: (Units=GPa)
#
#
# Indices 1 2 3 4 5 6 
#
# 1 60.0394 38.6565 14.1455 0.0000 -3.9493 0.0000
# 2 38.6565 112.0711 47.3397 0.0000 2.1906 0.0000
# 3 14.1455 47.3397 70.4650 0.0000 -12.9704 0.0000
# 4 0.0000 0.0000 0.0000 31.3347 0.0000 0.5188
# 5 -3.9493 2.1906 -12.9704 0.0000 36.9812 0.0000
# 6 0.0000 0.0000 0.0000 0.5188 0.0000 25.7142
#
#
#
# Elastic Compliance Matrix: (Units=1/GPa)
#
#
# Indices 1 2 3 4 5 6 
#
# 1 0.021853 -0.008413 0.001910 0.000000 0.003502 0.000000
# 2 -0.008413 0.016254 -0.010234 0.000000 -0.005451 0.000000
# 3 0.001910 -0.010234 0.022271 0.000000 0.008621 0.000000
# 4 0.000000 0.000000 0.000000 0.031924 0.000000 -0.000644
# 5 0.003502 -0.005451 0.008621 0.000000 0.030761 0.000000
# 6 0.000000 0.000000 0.000000 -0.000644 0.000000 0.038902
#
#
# Mechanical properties :
#
#
# Convention : Reuss Voigt Hill
#
# Bulk Modulus (GPa) = 37.17126 49.20653 43.18890
# Shear Modulus (GPa) = 24.46089 28.30161 26.38125
#
# Velocity S-wave (km/s) = 3.42028 3.67902 3.55201
# Velocity P-wave (km/s) = 5.77710 6.44824 6.12187
#
# Compressibility (1/GPa) = 0.02690250
#
# Stress axis : x y z
#
# Youngs Moduli (GPa) = 45.76097 61.52206 44.90199
#
# Poissons Ratio (x) = 0.51756 -0.08574
# Poissons Ratio (y) = 0.38497 0.45955
# Poissons Ratio (z) = -0.08738 0.62965
#
# Static dielectric constant tensor:
#      x y z
#    x 1.813990 0.000000 0.023210 
#    y 0.000000 1.740330 0.000000 
#    z 0.023210 0.000000 1.761610 
# 
# From -- ./inp_files/5298.got.cif
#   From: 2010.05.17/outbox.cif.g08.bks.cpg/sg3_3_cif.got.tgz:5298.got - 2010.06.03 18:33:08.
