data_PCOD9113779
_publ_section_title
;
Structure prediction by ZEFSAII (Michael W. Deem and Ramdas Pophale) SiO2 
 PCOD9113779
Probable space group: P 2
;
_chemical_formula_sum "Si O2"
_cell_formula_units_Z 14
_cell_length_a 14.684545
_cell_length_b 5.075848
_cell_length_c 10.129729
_cell_angle_alpha 90.000000
_cell_angle_beta 49.848495
_cell_angle_gamma 90.000000
_cell_volume 577.104809
_symmetry_space_group_name_H-M "P 2"
_symmetry_group_IT_number 3
_symmetry_cell_setting 'monoclinic'
loop_
_space_group_symop_operation_xyz
x,y,z
-x,y,-z
loop_
_atom_site_type_symbol
_atom_site_label
_atom_site_fract_x
_atom_site_fract_y
_atom_site_fract_z
Si Si1 0.263534 0.500000 0.612506
Si Si2 0.610715 0.869227 0.135991
Si Si3 0.205855 0.995770 0.504654
Si Si4 0.500000 0.747753 0.500000
Si Si5 0.500000 0.605039 0.000000
Si Si6 0.279345 0.238555 0.171690
Si Si7 0.147944 0.684272 0.990526
Si Si8 0.945264 0.203250 0.789311
O O1 0.254419 0.200554 0.570830
O O2 0.397148 0.570690 0.531769
O O3 0.224638 0.698589 0.532984
O O4 0.182014 0.589249 0.812839
O O5 0.557589 0.915520 0.328912
O O6 0.516214 0.757602 0.121680
O O7 0.659753 0.119721 0.015321
O O8 0.725341 0.679072 0.049352
O O9 0.267085 0.044690 0.307286
O O10 0.068232 0.083981 0.624325
O O11 0.624673 0.450892 0.872202
O O12 0.144352 0.271483 0.247199
O O13 0.104694 0.981406 0.061014
O O14 0.052614 0.479486 0.136346
#
# Coordination Sequence:
#
# PCOD9113779 Si02
#       8
#     2   2   2   1   1   2   2   2
#     4  11  26  45  69 105 138 185 233 289 346 414
#     4  10  23  43  68  98 139 183 231 288 349 417
#     4  12  27  43  69 105 140 182 237 287 339 423
#     4  10  24  48  70 100 148 182 232 290 354 410
#     4  12  22  42  72  98 134 184 236 284 346 424
#     4  11  26  42  68 101 137 184 231 286 359 405
#     4  10  22  44  69  99 136 184 235 282 356 401
#     4  11  23  45  69  98 141 184 230 291 345 411
#
# _framework density 24.259025999999999
#
# number of rings (size 3 to 8) (size 9 to 14) (size 15 to 20)
#    0.000    1.143    1.429    3.429    6.000    4.000 
#    0.000    2.857    0.000    0.000    0.000    0.000 
#    0.000    0.000    0.000    0.000    0.000    0.000 
#
# Total GULP energy -78318.229423 kJ/mol
# GULP energy per Si atom -5594.159245 kJ/mol
# Density = 2.420381 g / cm^3
# Si number density = 24.259026 Si / 1000 Ang^3
#
#
#
# Elastic Constant Matrix: (Units=GPa)
#
#
# Indices 1 2 3 4 5 6 
#
# 1 128.7035 4.9244 16.6365 0.0000 -20.0666 0.0000
# 2 4.9244 66.0975 10.6899 0.0000 -2.9254 0.0000
# 3 16.6365 10.6899 77.2033 0.0000 -6.3174 0.0000
# 4 0.0000 0.0000 0.0000 21.3414 0.0000 -6.5643
# 5 -20.0666 -2.9254 -6.3174 0.0000 33.9666 0.0000
# 6 0.0000 0.0000 0.0000 -6.5643 0.0000 22.0742
#
#
#
# Elastic Compliance Matrix: (Units=1/GPa)
#
#
# Indices 1 2 3 4 5 6 
#
# 1 0.008724 -0.000199 -0.001454 0.000000 0.004866 0.000000
# 2 -0.000199 0.015510 -0.002036 0.000000 0.000839 0.000000
# 3 -0.001454 -0.002036 0.013672 0.000000 0.001508 0.000000
# 4 0.000000 0.000000 0.000000 0.051575 0.000000 0.015337
# 5 0.004866 0.000839 0.001508 0.000000 0.032668 0.000000
# 6 0.000000 0.000000 0.000000 0.015337 0.000000 0.049863
#
#
# Mechanical properties :
#
#
# Convention : Reuss Voigt Hill
#
# Bulk Modulus (GPa) = 32.75790 37.38955 35.07373
# Shear Modulus (GPa) = 26.37597 31.46001 28.91799
#
# Velocity S-wave (km/s) = 3.30095 3.60507 3.45635
# Velocity P-wave (km/s) = 5.29727 5.72493 5.51524
#
# Compressibility (1/GPa) = 0.03052699
#
# Stress axis : x y z
#
# Youngs Moduli (GPa) = 114.62479 64.47261 73.14484
#
# Poissons Ratio (x) = 0.01286 0.10636
# Poissons Ratio (y) = 0.02286 0.14892
# Poissons Ratio (z) = 0.16668 0.13127
#
# Static dielectric constant tensor:
#      x y z
#    x 2.011510 0.000000 -0.046650 
#    y 0.000000 1.922430 0.000000 
#    z -0.046650 0.000000 1.962250 
# 
# From -- ./inp_files/8247.got.cif
#   From: 2010.05.17/outbox.cif.g08.bks.cpg/sg3_5_cif.got.tgz:8247.got - 2010.06.03 18:33:08.
