data_PCOD9113456
_publ_section_title
;
Structure prediction by ZEFSAII (Michael W. Deem and Ramdas Pophale) SiO2 
 PCOD9113456
Probable space group: P 2
;
_chemical_formula_sum "Si O2"
_cell_formula_units_Z 11
_cell_length_a 9.796310
_cell_length_b 5.994618
_cell_length_c 8.911440
_cell_angle_alpha 90.000000
_cell_angle_beta 114.070211
_cell_angle_gamma 90.000000
_cell_volume 477.820464
_symmetry_space_group_name_H-M "P 2"
_symmetry_group_IT_number 3
_symmetry_cell_setting 'monoclinic'
loop_
_space_group_symop_operation_xyz
x,y,z
-x,y,-z
loop_
_atom_site_type_symbol
_atom_site_label
_atom_site_fract_x
_atom_site_fract_y
_atom_site_fract_z
Si Si1 0.602088 0.846980 0.789268
Si Si2 0.279394 0.869466 0.619012
Si Si3 0.328413 0.507891 0.429587
Si Si4 0.500000 0.495794 0.000000
Si Si5 0.244918 0.128641 0.900495
Si Si6 0.935340 0.209371 0.628989
O O1 0.679089 0.711262 0.691291
O O2 0.447835 0.956647 0.660938
O O3 0.548969 0.659581 0.886714
O O4 0.703028 0.025472 0.919292
O O5 0.259046 0.932226 0.782564
O O6 0.145837 0.986026 0.468922
O O7 0.290887 0.615154 0.574279
O O8 0.500000 0.430912 0.500000
O O9 0.199494 0.333356 0.349586
O O10 0.639932 0.327339 0.088465
O O11 0.073871 0.196257 0.803543
O O12 0.000000 0.310332 0.500000
#
# Coordination Sequence:
#
# PCOD9113456 Si02
#       6
#     2   2   2   1   2   2
#     4  11  23  43  70 100 137 183 229 283 340 407
#     4  10  21  42  65  96 136 176 224 280 331 398
#     4  10  25  42  70 103 136 178 225 285 339 407
#     4  12  22  40  74  98 136 180 242 268 340 422
#     4  11  23  43  70 100 137 183 229 283 340 407
#     4  10  25  42  70 103 136 178 225 285 339 407
#
# _framework density 23.021201000000001
#
# number of rings (size 3 to 8) (size 9 to 14) (size 15 to 20)
#    0.000    1.455    3.636    0.000   10.182    7.273 
#    0.000    5.455    0.000    0.000    0.000    0.000 
#    0.000    0.000    0.000    0.000    0.000    0.000 
#
# Total GULP energy -61432.026928 kJ/mol
# GULP energy per Si atom -5584.729721 kJ/mol
# Density = 2.296880 g / cm^3
# Si number density = 23.021201 Si / 1000 Ang^3
#
#
#
# Elastic Constant Matrix: (Units=GPa)
#
#
# Indices 1 2 3 4 5 6 
#
# 1 159.0631 60.0819 53.4368 0.0000 42.2075 0.0000
# 2 60.0819 48.7701 38.2534 0.0000 13.7256 0.0000
# 3 53.4368 38.2534 88.0458 0.0000 36.2889 0.0000
# 4 0.0000 0.0000 0.0000 26.4940 0.0000 -4.6205
# 5 42.2075 13.7256 36.2889 0.0000 61.1259 0.0000
# 6 0.0000 0.0000 0.0000 -4.6205 0.0000 29.7856
#
#
#
# Elastic Compliance Matrix: (Units=1/GPa)
#
#
# Indices 1 2 3 4 5 6 
#
# 1 0.013635 -0.016058 0.001451 0.000000 -0.006670 0.000000
# 2 -0.016058 0.050103 -0.015829 0.000000 0.009235 0.000000
# 3 0.001451 -0.015829 0.021584 0.000000 -0.010261 0.000000
# 4 0.000000 0.000000 0.000000 0.038794 0.000000 0.006018
# 5 -0.006670 0.009235 -0.010261 0.000000 0.024984 0.000000
# 6 0.000000 0.000000 0.000000 0.006018 0.000000 0.034507
#
#
# Mechanical properties :
#
#
# Convention : Reuss Voigt Hill
#
# Bulk Modulus (GPa) = 40.90003 66.60258 53.75130
# Shear Modulus (GPa) = 19.79192 33.08824 26.44008
#
# Velocity S-wave (km/s) = 2.93529 3.79528 3.39264
# Velocity P-wave (km/s) = 5.41227 6.94257 6.22463
#
# Compressibility (1/GPa) = 0.02444986
#
# Stress axis : x y z
#
# Youngs Moduli (GPa) = 73.34072 19.95871 46.33166
#
# Poissons Ratio (x) = 0.32050 -0.06721
# Poissons Ratio (y) = 1.17771 0.73337
# Poissons Ratio (z) = -0.10640 0.31592
#
# Static dielectric constant tensor:
#      x y z
#    x 1.867850 0.000000 -0.005400 
#    y 0.000000 1.890840 0.000000 
#    z -0.005400 0.000000 1.918110 
# 
# From -- ./inp_files/4869.got.cif
#   From: 2010.05.17/outbox.cif.g08.bks.cpg/sg3_3_cif.got.tgz:4869.got - 2010.06.03 18:33:08.
