data_PCOD9113628
_publ_section_title
;
Structure prediction by ZEFSAII (Michael W. Deem and Ramdas Pophale) SiO2 
 PCOD9113628
Probable space group: P 2
;
_chemical_formula_sum "Si O2"
_cell_formula_units_Z 7
_cell_length_a 10.226525
_cell_length_b 4.813748
_cell_length_c 5.642123
_cell_angle_alpha 90.000000
_cell_angle_beta 103.768562
_cell_angle_gamma 90.000000
_cell_volume 269.768807
_symmetry_space_group_name_H-M "P 2"
_symmetry_group_IT_number 3
_symmetry_cell_setting 'monoclinic'
loop_
_space_group_symop_operation_xyz
x,y,z
-x,y,-z
loop_
_atom_site_type_symbol
_atom_site_label
_atom_site_fract_x
_atom_site_fract_y
_atom_site_fract_z
Si Si1 0.233174 0.049320 0.178054
Si Si2 0.361716 0.664128 0.832010
Si Si3 0.863045 0.516852 0.585742
Si Si4 0.500000 0.047101 0.500000
O O1 0.139429 0.312702 0.188698
O O2 0.376897 0.187360 0.314855
O O3 0.169160 0.821990 0.328150
O O4 0.275652 0.863447 0.970548
O O5 0.256404 0.459562 0.659270
O O6 0.426557 0.855368 0.658457
O O7 0.500000 0.539472 0.000000
O O8 0.000000 0.503244 0.500000
#
# Coordination Sequence:
#
# PCOD9113628 Si02
#       4
#     2   2   2   1
#     4  10  22  40  66  95 131 176 222 274 336 398
#     4   9  20  42  69  99 133 175 223 278 339 397
#     4  11  24  43  65  96 136 177 225 276 330 402
#     4   8  18  38  64  96 128 166 222 278 326 394
#
# _framework density 25.948143999999999
#
# number of rings (size 3 to 8) (size 9 to 14) (size 15 to 20)
#    0.000    2.286    0.000    0.857    0.000   12.571 
#    0.000   21.429    0.000    0.000    0.000    0.000 
#    0.000    0.000    0.000    0.000    0.000    0.000 
#
# Total GULP energy -39058.632255 kJ/mol
# GULP energy per Si atom -5579.804608 kJ/mol
# Density = 2.588909 g / cm^3
# Si number density = 25.948144 Si / 1000 Ang^3
#
#
#
# Elastic Constant Matrix: (Units=GPa)
#
#
# Indices 1 2 3 4 5 6 
#
# 1 183.2035 49.0170 75.7561 0.0000 -32.5247 0.0000
# 2 49.0170 97.2949 23.9213 0.0000 -12.4928 0.0000
# 3 75.7561 23.9213 95.2831 0.0000 -31.3042 0.0000
# 4 0.0000 0.0000 0.0000 48.3936 0.0000 -34.9431
# 5 -32.5247 -12.4928 -31.3042 0.0000 64.1043 0.0000
# 6 0.0000 0.0000 0.0000 -34.9431 0.0000 20.3524
#
#
#
# Elastic Compliance Matrix: (Units=1/GPa)
#
#
# Indices 1 2 3 4 5 6 
#
# 1 0.008895 -0.002872 -0.006018 0.000000 0.001015 0.000000
# 2 -0.002872 0.011929 -0.000508 0.000000 0.000620 0.000000
# 3 -0.006018 -0.000508 0.017118 0.000000 0.005207 0.000000
# 4 0.000000 0.000000 0.000000 -0.086204 0.000000 -0.148004
# 5 0.001015 0.000620 0.005207 0.000000 0.018778 0.000000
# 6 0.000000 0.000000 0.000000 -0.148004 0.000000 -0.204974
#
#
# Mechanical properties :
#
#
# Convention : Reuss Voigt Hill
#
# Bulk Modulus (GPa) = 52.22767 74.79669 63.51218
# Shear Modulus (GPa) = -23.89152 41.70919 8.90883
#
# Velocity S-wave (km/s) = -3.03766 4.01360 1.85493
# Velocity P-wave (km/s) = 2.80503 7.09694 5.39606
#
# Compressibility (1/GPa) = 0.01914694
#
# Stress axis : x y z
#
# Youngs Moduli (GPa) = 112.41768 83.82762 58.41790
#
# Poissons Ratio (x) = 0.24072 0.35156
# Poissons Ratio (y) = 0.32281 0.02969
# Poissons Ratio (z) = 0.67654 0.04260
#
# Static dielectric constant tensor:
#      x y z
#    x 2.074810 0.000000 0.142650 
#    y 0.000000 1.955440 0.000000 
#    z 0.142650 0.000000 2.277090 
# 
# From -- ./inp_files/736.got.cif
#   From: 2010.05.17/outbox.cif.g08.bks.cpg/sg3_1_cif.got.tgz:736.got - 2010.06.03 18:33:08.
