data_PCOD9113647
_publ_section_title
;
Structure prediction by ZEFSAII (Michael W. Deem and Ramdas Pophale) SiO2 
 PCOD9113647
Probable space group: P 2
;
_chemical_formula_sum "Si O2"
_cell_formula_units_Z 16
_cell_length_a 10.167599
_cell_length_b 9.692230
_cell_length_c 12.402792
_cell_angle_alpha 90.000000
_cell_angle_beta 44.162410
_cell_angle_gamma 90.000000
_cell_volume 851.537998
_symmetry_space_group_name_H-M "P 2"
_symmetry_group_IT_number 3
_symmetry_cell_setting 'monoclinic'
loop_
_space_group_symop_operation_xyz
x,y,z
-x,y,-z
loop_
_atom_site_type_symbol
_atom_site_label
_atom_site_fract_x
_atom_site_fract_y
_atom_site_fract_z
Si Si1 0.958971 0.724670 0.896645
Si Si2 0.793302 0.274493 0.575364
Si Si3 0.073252 0.043773 0.076729
Si Si4 0.580413 0.234117 0.059098
Si Si5 0.196558 0.583688 0.404033
Si Si6 0.300208 0.536327 0.095847
Si Si7 0.698377 0.071129 0.440277
Si Si8 0.675812 0.749511 0.472351
O O1 0.819032 0.618045 0.921775
O O2 0.142890 0.721198 0.710689
O O3 0.879888 0.881210 0.938133
O O4 0.000000 0.695863 0.000000
O O5 0.606101 0.261814 0.760045
O O6 0.818682 0.434959 0.529187
O O7 0.742525 0.177326 0.507329
O O8 0.000000 0.233007 0.500000
O O9 0.887430 0.072238 0.257195
O O10 0.251953 0.141654 0.992474
O O11 0.000000 0.064840 0.000000
O O12 0.500000 0.161010 0.000000
O O13 0.664805 0.382146 0.970529
O O14 0.231781 0.537695 0.259562
O O15 0.318999 0.673020 0.415111
O O16 0.000000 0.662648 0.500000
O O17 0.500000 0.608426 0.000000
O O18 0.500000 0.108302 0.500000
O O19 0.670635 0.913666 0.495779
O O20 0.500000 0.711158 0.500000
#
# Coordination Sequence:
#
# PCOD9113647 Si02
#       8
#     2   2   2   2   2   2   2   2
#     4  10  23  42  63  92 125 161 207 253 308 368
#     4  11  23  40  63  90 121 161 201 254 307 365
#     4  10  22  41  64  89 124 163 202 256 306 364
#     4  11  22  41  61  89 124 158 204 252 307 365
#     4  11  22  41  64  88 127 162 202 256 308 366
#     4  11  23  42  61  91 125 162 203 256 309 366
#     4  10  22  41  62  91 123 160 208 253 306 365
#     4  10  23  41  64  92 123 162 206 256 306 365
#
# _framework density 18.789532000000001
#
# number of rings (size 3 to 8) (size 9 to 14) (size 15 to 20)
#    0.000    1.500    3.750    1.500    3.500    3.000 
#    2.250    0.000    0.000    0.000    0.000    0.000 
#    0.000    0.000    0.000    0.000    0.000    0.000 
#
# Total GULP energy -89073.797294 kJ/mol
# GULP energy per Si atom -5567.112331 kJ/mol
# Density = 1.874677 g / cm^3
# Si number density = 18.789532 Si / 1000 Ang^3
#
#
#
# Elastic Constant Matrix: (Units=GPa)
#
#
# Indices 1 2 3 4 5 6 
#
# 1 157.1316 101.3246 46.4739 0.0000 -3.2912 0.0000
# 2 101.3246 89.7652 48.3586 0.0000 5.3057 0.0000
# 3 46.4739 48.3586 77.8753 0.0000 7.3296 0.0000
# 4 0.0000 0.0000 0.0000 94.0732 0.0000 -5.3639
# 5 -3.2912 5.3057 7.3296 0.0000 38.0010 0.0000
# 6 0.0000 0.0000 0.0000 -5.3639 0.0000 45.6791
#
#
#
# Elastic Compliance Matrix: (Units=1/GPa)
#
#
# Indices 1 2 3 4 5 6 
#
# 1 0.025306 -0.030773 0.003459 0.000000 0.005821 0.000000
# 2 -0.030773 0.054164 -0.014572 0.000000 -0.007417 0.000000
# 3 0.003459 -0.014572 0.019969 0.000000 -0.001517 0.000000
# 4 0.000000 0.000000 0.000000 0.010702 0.000000 0.001257
# 5 0.005821 -0.007417 -0.001517 0.000000 0.028147 0.000000
# 6 0.000000 0.000000 0.000000 0.001257 0.000000 0.022039
#
#
# Mechanical properties :
#
#
# Convention : Reuss Voigt Hill
#
# Bulk Modulus (GPa) = 63.82663 79.67625 71.75144
# Shear Modulus (GPa) = 20.05433 44.12500 32.08967
#
# Velocity S-wave (km/s) = 3.27052 4.85127 4.13710
# Velocity P-wave (km/s) = 6.95016 8.59514 7.81605
#
# Compressibility (1/GPa) = 0.01566744
#
# Stress axis : x y z
#
# Youngs Moduli (GPa) = 39.51567 18.46229 50.07845
#
# Poissons Ratio (x) = 0.56813 -0.17322
# Poissons Ratio (y) = 1.21600 0.72976
# Poissons Ratio (z) = -0.13668 0.26904
#
# Static dielectric constant tensor:
#      x y z
#    x 1.618480 0.000000 -0.107110 
#    y 0.000000 1.632010 0.000000 
#    z -0.107110 0.000000 1.565400 
# 
# From -- ./inp_files/10708.got.cif
#   From: 2010.05.17/outbox.cif.g08.bks.cpg/sg3_6_cif.got.tgz:10708.got - 2010.06.03 18:33:08.
