data_PCOD9113950
_publ_section_title
;
Structure prediction by ZEFSAII (Michael W. Deem and Ramdas Pophale) SiO2 
 PCOD9113950
Probable space group: P 2
;
_chemical_formula_sum "Si O2"
_cell_formula_units_Z 14
_cell_length_a 20.041202
_cell_length_b 5.418416
_cell_length_c 9.893917
_cell_angle_alpha 90.000000
_cell_angle_beta 35.943169
_cell_angle_gamma 90.000000
_cell_volume 630.651646
_symmetry_space_group_name_H-M "P 2"
_symmetry_group_IT_number 3
_symmetry_cell_setting 'monoclinic'
loop_
_space_group_symop_operation_xyz
x,y,z
-x,y,-z
loop_
_atom_site_type_symbol
_atom_site_label
_atom_site_fract_x
_atom_site_fract_y
_atom_site_fract_z
Si Si1 0.000000 0.541930 0.000000
Si Si2 0.216626 0.981088 0.914979
Si Si3 0.541905 0.639742 0.776163
Si Si4 0.238589 0.465529 0.715367
Si Si5 0.000000 0.404664 0.500000
Si Si6 0.450438 0.149142 0.929034
Si Si7 0.016910 0.788128 0.692733
Si Si8 0.208826 0.051647 0.230338
O O1 0.884872 0.407365 0.145797
O O2 0.966289 0.706073 0.183079
O O3 0.265807 0.218937 0.756235
O O4 0.233820 0.718194 0.812176
O O5 0.255076 0.975403 0.007369
O O6 0.077941 0.002029 0.151984
O O7 0.670301 0.544613 0.547776
O O8 0.473816 0.412422 0.822072
O O9 0.512856 0.908864 0.765046
O O10 0.500000 0.661856 0.000000
O O11 0.034647 0.575075 0.316932
O O12 0.887891 0.256977 0.638246
O O13 0.500000 0.169940 0.000000
O O14 0.315809 0.114791 0.146796
O O15 0.134604 0.848722 0.428401
#
# Coordination Sequence:
#
# PCOD9113950 Si02
#       8
#     1   2   2   2   1   2   2   2
#     4  10  26  40  68 112 140 196 222 314 380 430
#     4  11  23  45  66 106 142 188 231 302 372 441
#     4  10  23  47  67  98 134 192 241 297 355 429
#     4  11  25  45  71 100 154 180 245 305 372 439
#     4  12  22  44  72 108 150 202 242 308 366 452
#     4  10  25  43  69 102 138 184 251 297 355 415
#     4  11  24  42  67 107 154 186 242 292 380 450
#     4  12  24  41  75 105 145 195 247 301 358 455
#
# _framework density 22.199259999999999
#
# number of rings (size 3 to 8) (size 9 to 14) (size 15 to 20)
#    0.000    1.143    2.857    2.571    6.000    3.429 
#    2.571    4.286    0.000    0.000    0.000    0.000 
#    0.000    0.000    0.000    0.000    0.000    0.000 
#
# Total GULP energy -78110.923901 kJ/mol
# GULP energy per Si atom -5579.351707 kJ/mol
# Density = 2.214873 g / cm^3
# Si number density = 22.199260 Si / 1000 Ang^3
#
#
#
# Elastic Constant Matrix: (Units=GPa)
#
#
# Indices 1 2 3 4 5 6 
#
# 1 104.2520 13.7013 33.2285 0.0000 2.8646 0.0000
# 2 13.7013 107.5297 18.5079 0.0000 9.0982 0.0000
# 3 33.2285 18.5079 96.6932 0.0000 8.9695 0.0000
# 4 0.0000 0.0000 0.0000 9.7023 0.0000 3.8313
# 5 2.8646 9.0982 8.9695 0.0000 42.8246 0.0000
# 6 0.0000 0.0000 0.0000 3.8313 0.0000 9.7213
#
#
#
# Elastic Compliance Matrix: (Units=1/GPa)
#
#
# Indices 1 2 3 4 5 6 
#
# 1 0.010834 -0.000779 -0.003592 0.000000 0.000193 0.000000
# 2 -0.000779 0.009794 -0.001447 0.000000 -0.001726 0.000000
# 3 -0.003592 -0.001447 0.012036 0.000000 -0.001973 0.000000
# 4 0.000000 0.000000 0.000000 0.122066 0.000000 -0.048108
# 5 0.000193 -0.001726 -0.001973 0.000000 0.024118 0.000000
# 6 0.000000 0.000000 0.000000 -0.048108 0.000000 0.121827
#
#
# Mechanical properties :
#
#
# Convention : Reuss Voigt Hill
#
# Bulk Modulus (GPa) = 47.55267 48.81670 48.18468
# Shear Modulus (GPa) = 15.65827 28.65212 22.15520
#
# Velocity S-wave (km/s) = 2.65873 3.59650 3.16256
# Velocity P-wave (km/s) = 5.55810 6.26773 5.92355
#
# Compressibility (1/GPa) = 0.02102931
#
# Stress axis : x y z
#
# Youngs Moduli (GPa) = 92.30165 102.10306 83.08137
#
# Poissons Ratio (x) = 0.07949 0.29843
# Poissons Ratio (y) = 0.07186 0.12022
# Poissons Ratio (z) = 0.33155 0.14775
#
# Static dielectric constant tensor:
#      x y z
#    x 1.813510 0.000000 -0.016020 
#    y 0.000000 1.900520 0.000000 
#    z -0.016020 0.000000 1.899550 
# 
# From -- ./inp_files/8838.got.cif
#   From: 2010.05.17/outbox.cif.g08.bks.cpg/sg3_5_cif.got.tgz:8838.got - 2010.06.03 18:33:08.
