data_PCOD9113502
_publ_section_title
;
Structure prediction by ZEFSAII (Michael W. Deem and Ramdas Pophale) SiO2 
 PCOD9113502
Probable space group: P 2
;
_chemical_formula_sum "Si O2"
_cell_formula_units_Z 15
_cell_length_a 5.733878
_cell_length_b 8.582043
_cell_length_c 14.190185
_cell_angle_alpha 90.000000
_cell_angle_beta 69.176924
_cell_angle_gamma 90.000000
_cell_volume 652.666528
_symmetry_space_group_name_H-M "P 2"
_symmetry_group_IT_number 3
_symmetry_cell_setting 'monoclinic'
loop_
_space_group_symop_operation_xyz
x,y,z
-x,y,-z
loop_
_atom_site_type_symbol
_atom_site_label
_atom_site_fract_x
_atom_site_fract_y
_atom_site_fract_z
Si Si1 0.710531 0.614350 0.836667
Si Si2 0.838221 0.154908 0.714546
Si Si3 0.520694 0.703493 0.323032
Si Si4 0.423566 0.322428 0.878948
Si Si5 0.988630 0.895267 0.178086
Si Si6 0.821904 0.413039 0.280110
Si Si7 0.303614 0.002245 0.446483
Si Si8 0.000000 0.120380 0.000000
O O1 0.663084 0.652386 0.733714
O O2 0.487938 0.499680 0.898053
O O3 0.783070 0.775993 0.874690
O O4 0.955265 0.509322 0.800661
O O5 0.667774 0.221104 0.823023
O O6 0.051238 0.285901 0.670182
O O7 0.954780 0.996093 0.737001
O O8 0.673265 0.114056 0.647745
O O9 0.639605 0.545432 0.348407
O O10 0.387118 0.826340 0.409233
O O11 0.742738 0.797033 0.237837
O O12 0.305685 0.333182 0.791246
O O13 0.236709 0.234102 0.973650
O O14 0.955956 0.010745 0.095961
O O15 0.500000 0.050904 0.500000
O O16 0.000000 0.004146 0.500000
#
# Coordination Sequence:
#
# PCOD9113502 Si02
#       8
#     2   2   2   2   2   2   2   1
#     4   9  20  41  68  91 123 187 228 279 354 430
#     4  11  22  43  73  95 133 188 230 285 369 435
#     4  10  21  44  70  97 135 186 233 280 361 436
#     4  10  22  41  66  93 136 187 230 286 354 425
#     4  11  22  40  69  98 134 181 240 293 346 422
#     4   9  20  40  72  94 126 186 232 274 349 447
#     4  12  27  42  74 112 144 179 238 309 363 428
#     4  12  24  38  64 102 144 176 246 308 344 408
#
# _framework density 22.982641000000001
#
# number of rings (size 3 to 8) (size 9 to 14) (size 15 to 20)
#    0.000    1.600    2.667    1.600    3.733    0.533 
#    0.000    7.333    8.800    0.000    0.000    0.000 
#    0.000    0.000    0.000    0.000    0.000    0.000 
#
# Total GULP energy -83780.516257 kJ/mol
# GULP energy per Si atom -5585.367750 kJ/mol
# Density = 2.293033 g / cm^3
# Si number density = 22.982641 Si / 1000 Ang^3
#
#
#
# Elastic Constant Matrix: (Units=GPa)
#
#
# Indices 1 2 3 4 5 6 
#
# 1 90.8419 39.0956 31.5731 0.0000 2.2373 0.0000
# 2 39.0956 122.1957 24.1811 0.0000 -1.9028 0.0000
# 3 31.5731 24.1811 60.2865 0.0000 10.1127 0.0000
# 4 0.0000 0.0000 0.0000 14.8904 0.0000 -14.9759
# 5 2.2373 -1.9028 10.1127 0.0000 38.9413 0.0000
# 6 0.0000 0.0000 0.0000 -14.9759 0.0000 55.7452
#
#
#
# Elastic Compliance Matrix: (Units=1/GPa)
#
#
# Indices 1 2 3 4 5 6 
#
# 1 0.014701 -0.003419 -0.006439 0.000000 0.000660 0.000000
# 2 -0.003419 0.009760 -0.002339 0.000000 0.001281 0.000000
# 3 -0.006439 -0.002339 0.021805 0.000000 -0.005407 0.000000
# 4 0.000000 0.000000 0.000000 0.092021 0.000000 0.024721
# 5 0.000660 0.001281 -0.005407 0.000000 0.027108 0.000000
# 6 0.000000 0.000000 0.000000 0.024721 0.000000 0.024580
#
#
# Mechanical properties :
#
#
# Convention : Reuss Voigt Hill
#
# Bulk Modulus (GPa) = 45.71949 51.44709 48.58329
# Shear Modulus (GPa) = 22.55705 33.81365 28.18535
#
# Velocity S-wave (km/s) = 3.13626 3.83987 3.50576
# Velocity P-wave (km/s) = 5.74901 6.48793 6.12962
#
# Compressibility (1/GPa) = 0.02187251
#
# Stress axis : x y z
#
# Youngs Moduli (GPa) = 68.02176 102.45542 45.86170
#
# Poissons Ratio (x) = 0.35031 0.29529
# Poissons Ratio (y) = 0.23257 0.10727
# Poissons Ratio (z) = 0.43797 0.23965
#
# Static dielectric constant tensor:
#      x y z
#    x 1.890130 0.000000 -0.027170 
#    y 0.000000 1.849670 0.000000 
#    z -0.027170 0.000000 1.866110 
# 
# From -- ./inp_files/3681.got.cif
#   From: 2010.05.17/outbox.cif.g08.bks.cpg/sg3_2_cif.got.tgz:3681.got - 2010.06.03 18:33:08.
