data_PCOD9113381
_publ_section_title
;
Structure prediction by ZEFSAII (Michael W. Deem and Ramdas Pophale) SiO2 
 PCOD9113381
Probable space group: P 2
;
_chemical_formula_sum "Si O2"
_cell_formula_units_Z 9
_cell_length_a 8.246222
_cell_length_b 6.501902
_cell_length_c 10.949479
_cell_angle_alpha 90.000000
_cell_angle_beta 38.616241
_cell_angle_gamma 90.000000
_cell_volume 366.390197
_symmetry_space_group_name_H-M "P 2"
_symmetry_group_IT_number 3
_symmetry_cell_setting 'monoclinic'
loop_
_space_group_symop_operation_xyz
x,y,z
-x,y,-z
loop_
_atom_site_type_symbol
_atom_site_label
_atom_site_fract_x
_atom_site_fract_y
_atom_site_fract_z
Si Si1 0.272402 0.002090 0.416873
Si Si2 0.250127 0.125878 0.018591
Si Si3 0.140334 0.754897 0.713081
Si Si4 0.000000 0.470307 0.000000
Si Si5 0.008473 0.378690 0.353575
O O1 0.502888 0.014953 0.185135
O O2 0.000000 0.968561 0.500000
O O3 0.238595 0.223945 0.504692
O O4 0.324497 0.844838 0.497207
O O5 0.173369 0.316195 0.977656
O O6 0.228645 0.231757 0.165407
O O7 0.028355 0.951068 0.149392
O O8 0.180007 0.615875 0.809739
O O9 0.984118 0.587237 0.724547
O O10 0.000000 0.433028 0.500000
#
# Coordination Sequence:
#
# PCOD9113381 Si02
#       5
#     2   2   2   1   2
#     4  10  22  41  65  97 129 162 210 266 326 384
#     4  10  22  42  65  91 130 172 209 263 322 377
#     4  10  21  40  64  92 126 168 217 262 312 377
#     4  10  22  44  64  90 130 172 218 262 314 378
#     4   9  20  38  60  92 128 165 209 258 317 380
#
# _framework density 24.563974000000002
#
# number of rings (size 3 to 8) (size 9 to 14) (size 15 to 20)
#    0.000    2.222    0.000    1.333    0.000   12.444 
#    0.000   35.556    0.000    0.000    0.000    0.000 
#    0.000    0.000    0.000    0.000    0.000    0.000 
#
# Total GULP energy -50127.410870 kJ/mol
# GULP energy per Si atom -5569.712319 kJ/mol
# Density = 2.450807 g / cm^3
# Si number density = 24.563974 Si / 1000 Ang^3
#
#
#
# Elastic Constant Matrix: (Units=GPa)
#
#
# Indices 1 2 3 4 5 6 
#
# 1 45.0817 19.5067 37.2776 0.0000 35.1835 0.0000
# 2 19.5067 130.7432 36.5627 0.0000 27.9577 0.0000
# 3 37.2776 36.5627 183.2914 0.0000 20.8479 0.0000
# 4 0.0000 0.0000 0.0000 42.6322 0.0000 20.6218
# 5 35.1835 27.9577 20.8479 0.0000 41.5641 0.0000
# 6 0.0000 0.0000 0.0000 20.6218 0.0000 27.4659
#
#
#
# Elastic Compliance Matrix: (Units=1/GPa)
#
#
# Indices 1 2 3 4 5 6 
#
# 1 0.079016 0.004871 -0.009610 0.000000 -0.065343 0.000000
# 2 0.004871 0.009475 -0.001789 0.000000 -0.009599 0.000000
# 3 -0.009610 -0.001789 0.007111 0.000000 0.005771 0.000000
# 4 0.000000 0.000000 0.000000 0.036834 0.000000 -0.027655
# 5 -0.065343 -0.009599 0.005771 0.000000 0.082933 0.000000
# 6 0.000000 0.000000 0.000000 -0.027655 0.000000 0.057173
#
#
# Mechanical properties :
#
#
# Convention : Reuss Voigt Hill
#
# Bulk Modulus (GPa) = 12.11440 60.64559 36.37999
# Shear Modulus (GPa) = 15.96876 40.05039 28.00957
#
# Velocity S-wave (km/s) = 2.55245 4.04227 3.38045
# Velocity P-wave (km/s) = 3.69177 6.82122 5.48444
#
# Compressibility (1/GPa) = 0.08254641
#
# Stress axis : x y z
#
# Youngs Moduli (GPa) = 12.65561 105.54403 140.63490
#
# Poissons Ratio (x) = -0.51409 1.35146
# Poissons Ratio (y) = -0.06164 0.25157
# Poissons Ratio (z) = 0.12162 0.18880
#
# Static dielectric constant tensor:
#      x y z
#    x 2.172570 0.000000 -0.051410 
#    y 0.000000 1.901040 0.000000 
#    z -0.051410 0.000000 2.004910 
# 
# From -- ./inp_files/1855.got.cif
#   From: 2010.05.17/outbox.cif.g08.bks.cpg/sg3_1_cif.got.tgz:1855.got - 2010.06.03 18:33:08.
