data_PCOD9113738
_publ_section_title
;
Structure prediction by ZEFSAII (Michael W. Deem and Ramdas Pophale) SiO2 
 PCOD9113738
Probable space group: P 2
;
_chemical_formula_sum "Si O2"
_cell_formula_units_Z 13
_cell_length_a 17.168416
_cell_length_b 7.123211
_cell_length_c 9.054337
_cell_angle_alpha 90.000000
_cell_angle_beta 144.971773
_cell_angle_gamma 90.000000
_cell_volume 635.564154
_symmetry_space_group_name_H-M "P 2"
_symmetry_group_IT_number 3
_symmetry_cell_setting 'monoclinic'
loop_
_space_group_symop_operation_xyz
x,y,z
-x,y,-z
loop_
_atom_site_type_symbol
_atom_site_label
_atom_site_fract_x
_atom_site_fract_y
_atom_site_fract_z
Si Si1 0.630400 0.664760 0.490970
Si Si2 0.850155 0.518937 0.608683
Si Si3 0.308513 0.391559 0.147902
Si Si4 0.077282 0.687988 0.770733
Si Si5 0.764183 0.002289 0.819491
Si Si6 0.000000 0.184396 0.000000
Si Si7 0.589874 0.444567 0.008926
O O1 0.768100 0.601020 0.620588
O O2 0.626877 0.534772 0.631572
O O3 0.648276 0.880707 0.559904
O O4 0.504177 0.619753 0.188953
O O5 0.921842 0.324844 0.766585
O O6 0.734010 0.490892 0.305194
O O7 0.966675 0.652259 0.726495
O O8 0.288279 0.194621 0.195162
O O9 0.167245 0.499494 0.894411
O O10 0.381947 0.352900 0.106068
O O11 0.000000 0.726278 0.500000
O O12 0.173902 0.859508 0.964267
O O13 0.886409 0.059828 0.901372
O O14 0.500000 0.349329 0.000000
#
# Coordination Sequence:
#
# PCOD9113738 Si02
#       7
#     2   2   2   2   2   1   2
#     4  10  22  43  66  95 131 180 224 265 326 396
#     4  11  20  40  70  96 137 179 210 270 339 382
#     4  11  21  42  67  95 130 172 220 279 326 389
#     4  11  22  38  64  99 137 172 214 272 335 394
#     4  11  23  37  69 100 132 170 221 271 334 392
#     4  12  20  38  68 108 136 168 218 276 338 404
#     4  10  23  41  71  89 127 183 221 265 328 392
#
# _framework density 20.454267000000002
#
# number of rings (size 3 to 8) (size 9 to 14) (size 15 to 20)
#    0.000    1.231    4.615    2.308    0.000    1.846 
#    0.000    6.154   13.538    0.000    0.000    0.000 
#    0.000    0.000    0.000    0.000    0.000    0.000 
#
# Total GULP energy -72579.904206 kJ/mol
# GULP energy per Si atom -5583.069554 kJ/mol
# Density = 2.040771 g / cm^3
# Si number density = 20.454267 Si / 1000 Ang^3
#
#
#
# Elastic Constant Matrix: (Units=GPa)
#
#
# Indices 1 2 3 4 5 6 
#
# 1 139.5192 36.6551 10.4901 0.0000 -14.1739 0.0000
# 2 36.6551 116.8640 26.2031 0.0000 -1.6544 0.0000
# 3 10.4901 26.2031 117.2496 0.0000 -0.7049 0.0000
# 4 0.0000 0.0000 0.0000 10.0208 0.0000 -2.2235
# 5 -14.1739 -1.6544 -0.7049 0.0000 29.2478 0.0000
# 6 0.0000 0.0000 0.0000 -2.2235 0.0000 6.5723
#
#
#
# Elastic Compliance Matrix: (Units=1/GPa)
#
#
# Indices 1 2 3 4 5 6 
#
# 1 0.008224 -0.002490 -0.000156 0.000000 0.003841 0.000000
# 2 -0.002490 0.009769 -0.001965 0.000000 -0.000701 0.000000
# 3 -0.000156 -0.001965 0.008982 0.000000 0.000030 0.000000
# 4 0.000000 0.000000 0.000000 0.107892 0.000000 0.036502
# 5 0.003841 -0.000701 0.000030 0.000000 0.036013 0.000000
# 6 0.000000 0.000000 0.000000 0.036502 0.000000 0.164503
#
#
# Mechanical properties :
#
#
# Convention : Reuss Voigt Hill
#
# Bulk Modulus (GPa) = 56.32950 57.81437 57.07193
# Shear Modulus (GPa) = 14.26446 29.18714 21.72580
#
# Velocity S-wave (km/s) = 2.64367 3.78159 3.26262
# Velocity P-wave (km/s) = 6.07599 6.88432 6.49274
#
# Compressibility (1/GPa) = 0.01775269
#
# Stress axis : x y z
#
# Youngs Moduli (GPa) = 121.60170 102.36982 111.33377
#
# Poissons Ratio (x) = 0.25490 0.01739
# Poissons Ratio (y) = 0.30279 0.21872
# Poissons Ratio (z) = 0.01899 0.20111
#
# Static dielectric constant tensor:
#      x y z
#    x 1.773390 0.000000 0.011160 
#    y 0.000000 1.680280 0.000000 
#    z 0.011160 0.000000 1.749010 
# 
# From -- ./inp_files/8813.got.cif
#   From: 2010.05.17/outbox.cif.g08.bks.cpg/sg3_5_cif.got.tgz:8813.got - 2010.06.03 18:33:08.
