data_PCOD9113139
_publ_section_title
;
Structure prediction by ZEFSAII (Michael W. Deem and Ramdas Pophale) SiO2 
 PCOD9113139
Probable space group: P 2
;
_chemical_formula_sum "Si O2"
_cell_formula_units_Z 13
_cell_length_a 7.070900
_cell_length_b 9.364489
_cell_length_c 8.453126
_cell_angle_alpha 90.000000
_cell_angle_beta 106.966720
_cell_angle_gamma 90.000000
_cell_volume 535.364390
_symmetry_space_group_name_H-M "P 2"
_symmetry_group_IT_number 3
_symmetry_cell_setting 'monoclinic'
loop_
_space_group_symop_operation_xyz
x,y,z
-x,y,-z
loop_
_atom_site_type_symbol
_atom_site_label
_atom_site_fract_x
_atom_site_fract_y
_atom_site_fract_z
Si Si1 0.916249 0.443480 0.813278
Si Si2 0.972599 0.729710 0.673823
Si Si3 0.724365 0.288848 0.483326
Si Si4 0.531874 0.495038 0.193244
Si Si5 0.500000 0.978491 0.000000
Si Si6 0.765993 0.004658 0.324909
Si Si7 0.561899 0.796973 0.734128
O O1 0.882837 0.347736 0.649205
O O2 0.687384 0.474758 0.792068
O O3 0.027003 0.593665 0.798796
O O4 0.000000 0.384079 0.000000
O O5 0.076584 0.886595 0.695931
O O6 0.000000 0.679820 0.500000
O O7 0.746699 0.757812 0.673033
O O8 0.500000 0.272765 0.500000
O O9 0.317916 0.395103 0.674612
O O10 0.798540 0.135680 0.445413
O O11 0.566124 0.660188 0.244959
O O12 0.500000 0.470533 0.000000
O O13 0.347197 0.064789 0.857797
O O14 0.623709 0.875125 0.913093
O O15 0.596244 0.909669 0.366089
#
# Coordination Sequence:
#
# PCOD9113139 Si02
#       7
#     2   2   2   2   1   2   2
#     4  10  25  44  73 109 154 197 259 328 372 451
#     4  11  26  41  73 114 147 197 251 320 381 444
#     4  10  24  45  73 109 151 208 252 303 398 463
#     4  10  20  40  75 111 146 199 251 310 382 459
#     4   8  20  38  70 114 136 208 242 304 378 440
#     4  10  23  42  76 101 155 195 243 305 387 457
#     4   9  21  41  72 112 153 190 259 305 376 462
#
# _framework density 24.282529
#
# number of rings (size 3 to 8) (size 9 to 14) (size 15 to 20)
#    0.923    1.231    0.769    0.000   11.846    0.000 
#    0.000    2.308    3.385    0.000    0.000    0.000 
#    0.000    0.000    0.000    0.000    0.000    0.000 
#
# Total GULP energy -72510.072741 kJ/mol
# GULP energy per Si atom -5577.697903 kJ/mol
# Density = 2.422726 g / cm^3
# Si number density = 24.282529 Si / 1000 Ang^3
#
#
#
# Elastic Constant Matrix: (Units=GPa)
#
#
# Indices 1 2 3 4 5 6 
#
# 1 124.9203 45.5831 38.7960 0.0000 -11.1586 0.0000
# 2 45.5831 147.4900 74.6560 0.0000 12.6186 0.0000
# 3 38.7960 74.6560 167.9815 0.0000 10.8607 0.0000
# 4 0.0000 0.0000 0.0000 6.1170 0.0000 -15.9009
# 5 -11.1586 12.6186 10.8607 0.0000 45.9438 0.0000
# 6 0.0000 0.0000 0.0000 -15.9009 0.0000 4.7950
#
#
#
# Elastic Compliance Matrix: (Units=1/GPa)
#
#
# Indices 1 2 3 4 5 6 
#
# 1 0.009663 -0.002625 -0.001283 0.000000 0.003371 0.000000
# 2 -0.002625 0.009565 -0.003487 0.000000 -0.002441 0.000000
# 3 -0.001283 -0.003487 0.007878 0.000000 -0.001216 0.000000
# 4 0.000000 0.000000 0.000000 -0.021454 0.000000 -0.071143
# 5 0.003371 -0.002441 -0.001216 0.000000 0.023542 0.000000
# 6 0.000000 0.000000 0.000000 -0.071143 0.000000 -0.027368
#
#
# Mechanical properties :
#
#
# Convention : Reuss Voigt Hill
#
# Bulk Modulus (GPa) = 81.20005 84.27356 82.73680
# Shear Modulus (GPa) = 241.29131 30.12826 135.70979
#
# Velocity S-wave (km/s) = 9.97918 3.52623 7.48393
# Velocity P-wave (km/s) = 12.89539 7.16658 10.43194
#
# Compressibility (1/GPa) = 0.01231526
#
# Stress axis : x y z
#
# Youngs Moduli (GPa) = 103.49145 104.54388 126.94157
#
# Poissons Ratio (x) = 0.27447 0.16284
# Poissons Ratio (y) = 0.27171 0.44264
# Poissons Ratio (z) = 0.13276 0.36454
#
# Static dielectric constant tensor:
#      x y z
#    x 1.966850 0.000000 0.022850 
#    y 0.000000 1.946810 0.000000 
#    z 0.022850 0.000000 2.080020 
# 
# From -- ./inp_files/5343.got.cif
#   From: 2010.05.17/outbox.cif.g08.bks.cpg/sg3_3_cif.got.tgz:5343.got - 2010.06.03 18:33:08.
