data_PCOD9113203
_publ_section_title
;
Structure prediction by ZEFSAII (Michael W. Deem and Ramdas Pophale) SiO2 
 PCOD9113203
Probable space group: P 2
;
_chemical_formula_sum "Si O2"
_cell_formula_units_Z 14
_cell_length_a 9.384902
_cell_length_b 7.187012
_cell_length_c 18.664059
_cell_angle_alpha 90.000000
_cell_angle_beta 153.625087
_cell_angle_gamma 90.000000
_cell_volume 559.248404
_symmetry_space_group_name_H-M "P 2"
_symmetry_group_IT_number 3
_symmetry_cell_setting 'monoclinic'
loop_
_space_group_symop_operation_xyz
x,y,z
-x,y,-z
loop_
_atom_site_type_symbol
_atom_site_label
_atom_site_fract_x
_atom_site_fract_y
_atom_site_fract_z
Si Si1 0.352528 0.605450 0.136424
Si Si2 0.409226 0.103756 0.611476
Si Si3 0.852982 0.582351 0.246566
Si Si4 0.350709 0.152030 0.134267
Si Si5 0.820719 0.145133 0.235702
Si Si6 0.722592 0.500433 0.428721
Si Si7 0.815477 0.872286 0.693079
O O1 0.536622 0.658871 0.146071
O O2 0.352001 0.378025 0.132247
O O3 0.557746 0.641990 0.300505
O O4 0.000000 0.667220 0.000000
O O5 0.407752 0.081152 0.695755
O O6 0.498688 0.327005 0.646640
O O7 0.092149 0.104520 0.419372
O O8 0.663835 0.956744 0.696117
O O9 0.814435 0.363424 0.215689
O O10 0.119913 0.590246 0.430683
O O11 0.987759 0.685289 0.237228
O O12 0.484180 0.089967 0.118562
O O13 0.000000 0.095049 0.000000
O O14 0.939493 0.028416 0.223475
O O15 0.000000 0.421288 0.500000
O O16 0.500000 0.864385 0.500000
#
# Coordination Sequence:
#
# PCOD9113203 Si02
#       7
#     2   2   2   2   2   2   2
#     4   8  14  27  51  81 107 137 182 229 274 322
#     4   9  16  30  51  78 109 140 176 222 271 319
#     4   9  17  31  51  75 108 140 172 222 273 321
#     4   9  16  30  56  84 106 137 183 229 273 322
#     4   9  18  34  55  78 107 141 175 220 273 319
#     4   8  14  27  51  81 109 140 181 231 279 319
#     4  10  21  33  50  79 109 141 181 217 261 326
#
# _framework density 25.033597
#
# number of rings (size 3 to 8) (size 9 to 14) (size 15 to 20)
#    0.000    3.143    0.000    3.000    0.000    2.857 
#    0.000   10.000    0.000    5.143    0.000    4.000 
#    0.000    0.000    0.000    0.000    0.000    0.000 
#
# Total GULP energy -78086.181642 kJ/mol
# GULP energy per Si atom -5577.584403 kJ/mol
# Density = 2.497662 g / cm^3
# Si number density = 25.033597 Si / 1000 Ang^3
#
#
#
# Elastic Constant Matrix: (Units=GPa)
#
#
# Indices 1 2 3 4 5 6 
#
# 1 113.1912 62.1325 22.7518 0.0000 34.0998 0.0000
# 2 62.1325 131.7835 20.2510 0.0000 28.4384 0.0000
# 3 22.7518 20.2510 52.2476 0.0000 16.5874 0.0000
# 4 0.0000 0.0000 0.0000 453.2348 0.0000 476.2143
# 5 34.0998 28.4384 16.5874 0.0000 43.2208 0.0000
# 6 0.0000 0.0000 0.0000 476.2143 0.0000 506.7180
#
#
#
# Elastic Compliance Matrix: (Units=1/GPa)
#
#
# Indices 1 2 3 4 5 6 
#
# 1 0.013996 -0.004750 -0.001982 0.000000 -0.007157 0.000000
# 2 -0.004750 0.010607 -0.001158 0.000000 -0.002787 0.000000
# 3 -0.001982 -0.001158 0.022448 0.000000 -0.006290 0.000000
# 4 0.000000 0.000000 0.000000 0.175810 0.000000 -0.165227
# 5 -0.007157 -0.002787 -0.006290 0.000000 0.033031 0.000000
# 6 0.000000 0.000000 0.000000 -0.165227 0.000000 0.157254
#
#
# Mechanical properties :
#
#
# Convention : Reuss Voigt Hill
#
# Bulk Modulus (GPa) = 31.97699 56.38809 44.18254
# Shear Modulus (GPa) = 11.38043 213.44051 112.41047
#
# Velocity S-wave (km/s) = 2.13446 9.24374 6.70830
# Velocity P-wave (km/s) = 4.34464 11.68344 8.81416
#
# Compressibility (1/GPa) = 0.03127249
#
# Stress axis : x y z
#
# Youngs Moduli (GPa) = 71.44757 94.27621 44.54686
#
# Poissons Ratio (x) = 0.44781 0.08828
# Poissons Ratio (y) = 0.33937 0.05158
# Poissons Ratio (z) = 0.14159 0.10917
#
# Static dielectric constant tensor:
#      x y z
#    x 1.817460 0.000000 0.079840 
#    y 0.000000 2.026250 0.000000 
#    z 0.079840 0.000000 1.987910 
# 
# From -- ./inp_files/15791.got.cif
#   From: 2010.05.17/outbox.cif.g08.bks.cpg/sg3_8_cif.got.tgz:15791.got - 2010.06.03 18:33:08.
