data_PCOD9113648
_publ_section_title
;
Structure prediction by ZEFSAII (Michael W. Deem and Ramdas Pophale) SiO2 
 PCOD9113648
Probable space group: P 2
;
_chemical_formula_sum "Si O2"
_cell_formula_units_Z 15
_cell_length_a 17.177295
_cell_length_b 5.770565
_cell_length_c 8.523013
_cell_angle_alpha 90.000000
_cell_angle_beta 131.365429
_cell_angle_gamma 90.000000
_cell_volume 634.048850
_symmetry_space_group_name_H-M "P 2"
_symmetry_group_IT_number 3
_symmetry_cell_setting 'monoclinic'
loop_
_space_group_symop_operation_xyz
x,y,z
-x,y,-z
loop_
_atom_site_type_symbol
_atom_site_label
_atom_site_fract_x
_atom_site_fract_y
_atom_site_fract_z
Si Si1 0.151466 0.942710 0.901295
Si Si2 0.884040 0.187090 0.845420
Si Si3 0.448797 0.235081 0.778396
Si Si4 0.658809 0.262043 0.905395
Si Si5 0.813119 0.557169 0.301262
Si Si6 0.000000 0.268579 0.500000
Si Si7 0.694920 0.519423 0.647219
Si Si8 0.266152 0.901164 0.537948
O O1 0.158797 0.702529 0.819105
O O2 0.112290 0.974033 0.025224
O O3 0.073483 0.107878 0.701588
O O4 0.265627 0.057091 0.048797
O O5 0.827391 0.081158 0.617907
O O6 0.805694 0.388337 0.795287
O O7 0.000000 0.278616 0.000000
O O8 0.547667 0.166430 0.805865
O O9 0.378009 0.397807 0.578393
O O10 0.372188 0.028652 0.726672
O O11 0.500000 0.347903 0.000000
O O12 0.648955 0.456928 0.756011
O O13 0.722203 0.380905 0.132073
O O14 0.919495 0.429058 0.487573
O O15 0.772320 0.723425 0.382572
O O16 0.709045 0.773314 0.594281
#
# Coordination Sequence:
#
# PCOD9113648 Si02
#       8
#     2   2   2   2   2   1   2   2
#     4  10  22  41  62  91 129 170 226 268 330 401
#     4  10  24  40  64  91 130 177 216 278 335 391
#     4  11  23  42  66  95 132 173 218 275 338 386
#     4  10  22  43  67  94 130 175 219 278 331 395
#     4  11  23  40  67  98 134 176 224 279 332 406
#     4  10  24  36  64  92 132 174 224 274 332 396
#     4  10  23  44  65  96 131 170 226 272 333 404
#     4  11  25  41  65 100 135 168 227 278 333 404
#
# _framework density 23.657482000000002
#
# number of rings (size 3 to 8) (size 9 to 14) (size 15 to 20)
#    0.000    1.600    0.000    3.200    5.600    5.333 
#    0.000    5.333    0.000    0.000    0.000    0.000 
#    0.000    0.000    0.000    0.000    0.000    0.000 
#
# Total GULP energy -83897.878092 kJ/mol
# GULP energy per Si atom -5593.191873 kJ/mol
# Density = 2.360364 g / cm^3
# Si number density = 23.657482 Si / 1000 Ang^3
#
#
#
# Elastic Constant Matrix: (Units=GPa)
#
#
# Indices 1 2 3 4 5 6 
#
# 1 101.0181 19.9950 60.3702 0.0000 29.8557 0.0000
# 2 19.9950 46.0681 15.5891 0.0000 13.6976 0.0000
# 3 60.3702 15.5891 105.0386 0.0000 22.7972 0.0000
# 4 0.0000 0.0000 0.0000 34.9713 0.0000 -12.0603
# 5 29.8557 13.6976 22.7972 0.0000 45.4608 0.0000
# 6 0.0000 0.0000 0.0000 -12.0603 0.0000 36.0670
#
#
#
# Elastic Compliance Matrix: (Units=1/GPa)
#
#
# Indices 1 2 3 4 5 6 
#
# 1 0.017159 -0.002824 -0.008059 0.000000 -0.006377 0.000000
# 2 -0.002824 0.024779 -0.000939 0.000000 -0.005140 0.000000
# 3 -0.008059 -0.000939 0.014679 0.000000 -0.001786 0.000000
# 4 0.000000 0.000000 0.000000 0.032322 0.000000 0.010808
# 5 -0.006377 -0.005140 -0.001786 0.000000 0.028629 0.000000
# 6 0.000000 0.000000 0.000000 0.010808 0.000000 0.031340
#
#
# Mechanical properties :
#
#
# Convention : Reuss Voigt Hill
#
# Bulk Modulus (GPa) = 30.32775 49.33705 39.83240
# Shear Modulus (GPa) = 27.24156 33.71118 30.47637
#
# Velocity S-wave (km/s) = 3.39706 3.77897 3.59309
# Velocity P-wave (km/s) = 5.31357 6.31988 5.83844
#
# Compressibility (1/GPa) = 0.03297311
#
# Stress axis : x y z
#
# Youngs Moduli (GPa) = 58.27853 40.35691 68.12483
#
# Poissons Ratio (x) = 0.11399 0.54901
# Poissons Ratio (y) = 0.16461 0.06394
# Poissons Ratio (z) = 0.46966 0.03788
#
# Static dielectric constant tensor:
#      x y z
#    x 1.918420 0.000000 -0.057780 
#    y 0.000000 1.908750 0.000000 
#    z -0.057780 0.000000 1.897950 
# 
# From -- ./inp_files/8869.got.cif
#   From: 2010.05.17/outbox.cif.g08.bks.cpg/sg3_5_cif.got.tgz:8869.got - 2010.06.03 18:33:08.
