data_PCOD9113649
_publ_section_title
;
Structure prediction by ZEFSAII (Michael W. Deem and Ramdas Pophale) SiO2 
 PCOD9113649
Probable space group: P 2
;
_chemical_formula_sum "Si O2"
_cell_formula_units_Z 14
_cell_length_a 9.236726
_cell_length_b 5.186463
_cell_length_c 14.654815
_cell_angle_alpha 90.000000
_cell_angle_beta 52.402070
_cell_angle_gamma 90.000000
_cell_volume 556.244522
_symmetry_space_group_name_H-M "P 2"
_symmetry_group_IT_number 3
_symmetry_cell_setting 'monoclinic'
loop_
_space_group_symop_operation_xyz
x,y,z
-x,y,-z
loop_
_atom_site_type_symbol
_atom_site_label
_atom_site_fract_x
_atom_site_fract_y
_atom_site_fract_z
Si Si1 0.289379 0.212410 0.684011
Si Si2 0.322425 0.404891 0.421219
Si Si3 0.890578 0.893855 0.452349
Si Si4 0.870548 0.720091 0.230835
Si Si5 0.211071 0.383549 0.898333
Si Si6 0.411851 0.391005 0.168204
Si Si7 0.790134 0.886269 0.820755
O O1 0.490405 0.318567 0.602455
O O2 0.144214 0.436775 0.715163
O O3 0.258912 0.171656 0.804225
O O4 0.247390 0.928077 0.666827
O O5 0.270553 0.684039 0.478805
O O6 0.351342 0.397344 0.299611
O O7 0.180073 0.184486 0.505367
O O8 0.000000 0.814008 0.500000
O O9 0.049291 0.877297 0.316451
O O10 0.782044 0.639197 0.168170
O O11 0.077736 0.826910 0.143129
O O12 0.367459 0.377714 0.913230
O O13 0.000000 0.352050 0.000000
O O14 0.344587 0.651610 0.147093
O O15 0.318322 0.150649 0.152671
#
# Coordination Sequence:
#
# PCOD9113649 Si02
#       7
#     2   2   2   2   2   2   2
#     4   9  21  39  65  82 125 159 201 254 315 357
#     4  11  20  36  57  91 113 161 216 264 278 346
#     4  12  21  33  56  87 126 161 215 252 288 368
#     4  10  22  41  63  88 128 166 194 260 320 372
#     4   9  23  43  72  94 115 159 219 255 307 385
#     4  11  22  38  66  89 124 161 209 255 310 371
#     4  12  24  39  60  93 129 168 200 253 328 356
#
# _framework density 25.168786000000001
#
# number of rings (size 3 to 8) (size 9 to 14) (size 15 to 20)
#    0.857    0.571    2.857    3.000    4.000    0.571 
#    0.000    5.000    0.000    0.000    0.000    0.000 
#    0.000    0.000    0.000    0.000    0.000    0.000 
#
# Total GULP energy -78177.105043 kJ/mol
# GULP energy per Si atom -5584.078932 kJ/mol
# Density = 2.511150 g / cm^3
# Si number density = 25.168786 Si / 1000 Ang^3
#
#
#
# Elastic Constant Matrix: (Units=GPa)
#
#
# Indices 1 2 3 4 5 6 
#
# 1 89.9831 46.0709 24.1160 0.0000 -32.9409 0.0000
# 2 46.0709 126.0277 14.9356 0.0000 -12.7934 0.0000
# 3 24.1160 14.9356 68.6715 0.0000 -24.0485 0.0000
# 4 0.0000 0.0000 0.0000 -4.3717 0.0000 -11.0803
# 5 -32.9409 -12.7934 -24.0485 0.0000 43.0004 0.0000
# 6 0.0000 0.0000 0.0000 -11.0803 0.0000 39.8170
#
#
#
# Elastic Compliance Matrix: (Units=1/GPa)
#
#
# Indices 1 2 3 4 5 6 
#
# 1 0.018596 -0.005445 -0.001150 0.000000 0.011982 0.000000
# 2 -0.005445 0.009850 -0.000827 0.000000 -0.001703 0.000000
# 3 -0.001150 -0.000827 0.018344 0.000000 0.009132 0.000000
# 4 0.000000 0.000000 0.000000 -0.134136 0.000000 -0.037327
# 5 0.011982 -0.001703 0.009132 0.000000 0.037035 0.000000
# 6 0.000000 0.000000 0.000000 -0.037327 0.000000 0.014727
#
#
# Mechanical properties :
#
#
# Convention : Reuss Voigt Hill
#
# Bulk Modulus (GPa) = 31.30244 50.54749 40.92497
# Shear Modulus (GPa) = -495.48715 28.99313 -233.24701
#
# Velocity S-wave (km/s) = -14.04611 3.39772 -9.63713
# Velocity P-wave (km/s) = 15.83014 5.95984 10.37000
#
# Compressibility (1/GPa) = 0.03194639
#
# Stress axis : x y z
#
# Youngs Moduli (GPa) = 53.77546 101.51837 54.51462
#
# Poissons Ratio (x) = 0.55280 0.06269
# Poissons Ratio (y) = 0.29282 0.04506
# Poissons Ratio (z) = 0.06184 0.08391
#
# Static dielectric constant tensor:
#      x y z
#    x 2.254000 0.000000 0.064860 
#    y 0.000000 2.006570 0.000000 
#    z 0.064860 0.000000 2.076260 
# 
# From -- ./inp_files/15699.got.cif
#   From: 2010.05.17/outbox.cif.g08.bks.cpg/sg3_8_cif.got.tgz:15699.got - 2010.06.03 18:33:08.
