data_PCOD9113619
_publ_section_title
;
Structure prediction by ZEFSAII (Michael W. Deem and Ramdas Pophale) SiO2 
 PCOD9113619
Probable space group: P 2
;
_chemical_formula_sum "Si O2"
_cell_formula_units_Z 12
_cell_length_a 15.904130
_cell_length_b 4.950894
_cell_length_c 17.146952
_cell_angle_alpha 90.000000
_cell_angle_beta 19.113512
_cell_angle_gamma 90.000000
_cell_volume 442.092539
_symmetry_space_group_name_H-M "P 2"
_symmetry_group_IT_number 3
_symmetry_cell_setting 'monoclinic'
loop_
_space_group_symop_operation_xyz
x,y,z
-x,y,-z
loop_
_atom_site_type_symbol
_atom_site_label
_atom_site_fract_x
_atom_site_fract_y
_atom_site_fract_z
Si Si1 0.271484 0.591470 0.135701
Si Si2 0.101504 0.734275 0.730982
Si Si3 0.321170 0.263218 0.455053
Si Si4 0.208998 0.097065 0.876718
Si Si5 0.501344 0.091189 0.128923
Si Si6 0.000000 0.886294 0.500000
Si Si7 0.500000 0.719024 0.500000
O O1 0.032147 0.702235 0.394591
O O2 0.500000 0.607939 0.000000
O O3 0.287513 0.290138 0.091504
O O4 0.360830 0.800108 0.989955
O O5 0.226641 0.981573 0.573816
O O6 0.275492 0.588820 0.646234
O O7 0.112724 0.492490 0.658127
O O8 0.894874 0.899797 0.963732
O O9 0.600677 0.312120 0.250812
O O10 0.390695 0.211749 0.304943
O O11 0.362747 0.909095 0.682576
O O12 0.000000 0.217133 0.000000
O O13 0.253627 0.062043 0.290259
#
# Coordination Sequence:
#
# PCOD9113619 Si02
#       7
#     2   2   2   2   2   1   1
#     4  10  22  42  69  99 131 175 224 271 330 399
#     4  10  22  40  64  94 130 175 220 273 336 391
#     4  11  24  43  64  96 136 172 222 277 328 400
#     4   9  20  42  68  96 131 177 224 275 335 392
#     4  11  24  43  68 100 136 175 222 275 332 399
#     4  10  24  46  72  98 136 178 222 276 336 394
#     4   8  18  38  64  92 126 170 224 272 320 396
#
# _framework density 27.143637999999999
#
# number of rings (size 3 to 8) (size 9 to 14) (size 15 to 20)
#    0.000    2.000    0.000    2.500    0.000   14.000 
#    0.000   17.500    0.000    0.000    0.000    0.000 
#    0.000    0.000    0.000    0.000    0.000    0.000 
#
# Total GULP energy -67146.603408 kJ/mol
# GULP energy per Si atom -5595.550284 kJ/mol
# Density = 2.708186 g / cm^3
# Si number density = 27.143638 Si / 1000 Ang^3
#
#
#
# Elastic Constant Matrix: (Units=GPa)
#
#
# Indices 1 2 3 4 5 6 
#
# 1 71.4384 31.8875 48.0461 0.0000 14.2370 0.0000
# 2 31.8875 131.5574 42.3889 0.0000 8.6915 0.0000
# 3 48.0461 42.3889 121.4362 0.0000 34.4689 0.0000
# 4 0.0000 0.0000 0.0000 27.8707 0.0000 9.3995
# 5 14.2370 8.6915 34.4689 0.0000 64.1013 0.0000
# 6 0.0000 0.0000 0.0000 9.3995 0.0000 21.1073
#
#
#
# Elastic Compliance Matrix: (Units=1/GPa)
#
#
# Indices 1 2 3 4 5 6 
#
# 1 0.019821 -0.002577 -0.006835 0.000000 -0.000377 0.000000
# 2 -0.002577 0.008915 -0.002256 0.000000 0.000577 0.000000
# 3 -0.006835 -0.002256 0.013228 0.000000 -0.005289 0.000000
# 4 0.000000 0.000000 0.000000 0.042221 0.000000 -0.018802
# 5 -0.000377 0.000577 -0.005289 0.000000 0.018450 0.000000
# 6 0.000000 0.000000 0.000000 -0.018802 0.000000 0.055750
#
#
# Mechanical properties :
#
#
# Convention : Reuss Voigt Hill
#
# Bulk Modulus (GPa) = 53.68637 63.23080 58.45858
# Shear Modulus (GPa) = 26.60576 36.08982 31.34779
#
# Velocity S-wave (km/s) = 3.13419 3.65031 3.40205
# Velocity P-wave (km/s) = 5.73751 6.41185 6.08403
#
# Compressibility (1/GPa) = 0.01862670
#
# Stress axis : x y z
#
# Youngs Moduli (GPa) = 50.45234 112.17532 75.59768
#
# Poissons Ratio (x) = 0.28906 0.51675
# Poissons Ratio (y) = 0.13001 0.17054
# Poissons Ratio (z) = 0.34487 0.25306
#
# Static dielectric constant tensor:
#      x y z
#    x 2.325330 0.000000 -0.109410 
#    y 0.000000 2.044610 0.000000 
#    z -0.109410 0.000000 2.141130 
# 
# From -- ./inp_files/15416.got.cif
#   From: 2010.05.17/outbox.cif.g08.bks.cpg/sg3_8_cif.got.tgz:15416.got - 2010.06.03 18:33:08.
