data_PCOD9113971
_publ_section_title
;
Structure prediction by ZEFSAII (Michael W. Deem and Ramdas Pophale) SiO2 
 PCOD9113971
Probable space group: P 2
;
_chemical_formula_sum "Si O2"
_cell_formula_units_Z 14
_cell_length_a 8.384873
_cell_length_b 5.621804
_cell_length_c 12.589701
_cell_angle_alpha 90.000000
_cell_angle_beta 105.887901
_cell_angle_gamma 90.000000
_cell_volume 570.784261
_symmetry_space_group_name_H-M "P 2"
_symmetry_group_IT_number 3
_symmetry_cell_setting 'monoclinic'
loop_
_space_group_symop_operation_xyz
x,y,z
-x,y,-z
loop_
_atom_site_type_symbol
_atom_site_label
_atom_site_fract_x
_atom_site_fract_y
_atom_site_fract_z
Si Si1 0.820476 0.088400 0.613525
Si Si2 0.574948 0.992504 0.128495
Si Si3 0.038323 0.456091 0.197850
Si Si4 0.000000 0.180562 0.000000
Si Si5 0.706636 0.498634 0.222364
Si Si6 0.000000 0.794387 0.500000
Si Si7 0.747413 0.879607 0.806958
Si Si8 0.658946 0.489654 0.455316
O O1 0.713837 0.225337 0.505833
O O2 0.861145 0.276070 0.712103
O O3 0.987972 0.980848 0.595318
O O4 0.741025 0.896204 0.677066
O O5 0.650190 0.725510 0.142424
O O6 0.429003 0.959269 0.185911
O O7 0.677383 0.226741 0.179626
O O8 0.500000 0.041430 0.000000
O O9 0.932332 0.346831 0.081555
O O10 0.904056 0.549429 0.257533
O O11 0.173528 0.620309 0.166833
O O12 0.129244 0.026982 0.091495
O O13 0.621806 0.503612 0.323108
O O14 0.830865 0.645948 0.488249
O O15 0.500000 0.555326 0.500000
#
# Coordination Sequence:
#
# PCOD9113971 Si02
#       8
#     2   2   2   1   2   1   2   2
#     4  11  25  46  74 104 153 197 251 315 391 455
#     4  12  30  50  76 109 158 197 251 319 392 456
#     4  11  25  45  74 108 148 198 258 314 381 462
#     4  10  24  40  78 102 146 186 264 304 388 454
#     4  12  29  49  77 112 152 202 254 316 387 469
#     4  12  26  48  76 110 150 204 252 330 384 466
#     4  11  25  45  75 107 145 202 250 318 378 463
#     4  12  28  48  77 111 153 202 260 322 387 468
#
# _framework density 24.527653999999998
#
# number of rings (size 3 to 8) (size 9 to 14) (size 15 to 20)
#    0.000    0.571    0.000    6.429   20.000    0.571 
#    0.000    0.000    0.000    0.000    0.000    0.000 
#    0.000    0.000    0.000    0.000    0.000    0.000 
#
# Total GULP energy -78033.263509 kJ/mol
# GULP energy per Si atom -5573.804536 kJ/mol
# Density = 2.447183 g / cm^3
# Si number density = 24.527654 Si / 1000 Ang^3
#
#
#
# Elastic Constant Matrix: (Units=GPa)
#
#
# Indices 1 2 3 4 5 6 
#
# 1 101.1629 25.1731 4.8141 0.0000 -21.5883 0.0000
# 2 25.1731 103.3562 29.0481 0.0000 6.5652 0.0000
# 3 4.8141 29.0481 78.8680 0.0000 -16.8473 0.0000
# 4 0.0000 0.0000 0.0000 81.4193 0.0000 -20.8850
# 5 -21.5883 6.5652 -16.8473 0.0000 38.0085 0.0000
# 6 0.0000 0.0000 0.0000 -20.8850 0.0000 48.6696
#
#
#
# Elastic Compliance Matrix: (Units=1/GPa)
#
#
# Indices 1 2 3 4 5 6 
#
# 1 0.012881 -0.004546 0.002893 0.000000 0.009384 0.000000
# 2 -0.004546 0.012979 -0.006112 0.000000 -0.007533 0.000000
# 3 0.002893 -0.006112 0.016934 0.000000 0.010205 0.000000
# 4 0.000000 0.000000 0.000000 0.013801 0.000000 0.005922
# 5 0.009384 -0.007533 0.010205 0.000000 0.037464 0.000000
# 6 0.000000 0.000000 0.000000 0.005922 0.000000 0.023088
#
#
# Mechanical properties :
#
#
# Convention : Reuss Voigt Hill
#
# Bulk Modulus (GPa) = 36.68017 44.60643 40.64330
# Shear Modulus (GPa) = 35.26930 48.57626 41.92278
#
# Velocity S-wave (km/s) = 3.79613 4.45507 4.13874
# Velocity P-wave (km/s) = 5.84818 6.68500 6.28054
#
# Compressibility (1/GPa) = 0.02726269
#
# Stress axis : x y z
#
# Youngs Moduli (GPa) = 77.63229 77.04838 59.05340
#
# Poissons Ratio (x) = 0.35029 -0.17083
# Poissons Ratio (y) = 0.35295 0.36093
# Poissons Ratio (z) = -0.22457 0.47092
#
# Static dielectric constant tensor:
#      x y z
#    x 1.075600 0.000000 -1.065900 
#    y 0.000000 2.151360 0.000000 
#    z -1.065900 0.000000 0.761120 
# 
# From -- ./inp_files/10285.got.cif
#   From: 2010.05.17/outbox.cif.g08.bks.cpg/sg3_6_cif.got.tgz:10285.got - 2010.06.03 18:33:08.
