data_PCOD9113607
_publ_section_title
;
Structure prediction by ZEFSAII (Michael W. Deem and Ramdas Pophale) SiO2 
 PCOD9113607
Probable space group: P 2
;
_chemical_formula_sum "Si O2"
_cell_formula_units_Z 16
_cell_length_a 29.161116
_cell_length_b 5.486864
_cell_length_c 5.487716
_cell_angle_alpha 90.000000
_cell_angle_beta 45.691685
_cell_angle_gamma 90.000000
_cell_volume 628.326039
_symmetry_space_group_name_H-M "P 2"
_symmetry_group_IT_number 3
_symmetry_cell_setting 'monoclinic'
loop_
_space_group_symop_operation_xyz
x,y,z
-x,y,-z
loop_
_atom_site_type_symbol
_atom_site_label
_atom_site_fract_x
_atom_site_fract_y
_atom_site_fract_z
Si Si1 0.541148 0.643900 0.591006
Si Si2 0.322034 0.407848 0.479862
Si Si3 0.041283 0.998377 0.090099
Si Si4 0.175691 0.225780 0.028238
Si Si5 0.205813 0.084271 0.417306
Si Si6 0.287769 0.596285 0.107030
Si Si7 0.927217 0.502492 0.863074
Si Si8 0.427266 0.140713 0.363250
O O1 0.500000 0.678235 0.500000
O O2 0.571306 0.374538 0.466434
O O3 0.583895 0.886835 0.460079
O O4 0.500000 0.631532 0.000000
O O5 0.327329 0.554910 0.209610
O O6 0.376606 0.208437 0.338981
O O7 0.250336 0.300662 0.750159
O O8 0.321350 0.575597 0.720756
O O9 0.082943 0.752662 0.958501
O O10 0.000000 0.009094 0.500000
O O11 0.071331 0.268077 0.968292
O O12 0.000000 0.968257 0.000000
O O13 0.172554 0.060152 0.801964
O O14 0.166246 0.084183 0.313281
O O15 0.124754 0.438805 0.154202
O O16 0.254187 0.857985 0.232928
O O17 0.239091 0.357602 0.292935
O O18 0.000000 0.519341 0.500000
O O19 0.500000 0.121655 0.000000
#
# Coordination Sequence:
#
# PCOD9113607 Si02
#       8
#     2   2   2   2   2   2   2   2
#     4  10  22  40  62  90 124 162 206 256 312 372
#     4  10  23  42  65  94 128 167 212 262 316 377
#     4  10  22  40  62  90 124 162 206 256 312 372
#     4  10  23  42  65  94 128 167 212 262 316 377
#     4  10  22  40  62  90 124 162 205 254 309 368
#     4  10  22  40  62  90 124 162 205 254 309 368
#     4  10  23  42  65  94 127 167 211 262 317 377
#     4  10  23  42  65  94 127 167 211 262 317 377
#
# _framework density 25.464487999999999
#
# number of rings (size 3 to 8) (size 9 to 14) (size 15 to 20)
#    0.000    2.000    0.000    1.500    0.000   16.000 
#    0.000    2.500    0.000    0.000    0.000    0.000 
#    0.000    0.000    0.000    0.000    0.000    0.000 
#
# Total GULP energy -89303.892452 kJ/mol
# GULP energy per Si atom -5581.493278 kJ/mol
# Density = 2.540653 g / cm^3
# Si number density = 25.464488 Si / 1000 Ang^3
#
#
#
# Elastic Constant Matrix: (Units=GPa)
#
#
# Indices 1 2 3 4 5 6 
#
# 1 213.2718 75.9438 44.1385 0.0000 21.9748 0.0000
# 2 75.9438 202.4027 14.2442 0.0000 2.8218 0.0000
# 3 44.1385 14.2442 103.2139 0.0000 30.7338 0.0000
# 4 0.0000 0.0000 0.0000 32.7267 0.0000 -4.0802
# 5 21.9748 2.8218 30.7338 0.0000 64.4483 0.0000
# 6 0.0000 0.0000 0.0000 -4.0802 0.0000 56.3054
#
#
#
# Elastic Compliance Matrix: (Units=1/GPa)
#
#
# Indices 1 2 3 4 5 6 
#
# 1 0.005935 -0.002076 -0.001954 0.000000 -0.001001 0.000000
# 2 -0.002076 0.005716 -0.000044 0.000000 0.000478 0.000000
# 3 -0.001954 -0.000044 0.012041 0.000000 -0.005074 0.000000
# 4 0.000000 0.000000 0.000000 0.030835 0.000000 0.002234
# 5 -0.001001 0.000478 -0.005074 0.000000 0.018256 0.000000
# 6 0.000000 0.000000 0.000000 0.002234 0.000000 0.017922
#
#
# Mechanical properties :
#
#
# Convention : Reuss Voigt Hill
#
# Bulk Modulus (GPa) = 64.32308 87.50461 75.91384
# Shear Modulus (GPa) = 48.06144 56.33352 52.19748
#
# Velocity S-wave (km/s) = 4.34912 4.70855 4.53240
# Velocity P-wave (km/s) = 7.10877 7.99991 7.56747
#
# Compressibility (1/GPa) = 0.01554652
#
# Stress axis : x y z
#
# Youngs Moduli (GPa) = 168.47937 174.95256 83.04976
#
# Poissons Ratio (x) = 0.36313 0.16225
# Poissons Ratio (y) = 0.34970 0.00362
# Poissons Ratio (z) = 0.32915 0.00763
#
# Static dielectric constant tensor:
#      x y z
#    x 2.249090 0.000000 -0.029130 
#    y 0.000000 2.103640 0.000000 
#    z -0.029130 0.000000 1.627410 
# 
# From -- ./inp_files/3971.got.cif
#   From: 2010.05.17/outbox.cif.g08.bks.cpg/sg3_2_cif.got.tgz:3971.got - 2010.06.03 18:33:08.
