data_PCOD9113297
_publ_section_title
;
Structure prediction by ZEFSAII (Michael W. Deem and Ramdas Pophale) SiO2 
 PCOD9113297
Probable space group: P 2
;
_chemical_formula_sum "Si O2"
_cell_formula_units_Z 13
_cell_length_a 18.746761
_cell_length_b 5.152351
_cell_length_c 5.177005
_cell_angle_alpha 90.000000
_cell_angle_beta 81.502488
_cell_angle_gamma 90.000000
_cell_volume 494.556989
_symmetry_space_group_name_H-M "P 2"
_symmetry_group_IT_number 3
_symmetry_cell_setting 'monoclinic'
loop_
_space_group_symop_operation_xyz
x,y,z
-x,y,-z
loop_
_atom_site_type_symbol
_atom_site_label
_atom_site_fract_x
_atom_site_fract_y
_atom_site_fract_z
Si Si1 0.500000 0.256500 0.000000
Si Si2 0.073031 0.443463 0.036729
Si Si3 0.771092 0.658558 0.184343
Si Si4 0.231605 0.928427 0.307298
Si Si5 0.385225 0.581081 0.744799
Si Si6 0.926501 0.125197 0.463138
Si Si7 0.615277 0.095659 0.575411
O O1 0.443495 0.452159 0.896851
O O2 0.547888 0.064503 0.798915
O O3 0.150974 0.554243 0.930389
O O4 0.069378 0.203499 0.836809
O O5 0.070155 0.365557 0.336308
O O6 0.000000 0.596380 0.000000
O O7 0.763667 0.681089 0.496998
O O8 0.697429 0.529437 0.122040
O O9 0.769554 0.913454 0.002196
O O10 0.152650 0.020697 0.435878
O O11 0.305669 0.065562 0.345804
O O12 0.393247 0.394331 0.496207
O O13 0.389976 0.880370 0.650777
O O14 0.000000 0.973835 0.500000
#
# Coordination Sequence:
#
# PCOD9113297 Si02
#       7
#     1   2   2   2   2   2   2
#     4  12  30  50  88 108 160 210 266 334 414 478
#     4  10  21  38  65 100 141 192 249 310 374 449
#     4  11  25  44  70 104 146 196 253 313 384 459
#     4  11  25  44  70 104 146 196 253 313 384 459
#     4  11  29  52  76 115 152 202 262 325 397 476
#     4  10  21  38  65 100 141 192 249 310 374 449
#     4  11  29  52  76 115 152 202 262 325 397 476
#
# _framework density 26.286151
#
# number of rings (size 3 to 8) (size 9 to 14) (size 15 to 20)
#    0.000    1.231    0.000    3.231   10.769    4.923 
#    0.000    0.000    0.000    0.000    0.000    0.000 
#    0.000    0.000    0.000    0.000    0.000    0.000 
#
# Total GULP energy -72596.669921 kJ/mol
# GULP energy per Si atom -5584.359225 kJ/mol
# Density = 2.622632 g / cm^3
# Si number density = 26.286151 Si / 1000 Ang^3
#
#
#
# Elastic Constant Matrix: (Units=GPa)
#
#
# Indices 1 2 3 4 5 6 
#
# 1 257.4300 27.5872 31.1315 0.0000 -9.2808 0.0000
# 2 27.5872 45.4169 16.2740 0.0000 0.5364 0.0000
# 3 31.1315 16.2740 89.8744 0.0000 -21.5171 0.0000
# 4 0.0000 0.0000 0.0000 36.3217 0.0000 -45.7703
# 5 -9.2808 0.5364 -21.5171 0.0000 50.1662 0.0000
# 6 0.0000 0.0000 0.0000 -45.7703 0.0000 364.5850
#
#
#
# Elastic Compliance Matrix: (Units=1/GPa)
#
#
# Indices 1 2 3 4 5 6 
#
# 1 0.004257 -0.002241 -0.000974 0.000000 0.000394 0.000000
# 2 -0.002241 0.024970 -0.004356 0.000000 -0.002550 0.000000
# 3 -0.000974 -0.004356 0.013619 0.000000 0.005708 0.000000
# 4 0.000000 0.000000 0.000000 0.032706 0.000000 0.004106
# 5 0.000394 -0.002550 0.005708 0.000000 0.022482 0.000000
# 6 0.000000 0.000000 0.000000 0.004106 0.000000 0.003258
#
#
# Mechanical properties :
#
#
# Convention : Reuss Voigt Hill
#
# Bulk Modulus (GPa) = 36.09583 60.30076 48.19830
# Shear Modulus (GPa) = 39.78681 111.39649 75.59165
#
# Velocity S-wave (km/s) = 3.89473 6.51693 5.36839
# Velocity P-wave (km/s) = 5.82983 8.92284 7.53671
#
# Compressibility (1/GPa) = 0.02770403
#
# Stress axis : x y z
#
# Youngs Moduli (GPa) = 234.92111 40.04744 73.42454
#
# Poissons Ratio (x) = 0.08975 0.07155
# Poissons Ratio (y) = 0.52648 0.31981
# Poissons Ratio (z) = 0.22892 0.17443
#
# Static dielectric constant tensor:
#      x y z
#    x 2.098520 0.000000 -0.006130 
#    y 0.000000 2.178060 0.000000 
#    z -0.006130 0.000000 2.156140 
# 
# From -- ./inp_files/3420.got.cif
#   From: 2010.05.17/outbox.cif.g08.bks.cpg/sg3_2_cif.got.tgz:3420.got - 2010.06.03 18:33:08.
