data_PCOD9113368
_publ_section_title
;
Structure prediction by ZEFSAII (Michael W. Deem and Ramdas Pophale) SiO2 
 PCOD9113368
Probable space group: P 2
;
_chemical_formula_sum "Si O2"
_cell_formula_units_Z 14
_cell_length_a 5.084064
_cell_length_b 5.426339
_cell_length_c 21.590716
_cell_angle_alpha 90.000000
_cell_angle_beta 111.555337
_cell_angle_gamma 90.000000
_cell_volume 553.984252
_symmetry_space_group_name_H-M "P 2"
_symmetry_group_IT_number 3
_symmetry_cell_setting 'monoclinic'
loop_
_space_group_symop_operation_xyz
x,y,z
-x,y,-z
loop_
_atom_site_type_symbol
_atom_site_label
_atom_site_fract_x
_atom_site_fract_y
_atom_site_fract_z
Si Si1 0.634002 0.143260 0.328392
Si Si2 0.195632 0.219372 0.785920
Si Si3 0.079374 0.435038 0.436920
Si Si4 0.218015 0.936155 0.395450
Si Si5 0.884422 0.714280 0.191547
Si Si6 0.236241 0.725988 0.102227
Si Si7 0.600122 0.227473 0.938541
O O1 0.585044 0.203571 0.251842
O O2 0.412215 0.031788 0.356705
O O3 0.792095 0.378895 0.372963
O O4 0.889370 0.945577 0.347321
O O5 0.022826 0.471282 0.764339
O O6 0.345483 0.232255 0.866033
O O7 0.013934 0.973686 0.774579
O O8 0.224131 0.164095 0.445055
O O9 0.000000 0.496583 0.500000
O O10 0.258810 0.660794 0.424157
O O11 0.541663 0.724376 0.163905
O O12 0.988883 0.698873 0.130207
O O13 0.249721 0.487748 0.060034
O O14 0.226492 0.986269 0.066800
O O15 0.500000 0.204275 0.000000
#
# Coordination Sequence:
#
# PCOD9113368 Si02
#       7
#     2   2   2   2   2   2   2
#     4  10  26  44  67 102 136 181 229 278 342 405
#     4  10  23  41  65  92 132 171 217 275 327 396
#     4  10  24  47  69 105 137 183 226 285 338 412
#     4  10  25  42  70 100 138 179 229 278 340 407
#     4  10  22  39  62  91 119 167 209 260 327 380
#     4  10  21  40  61  88 122 159 210 262 323 386
#     4  10  21  41  64  95 126 169 217 271 329 391
#
# _framework density 25.271474000000001
#
# number of rings (size 3 to 8) (size 9 to 14) (size 15 to 20)
#    0.857    1.143    0.000    1.714    4.000    5.143 
#    0.000   17.143    0.000    0.000    0.000    0.000 
#    0.000    0.000    0.000    0.000    0.000    0.000 
#
# Total GULP energy -78221.362038 kJ/mol
# GULP energy per Si atom -5587.240146 kJ/mol
# Density = 2.521395 g / cm^3
# Si number density = 25.271474 Si / 1000 Ang^3
#
#
#
# Elastic Constant Matrix: (Units=GPa)
#
#
# Indices 1 2 3 4 5 6 
#
# 1 74.8776 27.7048 29.3598 0.0000 -21.6347 0.0000
# 2 27.7048 234.1611 46.5621 0.0000 -27.6849 0.0000
# 3 29.3598 46.5621 135.5087 0.0000 -37.7458 0.0000
# 4 0.0000 0.0000 0.0000 14.3137 0.0000 -23.5452
# 5 -21.6347 -27.6849 -37.7458 0.0000 45.1592 0.0000
# 6 0.0000 0.0000 0.0000 -23.5452 0.0000 27.0541
#
#
#
# Elastic Compliance Matrix: (Units=1/GPa)
#
#
# Indices 1 2 3 4 5 6 
#
# 1 0.015969 -0.000897 -0.001530 0.000000 0.005822 0.000000
# 2 -0.000897 0.004769 -0.000977 0.000000 0.001677 0.000000
# 3 -0.001530 -0.000977 0.010005 0.000000 0.007031 0.000000
# 4 0.000000 0.000000 0.000000 -0.161872 0.000000 -0.140877
# 5 0.005822 0.001677 0.007031 0.000000 0.031838 0.000000
# 6 0.000000 0.000000 0.000000 -0.140877 0.000000 -0.085643
#
#
# Mechanical properties :
#
#
# Convention : Reuss Voigt Hill
#
# Bulk Modulus (GPa) = 41.77946 72.42229 57.10087
# Shear Modulus (GPa) = -29.38640 40.03345 5.32353
#
# Velocity S-wave (km/s) = -3.41373 3.98444 1.45297
# Velocity P-wave (km/s) = 1.01494 7.06312 5.04568
#
# Compressibility (1/GPa) = 0.02393521
#
# Stress axis : x y z
#
# Youngs Moduli (GPa) = 62.62132 209.67401 99.94700
#
# Poissons Ratio (x) = 0.18804 0.15293
# Poissons Ratio (y) = 0.05616 0.09767
# Poissons Ratio (z) = 0.09582 0.20490
#
# Static dielectric constant tensor:
#      x y z
#    x 2.013350 0.000000 0.084000 
#    y 0.000000 2.090640 0.000000 
#    z 0.084000 0.000000 2.008080 
# 
# From -- ./inp_files/15568.got.cif
#   From: 2010.05.17/outbox.cif.g08.bks.cpg/sg3_8_cif.got.tgz:15568.got - 2010.06.03 18:33:08.
