data_PCOD9113870
_publ_section_title
;
Structure prediction by ZEFSAII (Michael W. Deem and Ramdas Pophale) SiO2 
 PCOD9113870
Probable space group: P 2
;
_chemical_formula_sum "Si O2"
_cell_formula_units_Z 11
_cell_length_a 13.777863
_cell_length_b 4.858671
_cell_length_c 19.948479
_cell_angle_alpha 90.000000
_cell_angle_beta 161.614303
_cell_angle_gamma 90.000000
_cell_volume 421.199229
_symmetry_space_group_name_H-M "P 2"
_symmetry_group_IT_number 3
_symmetry_cell_setting 'monoclinic'
loop_
_space_group_symop_operation_xyz
x,y,z
-x,y,-z
loop_
_atom_site_type_symbol
_atom_site_label
_atom_site_fract_x
_atom_site_fract_y
_atom_site_fract_z
Si Si1 0.470457 0.324780 0.233129
Si Si2 0.087145 0.826677 0.980765
Si Si3 0.015303 0.960944 0.226191
Si Si4 0.000000 0.202062 0.500000
Si Si5 0.093505 0.491087 0.366056
Si Si6 0.355479 0.848631 0.839840
O O1 0.167477 0.506510 0.026889
O O2 0.717300 0.388961 0.337631
O O3 0.629275 0.382914 0.407402
O O4 0.397639 0.005710 0.177501
O O5 0.000000 0.882769 0.000000
O O6 0.888874 0.934684 0.788205
O O7 0.200282 0.762814 0.396809
O O8 0.007668 0.261286 0.254546
O O9 0.671053 0.821754 0.004912
O O10 0.882868 0.019579 0.360831
O O11 0.826607 0.596715 0.243328
O O12 0.500000 0.002118 0.000000
#
# Coordination Sequence:
#
# PCOD9113870 Si02
#       6
#     2   2   2   1   2   2
#     4  12  26  45  73 109 146 186 250 302 367 441
#     4  12  27  51  75 102 144 200 254 299 353 439
#     4  11  24  46  68 102 145 196 240 292 372 432
#     4  12  24  42  76 114 152 200 234 312 382 448
#     4  11  25  43  70 105 147 185 238 304 368 443
#     4  10  23  41  67 106 156 192 233 292 372 456
#
# _framework density 26.115908000000001
#
# number of rings (size 3 to 8) (size 9 to 14) (size 15 to 20)
#    0.000    0.727    1.818    6.000    2.545   10.182 
#    0.000    5.455    0.000    0.000    0.000    0.000 
#    0.000    0.000    0.000    0.000    0.000    0.000 
#
# Total GULP energy -61535.447578 kJ/mol
# GULP energy per Si atom -5594.131598 kJ/mol
# Density = 2.605647 g / cm^3
# Si number density = 26.115908 Si / 1000 Ang^3
#
#
#
# Elastic Constant Matrix: (Units=GPa)
#
#
# Indices 1 2 3 4 5 6 
#
# 1 154.6691 42.9986 19.1621 0.0000 -32.1408 0.0000
# 2 42.9986 118.1935 22.4924 0.0000 -24.9645 0.0000
# 3 19.1621 22.4924 57.1222 0.0000 -39.8142 0.0000
# 4 0.0000 0.0000 0.0000 39.7613 0.0000 -19.1762
# 5 -32.1408 -24.9645 -39.8142 0.0000 46.8285 0.0000
# 6 0.0000 0.0000 0.0000 -19.1762 0.0000 30.0922
#
#
#
# Elastic Compliance Matrix: (Units=1/GPa)
#
#
# Indices 1 2 3 4 5 6 
#
# 1 0.008121 -0.002038 0.002960 0.000000 0.007004 0.000000
# 2 -0.002038 0.010052 -0.001263 0.000000 0.002886 0.000000
# 3 0.002960 -0.001263 0.044078 0.000000 0.038834 0.000000
# 4 0.000000 0.000000 0.000000 0.036309 0.000000 0.023138
# 5 0.007004 0.002886 0.038834 0.000000 0.060718 0.000000
# 6 0.000000 0.000000 0.000000 0.023138 0.000000 0.047976
#
#
# Mechanical properties :
#
#
# Convention : Reuss Voigt Hill
#
# Bulk Modulus (GPa) = 16.24185 55.47678 35.85931
# Shear Modulus (GPa) = 21.88581 39.69183 30.78882
#
# Velocity S-wave (km/s) = 2.89801 3.90273 3.43728
# Velocity P-wave (km/s) = 4.17499 6.44958 5.43266
#
# Compressibility (1/GPa) = 0.06156935
#
# Stress axis : x y z
#
# Youngs Moduli (GPa) = 123.14132 99.48104 22.68703
#
# Poissons Ratio (x) = 0.20277 -0.06715
# Poissons Ratio (y) = 0.25100 0.02864
# Poissons Ratio (z) = -0.36450 0.12560
#
# Static dielectric constant tensor:
#      x y z
#    x 2.128440 0.000000 -0.003780 
#    y 0.000000 1.989810 0.000000 
#    z -0.003780 0.000000 2.103330 
# 
# From -- ./inp_files/15993.got.cif
#   From: 2010.05.17/outbox.cif.g08.bks.cpg/sg3_8_cif.got.tgz:15993.got - 2010.06.03 18:33:08.
