data_PCOD9113965
_publ_section_title
;
Structure prediction by ZEFSAII (Michael W. Deem and Ramdas Pophale) SiO2 
 PCOD9113965
Probable space group: P 2
;
_chemical_formula_sum "Si O2"
_cell_formula_units_Z 14
_cell_length_a 14.371011
_cell_length_b 5.190807
_cell_length_c 21.287161
_cell_angle_alpha 90.000000
_cell_angle_beta 158.442643
_cell_angle_gamma 90.000000
_cell_volume 583.468564
_symmetry_space_group_name_H-M "P 2"
_symmetry_group_IT_number 3
_symmetry_cell_setting 'monoclinic'
loop_
_space_group_symop_operation_xyz
x,y,z
-x,y,-z
loop_
_atom_site_type_symbol
_atom_site_label
_atom_site_fract_x
_atom_site_fract_y
_atom_site_fract_z
Si Si1 0.964370 0.592210 0.204293
Si Si2 0.760938 0.755436 0.204830
Si Si3 0.742310 0.956530 0.760457
Si Si4 0.051386 0.273758 0.607059
Si Si5 0.478338 0.219173 0.264378
Si Si6 0.000000 0.561728 0.000000
Si Si7 0.500000 0.659896 0.500000
Si Si8 0.174847 0.118083 0.955815
O O1 0.950376 0.669435 0.267972
O O2 0.805004 0.344244 0.082630
O O3 0.250001 0.515852 0.364514
O O4 0.874451 0.846858 0.109659
O O5 0.782227 0.522581 0.268728
O O6 0.833620 0.020183 0.286143
O O7 0.500000 0.776038 0.000000
O O8 0.945247 0.743694 0.907186
O O9 0.563260 0.847082 0.596279
O O10 0.579510 0.006280 0.719722
O O11 0.927261 0.167702 0.845505
O O12 0.000000 0.242222 0.500000
O O13 0.762340 0.313862 0.449425
O O14 0.410353 0.125259 0.151464
O O15 0.257128 0.414868 0.145739
#
# Coordination Sequence:
#
# PCOD9113965 Si02
#       8
#     2   2   2   2   2   1   1   2
#     4  11  26  42  72 105 144 196 246 300 392 446
#     4  12  29  56  82 109 158 203 263 332 409 462
#     4  11  23  42  64 106 151 200 244 298 387 448
#     4  12  31  52  83 119 151 207 270 338 386 466
#     4  12  25  41  77 103 159 194 260 312 395 447
#     4  12  22  44  68 108 152 208 240 310 392 472
#     4  10  24  40  64  98 148 174 244 300 354 466
#     4  11  23  42  68 108 144 194 240 303 362 478
#
# _framework density 23.994437000000001
#
# number of rings (size 3 to 8) (size 9 to 14) (size 15 to 20)
#    0.000    0.571    2.857    4.286    8.000    3.429 
#    0.000    0.000    0.000    0.000    0.000    0.000 
#    0.000    0.000    0.000    0.000    0.000    0.000 
#
# Total GULP energy -78266.773799 kJ/mol
# GULP energy per Si atom -5590.483843 kJ/mol
# Density = 2.393982 g / cm^3
# Si number density = 23.994437 Si / 1000 Ang^3
#
#
#
# Elastic Constant Matrix: (Units=GPa)
#
#
# Indices 1 2 3 4 5 6 
#
# 1 88.8551 46.1264 43.7867 0.0000 -24.5856 0.0000
# 2 46.1264 85.2486 42.7870 0.0000 -18.8606 0.0000
# 3 43.7867 42.7870 156.3568 0.0000 -16.0517 0.0000
# 4 0.0000 0.0000 0.0000 20.3129 0.0000 -20.2734
# 5 -24.5856 -18.8606 -16.0517 0.0000 60.1864 0.0000
# 6 0.0000 0.0000 0.0000 -20.2734 0.0000 31.9834
#
#
#
# Elastic Compliance Matrix: (Units=1/GPa)
#
#
# Indices 1 2 3 4 5 6 
#
# 1 0.017383 -0.007249 -0.002456 0.000000 0.004174 0.000000
# 2 -0.007249 0.017316 -0.002525 0.000000 0.001792 0.000000
# 3 -0.002456 -0.002525 0.007804 0.000000 0.000287 0.000000
# 4 0.000000 0.000000 0.000000 0.134010 0.000000 0.084945
# 5 0.004174 0.001792 0.000287 0.000000 0.018958 0.000000
# 6 0.000000 0.000000 0.000000 0.084945 0.000000 0.085111
#
#
# Mechanical properties :
#
#
# Convention : Reuss Voigt Hill
#
# Bulk Modulus (GPa) = 55.42155 66.20675 60.81415
# Shear Modulus (GPa) = 16.07434 35.68057 25.87745
#
# Velocity S-wave (km/s) = 2.59109 3.86039 3.28758
# Velocity P-wave (km/s) = 5.66564 6.89367 6.30960
#
# Compressibility (1/GPa) = 0.01804352
#
# Stress axis : x y z
#
# Youngs Moduli (GPa) = 57.52877 57.74849 128.14608
#
# Poissons Ratio (x) = 0.41865 0.31467
# Poissons Ratio (y) = 0.41705 0.32351
# Poissons Ratio (z) = 0.14127 0.14579
#
# Static dielectric constant tensor:
#      x y z
#    x 1.978190 0.000000 0.022420 
#    y 0.000000 1.937790 0.000000 
#    z 0.022420 0.000000 1.931330 
# 
# From -- ./inp_files/16048.got.cif
#   From: 2010.05.17/outbox.cif.g08.bks.cpg/sg3_9_cif.got.tgz:16048.got - 2010.06.03 18:33:08.
