data_PCOD9113687
_publ_section_title
;
Structure prediction by ZEFSAII (Michael W. Deem and Ramdas Pophale) SiO2 
 PCOD9113687
Probable space group: P 2
;
_chemical_formula_sum "Si O2"
_cell_formula_units_Z 16
_cell_length_a 8.289341
_cell_length_b 10.681580
_cell_length_c 8.759754
_cell_angle_alpha 90.000000
_cell_angle_beta 116.937906
_cell_angle_gamma 90.000000
_cell_volume 691.461162
_symmetry_space_group_name_H-M "P 2"
_symmetry_group_IT_number 3
_symmetry_cell_setting 'monoclinic'
loop_
_space_group_symop_operation_xyz
x,y,z
-x,y,-z
loop_
_atom_site_type_symbol
_atom_site_label
_atom_site_fract_x
_atom_site_fract_y
_atom_site_fract_z
Si Si1 0.537392 0.736430 0.845028
Si Si2 0.173085 0.467697 0.464467
Si Si3 0.304214 0.311786 0.989126
Si Si4 0.180025 0.908434 0.172965
Si Si5 0.183419 0.534603 0.126569
Si Si6 0.694683 0.749493 0.505081
Si Si7 0.801121 0.205112 0.362876
Si Si8 0.438570 0.137624 0.311365
O O1 0.687570 0.842672 0.892751
O O2 0.639674 0.621914 0.801043
O O3 0.353852 0.787987 0.688235
O O4 0.500000 0.697006 0.000000
O O5 0.155506 0.460555 0.273296
O O6 0.270471 0.602433 0.506600
O O7 0.245161 0.337387 0.568023
O O8 0.000000 0.487544 0.500000
O O9 0.193000 0.239987 0.812552
O O10 0.500000 0.339112 0.000000
O O11 0.212015 0.437116 0.003732
O O12 0.341104 0.230462 0.154121
O O13 0.167660 0.817843 0.319394
O O14 0.297401 0.026730 0.278574
O O15 0.000000 0.937650 0.000000
O O16 0.000000 0.607720 0.000000
O O17 0.500000 0.773651 0.500000
O O18 0.634725 0.111302 0.318410
O O19 0.000000 0.164358 0.500000
O O20 0.500000 0.189956 0.500000
#
# Coordination Sequence:
#
# PCOD9113687 Si02
#       8
#     2   2   2   2   2   2   2   2
#     4  11  25  40  68  98 141 190 246 299 372 436
#     4  11  23  37  66 101 147 194 238 297 370 440
#     4  10  24  42  66 102 147 191 248 295 366 439
#     4  11  25  49  73 102 142 196 255 317 367 441
#     4  12  23  38  62  99 146 188 240 303 367 437
#     4  10  22  42  65  96 139 189 243 299 364 436
#     4  10  23  43  66 106 150 194 245 305 365 454
#     4  11  24  44  75 101 144 192 248 305 375 429
#
# _framework density 23.139405
#
# number of rings (size 3 to 8) (size 9 to 14) (size 15 to 20)
#    0.000    1.250    2.500    4.125    7.000    3.500 
#    0.000    0.000    0.000    3.750    0.000    0.000 
#    0.000    0.000    0.000    0.000    0.000    0.000 
#
# Total GULP energy -89184.914538 kJ/mol
# GULP energy per Si atom -5574.057159 kJ/mol
# Density = 2.308674 g / cm^3
# Si number density = 23.139405 Si / 1000 Ang^3
#
#
#
# Elastic Constant Matrix: (Units=GPa)
#
#
# Indices 1 2 3 4 5 6 
#
# 1 47.2385 18.8921 41.5530 0.0000 2.0286 0.0000
# 2 18.8921 41.3428 27.7855 0.0000 8.4474 0.0000
# 3 41.5530 27.7855 164.5954 0.0000 8.2150 0.0000
# 4 0.0000 0.0000 0.0000 19.0132 0.0000 4.5711
# 5 2.0286 8.4474 8.2150 0.0000 47.7564 0.0000
# 6 0.0000 0.0000 0.0000 4.5711 0.0000 25.6383
#
#
#
# Elastic Compliance Matrix: (Units=1/GPa)
#
#
# Indices 1 2 3 4 5 6 
#
# 1 0.030506 -0.010184 -0.006059 0.000000 0.001548 0.000000
# 2 -0.010184 0.031490 -0.002510 0.000000 -0.004706 0.000000
# 3 -0.006059 -0.002510 0.008063 0.000000 -0.000686 0.000000
# 4 0.000000 0.000000 0.000000 0.054950 0.000000 -0.009797
# 5 0.001548 -0.004706 -0.000686 0.000000 0.021824 0.000000
# 6 0.000000 0.000000 0.000000 -0.009797 0.000000 0.040751
#
#
# Mechanical properties :
#
#
# Convention : Reuss Voigt Hill
#
# Bulk Modulus (GPa) = 30.71973 47.73754 39.22864
# Shear Modulus (GPa) = 21.19166 29.47799 25.33483
#
# Velocity S-wave (km/s) = 3.02954 3.57309 3.31248
# Velocity P-wave (km/s) = 5.05394 6.13985 5.62317
#
# Compressibility (1/GPa) = 0.03255237
#
# Stress axis : x y z
#
# Youngs Moduli (GPa) = 32.78083 31.75603 124.02045
#
# Poissons Ratio (x) = 0.32340 0.75149
# Poissons Ratio (y) = 0.33383 0.31130
# Poissons Ratio (z) = 0.19863 0.07971
#
# Static dielectric constant tensor:
#      x y z
#    x 1.859630 0.000000 0.014720 
#    y 0.000000 1.974730 0.000000 
#    z 0.014720 0.000000 1.987740 
# 
# From -- ./inp_files/6038.got.cif
#   From: 2010.05.17/outbox.cif.g08.bks.cpg/sg3_4_cif.got.tgz:6038.got - 2010.06.03 18:33:08.
