data_PCOD9113234
_publ_section_title
;
Structure prediction by ZEFSAII (Michael W. Deem and Ramdas Pophale) SiO2 
 PCOD9113234
Probable space group: P 2
;
_chemical_formula_sum "Si O2"
_cell_formula_units_Z 12
_cell_length_a 8.704573
_cell_length_b 9.873744
_cell_length_c 8.549884
_cell_angle_alpha 90.000000
_cell_angle_beta 63.312623
_cell_angle_gamma 90.000000
_cell_volume 656.552873
_symmetry_space_group_name_H-M "P 2"
_symmetry_group_IT_number 3
_symmetry_cell_setting 'monoclinic'
loop_
_space_group_symop_operation_xyz
x,y,z
-x,y,-z
loop_
_atom_site_type_symbol
_atom_site_label
_atom_site_fract_x
_atom_site_fract_y
_atom_site_fract_z
Si Si1 0.025869 0.410260 0.303587
Si Si2 0.816662 0.203802 0.998317
Si Si3 0.844857 0.699923 0.685910
Si Si4 0.528346 0.654343 0.176893
Si Si5 0.685490 0.906632 0.992887
Si Si6 0.654574 0.397090 0.306947
O O1 0.148593 0.297291 0.169840
O O2 0.107893 0.559816 0.247919
O O3 0.000000 0.387574 0.500000
O O4 0.838014 0.409380 0.310143
O O5 0.677513 0.275470 0.173232
O O6 0.000000 0.207316 0.000000
O O7 0.766682 0.048938 0.996388
O O8 0.666706 0.672971 0.675400
O O9 0.000000 0.729799 0.500000
O O10 0.805694 0.823570 0.818640
O O11 0.637168 0.792627 0.143955
O O12 0.615647 0.530782 0.223394
O O13 0.500000 0.633994 0.000000
O O14 0.500000 0.935060 0.000000
O O15 0.500000 0.376870 0.500000
#
# Coordination Sequence:
#
# PCOD9113234 Si02
#       6
#     2   2   2   2   2   2
#     4  10  21  37  58  84 110 142 184 227 272 323
#     4  10  22  38  54  78 113 146 181 223 271 325
#     4   9  17  33  55  81 108 136 178 226 268 320
#     4   9  19  37  57  81 109 142 181 221 270 326
#     4   9  20  35  54  78 107 145 181 216 269 325
#     4  11  22  36  57  84 110 143 184 227 273 323
#
# _framework density 18.277279
#
# number of rings (size 3 to 8) (size 9 to 14) (size 15 to 20)
#    0.000    2.667    0.000    4.000    0.000    5.333 
#    0.000    5.833    0.000    0.000    0.000    0.000 
#    0.000    0.000    0.000    0.000    0.000    0.000 
#
# Total GULP energy -66894.644599 kJ/mol
# GULP energy per Si atom -5574.553717 kJ/mol
# Density = 1.823568 g / cm^3
# Si number density = 18.277279 Si / 1000 Ang^3
#
#
#
# Elastic Constant Matrix: (Units=GPa)
#
#
# Indices 1 2 3 4 5 6 
#
# 1 49.7811 47.4392 43.7671 0.0000 -10.4059 0.0000
# 2 47.4392 171.0261 77.2896 0.0000 -4.9137 0.0000
# 3 43.7671 77.2896 107.9756 0.0000 -16.1758 0.0000
# 4 0.0000 0.0000 0.0000 3.7466 0.0000 -3.9897
# 5 -10.4059 -4.9137 -16.1758 0.0000 30.4485 0.0000
# 6 0.0000 0.0000 0.0000 -3.9897 0.0000 39.8498
#
#
#
# Elastic Compliance Matrix: (Units=1/GPa)
#
#
# Indices 1 2 3 4 5 6 
#
# 1 0.034517 -0.005150 -0.009411 0.000000 0.005965 0.000000
# 2 -0.005150 0.009531 -0.005181 0.000000 -0.002974 0.000000
# 3 -0.009411 -0.005181 0.017576 0.000000 0.005285 0.000000
# 4 0.000000 0.000000 0.000000 0.298764 0.000000 0.029912
# 5 0.005965 -0.002974 0.005285 0.000000 0.037209 0.000000
# 6 0.000000 0.000000 0.000000 0.029912 0.000000 0.028089
#
#
# Mechanical properties :
#
#
# Convention : Reuss Voigt Hill
#
# Bulk Modulus (GPa) = 45.16517 73.97495 59.57006
# Shear Modulus (GPa) = 10.58090 25.49475 18.03783
#
# Velocity S-wave (km/s) = 2.40867 3.73887 3.14490
# Velocity P-wave (km/s) = 5.70090 7.69418 6.77129
#
# Compressibility (1/GPa) = 0.02214095
#
# Stress axis : x y z
#
# Youngs Moduli (GPa) = 28.97151 104.91760 56.89505
#
# Poissons Ratio (x) = 0.54030 0.53545
# Poissons Ratio (y) = 0.14920 0.29475
# Poissons Ratio (z) = 0.27266 0.54354
#
# Static dielectric constant tensor:
#      x y z
#    x 1.636720 0.000000 0.000830 
#    y 0.000000 1.612350 0.000000 
#    z 0.000830 0.000000 1.661630 
# 
# From -- ./inp_files/5001.got.cif
#   From: 2010.05.17/outbox.cif.g08.bks.cpg/sg3_3_cif.got.tgz:5001.got - 2010.06.03 18:33:08.
