data_PCOD9113277
_publ_section_title
;
Structure prediction by ZEFSAII (Michael W. Deem and Ramdas Pophale) SiO2 
 PCOD9113277
Probable space group: P 2
;
_chemical_formula_sum "Si O2"
_cell_formula_units_Z 10
_cell_length_a 9.317074
_cell_length_b 7.454579
_cell_length_c 14.180694
_cell_angle_alpha 90.000000
_cell_angle_beta 150.844914
_cell_angle_gamma 90.000000
_cell_volume 479.827737
_symmetry_space_group_name_H-M "P 2"
_symmetry_group_IT_number 3
_symmetry_cell_setting 'monoclinic'
loop_
_space_group_symop_operation_xyz
x,y,z
-x,y,-z
loop_
_atom_site_type_symbol
_atom_site_label
_atom_site_fract_x
_atom_site_fract_y
_atom_site_fract_z
Si Si1 0.819636 0.861890 0.690144
Si Si2 0.449085 0.250390 0.123475
Si Si3 0.931076 0.550665 0.060580
Si Si4 0.364015 0.206267 0.287980
Si Si5 0.972264 0.162170 0.297857
O O1 0.500000 0.773732 0.500000
O O2 0.030863 0.706262 0.843635
O O3 0.752497 0.031674 0.722030
O O4 0.942574 0.954223 0.666879
O O5 0.370591 0.162933 0.179559
O O6 0.773484 0.206267 0.273471
O O7 0.234158 0.206309 0.911389
O O8 0.384621 0.458326 0.108913
O O9 0.161007 0.380864 0.191476
O O10 0.000000 0.638858 0.000000
O O11 0.702436 0.249595 0.511445
#
# Coordination Sequence:
#
# PCOD9113277 Si02
#       5
#     2   2   2   2   2
#     4  10  22  36  64  91 115 159 199 245 297 349
#     4  10  21  38  62  87 117 158 195 242 302 344
#     4  10  22  36  64  91 115 159 199 245 297 349
#     4  10  21  40  63  84 120 158 200 246 289 354
#     4  10  21  38  62  87 117 158 195 242 302 344
#
# _framework density 20.840812
#
# number of rings (size 3 to 8) (size 9 to 14) (size 15 to 20)
#    0.000    2.000    2.000    0.600    5.600    0.000 
#    0.000    4.000    0.000    2.400    0.000    0.000 
#    0.000    0.000    0.000    0.000    0.000    0.000 
#
# Total GULP energy -55674.876211 kJ/mol
# GULP energy per Si atom -5567.487621 kJ/mol
# Density = 2.079338 g / cm^3
# Si number density = 20.840812 Si / 1000 Ang^3
#
#
#
# Elastic Constant Matrix: (Units=GPa)
#
#
# Indices 1 2 3 4 5 6 
#
# 1 112.6502 28.0679 24.5962 0.0000 24.8341 0.0000
# 2 28.0679 43.0585 4.6168 0.0000 17.5103 0.0000
# 3 24.5962 4.6168 66.3359 0.0000 9.6893 0.0000
# 4 0.0000 0.0000 0.0000 24.9011 0.0000 -7.4021
# 5 24.8341 17.5103 9.6893 0.0000 38.6420 0.0000
# 6 0.0000 0.0000 0.0000 -7.4021 0.0000 14.9700
#
#
#
# Elastic Compliance Matrix: (Units=1/GPa)
#
#
# Indices 1 2 3 4 5 6 
#
# 1 0.011987 -0.005716 -0.003425 0.000000 -0.004255 0.000000
# 2 -0.005716 0.031197 0.001533 0.000000 -0.010847 0.000000
# 3 -0.003425 0.001533 0.016627 0.000000 -0.002662 0.000000
# 4 0.000000 0.000000 0.000000 0.047079 0.000000 0.023279
# 5 -0.004255 -0.010847 -0.002662 0.000000 0.034196 0.000000
# 6 0.000000 0.000000 0.000000 0.023279 0.000000 0.078311
#
#
# Mechanical properties :
#
#
# Convention : Reuss Voigt Hill
#
# Bulk Modulus (GPa) = 22.42482 37.40072 29.91277
# Shear Modulus (GPa) = 20.04174 26.68688 23.36431
#
# Velocity S-wave (km/s) = 3.10443 3.58230 3.35189
# Velocity P-wave (km/s) = 4.86141 5.92414 5.41889
#
# Compressibility (1/GPa) = 0.04459345
#
# Stress axis : x y z
#
# Youngs Moduli (GPa) = 83.42244 32.05392 60.14299
#
# Poissons Ratio (x) = 0.18324 0.20601
# Poissons Ratio (y) = 0.47688 -0.09218
# Poissons Ratio (z) = 0.28575 -0.04913
#
# Static dielectric constant tensor:
#      x y z
#    x 1.815970 0.000000 -0.035080 
#    y 0.000000 1.725940 0.000000 
#    z -0.035080 0.000000 1.862820 
# 
# From -- ./inp_files/4926.got.cif
#   From: 2010.05.17/outbox.cif.g08.bks.cpg/sg3_3_cif.got.tgz:4926.got - 2010.06.03 18:33:08.
