data_PCOD9113825
_publ_section_title
;
Structure prediction by ZEFSAII (Michael W. Deem and Ramdas Pophale) SiO2 
 PCOD9113825
Probable space group: P 2
;
_chemical_formula_sum "Si O2"
_cell_formula_units_Z 15
_cell_length_a 11.224215
_cell_length_b 4.926177
_cell_length_c 20.819753
_cell_angle_alpha 90.000000
_cell_angle_beta 28.317293
_cell_angle_gamma 90.000000
_cell_volume 546.064656
_symmetry_space_group_name_H-M "P 2"
_symmetry_group_IT_number 3
_symmetry_cell_setting 'monoclinic'
loop_
_space_group_symop_operation_xyz
x,y,z
-x,y,-z
loop_
_atom_site_type_symbol
_atom_site_label
_atom_site_fract_x
_atom_site_fract_y
_atom_site_fract_z
Si Si1 0.753824 0.852370 0.912541
Si Si2 0.946962 0.001035 0.348363
Si Si3 0.526984 0.356638 0.423424
Si Si4 0.139489 0.052486 0.815952
Si Si5 0.549523 0.268378 0.862530
Si Si6 0.490152 0.759413 0.805564
Si Si7 0.335526 0.750814 0.408898
Si Si8 0.000000 0.437149 0.000000
O O1 0.944997 0.832672 0.762068
O O2 0.949143 0.820195 0.880667
O O3 0.500000 0.725364 0.000000
O O4 0.634885 0.140366 0.996381
O O5 0.900390 0.862263 0.439452
O O6 0.165263 0.221013 0.253021
O O7 0.678604 0.129538 0.462346
O O8 0.500000 0.539903 0.500000
O O9 0.420920 0.496173 0.410189
O O10 0.795840 0.242243 0.276013
O O11 0.414780 0.941252 0.704164
O O12 0.038905 0.239713 0.920687
O O13 0.501118 0.069714 0.823696
O O14 0.521508 0.576172 0.854221
O O15 0.690042 0.704120 0.654348
O O16 0.234217 0.637883 0.897799
#
# Coordination Sequence:
#
# PCOD9113825 Si02
#       8
#     2   2   2   2   2   2   2   1
#     4  10  22  46  73 104 144 197 246 308 370 445
#     4  10  25  49  69 103 147 195 245 307 366 452
#     4  11  23  42  70 103 137 187 242 303 365 438
#     4  11  23  45  70 103 144 189 239 308 369 436
#     4  11  27  49  76 108 149 194 248 303 378 438
#     4  12  27  48  73 110 145 198 245 308 367 445
#     4  11  27  42  70 107 144 193 249 300 374 444
#     4  12  24  46  74 104 148 186 248 312 372 442
#
# _framework density 27.469272
#
# number of rings (size 3 to 8) (size 9 to 14) (size 15 to 20)
#    0.000    1.067    4.000    0.800    7.467    1.067 
#    2.400    2.000    0.000    0.000    0.000    0.000 
#    0.000    0.000    0.000    0.000    0.000    0.000 
#
# Total GULP energy -83887.226143 kJ/mol
# GULP energy per Si atom -5592.481743 kJ/mol
# Density = 2.740675 g / cm^3
# Si number density = 27.469272 Si / 1000 Ang^3
#
#
#
# Elastic Constant Matrix: (Units=GPa)
#
#
# Indices 1 2 3 4 5 6 
#
# 1 121.3390 17.7351 45.2327 0.0000 15.6854 0.0000
# 2 17.7351 79.7906 35.9258 0.0000 2.9827 0.0000
# 3 45.2327 35.9258 204.9389 0.0000 24.8950 0.0000
# 4 0.0000 0.0000 0.0000 28.0765 0.0000 -11.6043
# 5 15.6854 2.9827 24.8950 0.0000 65.9847 0.0000
# 6 0.0000 0.0000 0.0000 -11.6043 0.0000 35.5387
#
#
#
# Elastic Compliance Matrix: (Units=1/GPa)
#
#
# Indices 1 2 3 4 5 6 
#
# 1 0.009230 -0.001260 -0.001632 0.000000 -0.001522 0.000000
# 2 -0.001260 0.013784 -0.002200 0.000000 0.000506 0.000000
# 3 -0.001632 -0.002200 0.005833 0.000000 -0.001714 0.000000
# 4 0.000000 0.000000 0.000000 0.041174 0.000000 0.013444
# 5 -0.001522 0.000506 -0.001714 0.000000 0.016140 0.000000
# 6 0.000000 0.000000 0.000000 0.013444 0.000000 0.032528
#
#
# Mechanical properties :
#
#
# Convention : Reuss Voigt Hill
#
# Bulk Modulus (GPa) = 53.57537 67.09506 60.33522
# Shear Modulus (GPa) = 37.01091 46.39831 41.70461
#
# Velocity S-wave (km/s) = 3.67462 4.11432 3.90067
# Velocity P-wave (km/s) = 6.12779 6.85921 6.50379
#
# Compressibility (1/GPa) = 0.01866529
#
# Stress axis : x y z
#
# Youngs Moduli (GPa) = 108.33690 72.54556 171.42707
#
# Poissons Ratio (x) = 0.09142 0.27969
# Poissons Ratio (y) = 0.13652 0.37710
# Poissons Ratio (z) = 0.17675 0.15959
#
# Static dielectric constant tensor:
#      x y z
#    x 2.311880 0.000000 0.076240 
#    y 0.000000 2.185530 0.000000 
#    z 0.076240 0.000000 2.164250 
# 
# From -- ./inp_files/15884.got.cif
#   From: 2010.05.17/outbox.cif.g08.bks.cpg/sg3_8_cif.got.tgz:15884.got - 2010.06.03 18:33:08.
