data_PCOD9113558
_publ_section_title
;
Structure prediction by ZEFSAII (Michael W. Deem and Ramdas Pophale) SiO2 
 PCOD9113558
Probable space group: P 2
;
_chemical_formula_sum "Si O2"
_cell_formula_units_Z 14
_cell_length_a 9.965958
_cell_length_b 13.346603
_cell_length_c 5.337749
_cell_angle_alpha 90.000000
_cell_angle_beta 75.495401
_cell_angle_gamma 90.000000
_cell_volume 687.354084
_symmetry_space_group_name_H-M "P 2"
_symmetry_group_IT_number 3
_symmetry_cell_setting 'monoclinic'
loop_
_space_group_symop_operation_xyz
x,y,z
-x,y,-z
loop_
_atom_site_type_symbol
_atom_site_label
_atom_site_fract_x
_atom_site_fract_y
_atom_site_fract_z
Si Si1 0.343788 0.677930 0.055440
Si Si2 0.353466 0.328569 0.502783
Si Si3 0.658156 0.810868 0.444781
Si Si4 0.092321 0.967148 0.713295
Si Si5 0.083231 0.536491 0.207973
Si Si6 0.847205 0.193382 0.175189
Si Si7 0.266615 0.364391 0.040091
O O1 0.329557 0.754183 0.295827
O O2 0.227224 0.595045 0.141188
O O3 0.500000 0.637226 0.000000
O O4 0.326566 0.735587 0.798827
O O5 0.500000 0.278092 0.500000
O O6 0.217990 0.256889 0.565347
O O7 0.362374 0.378612 0.231770
O O8 0.320702 0.403321 0.746898
O O9 0.500000 0.851812 0.500000
O O10 0.778948 0.892731 0.376017
O O11 0.000000 0.970610 0.500000
O O12 0.150647 0.077793 0.753507
O O13 0.000000 0.937687 0.000000
O O14 0.123694 0.419650 0.165745
O O15 0.000000 0.555412 0.500000
O O16 0.000000 0.566683 0.000000
O O17 0.749213 0.245234 0.010762
O O18 0.000000 0.215043 0.000000
#
# Coordination Sequence:
#
# PCOD9113558 Si02
#       7
#     2   2   2   2   2   2   2
#     4  10  23  43  66  94 129 166 204 257 326 382
#     4  10  22  38  60  85 117 161 210 259 300 360
#     4  10  22  43  67  92 127 170 205 253 324 387
#     4  11  24  39  63  97 126 162 213 261 317 369
#     4  12  25  41  65  98 125 165 216 259 311 374
#     4   9  23  37  62  85 124 164 204 252 313 365
#     4  10  23  38  62  84 127 162 208 251 309 363
#
# _framework density 20.367958999999999
#
# number of rings (size 3 to 8) (size 9 to 14) (size 15 to 20)
#    0.857    0.857    0.000    3.429    6.000    5.143 
#    0.000    1.429    3.143    0.000    0.000    0.000 
#    0.000    0.000    0.000    0.000    0.000    0.000 
#
# Total GULP energy -77968.702951 kJ/mol
# GULP energy per Si atom -5569.193068 kJ/mol
# Density = 2.032160 g / cm^3
# Si number density = 20.367959 Si / 1000 Ang^3
#
#
#
# Elastic Constant Matrix: (Units=GPa)
#
#
# Indices 1 2 3 4 5 6 
#
# 1 100.2202 49.6785 52.1968 0.0000 -9.0284 0.0000
# 2 49.6785 51.5708 19.7907 0.0000 -20.2223 0.0000
# 3 52.1968 19.7907 156.4309 0.0000 0.1369 0.0000
# 4 0.0000 0.0000 0.0000 -448.6053 0.0000 413.1673
# 5 -9.0284 -20.2223 0.1369 0.0000 39.7566 0.0000
# 6 0.0000 0.0000 0.0000 413.1673 0.0000 -396.0416
#
#
#
# Elastic Compliance Matrix: (Units=1/GPa)
#
#
# Indices 1 2 3 4 5 6 
#
# 1 0.023484 -0.023297 -0.004883 0.000000 -0.006500 0.000000
# 2 -0.023297 0.048910 0.001569 0.000000 0.019582 0.000000
# 3 -0.004883 0.001569 0.007824 0.000000 -0.000338 0.000000
# 4 0.000000 0.000000 0.000000 -0.056909 0.000000 -0.059370
# 5 -0.006500 0.019582 -0.000338 0.000000 0.033639 0.000000
# 6 0.000000 0.000000 0.000000 -0.059370 0.000000 -0.064462
#
#
# Mechanical properties :
#
#
# Convention : Reuss Voigt Hill
#
# Bulk Modulus (GPa) = 37.04431 61.28377 49.16404
# Shear Modulus (GPa) = 91.39983 -148.54100 -28.57058
#
# Velocity S-wave (km/s) = 6.70610 -8.54910 -3.74936
# Velocity P-wave (km/s) = 8.84247 8.20340 2.33383
#
# Compressibility (1/GPa) = 0.02699470
#
# Stress axis : x y z
#
# Youngs Moduli (GPa) = 42.58264 20.44581 127.81711
#
# Poissons Ratio (x) = 0.47633 0.62410
# Poissons Ratio (y) = 0.99206 -0.20051
# Poissons Ratio (z) = 0.20792 -0.03207
#
# Static dielectric constant tensor:
#      x y z
#    x 1.845840 0.000000 0.126490 
#    y 0.000000 1.722840 0.000000 
#    z 0.126490 0.000000 1.926480 
# 
# From -- ./inp_files/1554.got.cif
#   From: 2010.05.17/outbox.cif.g08.bks.cpg/sg3_1_cif.got.tgz:1554.got - 2010.06.03 18:33:08.
