data_PCOD9113538
_publ_section_title
;
Structure prediction by ZEFSAII (Michael W. Deem and Ramdas Pophale) SiO2 
 PCOD9113538
Probable space group: P 2
;
_chemical_formula_sum "Si O2"
_cell_formula_units_Z 11
_cell_length_a 7.877961
_cell_length_b 5.518304
_cell_length_c 11.865959
_cell_angle_alpha 90.000000
_cell_angle_beta 101.774798
_cell_angle_gamma 90.000000
_cell_volume 504.993765
_symmetry_space_group_name_H-M "P 2"
_symmetry_group_IT_number 3
_symmetry_cell_setting 'monoclinic'
loop_
_space_group_symop_operation_xyz
x,y,z
-x,y,-z
loop_
_atom_site_type_symbol
_atom_site_label
_atom_site_fract_x
_atom_site_fract_y
_atom_site_fract_z
Si Si1 0.583948 0.941560 0.132796
Si Si2 0.545504 0.326885 0.305734
Si Si3 0.680721 0.727442 0.724358
Si Si4 0.500000 0.970220 0.500000
Si Si5 0.027106 0.926557 0.752671
Si Si6 0.078234 0.438967 0.631155
O O1 0.472287 0.785559 0.206667
O O2 0.789330 0.887173 0.160152
O O3 0.563475 0.206215 0.186267
O O4 0.500000 0.922505 0.000000
O O5 0.353977 0.440095 0.291642
O O6 0.715754 0.486281 0.346702
O O7 0.575118 0.134607 0.410463
O O8 0.635643 0.818769 0.592064
O O9 0.847533 0.870957 0.792933
O O10 0.008935 0.695770 0.666167
O O11 0.039827 0.196050 0.700557
O O12 0.000000 0.385860 0.500000
#
# Coordination Sequence:
#
# PCOD9113538 Si02
#       6
#     2   2   2   1   2   2
#     4  10  24  47  68  91 132 179 232 287 336 393
#     4  10  22  40  63 101 133 179 224 275 338 406
#     4  11  23  40  67  97 136 174 224 277 339 407
#     4  10  22  36  64  98 136 180 210 268 338 418
#     4  11  25  42  65 100 135 176 228 279 335 409
#     4  11  23  40  64  99 141 181 220 271 339 412
#
# _framework density 21.782449
#
# number of rings (size 3 to 8) (size 9 to 14) (size 15 to 20)
#    0.000    1.455    1.818    2.182   10.182    1.455 
#    0.000    0.000    0.000    0.000    0.000    0.000 
#    0.000    0.000    0.000    0.000    0.000    0.000 
#
# Total GULP energy -61243.995037 kJ/mol
# GULP energy per Si atom -5567.635912 kJ/mol
# Density = 2.173287 g / cm^3
# Si number density = 21.782449 Si / 1000 Ang^3
#
#
#
# Elastic Constant Matrix: (Units=GPa)
#
#
# Indices 1 2 3 4 5 6 
#
# 1 136.5476 34.7306 52.9983 0.0000 34.6637 0.0000
# 2 34.7306 65.9589 20.6982 0.0000 4.3980 0.0000
# 3 52.9983 20.6982 126.8346 0.0000 20.9000 0.0000
# 4 0.0000 0.0000 0.0000 7.6654 0.0000 11.3713
# 5 34.6637 4.3980 20.9000 0.0000 24.7808 0.0000
# 6 0.0000 0.0000 0.0000 11.3713 0.0000 21.7045
#
#
#
# Elastic Compliance Matrix: (Units=1/GPa)
#
#
# Indices 1 2 3 4 5 6 
#
# 1 0.013701 -0.005451 -0.002133 0.000000 -0.016398 0.000000
# 2 -0.005451 0.018160 -0.001639 0.000000 0.005785 0.000000
# 3 -0.002133 -0.001639 0.009876 0.000000 -0.005055 0.000000
# 4 0.000000 0.000000 0.000000 0.585534 0.000000 -0.306770
# 5 -0.016398 0.005785 -0.005055 0.000000 0.066528 0.000000
# 6 0.000000 0.000000 0.000000 -0.306770 0.000000 0.206794
#
#
# Mechanical properties :
#
#
# Convention : Reuss Voigt Hill
#
# Bulk Modulus (GPa) = 42.93709 60.68838 51.81274
# Shear Modulus (GPa) = 5.39489 25.55775 15.47632
#
# Velocity S-wave (km/s) = 1.57547 3.42909 2.66840
# Velocity P-wave (km/s) = 4.80250 6.60302 5.77338
#
# Compressibility (1/GPa) = 0.02328989
#
# Stress axis : x y z
#
# Youngs Moduli (GPa) = 72.98892 55.06639 101.25565
#
# Poissons Ratio (x) = 0.30018 0.21600
# Poissons Ratio (y) = 0.39788 0.16595
# Poissons Ratio (z) = 0.15570 0.09025
#
# Static dielectric constant tensor:
#      x y z
#    x 2.409340 0.000000 0.117900 
#    y 0.000000 1.977090 0.000000 
#    z 0.117900 0.000000 1.777460 
# 
# From -- ./inp_files/6389.got.cif
#   From: 2010.05.17/outbox.cif.g08.bks.cpg/sg3_4_cif.got.tgz:6389.got - 2010.06.03 18:33:08.
