data_PCOD9113460
_publ_section_title
;
Structure prediction by ZEFSAII (Michael W. Deem and Ramdas Pophale) SiO2 
 PCOD9113460
Probable space group: P 2
;
_chemical_formula_sum "Si O2"
_cell_formula_units_Z 12
_cell_length_a 23.905848
_cell_length_b 5.581490
_cell_length_c 13.186453
_cell_angle_alpha 90.000000
_cell_angle_beta 160.463063
_cell_angle_gamma 90.000000
_cell_volume 588.392835
_symmetry_space_group_name_H-M "P 2"
_symmetry_group_IT_number 3
_symmetry_cell_setting 'monoclinic'
loop_
_space_group_symop_operation_xyz
x,y,z
-x,y,-z
loop_
_atom_site_type_symbol
_atom_site_label
_atom_site_fract_x
_atom_site_fract_y
_atom_site_fract_z
Si Si1 0.956950 0.107510 0.126191
Si Si2 0.500000 0.127404 0.000000
Si Si3 0.789516 0.468223 0.519492
Si Si4 0.000000 0.805569 0.000000
Si Si5 0.799678 0.710463 0.141024
Si Si6 0.301605 0.207933 0.144403
Si Si7 0.727986 0.830495 0.243906
O O1 0.040771 0.343720 0.224669
O O2 0.798224 0.180542 0.920413
O O3 0.940402 0.948504 0.997254
O O4 0.097087 0.973924 0.436115
O O5 0.649295 0.278037 0.305293
O O6 0.583985 0.986003 0.050651
O O7 0.727214 0.599546 0.313256
O O8 0.840547 0.652959 0.692013
O O9 0.716770 0.745990 0.109929
O O10 0.000000 0.702853 0.500000
O O11 0.749889 0.458474 0.000622
O O12 0.749808 0.958429 0.999311
O O13 0.500000 0.212912 0.500000
#
# Coordination Sequence:
#
# PCOD9113460 Si02
#       7
#     2   1   2   1   2   2   2
#     4  10  22  44  69  98 140 183 238 293 353 438
#     4  10  22  40  66 102 144 170 230 310 350 400
#     4  10  21  42  66  98 141 179 229 292 357 422
#     4  10  22  42  70 102 132 194 232 272 374 436
#     4  12  25  48  80 104 138 203 251 288 371 438
#     4  12  28  50  70 110 151 187 243 315 362 423
#     4  10  22  42  69 103 133 181 244 297 346 432
#
# _framework density 20.394539000000002
#
# number of rings (size 3 to 8) (size 9 to 14) (size 15 to 20)
#    0.000    1.333    1.667    3.000    7.000    0.000 
#   15.000    0.000    0.000    0.000    0.000    0.000 
#    0.000    0.000    0.000    0.000    0.000    0.000 
#
# Total GULP energy -66969.768525 kJ/mol
# GULP energy per Si atom -5580.814044 kJ/mol
# Density = 2.034812 g / cm^3
# Si number density = 20.394539 Si / 1000 Ang^3
#
#
#
# Elastic Constant Matrix: (Units=GPa)
#
#
# Indices 1 2 3 4 5 6 
#
# 1 168.4497 85.9199 87.9497 0.0000 14.2893 0.0000
# 2 85.9199 154.3651 74.7223 0.0000 -0.2550 0.0000
# 3 87.9497 74.7223 127.6891 0.0000 23.4299 0.0000
# 4 0.0000 0.0000 0.0000 -122.6107 0.0000 379.3442
# 5 14.2893 -0.2550 23.4299 0.0000 35.4548 0.0000
# 6 0.0000 0.0000 0.0000 379.3442 0.0000-1328.9564
#
#
#
# Elastic Compliance Matrix: (Units=1/GPa)
#
#
# Indices 1 2 3 4 5 6 
#
# 1 0.010317 -0.003323 -0.005000 0.000000 -0.000878 0.000000
# 2 -0.003323 0.010651 -0.004784 0.000000 0.004577 0.000000
# 3 -0.005000 -0.004784 0.015603 0.000000 -0.008331 0.000000
# 4 0.000000 0.000000 0.000000 -0.069790 0.000000 -0.019921
# 5 -0.000878 0.004577 -0.008331 0.000000 0.034097 0.000000
# 6 0.000000 0.000000 0.000000 -0.019921 0.000000 -0.006439
#
#
# Mechanical properties :
#
#
# Convention : Reuss Voigt Hill
#
# Bulk Modulus (GPa) = 96.55436 105.29860 100.92648
# Shear Modulus (GPa) = 207.41696 -269.76166 -31.17235
#
# Velocity S-wave (km/s) = 10.09569 -11.51341 -3.91380
# Velocity P-wave (km/s) = 13.54043 11.18043 5.40099
#
# Compressibility (1/GPa) = 0.01035686
#
# Stress axis : x y z
#
# Youngs Moduli (GPa) = 96.93058 93.88665 64.08825
#
# Poissons Ratio (x) = 0.31202 0.32045
# Poissons Ratio (y) = 0.32214 0.30658
# Poissons Ratio (z) = 0.48466 0.44913
#
# Static dielectric constant tensor:
#      x y z
#    x 1.853240 0.000000 0.049730 
#    y 0.000000 1.803090 0.000000 
#    z 0.049730 0.000000 1.743940 
# 
# From -- ./inp_files/6506.got.cif
#   From: 2010.05.17/outbox.cif.g08.bks.cpg/sg3_4_cif.got.tgz:6506.got - 2010.06.03 18:33:08.
