data_PCOD9113172
_publ_section_title
;
Structure prediction by ZEFSAII (Michael W. Deem and Ramdas Pophale) SiO2 
 PCOD9113172
Probable space group: P 2
;
_chemical_formula_sum "Si O2"
_cell_formula_units_Z 13
_cell_length_a 8.767148
_cell_length_b 5.147816
_cell_length_c 11.192719
_cell_angle_alpha 90.000000
_cell_angle_beta 84.876916
_cell_angle_gamma 90.000000
_cell_volume 503.128069
_symmetry_space_group_name_H-M "P 2"
_symmetry_group_IT_number 3
_symmetry_cell_setting 'monoclinic'
loop_
_space_group_symop_operation_xyz
x,y,z
-x,y,-z
loop_
_atom_site_type_symbol
_atom_site_label
_atom_site_fract_x
_atom_site_fract_y
_atom_site_fract_z
Si Si1 0.964616 0.655440 0.143345
Si Si2 0.227084 0.148242 0.762633
Si Si3 0.545913 0.275069 0.860868
Si Si4 0.264693 0.487637 0.546584
Si Si5 0.450126 0.646879 0.330643
Si Si6 0.000000 0.886912 0.500000
Si Si7 0.197169 0.981165 0.275620
O O1 0.882539 0.382394 0.179801
O O2 0.114418 0.743546 0.209799
O O3 0.848109 0.884119 0.188356
O O4 0.000000 0.662012 0.000000
O O5 0.237002 0.226582 0.622517
O O6 0.401033 0.153535 0.799471
O O7 0.717376 0.166848 0.824499
O O8 0.541635 0.563605 0.806733
O O9 0.500000 0.261779 0.000000
O O10 0.347760 0.443647 0.414529
O O11 0.388648 0.644915 0.617704
O O12 0.123167 0.679125 0.541722
O O13 0.342737 0.891050 0.342274
O O14 0.073815 0.052059 0.386321
#
# Coordination Sequence:
#
# PCOD9113172 Si02
#       7
#     2   2   2   2   2   1   2
#     4  12  27  46  73 106 152 196 252 303 376 443
#     4  11  26  47  73 105 148 199 243 314 370 442
#     4  11  26  43  70 105 146 197 254 302 372 450
#     4   9  19  43  68 101 141 180 252 299 381 439
#     4   9  22  42  67  99 141 188 241 308 372 442
#     4  10  20  42  72 110 142 194 246 314 380 448
#     4  11  25  41  72 104 145 195 247 311 371 449
#
# _framework density 25.838352
#
# number of rings (size 3 to 8) (size 9 to 14) (size 15 to 20)
#    0.000    1.538    1.538    1.385    8.615    1.846 
#    0.000    3.846    0.000    0.000    0.000    0.000 
#    0.000    0.000    0.000    0.000    0.000    0.000 
#
# Total GULP energy -72734.000366 kJ/mol
# GULP energy per Si atom -5594.923105 kJ/mol
# Density = 2.577954 g / cm^3
# Si number density = 25.838352 Si / 1000 Ang^3
#
#
#
# Elastic Constant Matrix: (Units=GPa)
#
#
# Indices 1 2 3 4 5 6 
#
# 1 180.7963 40.1272 38.4817 0.0000 -10.7695 0.0000
# 2 40.1272 90.8771 26.7964 0.0000 -12.0375 0.0000
# 3 38.4817 26.7964 180.3707 0.0000 -34.0391 0.0000
# 4 0.0000 0.0000 0.0000 25.6621 0.0000 -15.5800
# 5 -10.7695 -12.0375 -34.0391 0.0000 37.6626 0.0000
# 6 0.0000 0.0000 0.0000 -15.5800 0.0000 51.8674
#
#
#
# Elastic Compliance Matrix: (Units=1/GPa)
#
#
# Indices 1 2 3 4 5 6 
#
# 1 0.006292 -0.002479 -0.000945 0.000000 0.000152 0.000000
# 2 -0.002479 0.012695 -0.000874 0.000000 0.002559 0.000000
# 3 -0.000945 -0.000874 0.006959 0.000000 0.005740 0.000000
# 4 0.000000 0.000000 0.000000 0.047660 0.000000 0.014316
# 5 0.000152 0.002559 0.005740 0.000000 0.032600 0.000000
# 6 0.000000 0.000000 0.000000 0.014316 0.000000 0.023580
#
#
# Mechanical properties :
#
#
# Convention : Reuss Voigt Hill
#
# Bulk Modulus (GPa) = 57.64244 73.65053 65.64649
# Shear Modulus (GPa) = 34.68227 46.14766 40.41497
#
# Velocity S-wave (km/s) = 3.66769 4.23071 3.95922
# Velocity P-wave (km/s) = 6.34769 7.24096 6.80899
#
# Compressibility (1/GPa) = 0.01734833
#
# Stress axis : x y z
#
# Youngs Moduli (GPa) = 158.94204 78.76951 143.70186
#
# Poissons Ratio (x) = 0.19528 0.13583
# Poissons Ratio (y) = 0.39405 0.12564
# Poissons Ratio (z) = 0.15024 0.06887
#
# Static dielectric constant tensor:
#      x y z
#    x 2.061520 0.000000 -0.015230 
#    y 0.000000 2.050870 0.000000 
#    z -0.015230 0.000000 2.051260 
# 
# From -- ./inp_files/10221.got.cif
#   From: 2010.05.17/outbox.cif.g08.bks.cpg/sg3_6_cif.got.tgz:10221.got - 2010.06.03 18:33:08.
