data_PCOD9113337
_publ_section_title
;
Structure prediction by ZEFSAII (Michael W. Deem and Ramdas Pophale) SiO2 
 PCOD9113337
Probable space group: P 2
;
_chemical_formula_sum "Si O2"
_cell_formula_units_Z 14
_cell_length_a 15.910962
_cell_length_b 7.762769
_cell_length_c 5.078192
_cell_angle_alpha 90.000000
_cell_angle_beta 67.845043
_cell_angle_gamma 90.000000
_cell_volume 580.913781
_symmetry_space_group_name_H-M "P 2"
_symmetry_group_IT_number 3
_symmetry_cell_setting 'monoclinic'
loop_
_space_group_symop_operation_xyz
x,y,z
-x,y,-z
loop_
_atom_site_type_symbol
_atom_site_label
_atom_site_fract_x
_atom_site_fract_y
_atom_site_fract_z
Si Si1 0.406107 0.843760 0.457821
Si Si2 0.061922 0.561540 0.165083
Si Si3 0.240286 0.056558 0.206714
Si Si4 0.263225 0.691156 0.038074
Si Si5 0.400496 0.492551 0.190490
Si Si6 0.058938 0.158532 0.169009
Si Si7 0.321972 0.191161 0.588080
O O1 0.500000 0.850553 0.500000
O O2 0.418569 0.689995 0.242103
O O3 0.385979 0.038786 0.398116
O O4 0.323718 0.775004 0.736965
O O5 0.161201 0.643070 0.079020
O O6 0.080651 0.358913 0.085611
O O7 0.000000 0.576355 0.500000
O O8 0.000000 0.629846 0.000000
O O9 0.148791 0.060994 0.145400
O O10 0.237569 0.162013 0.483788
O O11 0.257238 0.854897 0.243226
O O12 0.307647 0.145242 0.911286
O O13 0.317547 0.525832 0.085438
O O14 0.363117 0.375352 0.471311
O O15 0.500000 0.420488 0.000000
O O16 0.000000 0.158834 0.500000
O O17 0.000000 0.086400 0.000000
#
# Coordination Sequence:
#
# PCOD9113337 Si02
#       7
#     2   2   2   2   2   2   2
#     4  11  25  47  70 104 149 189 237 302 354 427
#     4  10  24  41  65 100 136 181 236 294 352 419
#     4  11  24  45  68 101 138 189 236 294 357 424
#     4  11  25  44  71  99 146 186 238 298 358 424
#     4  12  26  44  74 105 142 194 241 291 363 429
#     4  10  21  39  63  95 135 177 231 295 352 418
#     4  11  27  44  71 102 142 188 239 289 353 424
#
# _framework density 24.099961
#
# number of rings (size 3 to 8) (size 9 to 14) (size 15 to 20)
#    0.000    1.143    2.857    1.714    6.000    5.714 
#    0.000    0.000    0.000    0.000    0.000    0.000 
#    0.000    0.000    0.000    0.000    0.000    0.000 
#
# Total GULP energy -78208.562556 kJ/mol
# GULP energy per Si atom -5586.325897 kJ/mol
# Density = 2.404511 g / cm^3
# Si number density = 24.099961 Si / 1000 Ang^3
#
#
#
# Elastic Constant Matrix: (Units=GPa)
#
#
# Indices 1 2 3 4 5 6 
#
# 1 146.4032 32.9294 24.8173 0.0000 -4.6209 0.0000
# 2 32.9294 110.0942 17.5684 0.0000 -5.2977 0.0000
# 3 24.8173 17.5684 57.3744 0.0000 5.5332 0.0000
# 4 0.0000 0.0000 0.0000 -28.0699 0.0000 27.1624
# 5 -4.6209 -5.2977 5.5332 0.0000 37.3041 0.0000
# 6 0.0000 0.0000 0.0000 27.1624 0.0000 14.2353
#
#
#
# Elastic Compliance Matrix: (Units=1/GPa)
#
#
# Indices 1 2 3 4 5 6 
#
# 1 0.007766 -0.001803 -0.002917 0.000000 0.001139 0.000000
# 2 -0.001803 0.010091 -0.002462 0.000000 0.001575 0.000000
# 3 -0.002917 -0.002462 0.019797 0.000000 -0.003647 0.000000
# 4 0.000000 0.000000 0.000000 -0.012516 0.000000 0.023882
# 5 0.001139 0.001575 -0.003647 0.000000 0.027712 0.000000
# 6 0.000000 0.000000 0.000000 0.023882 0.000000 0.024679
#
#
# Mechanical properties :
#
#
# Convention : Reuss Voigt Hill
#
# Bulk Modulus (GPa) = 42.93612 51.61133 47.27373
# Shear Modulus (GPa) = 50.17185 20.59767 35.38476
#
# Velocity S-wave (km/s) = 4.56765 2.92666 3.83593
# Velocity P-wave (km/s) = 6.75814 5.73432 6.26717
#
# Compressibility (1/GPa) = 0.02329041
#
# Stress axis : x y z
#
# Youngs Moduli (GPa) = 128.76076 99.09842 50.51303
#
# Poissons Ratio (x) = 0.17864 0.14736
# Poissons Ratio (y) = 0.23211 0.12437
# Poissons Ratio (z) = 0.37562 0.24399
#
# Static dielectric constant tensor:
#      x y z
#    x 2.335240 0.000000 0.193750 
#    y 0.000000 1.932480 0.000000 
#    z 0.193750 0.000000 1.992690 
# 
# From -- ./inp_files/3153.got.cif
#   From: 2010.05.17/outbox.cif.g08.bks.cpg/sg3_2_cif.got.tgz:3153.got - 2010.06.03 18:33:08.
