data_PCOD9113951
_publ_section_title
;
Structure prediction by ZEFSAII (Michael W. Deem and Ramdas Pophale) SiO2 
 PCOD9113951
Probable space group: P 2
;
_chemical_formula_sum "Si O2"
_cell_formula_units_Z 12
_cell_length_a 9.246748
_cell_length_b 11.890057
_cell_length_c 5.019519
_cell_angle_alpha 90.000000
_cell_angle_beta 85.345515
_cell_angle_gamma 90.000000
_cell_volume 550.047838
_symmetry_space_group_name_H-M "P 2"
_symmetry_group_IT_number 3
_symmetry_cell_setting 'monoclinic'
loop_
_space_group_symop_operation_xyz
x,y,z
-x,y,-z
loop_
_atom_site_type_symbol
_atom_site_label
_atom_site_fract_x
_atom_site_fract_y
_atom_site_fract_z
Si Si1 0.658541 0.684460 0.610384
Si Si2 0.401940 0.919443 0.258179
Si Si3 0.103292 0.603455 0.731157
Si Si4 0.839779 0.255532 0.062042
Si Si5 0.839091 0.098722 0.572084
Si Si6 0.673378 0.470954 0.976398
O O1 0.500000 0.665917 0.500000
O O2 0.652703 0.793412 0.800619
O O3 0.790256 0.703014 0.383558
O O4 0.699511 0.571314 0.762538
O O5 0.500000 0.899290 0.500000
O O6 0.281102 0.003702 0.385060
O O7 0.500000 0.963475 0.000000
O O8 0.225235 0.511583 0.793267
O O9 0.000000 0.570462 0.500000
O O10 0.000000 0.625459 0.000000
O O11 0.815265 0.199497 0.356850
O O12 0.725769 0.342982 0.956937
O O13 0.842375 0.152153 0.862151
O O14 0.000000 0.309973 0.000000
O O15 0.000000 0.051871 0.500000
O O16 0.500000 0.468566 0.000000
#
# Coordination Sequence:
#
# PCOD9113951 Si02
#       6
#     2   2   2   2   2   2
#     4  11  25  45  71 104 150 190 238 290 364 421
#     4  11  25  44  74 103 139 185 233 294 355 421
#     4  12  26  43  67 100 142 185 237 286 343 419
#     4  10  24  42  70  98 140 181 234 294 360 408
#     4  10  23  47  69 100 135 182 232 300 353 414
#     4  12  25  43  71 104 145 191 236 289 351 436
#
# _framework density 21.816286999999999
#
# number of rings (size 3 to 8) (size 9 to 14) (size 15 to 20)
#    0.000    1.000    3.333    2.000    4.667    3.333 
#    0.000    0.833    0.000    0.000    0.000    0.000 
#    0.000    0.000    0.000    0.000    0.000    0.000 
#
# Total GULP energy -66877.612721 kJ/mol
# GULP energy per Si atom -5573.134393 kJ/mol
# Density = 2.176663 g / cm^3
# Si number density = 21.816287 Si / 1000 Ang^3
#
#
#
# Elastic Constant Matrix: (Units=GPa)
#
#
# Indices 1 2 3 4 5 6 
#
# 1 161.5062 49.6679 49.9821 0.0000 -12.1723 0.0000
# 2 49.6679 58.5405 25.7511 0.0000 -18.4624 0.0000
# 3 49.9821 25.7511 95.3431 0.0000 3.2263 0.0000
# 4 0.0000 0.0000 0.0000 10.7540 0.0000 -21.8927
# 5 -12.1723 -18.4624 3.2263 0.0000 40.0026 0.0000
# 6 0.0000 0.0000 0.0000 -21.8927 0.0000 -32.8199
#
#
#
# Elastic Compliance Matrix: (Units=1/GPa)
#
#
# Indices 1 2 3 4 5 6 
#
# 1 0.009096 -0.006345 -0.003057 0.000000 0.000086 0.000000
# 2 -0.006345 0.028114 -0.004653 0.000000 0.011420 0.000000
# 3 -0.003057 -0.004653 0.013489 0.000000 -0.004166 0.000000
# 4 0.000000 0.000000 0.000000 0.039436 0.000000 -0.026306
# 5 0.000086 0.011420 -0.004166 0.000000 0.030631 0.000000
# 6 0.000000 0.000000 0.000000 -0.026306 0.000000 -0.012922
#
#
# Mechanical properties :
#
#
# Convention : Reuss Voigt Hill
#
# Bulk Modulus (GPa) = 44.27321 62.91021 53.59171
# Shear Modulus (GPa) = 34.84673 16.25324 25.54999
#
# Velocity S-wave (km/s) = 4.00094 2.73244 3.42591
# Velocity P-wave (km/s) = 6.45608 6.23329 6.34567
#
# Compressibility (1/GPa) = 0.02258702
#
# Stress axis : x y z
#
# Youngs Moduli (GPa) = 109.94213 35.56909 74.13421
#
# Poissons Ratio (x) = 0.22569 0.22666
# Poissons Ratio (y) = 0.69760 0.34498
# Poissons Ratio (z) = 0.33614 0.16552
#
# Static dielectric constant tensor:
#      x y z
#    x 1.891450 0.000000 -0.059810 
#    y 0.000000 1.882700 0.000000 
#    z -0.059810 0.000000 1.887980 
# 
# From -- ./inp_files/1206.got.cif
#   From: 2010.05.17/outbox.cif.g08.bks.cpg/sg3_1_cif.got.tgz:1206.got - 2010.06.03 18:33:08.
