data_PCOD9113942
_publ_section_title
;
Structure prediction by ZEFSAII (Michael W. Deem and Ramdas Pophale) SiO2 
 PCOD9113942
Probable space group: P 2
;
_chemical_formula_sum "Si O2"
_cell_formula_units_Z 11
_cell_length_a 16.734109
_cell_length_b 5.544786
_cell_length_c 8.784356
_cell_angle_alpha 90.000000
_cell_angle_beta 34.209549
_cell_angle_gamma 90.000000
_cell_volume 458.252178
_symmetry_space_group_name_H-M "P 2"
_symmetry_group_IT_number 3
_symmetry_cell_setting 'monoclinic'
loop_
_space_group_symop_operation_xyz
x,y,z
-x,y,-z
loop_
_atom_site_type_symbol
_atom_site_label
_atom_site_fract_x
_atom_site_fract_y
_atom_site_fract_z
Si Si1 0.645261 0.020600 0.940495
Si Si2 0.792751 0.101638 0.008818
Si Si3 0.418067 0.785166 0.488612
Si Si4 0.500000 0.383514 0.000000
Si Si5 0.958693 0.593683 0.746285
Si Si6 0.761775 0.697105 0.510358
O O1 0.523438 0.213990 0.106100
O O2 0.550076 0.810598 0.164505
O O3 0.754860 0.113324 0.890325
O O4 0.723079 0.943961 0.662713
O O5 0.886331 0.857611 0.873640
O O6 0.865579 0.355671 0.932793
O O7 0.649795 0.025397 0.325385
O O8 0.500000 0.653090 0.500000
O O9 0.284901 0.704773 0.592526
O O10 0.355464 0.520654 0.239284
O O11 0.000000 0.570881 0.500000
O O12 0.088284 0.608970 0.662531
#
# Coordination Sequence:
#
# PCOD9113942 Si02
#       6
#     2   2   2   1   2   2
#     4  11  22  44  71 107 140 190 246 301 361 426
#     4  11  27  47  72 110 148 191 240 302 373 428
#     4  10  23  46  71 105 149 185 241 310 365 431
#     4  12  22  38  76 104 138 184 258 300 358 420
#     4  12  26  47  77 106 144 196 246 298 359 447
#     4  12  24  44  73 107 141 194 243 300 360 432
#
# _framework density 24.004249999999999
#
# number of rings (size 3 to 8) (size 9 to 14) (size 15 to 20)
#    0.000    0.727    5.455    1.636    2.545    2.182 
#    0.000    5.455    0.000    0.000    0.000    0.000 
#    0.000    0.000    0.000    0.000    0.000    0.000 
#
# Total GULP energy -61320.094989 kJ/mol
# GULP energy per Si atom -5574.554090 kJ/mol
# Density = 2.394961 g / cm^3
# Si number density = 24.004250 Si / 1000 Ang^3
#
#
#
# Elastic Constant Matrix: (Units=GPa)
#
#
# Indices 1 2 3 4 5 6 
#
# 1 239.2969 61.1441 46.2599 0.0000 -33.8321 0.0000
# 2 61.1441 106.0341 35.2794 0.0000 -15.9180 0.0000
# 3 46.2599 35.2794 68.9950 0.0000 -4.5817 0.0000
# 4 0.0000 0.0000 0.0000 15.7776 0.0000 -22.1713
# 5 -33.8321 -15.9180 -4.5817 0.0000 49.9170 0.0000
# 6 0.0000 0.0000 0.0000 -22.1713 0.0000 24.2595
#
#
#
# Elastic Compliance Matrix: (Units=1/GPa)
#
#
# Indices 1 2 3 4 5 6 
#
# 1 0.005581 -0.001925 -0.002563 0.000000 0.002933 0.000000
# 2 -0.001925 0.012529 -0.004967 0.000000 0.002235 0.000000
# 3 -0.002563 -0.004967 0.018645 0.000000 -0.001610 0.000000
# 4 0.000000 0.000000 0.000000 -0.222956 0.000000 -0.203764
# 5 0.002933 0.002235 -0.001610 0.000000 0.022586 0.000000
# 6 0.000000 0.000000 0.000000 -0.203764 0.000000 -0.145004
#
#
# Mechanical properties :
#
#
# Convention : Reuss Voigt Hill
#
# Bulk Modulus (GPa) = 56.03889 77.74362 66.89126
# Shear Modulus (GPa) = -17.62060 36.10034 9.23987
#
# Velocity S-wave (km/s) = -2.71230 3.88224 1.96408
# Velocity P-wave (km/s) = 3.68610 7.24938 5.75069
#
# Compressibility (1/GPa) = 0.01784475
#
# Stress axis : x y z
#
# Youngs Moduli (GPa) = 179.17995 79.81284 53.63314
#
# Poissons Ratio (x) = 0.15366 0.13745
# Poissons Ratio (y) = 0.34496 0.26642
# Poissons Ratio (z) = 0.45919 0.39646
#
# Static dielectric constant tensor:
#      x y z
#    x 1.843230 0.000000 -0.023470 
#    y 0.000000 1.995560 0.000000 
#    z -0.023470 0.000000 1.911230 
# 
# From -- ./inp_files/7920.got.cif
#   From: 2010.05.17/outbox.cif.g08.bks.cpg/sg3_4_cif.got.tgz:7920.got - 2010.06.03 18:33:08.
