data_PCOD9113635
_publ_section_title
;
Structure prediction by ZEFSAII (Michael W. Deem and Ramdas Pophale) SiO2 
 PCOD9113635
Probable space group: P 2
;
_chemical_formula_sum "Si O2"
_cell_formula_units_Z 12
_cell_length_a 15.850191
_cell_length_b 5.414009
_cell_length_c 8.758513
_cell_angle_alpha 90.000000
_cell_angle_beta 135.802164
_cell_angle_gamma 90.000000
_cell_volume 523.965418
_symmetry_space_group_name_H-M "P 2"
_symmetry_group_IT_number 3
_symmetry_cell_setting 'monoclinic'
loop_
_space_group_symop_operation_xyz
x,y,z
-x,y,-z
loop_
_atom_site_type_symbol
_atom_site_label
_atom_site_fract_x
_atom_site_fract_y
_atom_site_fract_z
Si Si1 0.000000 0.109730 0.500000
Si Si2 0.777814 0.857458 0.732233
Si Si3 0.633975 0.532539 0.102477
Si Si4 0.230078 0.029377 0.607501
Si Si5 0.864418 0.228235 0.056573
Si Si6 0.000000 0.525969 0.000000
Si Si7 0.376820 0.523368 0.277163
O O1 0.092383 0.990318 0.495695
O O2 0.097306 0.258435 0.722403
O O3 0.656565 0.745571 0.648429
O O4 0.762443 0.038336 0.568543
O O5 0.877671 0.667619 0.800448
O O6 0.848507 0.954068 0.974693
O O7 0.705991 0.279550 0.243359
O O8 0.698299 0.780661 0.249718
O O9 0.500000 0.513105 0.000000
O O10 0.620497 0.570088 0.901008
O O11 0.968800 0.354620 0.099274
O O12 0.736860 0.345176 0.852219
O O13 0.500000 0.411375 0.500000
#
# Coordination Sequence:
#
# PCOD9113635 Si02
#       7
#     1   2   2   2   2   1   2
#     4  12  24  46  76 112 164 198 262 336 394 480
#     4  11  25  44  71 108 149 204 260 318 394 471
#     4  12  28  52  76 117 156 208 269 326 396 467
#     4  12  28  47  81 115 158 208 261 330 400 465
#     4  11  24  44  70 108 146 200 255 319 392 470
#     4  10  22  40  68 100 148 188 258 308 392 472
#     4  11  26  47  76 107 152 205 263 325 386 472
#
# _framework density 22.902277999999999
#
# number of rings (size 3 to 8) (size 9 to 14) (size 15 to 20)
#    0.000    0.667    1.667    5.000    9.333    2.667 
#    0.000    0.000    0.000    0.000    0.000    0.000 
#    0.000    0.000    0.000    0.000    0.000    0.000 
#
# Total GULP energy -66932.865533 kJ/mol
# GULP energy per Si atom -5577.738794 kJ/mol
# Density = 2.285015 g / cm^3
# Si number density = 22.902278 Si / 1000 Ang^3
#
#
#
# Elastic Constant Matrix: (Units=GPa)
#
#
# Indices 1 2 3 4 5 6 
#
# 1 168.5083 22.7381 45.3899 0.0000 6.5461 0.0000
# 2 22.7381 75.1200 30.0533 0.0000 12.4877 0.0000
# 3 45.3899 30.0533 119.0599 0.0000 -7.7042 0.0000
# 4 0.0000 0.0000 0.0000 40.4620 0.0000 1.7014
# 5 6.5461 12.4877 -7.7042 0.0000 45.7418 0.0000
# 6 0.0000 0.0000 0.0000 1.7014 0.0000 13.1571
#
#
#
# Elastic Compliance Matrix: (Units=1/GPa)
#
#
# Indices 1 2 3 4 5 6 
#
# 1 0.006751 -0.000886 -0.002423 0.000000 -0.001132 0.000000
# 2 -0.000886 0.016007 -0.004021 0.000000 -0.004921 0.000000
# 3 -0.002423 -0.004021 0.010546 0.000000 0.003221 0.000000
# 4 0.000000 0.000000 0.000000 0.024850 0.000000 -0.003213
# 5 -0.001132 -0.004921 0.003221 0.000000 0.023910 0.000000
# 6 0.000000 0.000000 0.000000 -0.003213 0.000000 0.076420
#
#
# Mechanical properties :
#
#
# Convention : Reuss Voigt Hill
#
# Bulk Modulus (GPa) = 53.63765 62.11677 57.87721
# Shear Modulus (GPa) = 27.87713 37.50596 32.69155
#
# Velocity S-wave (km/s) = 3.49265 4.05118 3.78224
# Velocity P-wave (km/s) = 6.30364 7.00458 6.66334
#
# Compressibility (1/GPa) = 0.01864362
#
# Stress axis : x y z
#
# Youngs Moduli (GPa) = 148.13326 62.47319 94.81846
#
# Poissons Ratio (x) = 0.05533 0.22978
# Poissons Ratio (y) = 0.13119 0.38129
# Poissons Ratio (z) = 0.35898 0.25122
#
# Static dielectric constant tensor:
#      x y z
#    x 1.859930 0.000000 -0.040510 
#    y 0.000000 1.922900 0.000000 
#    z -0.040510 0.000000 1.863490 
# 
# From -- ./inp_files/8444.got.cif
#   From: 2010.05.17/outbox.cif.g08.bks.cpg/sg3_5_cif.got.tgz:8444.got - 2010.06.03 18:33:08.
