data_PCOD9113162
_publ_section_title
;
Structure prediction by ZEFSAII (Michael W. Deem and Ramdas Pophale) SiO2 
 PCOD9113162
Probable space group: P 2
;
_chemical_formula_sum "Si O2"
_cell_formula_units_Z 12
_cell_length_a 14.566661
_cell_length_b 6.460314
_cell_length_c 6.344560
_cell_angle_alpha 90.000000
_cell_angle_beta 112.675058
_cell_angle_gamma 90.000000
_cell_volume 550.907255
_symmetry_space_group_name_H-M "P 2"
_symmetry_group_IT_number 3
_symmetry_cell_setting 'monoclinic'
loop_
_space_group_symop_operation_xyz
x,y,z
-x,y,-z
loop_
_atom_site_type_symbol
_atom_site_label
_atom_site_fract_x
_atom_site_fract_y
_atom_site_fract_z
Si Si1 0.000000 0.435290 0.500000
Si Si2 0.839300 0.088594 0.343950
Si Si3 0.252980 0.838592 0.118108
Si Si4 0.073542 0.772516 0.245940
Si Si5 0.645506 0.976810 0.407086
Si Si6 0.500000 0.207991 0.000000
Si Si7 0.613916 0.609182 0.091722
O O1 0.096568 0.294036 0.629039
O O2 0.026209 0.577053 0.322258
O O3 0.735983 0.103690 0.380322
O O4 0.903554 0.937811 0.551626
O O5 0.809542 0.979517 0.099193
O O6 0.175780 0.733345 0.210287
O O7 0.330784 0.969647 0.326391
O O8 0.317458 0.683274 0.036443
O O9 0.000000 0.852435 0.000000
O O10 0.655107 0.738762 0.328311
O O11 0.542878 0.075208 0.232508
O O12 0.408203 0.366332 0.957078
O O13 0.500000 0.685588 0.000000
#
# Coordination Sequence:
#
# PCOD9113162 Si02
#       7
#     1   2   2   2   2   1   2
#     4  12  24  42  70  96 136 162 218 274 326 382
#     4  10  24  45  65  95 135 173 210 271 324 389
#     4  10  22  44  69  93 133 178 215 263 330 388
#     4  11  24  42  69  97 130 174 216 266 325 390
#     4  10  21  41  66  94 131 171 221 267 324 383
#     4  10  20  42  66  94 130 170 218 276 320 374
#     4   9  21  42  67  92 133 168 217 272 320 374
#
# _framework density 21.782253000000001
#
# number of rings (size 3 to 8) (size 9 to 14) (size 15 to 20)
#    0.500    1.333    0.833    2.500    0.000    9.333 
#    0.000   11.667    3.667    0.000    0.000    0.000 
#    0.000    0.000    0.000    0.000    0.000    0.000 
#
# Total GULP energy -66869.289533 kJ/mol
# GULP energy per Si atom -5572.440794 kJ/mol
# Density = 2.173268 g / cm^3
# Si number density = 21.782253 Si / 1000 Ang^3
#
#
#
# Elastic Constant Matrix: (Units=GPa)
#
#
# Indices 1 2 3 4 5 6 
#
# 1 74.1394 22.0001 36.9275 0.0000 5.5753 0.0000
# 2 22.0001 82.0033 62.9048 0.0000 10.3054 0.0000
# 3 36.9275 62.9048 183.5605 0.0000 23.4526 0.0000
# 4 0.0000 0.0000 0.0000 29.3026 0.0000 6.7749
# 5 5.5753 10.3054 23.4526 0.0000 38.5903 0.0000
# 6 0.0000 0.0000 0.0000 6.7749 0.0000 30.8760
#
#
#
# Elastic Compliance Matrix: (Units=1/GPa)
#
#
# Indices 1 2 3 4 5 6 
#
# 1 0.015324 -0.002361 -0.002246 0.000000 -0.000219 0.000000
# 2 -0.002361 0.016947 -0.005202 0.000000 -0.001023 0.000000
# 3 -0.002246 -0.005202 0.008092 0.000000 -0.003204 0.000000
# 4 0.000000 0.000000 0.000000 0.035950 0.000000 -0.007888
# 5 -0.000219 -0.001023 -0.003204 0.000000 0.028165 0.000000
# 6 0.000000 0.000000 0.000000 -0.007888 0.000000 0.034118
#
#
# Mechanical properties :
#
#
# Convention : Reuss Voigt Hill
#
# Bulk Modulus (GPa) = 48.20409 64.81866 56.51137
# Shear Modulus (GPa) = 30.27945 34.27852 32.27898
#
# Velocity S-wave (km/s) = 3.73245 3.97128 3.85371
# Velocity P-wave (km/s) = 6.38380 7.13094 6.76769
#
# Compressibility (1/GPa) = 0.02074513
#
# Stress axis : x y z
#
# Youngs Moduli (GPa) = 65.25848 59.00745 123.58514
#
# Poissons Ratio (x) = 0.13931 0.27754
# Poissons Ratio (y) = 0.15407 0.64288
# Poissons Ratio (z) = 0.14655 0.30695
#
# Static dielectric constant tensor:
#      x y z
#    x 1.814650 0.000000 0.024070 
#    y 0.000000 1.827430 0.000000 
#    z 0.024070 0.000000 1.788190 
# 
# From -- ./inp_files/2880.got.cif
#   From: 2010.05.17/outbox.cif.g08.bks.cpg/sg3_2_cif.got.tgz:2880.got - 2010.06.03 18:33:08.
