data_PCOD9113440
_publ_section_title
;
Structure prediction by ZEFSAII (Michael W. Deem and Ramdas Pophale) SiO2 
 PCOD9113440
Probable space group: P 2
;
_chemical_formula_sum "Si O2"
_cell_formula_units_Z 16
_cell_length_a 9.250433
_cell_length_b 11.150388
_cell_length_c 9.119200
_cell_angle_alpha 90.000000
_cell_angle_beta 49.113411
_cell_angle_gamma 90.000000
_cell_volume 711.106138
_symmetry_space_group_name_H-M "P 2"
_symmetry_group_IT_number 3
_symmetry_cell_setting 'monoclinic'
loop_
_space_group_symop_operation_xyz
x,y,z
-x,y,-z
loop_
_atom_site_type_symbol
_atom_site_label
_atom_site_fract_x
_atom_site_fract_y
_atom_site_fract_z
Si Si1 0.890065 0.007410 0.934983
Si Si2 0.973019 0.611496 0.346898
Si Si3 0.329232 0.235376 0.999658
Si Si4 0.312175 0.353474 0.710169
Si Si5 0.559113 0.839999 0.291000
Si Si6 0.144153 0.862977 0.540927
Si Si7 0.037436 0.343007 0.646048
Si Si8 0.208275 0.608980 0.921485
O O1 0.774895 0.107804 0.924283
O O2 0.049009 0.947311 0.725859
O O3 0.000000 0.063512 0.000000
O O4 0.737128 0.913839 0.105435
O O5 0.886212 0.479368 0.395843
O O6 0.000000 0.626006 0.500000
O O7 0.854635 0.729578 0.387285
O O8 0.166376 0.610135 0.123479
O O9 0.173472 0.332863 0.150428
O O10 0.500000 0.240597 0.000000
O O11 0.372927 0.265129 0.801927
O O12 0.500000 0.389412 0.500000
O O13 0.233846 0.476369 0.836542
O O14 0.173025 0.288200 0.683231
O O15 0.500000 0.863586 0.500000
O O16 0.361364 0.880016 0.344370
O O17 0.623907 0.701570 0.227687
O O18 0.000000 0.870343 0.500000
O O19 0.000000 0.306540 0.500000
O O20 0.000000 0.650756 0.000000
#
# Coordination Sequence:
#
# PCOD9113440 Si02
#       8
#     2   2   2   2   2   2   2   2
#     4  12  26  49  76 102 142 193 245 309 363 438
#     4  10  21  41  68 105 149 188 228 288 367 438
#     4  12  28  50  73 104 138 189 251 308 374 439
#     4  12  25  44  73 111 147 197 245 299 373 450
#     4  12  25  43  75 110 145 194 242 296 366 442
#     4  11  26  47  71 109 149 189 240 298 370 440
#     4  11  23  46  74 103 148 186 234 303 366 438
#     4  12  21  41  73 108 152 192 237 301 365 445
#
# _framework density 22.500157999999999
#
# number of rings (size 3 to 8) (size 9 to 14) (size 15 to 20)
#    0.000    0.500    5.000    3.375    3.500    1.000 
#    4.500    0.000    0.000    0.000    0.000    0.000 
#    0.000    0.000    0.000    0.000    0.000    0.000 
#
# Total GULP energy -89249.169435 kJ/mol
# GULP energy per Si atom -5578.073090 kJ/mol
# Density = 2.244895 g / cm^3
# Si number density = 22.500158 Si / 1000 Ang^3
#
#
#
# Elastic Constant Matrix: (Units=GPa)
#
#
# Indices 1 2 3 4 5 6 
#
# 1 168.2740 22.7681 50.5326 0.0000 2.7121 0.0000
# 2 22.7681 54.4693 14.6943 0.0000 1.5717 0.0000
# 3 50.5326 14.6943 127.2456 0.0000 5.6272 0.0000
# 4 0.0000 0.0000 0.0000 23.5435 0.0000 -0.8420
# 5 2.7121 1.5717 5.6272 0.0000 43.5391 0.0000
# 6 0.0000 0.0000 0.0000 -0.8420 0.0000 16.6694
#
#
#
# Elastic Compliance Matrix: (Units=1/GPa)
#
#
# Indices 1 2 3 4 5 6 
#
# 1 0.007004 -0.002247 -0.002521 0.000000 -0.000029 0.000000
# 2 -0.002247 0.019677 -0.001363 0.000000 -0.000394 0.000000
# 3 -0.002521 -0.001363 0.009060 0.000000 -0.000965 0.000000
# 4 0.000000 0.000000 0.000000 0.042551 0.000000 0.002149
# 5 -0.000029 -0.000394 -0.000965 0.000000 0.023109 0.000000
# 6 0.000000 0.000000 0.000000 0.002149 0.000000 0.060099
#
#
# Mechanical properties :
#
#
# Convention : Reuss Voigt Hill
#
# Bulk Modulus (GPa) = 42.58805 58.44209 50.51507
# Shear Modulus (GPa) = 27.53497 34.21667 30.87582
#
# Velocity S-wave (km/s) = 3.50203 3.90388 3.70841
# Velocity P-wave (km/s) = 5.94317 6.80815 6.39031
#
# Compressibility (1/GPa) = 0.02348076
#
# Stress axis : x y z
#
# Youngs Moduli (GPa) = 142.77238 50.82045 110.37653
#
# Poissons Ratio (x) = 0.11419 0.27823
# Poissons Ratio (y) = 0.32079 0.15040
# Poissons Ratio (z) = 0.35990 0.06925
#
# Static dielectric constant tensor:
#      x y z
#    x 1.953060 0.000000 0.073800 
#    y 0.000000 1.918850 0.000000 
#    z 0.073800 0.000000 1.862180 
# 
# From -- ./inp_files/5972.got.cif
#   From: 2010.05.17/outbox.cif.g08.bks.cpg/sg3_3_cif.got.tgz:5972.got - 2010.06.03 18:33:08.
