data_PCOD9113049
_publ_section_title
;
Structure prediction by ZEFSAII (Michael W. Deem and Ramdas Pophale) SiO2 
 PCOD9113049
Probable space group: P 2
;
_chemical_formula_sum "Si O2"
_cell_formula_units_Z 15
_cell_length_a 25.876605
_cell_length_b 5.526059
_cell_length_c 9.912231
_cell_angle_alpha 90.000000
_cell_angle_beta 28.108536
_cell_angle_gamma 90.000000
_cell_volume 667.801276
_symmetry_space_group_name_H-M "P 2"
_symmetry_group_IT_number 3
_symmetry_cell_setting 'monoclinic'
loop_
_space_group_symop_operation_xyz
x,y,z
-x,y,-z
loop_
_atom_site_type_symbol
_atom_site_label
_atom_site_fract_x
_atom_site_fract_y
_atom_site_fract_z
Si Si1 0.590465 0.712610 0.053187
Si Si2 0.909678 0.985417 0.825185
Si Si3 0.500000 0.964542 0.500000
Si Si4 0.772471 0.489270 0.114543
Si Si5 0.224911 0.111245 0.413385
Si Si6 0.081979 0.792319 0.907145
Si Si7 0.692366 0.328782 0.014604
Si Si8 0.688117 0.503374 0.585642
O O1 0.622065 0.487491 0.073385
O O2 0.497821 0.830854 0.359395
O O3 0.592444 0.631462 0.892762
O O4 0.693510 0.895622 0.815950
O O5 0.829817 0.753825 0.982618
O O6 0.000000 0.995401 0.500000
O O7 0.849330 0.249740 0.968366
O O8 0.957187 0.903325 0.861511
O O9 0.611004 0.116774 0.244224
O O10 0.729328 0.456873 0.063582
O O11 0.678804 0.477016 0.446699
O O12 0.287012 0.260203 0.387941
O O13 0.117789 0.008465 0.726600
O O14 0.208123 0.251818 0.312210
O O15 0.195744 0.648537 0.669965
O O16 0.000000 0.642974 0.000000
#
# Coordination Sequence:
#
# PCOD9113049 Si02
#       8
#     2   2   1   2   2   2   2   2
#     4   9  19  36  63  89 121 156 204 262 318 377
#     4  11  25  42  60  94 135 171 219 276 320 379
#     4  10  20  38  64  96 126 152 214 276 320 378
#     4  11  24  42  66  92 132 176 216 259 336 385
#     4   9  18  36  57  85 114 159 210 254 308 375
#     4  10  21  35  57  86 122 166 214 269 312 370
#     4  10  22  36  65  93 123 166 211 264 321 395
#     4   9  19  39  58  88 121 167 211 256 318 383
#
# _framework density 22.461770999999999
#
# number of rings (size 3 to 8) (size 9 to 14) (size 15 to 20)
#    0.000    2.133    1.333    0.800    5.600    2.667 
#    0.000    0.000    0.000   19.200    0.000    0.000 
#    0.000    0.000    0.000    0.000    0.000    0.000 
#
# Total GULP energy -83552.002816 kJ/mol
# GULP energy per Si atom -5570.133521 kJ/mol
# Density = 2.241065 g / cm^3
# Si number density = 22.461771 Si / 1000 Ang^3
#
#
#
# Elastic Constant Matrix: (Units=GPa)
#
#
# Indices 1 2 3 4 5 6 
#
# 1 60.9778 -15.4442 22.5968 0.0000 29.5305 0.0000
# 2 -15.4442 62.3783 32.1522 0.0000 6.0835 0.0000
# 3 22.5968 32.1522 136.1008 0.0000 51.6878 0.0000
# 4 0.0000 0.0000 0.0000 38.1959 0.0000 6.4868
# 5 29.5305 6.0835 51.6878 0.0000 39.9915 0.0000
# 6 0.0000 0.0000 0.0000 6.4868 0.0000 8.5439
#
#
#
# Elastic Compliance Matrix: (Units=1/GPa)
#
#
# Indices 1 2 3 4 5 6 
#
# 1 0.031532 0.008624 0.004062 0.000000 -0.029847 0.000000
# 2 0.008624 0.021248 -0.005510 0.000000 -0.002479 0.000000
# 3 0.004062 -0.005510 0.017275 0.000000 -0.024489 0.000000
# 4 0.000000 0.000000 0.000000 0.030056 0.000000 -0.022820
# 5 -0.029847 -0.002479 -0.024489 0.000000 0.079073 0.000000
# 6 0.000000 0.000000 0.000000 -0.022820 0.000000 0.134369
#
#
# Mechanical properties :
#
#
# Convention : Reuss Voigt Hill
#
# Bulk Modulus (GPa) = 11.84717 37.56296 24.70506
# Shear Modulus (GPa) = 15.27475 32.02307 23.64891
#
# Velocity S-wave (km/s) = 2.61057 3.77990 3.24829
# Velocity P-wave (km/s) = 3.79112 5.98411 5.00910
#
# Compressibility (1/GPa) = 0.08440836
#
# Stress axis : x y z
#
# Youngs Moduli (GPa) = 31.71333 47.06255 57.88689
#
# Poissons Ratio (x) = -0.40587 -0.23516
# Poissons Ratio (y) = -0.27350 0.31896
# Poissons Ratio (z) = -0.12883 0.25932
#
# Static dielectric constant tensor:
#      x y z
#    x 1.933800 0.000000 -0.046660 
#    y 0.000000 1.909960 0.000000 
#    z -0.046660 0.000000 1.933680 
# 
# From -- ./inp_files/8288.got.cif
#   From: 2010.05.17/outbox.cif.g08.bks.cpg/sg3_5_cif.got.tgz:8288.got - 2010.06.03 18:33:08.
