data_PCOD9113833
_publ_section_title
;
Structure prediction by ZEFSAII (Michael W. Deem and Ramdas Pophale) SiO2 
 PCOD9113833
Probable space group: P 2
;
_chemical_formula_sum "Si O2"
_cell_formula_units_Z 8
_cell_length_a 5.365451
_cell_length_b 4.601768
_cell_length_c 14.026841
_cell_angle_alpha 90.000000
_cell_angle_beta 129.377234
_cell_angle_gamma 90.000000
_cell_volume 267.708584
_symmetry_space_group_name_H-M "P 2"
_symmetry_group_IT_number 3
_symmetry_cell_setting 'monoclinic'
loop_
_space_group_symop_operation_xyz
x,y,z
-x,y,-z
loop_
_atom_site_type_symbol
_atom_site_label
_atom_site_fract_x
_atom_site_fract_y
_atom_site_fract_z
Si Si1 0.380306 0.266850 0.575544
Si Si2 0.904765 0.829491 0.713778
Si Si3 0.215594 0.903371 0.981041
Si Si4 0.358647 0.294773 0.775156
O O1 0.500000 0.386324 0.500000
O O2 0.540129 0.943461 0.611807
O O3 0.502397 0.399532 0.708206
O O4 0.127809 0.020087 0.696801
O O5 0.613439 0.156779 0.914192
O O6 0.992031 0.966330 0.838218
O O7 0.903566 0.526517 0.249870
O O8 0.500000 0.733101 0.000000
O O9 0.000000 0.723823 0.000000
O O10 0.000000 0.302133 0.500000
#
# Coordination Sequence:
#
# PCOD9113833 Si02
#       4
#     2   2   2   2
#     4  12  26  55  82 127 168 236 288 352 418 502
#     4  11  26  52  82 123 171 220 279 352 429 507
#     4  10  22  46  78 118 164 216 262 342 428 504
#     4  11  26  52  82 123 171 220 279 352 429 507
#
# _framework density 29.883239
#
# number of rings (size 3 to 8) (size 9 to 14) (size 15 to 20)
#    0.000    1.000    5.000    0.000    0.000   11.000 
#    9.000   10.000    0.000    0.000    0.000    0.000 
#    0.000    0.000    0.000    0.000    0.000    0.000 
#
# Total GULP energy -44571.794720 kJ/mol
# GULP energy per Si atom -5571.474340 kJ/mol
# Density = 2.981522 g / cm^3
# Si number density = 29.883239 Si / 1000 Ang^3
#
#
#
# Elastic Constant Matrix: (Units=GPa)
#
#
# Indices 1 2 3 4 5 6 
#
# 1 248.4645 44.3982 71.1815 0.0000 -27.0861 0.0000
# 2 44.3982 136.8954 14.3392 0.0000 5.6020 0.0000
# 3 71.1815 14.3392 167.9135 0.0000 -20.5738 0.0000
# 4 0.0000 0.0000 0.0000 34.4521 0.0000 -3.3439
# 5 -27.0861 5.6020 -20.5738 0.0000 72.4639 0.0000
# 6 0.0000 0.0000 0.0000 -3.3439 0.0000 28.6204
#
#
#
# Elastic Compliance Matrix: (Units=1/GPa)
#
#
# Indices 1 2 3 4 5 6 
#
# 1 0.004964 -0.001481 -0.001799 0.000000 0.001459 0.000000
# 2 -0.001481 0.007855 -0.000192 0.000000 -0.001215 0.000000
# 3 -0.001799 -0.000192 0.006894 0.000000 0.001300 0.000000
# 4 0.000000 0.000000 0.000000 0.029359 0.000000 0.003430
# 5 0.001459 -0.001215 0.001300 0.000000 0.014808 0.000000
# 6 0.000000 0.000000 0.000000 0.003430 0.000000 0.035341
#
#
# Mechanical properties :
#
#
# Convention : Reuss Voigt Hill
#
# Bulk Modulus (GPa) = 78.31684 90.34571 84.33128
# Shear Modulus (GPa) = 45.28140 55.33092 50.30616
#
# Velocity S-wave (km/s) = 3.89688 4.30766 4.10741
# Velocity P-wave (km/s) = 6.81998 7.41888 7.12572
#
# Compressibility (1/GPa) = 0.01276865
#
# Stress axis : x y z
#
# Youngs Moduli (GPa) = 201.45680 127.30674 145.06022
#
# Poissons Ratio (x) = 0.18856 0.26096
# Poissons Ratio (y) = 0.29839 0.02782
# Poissons Ratio (z) = 0.36242 0.02442
#
# Static dielectric constant tensor:
#      x y z
#    x 2.437960 0.000000 0.039370 
#    y 0.000000 2.272950 0.000000 
#    z 0.039370 0.000000 2.709810 
# 
# From -- ./inp_files/9689.got.cif
#   From: 2010.05.17/outbox.cif.g08.bks.cpg/sg3_5_cif.got.tgz:9689.got - 2010.06.03 18:33:08.
