data_PCOD9113631
_publ_section_title
;
Structure prediction by ZEFSAII (Michael W. Deem and Ramdas Pophale) SiO2 
 PCOD9113631
Probable space group: P 2
;
_chemical_formula_sum "Si O2"
_cell_formula_units_Z 15
_cell_length_a 16.841925
_cell_length_b 8.991507
_cell_length_c 9.054238
_cell_angle_alpha 90.000000
_cell_angle_beta 150.382700
_cell_angle_gamma 90.000000
_cell_volume 677.614535
_symmetry_space_group_name_H-M "P 2"
_symmetry_group_IT_number 3
_symmetry_cell_setting 'monoclinic'
loop_
_space_group_symop_operation_xyz
x,y,z
-x,y,-z
loop_
_atom_site_type_symbol
_atom_site_label
_atom_site_fract_x
_atom_site_fract_y
_atom_site_fract_z
Si Si1 0.492721 0.233050 0.813223
Si Si2 0.843281 0.581641 0.927379
Si Si3 0.655575 0.750700 0.855136
Si Si4 0.030334 0.289242 0.722956
Si Si5 0.671717 0.080582 0.862803
Si Si6 0.524367 0.562675 0.215222
Si Si7 0.000000 0.835537 0.000000
Si Si8 0.152763 0.128846 0.334747
O O1 0.613571 0.123372 0.931441
O O2 0.529538 0.398939 0.817742
O O3 0.308660 0.183201 0.500258
O O4 0.500000 0.232839 0.000000
O O5 0.760194 0.625999 0.946547
O O6 0.705032 0.569324 0.576011
O O7 0.943480 0.724076 0.035945
O O8 0.941083 0.434461 0.128477
O O9 0.500000 0.765447 0.500000
O O10 0.585307 0.691989 0.894428
O O11 0.734111 0.912096 0.972526
O O12 0.000000 0.325007 0.500000
O O13 0.885830 0.194562 0.565627
O O14 0.191544 0.187765 0.979103
O O15 0.500000 0.093434 0.500000
O O16 0.500000 0.565853 0.000000
O O17 0.866982 0.950384 0.719236
O O18 0.000000 0.189186 0.000000
#
# Coordination Sequence:
#
# PCOD9113631 Si02
#       8
#     2   2   2   2   2   2   1   2
#     4  11  23  39  63  97 131 169 219 282 329 398
#     4  11  23  45  66  97 132 185 224 281 347 402
#     4   9  21  39  65  96 136 169 221 281 342 415
#     4  12  26  45  69 102 138 183 233 284 340 417
#     4  11  22  41  70  95 127 179 224 276 340 399
#     4  10  22  40  67 100 136 171 229 281 347 405
#     4  10  26  42  70  92 134 184 232 282 342 420
#     4  10  23  43  68  97 132 178 229 279 341 408
#
# _framework density 22.136479999999999
#
# number of rings (size 3 to 8) (size 9 to 14) (size 15 to 20)
#    0.400    1.067    0.000    4.800    8.400    2.667 
#    2.400    1.333    0.000    0.000    0.000    0.000 
#    0.000    0.000    0.000    0.000    0.000    0.000 
#
# Total GULP energy -83659.533197 kJ/mol
# GULP energy per Si atom -5577.302213 kJ/mol
# Density = 2.208610 g / cm^3
# Si number density = 22.136480 Si / 1000 Ang^3
#
#
#
# Elastic Constant Matrix: (Units=GPa)
#
#
# Indices 1 2 3 4 5 6 
#
# 1 93.8326 37.0955 21.0259 0.0000 -7.0341 0.0000
# 2 37.0955 127.8811 30.1579 0.0000 -10.3993 0.0000
# 3 21.0259 30.1579 79.9346 0.0000 -13.4271 0.0000
# 4 0.0000 0.0000 0.0000 -12.3431 0.0000 -26.0141
# 5 -7.0341 -10.3993 -13.4271 0.0000 23.1115 0.0000
# 6 0.0000 0.0000 0.0000 -26.0141 0.0000 -105.3614
#
#
#
# Elastic Compliance Matrix: (Units=1/GPa)
#
#
# Indices 1 2 3 4 5 6 
#
# 1 0.012380 -0.003039 -0.001891 0.000000 0.001302 0.000000
# 2 -0.003039 0.009431 -0.002439 0.000000 0.001901 0.000000
# 3 -0.001891 -0.002439 0.015123 0.000000 0.007113 0.000000
# 4 0.000000 0.000000 0.000000 -0.168916 0.000000 0.041706
# 5 0.001302 0.001901 0.007113 0.000000 0.048653 0.000000
# 6 0.000000 0.000000 0.000000 0.041706 0.000000 -0.019789
#
#
# Mechanical properties :
#
#
# Convention : Reuss Voigt Hill
#
# Bulk Modulus (GPa) = 45.05621 53.13409 49.09515
# Shear Modulus (GPa) = -61.74355 -4.69399 -33.21877
#
# Velocity S-wave (km/s) = -5.28704 -1.45777 -3.87801
# Velocity P-wave (km/s) = 4.10760 4.60669 1.47467
#
# Compressibility (1/GPa) = 0.02219450
#
# Stress axis : x y z
#
# Youngs Moduli (GPa) = 80.77421 106.02964 66.12547
#
# Poissons Ratio (x) = 0.32227 0.12505
# Poissons Ratio (y) = 0.24550 0.16131
# Poissons Ratio (z) = 0.15275 0.25865
#
# Static dielectric constant tensor:
#      x y z
#    x 1.925170 0.000000 -0.160060 
#    y 0.000000 1.849190 0.000000 
#    z -0.160060 0.000000 2.188410 
# 
# From -- ./inp_files/9168.got.cif
#   From: 2010.05.17/outbox.cif.g08.bks.cpg/sg3_5_cif.got.tgz:9168.got - 2010.06.03 18:33:08.
