data_PCOD9113983
_publ_section_title
;
Structure prediction by ZEFSAII (Michael W. Deem and Ramdas Pophale) SiO2 
 PCOD9113983
Probable space group: P 2
;
_chemical_formula_sum "Si O2"
_cell_formula_units_Z 14
_cell_length_a 6.141409
_cell_length_b 5.991732
_cell_length_c 16.885897
_cell_angle_alpha 90.000000
_cell_angle_beta 93.931800
_cell_angle_gamma 90.000000
_cell_volume 619.899329
_symmetry_space_group_name_H-M "P 2"
_symmetry_group_IT_number 3
_symmetry_cell_setting 'monoclinic'
loop_
_space_group_symop_operation_xyz
x,y,z
-x,y,-z
loop_
_atom_site_type_symbol
_atom_site_label
_atom_site_fract_x
_atom_site_fract_y
_atom_site_fract_z
Si Si1 0.550369 0.875000 0.783654
Si Si2 0.086937 0.525230 0.148416
Si Si3 0.000000 0.806215 0.000000
Si Si4 0.527126 0.191023 0.642209
Si Si5 0.637979 0.146276 0.931707
Si Si6 0.500000 0.877855 0.500000
Si Si7 0.805485 0.538304 0.287906
Si Si8 0.858130 0.532214 0.570605
O O1 0.740509 0.700018 0.809824
O O2 0.344638 0.738411 0.746765
O O3 0.620232 0.041306 0.715529
O O4 0.501030 0.018344 0.860901
O O5 0.959044 0.653097 0.075567
O O6 0.219517 0.328581 0.110072
O O7 0.931721 0.444597 0.214682
O O8 0.203599 0.962784 0.025428
O O9 0.347678 0.354734 0.674973
O O10 0.712184 0.339380 0.605582
O O11 0.431610 0.031854 0.571839
O O12 0.500000 0.247387 0.000000
O O13 0.695750 0.721972 0.534895
O O14 0.979137 0.616548 0.357423
O O15 0.000000 0.450190 0.500000
#
# Coordination Sequence:
#
# PCOD9113983 Si02
#       8
#     2   2   1   2   2   1   2   2
#     4  11  25  45  69  99 137 179 224 277 339 399
#     4  11  25  45  69 100 139 179 227 281 334 399
#     4  10  24  42  68 102 134 180 230 276 340 400
#     4  12  26  46  71 101 135 175 225 277 334 400
#     4  11  24  44  69  99 137 180 227 280 337 397
#     4  12  26  48  70 100 138 176 222 274 338 402
#     4  12  25  45  70  99 135 177 225 276 334 401
#     4  12  26  47  72 101 135 175 223 276 335 401
#
# _framework density 22.584312000000001
#
# number of rings (size 3 to 8) (size 9 to 14) (size 15 to 20)
#    0.000    0.571    0.000    8.571    0.000   13.143 
#    0.000    4.286    0.000    0.000    0.000    0.000 
#    0.000    0.000    0.000    0.000    0.000    0.000 
#
# Total GULP energy -78485.373720 kJ/mol
# GULP energy per Si atom -5606.098123 kJ/mol
# Density = 2.253291 g / cm^3
# Si number density = 22.584312 Si / 1000 Ang^3
#
#
#
# Elastic Constant Matrix: (Units=GPa)
#
#
# Indices 1 2 3 4 5 6 
#
# 1 116.8522 70.8942 95.7439 0.0000 -20.5664 0.0000
# 2 70.8942 122.8930 88.4180 0.0000 -2.0808 0.0000
# 3 95.7439 88.4180 206.1218 0.0000 -8.0230 0.0000
# 4 0.0000 0.0000 0.0000 27.7877 0.0000 7.7111
# 5 -20.5664 -2.0808 -8.0230 0.0000 64.0536 0.0000
# 6 0.0000 0.0000 0.0000 7.7111 0.0000 15.8254
#
#
#
# Elastic Compliance Matrix: (Units=1/GPa)
#
#
# Indices 1 2 3 4 5 6 
#
# 1 0.017481 -0.006212 -0.005270 0.000000 0.004751 0.000000
# 2 -0.006212 0.013981 -0.003187 0.000000 -0.001940 0.000000
# 3 -0.005270 -0.003187 0.008639 0.000000 -0.000714 0.000000
# 4 0.000000 0.000000 0.000000 0.041614 0.000000 -0.020277
# 5 0.004751 -0.001940 -0.000714 0.000000 0.016985 0.000000
# 6 0.000000 0.000000 0.000000 -0.020277 0.000000 0.073070
#
#
# Mechanical properties :
#
#
# Convention : Reuss Voigt Hill
#
# Bulk Modulus (GPa) = 92.92178 106.21993 99.57085
# Shear Modulus (GPa) = 24.42633 34.25407 29.34020
#
# Velocity S-wave (km/s) = 3.29228 3.89873 3.60827
# Velocity P-wave (km/s) = 7.46229 8.20984 7.84498
#
# Compressibility (1/GPa) = 0.01076174
#
# Stress axis : x y z
#
# Youngs Moduli (GPa) = 57.20405 71.52475 115.75394
#
# Poissons Ratio (x) = 0.44433 0.61006
# Poissons Ratio (y) = 0.35537 0.36894
# Poissons Ratio (z) = 0.30149 0.22797
#
# Static dielectric constant tensor:
#      x y z
#    x 1.817000 0.000000 0.001860 
#    y 0.000000 1.815110 0.000000 
#    z 0.001860 0.000000 1.826840 
# 
# From -- ./inp_files/14614.got.cif
#   From: 2010.05.17/outbox.cif.g08.bks.cpg/sg3_8_cif.got.tgz:14614.got - 2010.06.03 18:33:08.
