data_PCOD9113864
_publ_section_title
;
Structure prediction by ZEFSAII (Michael W. Deem and Ramdas Pophale) SiO2 
 PCOD9113864
Probable space group: P 2
;
_chemical_formula_sum "Si O2"
_cell_formula_units_Z 14
_cell_length_a 18.556596
_cell_length_b 4.756508
_cell_length_c 5.206073
_cell_angle_alpha 90.000000
_cell_angle_beta 97.144559
_cell_angle_gamma 90.000000
_cell_volume 455.944062
_symmetry_space_group_name_H-M "P 2"
_symmetry_group_IT_number 3
_symmetry_cell_setting 'monoclinic'
loop_
_space_group_symop_operation_xyz
x,y,z
-x,y,-z
loop_
_atom_site_type_symbol
_atom_site_label
_atom_site_fract_x
_atom_site_fract_y
_atom_site_fract_z
Si Si1 0.500000 0.579690 0.500000
Si Si2 0.076998 0.384422 0.475894
Si Si3 0.342692 0.107502 0.026845
Si Si4 0.925148 0.767708 0.027254
Si Si5 0.235614 0.351224 0.669305
Si Si6 0.221863 0.745947 0.143064
Si Si7 0.500000 0.189630 0.000000
Si Si8 0.656843 0.621134 0.568238
O O1 0.497947 0.383343 0.748309
O O2 0.575233 0.747704 0.527237
O O3 0.076172 0.521319 0.192066
O O4 0.152808 0.227675 0.559216
O O5 0.000000 0.234421 0.500000
O O6 0.075261 0.635497 0.690253
O O7 0.347112 0.366958 0.224821
O O8 0.304536 0.876127 0.221869
O O9 0.276457 0.061900 0.795993
O O10 0.423133 0.027293 0.979212
O O11 0.849953 0.921480 0.920942
O O12 0.000000 0.923120 0.000000
O O13 0.331174 0.471149 0.699702
O O14 0.217552 0.520935 0.921658
O O15 0.235320 0.569908 0.412505
#
# Coordination Sequence:
#
# PCOD9113864 Si02
#       8
#     1   2   2   2   2   2   1   2
#     4  12  26  44  72  96 142 184 232 298 360 426
#     4   9  17  30  58  92 125 173 224 276 340 413
#     4  10  24  42  66 100 131 182 234 286 358 428
#     4   9  16  31  58  90 126 172 225 275 341 412
#     4  11  19  42  65  92 140 179 231 294 349 424
#     4   9  21  39  60  95 129 174 231 282 348 416
#     4  12  26  46  68 102 136 184 236 292 366 424
#     4  10  23  41  65  96 134 182 233 290 357 426
#
# _framework density 30.705518000000001
#
# number of rings (size 3 to 8) (size 9 to 14) (size 15 to 20)
#    0.857    1.143    2.857    0.857    0.000    3.429 
#    2.571    0.000    0.000   13.714    0.000    0.000 
#    0.000    0.000    0.000    0.000    0.000    0.000 
#
# Total GULP energy -78140.818677 kJ/mol
# GULP energy per Si atom -5581.487048 kJ/mol
# Density = 3.063563 g / cm^3
# Si number density = 30.705518 Si / 1000 Ang^3
#
#
#
# Elastic Constant Matrix: (Units=GPa)
#
#
# Indices 1 2 3 4 5 6 
#
# 1 275.6564 21.2568 22.6057 0.0000 59.7840 0.0000
# 2 21.2568 52.5132 23.4749 0.0000 20.3052 0.0000
# 3 22.6057 23.4749 198.4434 0.0000 -3.2037 0.0000
# 4 0.0000 0.0000 0.0000 25.1519 0.0000 17.9512
# 5 59.7840 20.3052 -3.2037 0.0000 47.1047 0.0000
# 6 0.0000 0.0000 0.0000 17.9512 0.0000 -2.0390
#
#
#
# Elastic Compliance Matrix: (Units=1/GPa)
#
#
# Indices 1 2 3 4 5 6 
#
# 1 0.005137 0.000993 -0.000816 0.000000 -0.007003 0.000000
# 2 0.000993 0.024796 -0.003243 0.000000 -0.012170 0.000000
# 3 -0.000816 -0.003243 0.005561 0.000000 0.002811 0.000000
# 4 0.000000 0.000000 0.000000 0.005459 0.000000 0.048058
# 5 -0.007003 -0.012170 0.002811 0.000000 0.035555 0.000000
# 6 0.000000 0.000000 0.000000 0.048058 0.000000 -0.067335
#
#
# Mechanical properties :
#
#
# Convention : Reuss Voigt Hill
#
# Bulk Modulus (GPa) = 34.05602 73.47643 53.76623
# Shear Modulus (GPa) = 199.27720 44.66190 121.96955
#
# Velocity S-wave (km/s) = 8.06476 3.81796 6.30940
# Velocity P-wave (km/s) = 9.89120 6.58916 8.40395
#
# Compressibility (1/GPa) = 0.02936338
#
# Stress axis : x y z
#
# Youngs Moduli (GPa) = 194.67200 40.32885 179.81909
#
# Poissons Ratio (x) = -0.04006 0.14668
# Poissons Ratio (y) = -0.19335 0.58313
# Poissons Ratio (z) = 0.15880 0.13078
#
# Static dielectric constant tensor:
#      x y z
#    x 4.060800 0.000000 0.481140 
#    y 0.000000 2.992120 0.000000 
#    z 0.481140 0.000000 2.693230 
# 
# From -- ./inp_files/3489.got.cif
#   From: 2010.05.17/outbox.cif.g08.bks.cpg/sg3_2_cif.got.tgz:3489.got - 2010.06.03 18:33:08.
