data_PCOD9113921
_publ_section_title
;
Structure prediction by ZEFSAII (Michael W. Deem and Ramdas Pophale) SiO2 
 PCOD9113921
Probable space group: P 2
;
_chemical_formula_sum "Si O2"
_cell_formula_units_Z 12
_cell_length_a 5.897720
_cell_length_b 6.915752
_cell_length_c 12.663667
_cell_angle_alpha 90.000000
_cell_angle_beta 88.138091
_cell_angle_gamma 90.000000
_cell_volume 516.242424
_symmetry_space_group_name_H-M "P 2"
_symmetry_group_IT_number 3
_symmetry_cell_setting 'monoclinic'
loop_
_space_group_symop_operation_xyz
x,y,z
-x,y,-z
loop_
_atom_site_type_symbol
_atom_site_label
_atom_site_fract_x
_atom_site_fract_y
_atom_site_fract_z
Si Si1 0.248730 0.460300 0.524026
Si Si2 0.404490 0.501393 0.754897
Si Si3 0.132723 0.223566 0.890957
Si Si4 0.253336 0.890507 0.450871
Si Si5 0.539361 0.876520 0.115275
Si Si6 0.746460 0.158523 0.750882
O O1 0.500000 0.366375 0.500000
O O2 0.258965 0.511744 0.648992
O O3 0.254860 0.656609 0.454068
O O4 0.000000 0.370076 0.500000
O O5 0.300096 0.397705 0.860418
O O6 0.459068 0.715482 0.794463
O O7 0.607891 0.352010 0.728220
O O8 0.989533 0.219993 0.785847
O O9 0.238145 0.009770 0.894433
O O10 0.000000 0.265052 0.000000
O O11 0.500000 0.936630 0.500000
O O12 0.000000 0.935454 0.500000
O O13 0.257205 0.008072 0.343152
O O14 0.355863 0.039732 0.148485
O O15 0.500000 0.792162 0.000000
#
# Coordination Sequence:
#
# PCOD9113921 Si02
#       6
#     2   2   2   2   2   2
#     4  10  23  45  72 106 149 193 251 308 370 447
#     4  11  28  44  74 107 145 193 250 310 374 445
#     4  11  26  47  70 107 147 188 246 307 377 451
#     4  10  23  44  75 102 145 197 245 302 374 444
#     4  11  24  45  74 104 143 192 247 305 380 448
#     4  11  26  47  72 103 146 193 244 307 376 449
#
# _framework density 23.244896000000001
#
# number of rings (size 3 to 8) (size 9 to 14) (size 15 to 20)
#    0.000    1.333    1.667    2.000   14.000    2.667 
#    0.000    0.000    0.000    0.000    0.000    0.000 
#    0.000    0.000    0.000    0.000    0.000    0.000 
#
# Total GULP energy -66928.943227 kJ/mol
# GULP energy per Si atom -5577.411936 kJ/mol
# Density = 2.319199 g / cm^3
# Si number density = 23.244896 Si / 1000 Ang^3
#
#
#
# Elastic Constant Matrix: (Units=GPa)
#
#
# Indices 1 2 3 4 5 6 
#
# 1 120.5427 22.4825 29.7729 0.0000 0.8372 0.0000
# 2 22.4825 122.5971 24.3684 0.0000 -5.4951 0.0000
# 3 29.7729 24.3684 93.3016 0.0000 2.5328 0.0000
# 4 0.0000 0.0000 0.0000 95.0643 0.0000 58.5886
# 5 0.8372 -5.4951 2.5328 0.0000 34.8450 0.0000
# 6 0.0000 0.0000 0.0000 58.5886 0.0000 55.4234
#
#
#
# Elastic Compliance Matrix: (Units=1/GPa)
#
#
# Indices 1 2 3 4 5 6 
#
# 1 0.009161 -0.001170 -0.002612 0.000000 -0.000215 0.000000
# 2 -0.001170 0.008834 -0.001976 0.000000 0.001565 0.000000
# 3 -0.002612 -0.001976 0.012098 0.000000 -0.001128 0.000000
# 4 0.000000 0.000000 0.000000 0.030184 0.000000 -0.031908
# 5 -0.000215 0.001565 -0.001128 0.000000 0.029032 0.000000
# 6 0.000000 0.000000 0.000000 -0.031908 0.000000 0.051773
#
#
# Mechanical properties :
#
#
# Convention : Reuss Voigt Hill
#
# Bulk Modulus (GPa) = 53.83209 54.40989 54.12099
# Shear Modulus (GPa) = 31.48767 54.38772 42.93769
#
# Velocity S-wave (km/s) = 3.68449 4.84236 4.30256
# Velocity P-wave (km/s) = 6.42725 7.39748 6.92937
#
# Compressibility (1/GPa) = 0.01857628
#
# Stress axis : x y z
#
# Youngs Moduli (GPa) = 109.16238 113.19359 82.65737
#
# Poissons Ratio (x) = 0.13249 0.21587
# Poissons Ratio (y) = 0.12777 0.16336
# Poissons Ratio (z) = 0.28510 0.22371
#
# Static dielectric constant tensor:
#      x y z
#    x 1.974730 0.000000 -0.012520 
#    y 0.000000 1.813840 0.000000 
#    z -0.012520 0.000000 1.666650 
# 
# From -- ./inp_files/9805.got.cif
#   From: 2010.05.17/outbox.cif.g08.bks.cpg/sg3_5_cif.got.tgz:9805.got - 2010.06.03 18:33:08.
