data_PCOD9113898
_publ_section_title
;
Structure prediction by ZEFSAII (Michael W. Deem and Ramdas Pophale) SiO2 
 PCOD9113898
Probable space group: P 2
;
_chemical_formula_sum "Si O2"
_cell_formula_units_Z 12
_cell_length_a 22.040431
_cell_length_b 4.931439
_cell_length_c 13.555159
_cell_angle_alpha 90.000000
_cell_angle_beta 160.653274
_cell_angle_gamma 90.000000
_cell_volume 488.088743
_symmetry_space_group_name_H-M "P 2"
_symmetry_group_IT_number 3
_symmetry_cell_setting 'monoclinic'
loop_
_space_group_symop_operation_xyz
x,y,z
-x,y,-z
loop_
_atom_site_type_symbol
_atom_site_label
_atom_site_fract_x
_atom_site_fract_y
_atom_site_fract_z
Si Si1 0.376147 0.107040 0.724500
Si Si2 0.350135 0.864250 0.494355
Si Si3 0.597046 0.189286 0.737365
Si Si4 0.849624 0.788210 0.008032
Si Si5 0.660609 0.431973 0.023532
Si Si6 0.918541 0.302365 0.590991
O O1 0.523432 0.256706 0.881742
O O2 0.240796 0.314074 0.570756
O O3 0.273385 0.927445 0.485091
O O4 0.500000 0.966757 0.000000
O O5 0.428906 0.115588 0.551980
O O6 0.533707 0.687609 0.798810
O O7 0.204269 0.767579 0.190172
O O8 0.500000 0.352623 0.500000
O O9 0.724897 0.315696 0.016805
O O10 0.689088 0.928880 0.826620
O O11 0.906873 0.484483 0.119315
O O12 0.017297 0.989372 0.296874
O O13 0.834334 0.425027 0.361856
#
# Coordination Sequence:
#
# PCOD9113898 Si02
#       6
#     2   2   2   2   2   2
#     4   9  22  43  69  98 134 182 236 284 340 426
#     4  10  23  43  74  98 132 193 241 279 346 430
#     4   9  22  43  69  98 134 182 236 284 340 426
#     4  11  27  46  68 106 147 179 228 300 364 413
#     4  10  23  43  74  98 132 193 241 279 346 430
#     4  11  27  46  68 106 147 179 228 300 364 413
#
# _framework density 24.585692000000002
#
# number of rings (size 3 to 8) (size 9 to 14) (size 15 to 20)
#    0.000    2.000    0.000    0.000   18.667    2.667 
#    0.000    0.000    0.000    0.000    0.000    0.000 
#    0.000    0.000    0.000    0.000    0.000    0.000 
#
# Total GULP energy -66840.623527 kJ/mol
# GULP energy per Si atom -5570.051961 kJ/mol
# Density = 2.452973 g / cm^3
# Si number density = 24.585692 Si / 1000 Ang^3
#
#
#
# Elastic Constant Matrix: (Units=GPa)
#
#
# Indices 1 2 3 4 5 6 
#
# 1 156.3581 31.1697 73.5631 0.0000 -59.0305 0.0000
# 2 31.1697 57.4545 12.6954 0.0000 -16.5555 0.0000
# 3 73.5631 12.6954 135.0829 0.0000 -43.4081 0.0000
# 4 0.0000 0.0000 0.0000 38.2381 0.0000 -0.0811
# 5 -59.0305 -16.5555 -43.4081 0.0000 54.0548 0.0000
# 6 0.0000 0.0000 0.0000 -0.0811 0.0000 22.6391
#
#
#
# Elastic Compliance Matrix: (Units=1/GPa)
#
#
# Indices 1 2 3 4 5 6 
#
# 1 0.012237 -0.003095 -0.003213 0.000000 0.009836 0.000000
# 2 -0.003095 0.019874 0.000927 0.000000 0.003451 0.000000
# 3 -0.003213 0.000927 0.010822 0.000000 0.005466 0.000000
# 4 0.000000 0.000000 0.000000 0.026152 0.000000 0.000094
# 5 0.009836 0.003451 0.005466 0.000000 0.034688 0.000000
# 6 0.000000 0.000000 0.000000 0.000094 0.000000 0.044172
#
#
# Mechanical properties :
#
#
# Convention : Reuss Voigt Hill
#
# Bulk Modulus (GPa) = 31.08356 64.86133 47.97244
# Shear Modulus (GPa) = 29.51077 38.41755 33.96416
#
# Velocity S-wave (km/s) = 3.46833 3.95726 3.72083
# Velocity P-wave (km/s) = 5.35812 6.87887 6.16556
#
# Compressibility (1/GPa) = 0.03217135
#
# Stress axis : x y z
#
# Youngs Moduli (GPa) = 81.71613 50.31756 92.40733
#
# Poissons Ratio (x) = 0.15572 0.29687
# Poissons Ratio (y) = 0.25290 -0.08563
# Poissons Ratio (z) = 0.26252 -0.04662
#
# Static dielectric constant tensor:
#      x y z
#    x 1.950660 0.000000 -0.045080 
#    y 0.000000 2.057390 0.000000 
#    z -0.045080 0.000000 2.253480 
# 
# From -- ./inp_files/6694.got.cif
#   From: 2010.05.17/outbox.cif.g08.bks.cpg/sg3_4_cif.got.tgz:6694.got - 2010.06.03 18:33:08.
