data_PCOD9113740
_publ_section_title
;
Structure prediction by ZEFSAII (Michael W. Deem and Ramdas Pophale) SiO2 
 PCOD9113740
Probable space group: P 2
;
_chemical_formula_sum "Si O2"
_cell_formula_units_Z 16
_cell_length_a 18.809095
_cell_length_b 8.572675
_cell_length_c 8.766102
_cell_angle_alpha 90.000000
_cell_angle_beta 33.702236
_cell_angle_gamma 90.000000
_cell_volume 784.309400
_symmetry_space_group_name_H-M "P 2"
_symmetry_group_IT_number 3
_symmetry_cell_setting 'monoclinic'
loop_
_space_group_symop_operation_xyz
x,y,z
-x,y,-z
loop_
_atom_site_type_symbol
_atom_site_label
_atom_site_fract_x
_atom_site_fract_y
_atom_site_fract_z
Si Si1 0.373394 0.243040 0.784104
Si Si2 0.074132 0.772849 0.207382
Si Si3 0.142291 0.594472 0.588169
Si Si4 0.625548 0.146250 0.875847
Si Si5 0.151576 0.476740 0.232351
Si Si6 0.635385 0.822999 0.720301
Si Si7 0.269855 0.022358 0.731073
Si Si8 0.853919 0.264787 0.271371
O O1 0.500000 0.330088 0.500000
O O2 0.353481 0.088596 0.719094
O O3 0.397423 0.200019 0.914446
O O4 0.245080 0.344273 0.008470
O O5 0.161800 0.628449 0.106556
O O6 0.000000 0.812978 0.500000
O O7 0.980318 0.699203 0.245358
O O8 0.154189 0.916407 0.000441
O O9 0.182048 0.523447 0.352119
O O10 0.248262 0.707866 0.466032
O O11 0.132767 0.450377 0.723481
O O12 0.760619 0.211722 0.574538
O O13 0.639933 0.960834 0.836616
O O14 0.500000 0.190301 0.000000
O O15 0.000000 0.432264 0.500000
O O16 0.653208 0.917406 0.529530
O O17 0.500000 0.742959 0.000000
O O18 0.216939 0.178669 0.741821
O O19 0.000000 0.205426 0.000000
#
# Coordination Sequence:
#
# PCOD9113740 Si02
#       8
#     2   2   2   2   2   2   2   2
#     4  12  24  43  70  99 136 177 222 281 343 401
#     4   9  23  44  66  97 138 169 228 279 336 402
#     4  10  22  43  68  94 132 185 214 284 332 400
#     4  10  23  46  67  95 137 175 225 276 332 412
#     4   9  22  45  65  97 135 178 221 277 342 398
#     4  10  23  44  64  95 134 175 228 273 328 400
#     4  11  27  41  66 104 130 180 219 281 336 400
#     4  11  25  40  66 103 133 174 224 273 333 393
#
# _framework density 20.400115
#
# number of rings (size 3 to 8) (size 9 to 14) (size 15 to 20)
#    0.000    2.000    1.250    2.250   12.250    1.000 
#    4.500    0.000    0.000    0.000    0.000    0.000 
#    0.000    0.000    0.000    0.000    0.000    0.000 
#
# Total GULP energy -89219.217622 kJ/mol
# GULP energy per Si atom -5576.201101 kJ/mol
# Density = 2.035368 g / cm^3
# Si number density = 20.400115 Si / 1000 Ang^3
#
#
#
# Elastic Constant Matrix: (Units=GPa)
#
#
# Indices 1 2 3 4 5 6 
#
# 1 109.9419 50.8258 43.9117 0.0000 8.8257 0.0000
# 2 50.8258 73.0862 46.2801 0.0000 2.4270 0.0000
# 3 43.9117 46.2801 111.3169 0.0000 4.4008 0.0000
# 4 0.0000 0.0000 0.0000 13.7872 0.0000 9.4622
# 5 8.8257 2.4270 4.4008 0.0000 21.9999 0.0000
# 6 0.0000 0.0000 0.0000 9.4622 0.0000 20.0385
#
#
#
# Elastic Compliance Matrix: (Units=1/GPa)
#
#
# Indices 1 2 3 4 5 6 
#
# 1 0.014115 -0.008490 -0.001866 0.000000 -0.004353 0.000000
# 2 -0.008490 0.023684 -0.006581 0.000000 0.002109 0.000000
# 3 -0.001866 -0.006581 0.012496 0.000000 -0.001025 0.000000
# 4 0.000000 0.000000 0.000000 0.107306 0.000000 -0.050670
# 5 -0.004353 0.002109 -0.001025 0.000000 0.047173 0.000000
# 6 0.000000 0.000000 0.000000 -0.050670 0.000000 0.073830
#
#
# Mechanical properties :
#
#
# Convention : Reuss Voigt Hill
#
# Bulk Modulus (GPa) = 60.89775 64.04224 62.46999
# Shear Modulus (GPa) = 15.72562 21.38696 18.55629
#
# Velocity S-wave (km/s) = 2.77945 3.24137 3.01926
# Velocity P-wave (km/s) = 6.34168 6.74314 6.54549
#
# Compressibility (1/GPa) = 0.01642097
#
# Stress axis : x y z
#
# Youngs Moduli (GPa) = 70.84471 42.22346 80.02459
#
# Poissons Ratio (x) = 0.35846 0.14936
# Poissons Ratio (y) = 0.60145 0.52663
# Poissons Ratio (z) = 0.13223 0.27787
#
# Static dielectric constant tensor:
#      x y z
#    x 1.740400 0.000000 -0.004040 
#    y 0.000000 1.711500 0.000000 
#    z -0.004040 0.000000 1.774980 
# 
# From -- ./inp_files/9422.got.cif
#   From: 2010.05.17/outbox.cif.g08.bks.cpg/sg3_5_cif.got.tgz:9422.got - 2010.06.03 18:33:08.
