data_PCOD9113117
_publ_section_title
;
Structure prediction by ZEFSAII (Michael W. Deem and Ramdas Pophale) SiO2 
 PCOD9113117
Probable space group: P 2
;
_chemical_formula_sum "Si O2"
_cell_formula_units_Z 14
_cell_length_a 17.595498
_cell_length_b 7.252636
_cell_length_c 7.311819
_cell_angle_alpha 90.000000
_cell_angle_beta 47.014735
_cell_angle_gamma 90.000000
_cell_volume 682.581425
_symmetry_space_group_name_H-M "P 2"
_symmetry_group_IT_number 3
_symmetry_cell_setting 'monoclinic'
loop_
_space_group_symop_operation_xyz
x,y,z
-x,y,-z
loop_
_atom_site_type_symbol
_atom_site_label
_atom_site_fract_x
_atom_site_fract_y
_atom_site_fract_z
Si Si1 0.668633 0.984620 0.606436
Si Si2 0.890493 0.498916 0.084646
Si Si3 0.110984 0.068384 0.924648
Si Si4 0.236217 0.671307 0.375327
Si Si5 0.833935 0.765705 0.882567
Si Si6 0.613952 0.406073 0.744655
Si Si7 0.391414 0.691939 0.575273
O O1 0.790552 0.001702 0.354502
O O2 0.606082 0.876375 0.553145
O O3 0.677939 0.833779 0.750702
O O4 0.627226 0.187523 0.706144
O O5 0.892650 0.604774 0.892097
O O6 0.821438 0.617071 0.340819
O O7 0.865122 0.285431 0.093236
O O8 0.000000 0.496205 0.000000
O O9 0.123392 0.953011 0.093326
O O10 0.000000 0.042605 0.000000
O O11 0.303262 0.484713 0.244050
O O12 0.159169 0.735518 0.344281
O O13 0.711656 0.727289 0.133020
O O14 0.626639 0.517151 0.531660
O O15 0.500000 0.450706 0.000000
O O16 0.500000 0.667403 0.500000
#
# Coordination Sequence:
#
# PCOD9113117 Si02
#       7
#     2   2   2   2   2   2   2
#     4  10  21  39  60  88 127 160 207 253 311 372
#     4  11  22  42  66  91 128 168 207 258 315 373
#     4  10  20  40  66  88 127 169 203 258 317 367
#     4  11  23  40  65  92 127 165 209 261 309 376
#     4  11  22  39  64  93 125 165 210 263 308 377
#     4  11  22  39  62  87 125 168 205 258 318 371
#     4  10  21  39  60  89 125 163 208 259 312 370
#
# _framework density 20.510373000000001
#
# number of rings (size 3 to 8) (size 9 to 14) (size 15 to 20)
#    0.000    1.429    5.714    1.286    0.000    5.714 
#    0.000    2.857    0.000    0.000    0.000    0.000 
#    0.000    0.000    0.000    0.000    0.000    0.000 
#
# Total GULP energy -77998.148040 kJ/mol
# GULP energy per Si atom -5571.296289 kJ/mol
# Density = 2.046369 g / cm^3
# Si number density = 20.510373 Si / 1000 Ang^3
#
#
#
# Elastic Constant Matrix: (Units=GPa)
#
#
# Indices 1 2 3 4 5 6 
#
# 1 95.6480 43.8291 -1.7224 0.0000 18.0451 0.0000
# 2 43.8291 157.0265 2.0663 0.0000 9.0066 0.0000
# 3 -1.7224 2.0663 18.5305 0.0000 -0.1139 0.0000
# 4 0.0000 0.0000 0.0000 14.5159 0.0000 -10.3321
# 5 18.0451 9.0066 -0.1139 0.0000 25.3861 0.0000
# 6 0.0000 0.0000 0.0000 -10.3321 0.0000 23.6121
#
#
#
# Elastic Compliance Matrix: (Units=1/GPa)
#
#
# Indices 1 2 3 4 5 6 
#
# 1 0.013612 -0.003334 0.001585 0.000000 -0.008486 0.000000
# 2 -0.003334 0.007327 -0.001128 0.000000 -0.000235 0.000000
# 3 0.001585 -0.001128 0.054235 0.000000 -0.000483 0.000000
# 4 0.000000 0.000000 0.000000 0.100052 0.000000 0.043780
# 5 -0.008486 -0.000235 -0.000483 0.000000 0.045505 0.000000
# 6 0.000000 0.000000 0.000000 0.043780 0.000000 0.061508
#
#
# Mechanical properties :
#
#
# Convention : Reuss Voigt Hill
#
# Bulk Modulus (GPa) = 14.40498 39.95012 27.17755
# Shear Modulus (GPa) = 16.07026 27.83830 21.95428
#
# Velocity S-wave (km/s) = 2.80218 3.68812 3.27524
# Velocity P-wave (km/s) = 4.18427 6.13650 5.25189
#
# Compressibility (1/GPa) = 0.06942044
#
# Stress axis : x y z
#
# Youngs Moduli (GPa) = 73.46432 136.47910 18.43816
#
# Poissons Ratio (x) = 0.45495 -0.02922
# Poissons Ratio (y) = 0.24489 0.02080
# Poissons Ratio (z) = -0.11643 0.15400
#
# Static dielectric constant tensor:
#      x y z
#    x 1.757020 0.000000 -0.002110 
#    y 0.000000 1.745190 0.000000 
#    z -0.002110 0.000000 1.792880 
# 
# From -- ./inp_files/8852.got.cif
#   From: 2010.05.17/outbox.cif.g08.bks.cpg/sg3_5_cif.got.tgz:8852.got - 2010.06.03 18:33:08.
