data_PCOD9113443
_publ_section_title
;
Structure prediction by ZEFSAII (Michael W. Deem and Ramdas Pophale) SiO2 
 PCOD9113443
Probable space group: P 2
;
_chemical_formula_sum "Si O2"
_cell_formula_units_Z 16
_cell_length_a 9.180598
_cell_length_b 11.785395
_cell_length_c 8.781034
_cell_angle_alpha 90.000000
_cell_angle_beta 50.457195
_cell_angle_gamma 90.000000
_cell_volume 732.654402
_symmetry_space_group_name_H-M "P 2"
_symmetry_group_IT_number 3
_symmetry_cell_setting 'monoclinic'
loop_
_space_group_symop_operation_xyz
x,y,z
-x,y,-z
loop_
_atom_site_type_symbol
_atom_site_label
_atom_site_fract_x
_atom_site_fract_y
_atom_site_fract_z
Si Si1 0.893036 0.980300 0.928808
Si Si2 0.858379 0.584130 0.457223
Si Si3 0.319115 0.192386 0.016021
Si Si4 0.311074 0.321189 0.722119
Si Si5 0.438723 0.819074 0.721019
Si Si6 0.145886 0.834670 0.541686
Si Si7 0.002973 0.355194 0.311676
Si Si8 0.443391 0.558304 0.714661
O O1 0.729780 0.897428 0.104711
O O2 0.799278 0.077671 0.891278
O O3 0.000000 0.035227 0.000000
O O4 0.053542 0.914554 0.728305
O O5 0.839293 0.707351 0.397428
O O6 0.958591 0.485198 0.298991
O O7 0.652376 0.539964 0.648914
O O8 0.000000 0.603276 0.500000
O O9 0.343918 0.221706 0.821757
O O10 0.500000 0.183151 0.000000
O O11 0.201117 0.300461 0.147336
O O12 0.500000 0.328969 0.500000
O O13 0.144762 0.297952 0.710056
O O14 0.310758 0.446794 0.806435
O O15 0.500000 0.831005 0.500000
O O16 0.641071 0.854535 0.659616
O O17 0.386387 0.687184 0.795143
O O18 0.000000 0.838606 0.500000
O O19 0.000000 0.348096 0.500000
O O20 0.500000 0.569107 0.500000
#
# Coordination Sequence:
#
# PCOD9113443 Si02
#       8
#     2   2   2   2   2   2   2   2
#     4  12  26  46  68  95 130 178 231 276 329 399
#     4   9  18  35  64 100 137 168 207 261 330 408
#     4  12  30  47  63  93 130 170 235 285 321 393
#     4  11  21  42  70  98 132 174 211 267 333 395
#     4  10  21  41  69 102 136 172 214 273 333 398
#     4  10  23  42  69 102 137 173 215 271 337 398
#     4  11  22  42  70  97 134 173 212 266 333 395
#     4   9  17  34  63 102 135 166 207 263 328 405
#
# _framework density 21.8384
#
# number of rings (size 3 to 8) (size 9 to 14) (size 15 to 20)
#    0.000    1.500    3.750    1.875    3.500    2.000 
#    2.250    0.000    0.000    0.000    0.000    0.000 
#    0.000    0.000    0.000    0.000    0.000    0.000 
#
# Total GULP energy -89094.328918 kJ/mol
# GULP energy per Si atom -5568.395557 kJ/mol
# Density = 2.178869 g / cm^3
# Si number density = 21.838400 Si / 1000 Ang^3
#
#
#
# Elastic Constant Matrix: (Units=GPa)
#
#
# Indices 1 2 3 4 5 6 
#
# 1 152.1972 8.4733 -0.2096 0.0000 -4.3592 0.0000
# 2 8.4733 61.8504 20.4353 0.0000 -3.0299 0.0000
# 3 -0.2096 20.4353 41.5803 0.0000 -1.1644 0.0000
# 4 0.0000 0.0000 0.0000 51.1715 0.0000 -4.0569
# 5 -4.3592 -3.0299 -1.1644 0.0000 24.5938 0.0000
# 6 0.0000 0.0000 0.0000 -4.0569 0.0000 62.6496
#
#
#
# Elastic Compliance Matrix: (Units=1/GPa)
#
#
# Indices 1 2 3 4 5 6 
#
# 1 0.006661 -0.001051 0.000581 0.000000 0.001079 0.000000
# 2 -0.001051 0.019560 -0.009569 0.000000 0.001770 0.000000
# 3 0.000581 -0.009569 0.028764 0.000000 0.000286 0.000000
# 4 0.000000 0.000000 0.000000 0.019643 0.000000 0.001272
# 5 0.001079 0.001770 0.000286 0.000000 0.041083 0.000000
# 6 0.000000 0.000000 0.000000 0.001272 0.000000 0.016044
#
#
# Mechanical properties :
#
#
# Convention : Reuss Voigt Hill
#
# Bulk Modulus (GPa) = 28.64933 34.78066 31.71500
# Shear Modulus (GPa) = 30.58666 42.81157 36.69912
#
# Velocity S-wave (km/s) = 3.74651 4.43242 4.10382
# Velocity P-wave (km/s) = 5.64467 6.49277 6.08352
#
# Compressibility (1/GPa) = 0.03490482
#
# Stress axis : x y z
#
# Youngs Moduli (GPa) = 150.13549 51.12369 34.76618
#
# Poissons Ratio (x) = 0.05375 -0.02018
# Poissons Ratio (y) = 0.15786 0.33268
# Poissons Ratio (z) = -0.08716 0.48920
#
# Static dielectric constant tensor:
#      x y z
#    x 1.830970 0.000000 -0.020640 
#    y 0.000000 1.853560 0.000000 
#    z -0.020640 0.000000 1.772360 
# 
# From -- ./inp_files/5971.got.cif
#   From: 2010.05.17/outbox.cif.g08.bks.cpg/sg3_3_cif.got.tgz:5971.got - 2010.06.03 18:33:08.
