data_PCOD9113173
_publ_section_title
;
Structure prediction by ZEFSAII (Michael W. Deem and Ramdas Pophale) SiO2 
 PCOD9113173
Probable space group: P 2
;
_chemical_formula_sum "Si O2"
_cell_formula_units_Z 14
_cell_length_a 12.645940
_cell_length_b 5.979893
_cell_length_c 8.682522
_cell_angle_alpha 90.000000
_cell_angle_beta 116.667030
_cell_angle_gamma 90.000000
_cell_volume 586.743196
_symmetry_space_group_name_H-M "P 2"
_symmetry_group_IT_number 3
_symmetry_cell_setting 'monoclinic'
loop_
_space_group_symop_operation_xyz
x,y,z
-x,y,-z
loop_
_atom_site_type_symbol
_atom_site_label
_atom_site_fract_x
_atom_site_fract_y
_atom_site_fract_z
Si Si1 0.731041 0.709720 0.765926
Si Si2 0.844683 0.657392 0.123082
Si Si3 0.384653 0.684375 0.832768
Si Si4 0.367246 0.015789 0.557226
Si Si5 0.156511 0.347611 0.360541
Si Si6 0.000000 0.578625 0.500000
Si Si7 0.000000 0.333022 0.000000
Si Si8 0.528753 0.388714 0.693790
O O1 0.817754 0.585330 0.704449
O O2 0.655938 0.503216 0.790974
O O3 0.651592 0.864052 0.605604
O O4 0.796556 0.820382 0.955283
O O5 0.724412 0.598170 0.137654
O O6 0.934676 0.715416 0.321054
O O7 0.915281 0.476916 0.062282
O O8 0.443746 0.497663 0.763672
O O9 0.336440 0.871653 0.685961
O O10 0.500000 0.772638 0.000000
O O11 0.275650 0.216669 0.472694
O O12 0.494958 0.128087 0.673334
O O13 0.090253 0.413112 0.472058
O O14 0.081990 0.214487 0.181255
O O15 0.500000 0.454535 0.500000
#
# Coordination Sequence:
#
# PCOD9113173 Si02
#       8
#     2   2   2   2   2   1   1   2
#     4  11  23  43  68  97 135 185 235 284 347 423
#     4  10  21  43  71  98 138 182 230 288 350 415
#     4  12  26  44  66 104 148 182 232 293 356 426
#     4  12  25  41  67 103 136 182 240 287 348 420
#     4  10  21  43  67  98 132 183 230 299 351 406
#     4  10  20  42  72  98 138 182 234 290 366 408
#     4   8  20  42  74  98 132 188 242 286 352 414
#     4  12  24  41  68  97 138 186 228 277 351 417
#
# _framework density 23.860524999999999
#
# number of rings (size 3 to 8) (size 9 to 14) (size 15 to 20)
#    0.000    1.143    4.286    1.714    2.000    0.571 
#    2.571   15.714    0.000    0.000    0.000    0.000 
#    0.000    0.000    0.000    0.000    0.000    0.000 
#
# Total GULP energy -78028.022928 kJ/mol
# GULP energy per Si atom -5573.430209 kJ/mol
# Density = 2.380622 g / cm^3
# Si number density = 23.860525 Si / 1000 Ang^3
#
#
#
# Elastic Constant Matrix: (Units=GPa)
#
#
# Indices 1 2 3 4 5 6 
#
# 1 160.9819 26.9533 32.3397 0.0000 -24.0255 0.0000
# 2 26.9533 31.1735 34.5914 0.0000 -10.8099 0.0000
# 3 32.3397 34.5914 183.5007 0.0000 -7.8584 0.0000
# 4 0.0000 0.0000 0.0000 -74.4349 0.0000 -31.5541
# 5 -24.0255 -10.8099 -7.8584 0.0000 41.5993 0.0000
# 6 0.0000 0.0000 0.0000 -31.5541 0.0000 9.5635
#
#
#
# Elastic Compliance Matrix: (Units=1/GPa)
#
#
# Indices 1 2 3 4 5 6 
#
# 1 0.007583 -0.005294 -0.000212 0.000000 0.002964 0.000000
# 2 -0.005294 0.048054 -0.007785 0.000000 0.007959 0.000000
# 3 -0.000212 -0.007785 0.006918 0.000000 -0.000838 0.000000
# 4 0.000000 0.000000 0.000000 -0.005601 0.000000 -0.018479
# 5 0.002964 0.007959 -0.000838 0.000000 0.027661 0.000000
# 6 0.000000 0.000000 0.000000 -0.018479 0.000000 0.043592
#
#
# Mechanical properties :
#
#
# Convention : Reuss Voigt Hill
#
# Bulk Modulus (GPa) = 27.79699 62.60275 45.19987
# Shear Modulus (GPa) = 29.97958 14.13037 22.05497
#
# Velocity S-wave (km/s) = 3.54849 2.43617 3.04358
# Velocity P-wave (km/s) = 5.33518 5.84869 5.59782
#
# Compressibility (1/GPa) = 0.03597512
#
# Stress axis : x y z
#
# Youngs Moduli (GPa) = 131.87214 20.80985 144.54114
#
# Poissons Ratio (x) = 0.11017 0.03057
# Poissons Ratio (y) = 0.69813 1.12522
# Poissons Ratio (z) = 0.02789 0.16200
#
# Static dielectric constant tensor:
#      x y z
#    x 1.949870 0.000000 0.087110 
#    y 0.000000 1.949550 0.000000 
#    z 0.087110 0.000000 2.010960 
# 
# From -- ./inp_files/8103.got.cif
#   From: 2010.05.17/outbox.cif.g08.bks.cpg/sg3_5_cif.got.tgz:8103.got - 2010.06.03 18:33:08.
