data_PCOD9113653
_publ_section_title
;
Structure prediction by ZEFSAII (Michael W. Deem and Ramdas Pophale) SiO2 
 PCOD9113653
Probable space group: P 2
;
_chemical_formula_sum "Si O2"
_cell_formula_units_Z 12
_cell_length_a 14.816609
_cell_length_b 8.189164
_cell_length_c 4.968106
_cell_angle_alpha 90.000000
_cell_angle_beta 68.246635
_cell_angle_gamma 90.000000
_cell_volume 559.881012
_symmetry_space_group_name_H-M "P 2"
_symmetry_group_IT_number 3
_symmetry_cell_setting 'monoclinic'
loop_
_space_group_symop_operation_xyz
x,y,z
-x,y,-z
loop_
_atom_site_type_symbol
_atom_site_label
_atom_site_fract_x
_atom_site_fract_y
_atom_site_fract_z
Si Si1 0.743900 0.207020 0.244148
Si Si2 0.890195 0.490158 0.164501
Si Si3 0.889777 0.708627 0.672590
Si Si4 0.257113 0.994850 0.293269
Si Si5 0.571801 0.414134 0.668160
Si Si6 0.571957 0.778002 0.673112
O O1 0.794368 0.093705 0.411244
O O2 0.813361 0.361744 0.136523
O O3 0.649293 0.276925 0.506064
O O4 0.723052 0.109835 0.990010
O O5 0.882747 0.648097 0.984430
O O6 0.875422 0.554677 0.484520
O O7 0.000000 0.426565 0.000000
O O8 0.810243 0.845856 0.717973
O O9 0.000000 0.767107 0.500000
O O10 0.350703 0.915984 0.339227
O O11 0.500000 0.424474 0.500000
O O12 0.619309 0.596019 0.618726
O O13 0.500000 0.384134 0.000000
O O14 0.500000 0.807547 0.500000
O O15 0.500000 0.768716 0.000000
#
# Coordination Sequence:
#
# PCOD9113653 Si02
#       6
#     2   2   2   2   2   2
#     4  12  25  39  62  96 131 165 203 262 328 378
#     4  10  22  42  67  93 126 171 217 258 305 374
#     4  10  22  42  67  93 126 171 217 258 305 374
#     4  12  25  39  62  96 131 165 203 262 328 378
#     4  10  22  41  64  87 116 162 215 260 304 366
#     4  10  22  41  64  87 116 162 215 260 304 366
#
# _framework density 21.433123999999999
#
# number of rings (size 3 to 8) (size 9 to 14) (size 15 to 20)
#    0.000    1.333    0.000    5.000    0.000    8.000 
#    0.000    0.000    0.000    0.000    0.000    0.000 
#    0.000    0.000    0.000    0.000    0.000    0.000 
#
# Total GULP energy -67001.411442 kJ/mol
# GULP energy per Si atom -5583.450954 kJ/mol
# Density = 2.138434 g / cm^3
# Si number density = 21.433124 Si / 1000 Ang^3
#
#
#
# Elastic Constant Matrix: (Units=GPa)
#
#
# Indices 1 2 3 4 5 6 
#
# 1 86.4059 50.8332 27.8948 0.0000 4.9999 0.0000
# 2 50.8332 82.5847 25.8506 0.0000 -8.0485 0.0000
# 3 27.8948 25.8506 112.3972 0.0000 25.9208 0.0000
# 4 0.0000 0.0000 0.0000 26.7313 0.0000 7.5557
# 5 4.9999 -8.0485 25.9208 0.0000 25.7627 0.0000
# 6 0.0000 0.0000 0.0000 7.5557 0.0000 -43.3991
#
#
#
# Elastic Compliance Matrix: (Units=1/GPa)
#
#
# Indices 1 2 3 4 5 6 
#
# 1 0.019553 -0.012720 -0.000177 0.000000 -0.007591 0.000000
# 2 -0.012720 0.023263 -0.005780 0.000000 0.015552 0.000000
# 3 -0.000177 -0.005780 0.013905 0.000000 -0.015762 0.000000
# 4 0.000000 0.000000 0.000000 0.035655 0.000000 0.006207
# 5 -0.007591 0.015552 -0.015762 0.000000 0.061006 0.000000
# 6 0.000000 0.000000 0.000000 0.006207 0.000000 -0.021961
#
#
# Mechanical properties :
#
#
# Convention : Reuss Voigt Hill
#
# Bulk Modulus (GPa) = 51.63098 54.50500 53.06799
# Shear Modulus (GPa) = 28.53403 13.60626 21.07014
#
# Velocity S-wave (km/s) = 3.65266 2.52230 3.13879
# Velocity P-wave (km/s) = 6.47541 5.82822 6.16032
#
# Compressibility (1/GPa) = 0.01936822
#
# Stress axis : x y z
#
# Youngs Moduli (GPa) = 51.14408 42.98671 71.91543
#
# Poissons Ratio (x) = 0.54678 0.01270
# Poissons Ratio (y) = 0.65054 0.41567
# Poissons Ratio (z) = 0.00903 0.24847
#
# Static dielectric constant tensor:
#      x y z
#    x 1.752600 0.000000 -0.000710 
#    y 0.000000 1.932320 0.000000 
#    z -0.000710 0.000000 1.747090 
# 
# From -- ./inp_files/2155.got.cif
#   From: 2010.05.17/outbox.cif.g08.bks.cpg/sg3_2_cif.got.tgz:2155.got - 2010.06.03 18:33:08.
