data_PCOD9113860
_publ_section_title
;
Structure prediction by ZEFSAII (Michael W. Deem and Ramdas Pophale) SiO2 
 PCOD9113860
Probable space group: P 2
;
_chemical_formula_sum "Si O2"
_cell_formula_units_Z 13
_cell_length_a 11.126953
_cell_length_b 8.309406
_cell_length_c 6.055809
_cell_angle_alpha 90.000000
_cell_angle_beta 82.742808
_cell_angle_gamma 90.000000
_cell_volume 555.424845
_symmetry_space_group_name_H-M "P 2"
_symmetry_group_IT_number 3
_symmetry_cell_setting 'monoclinic'
loop_
_space_group_symop_operation_xyz
x,y,z
-x,y,-z
loop_
_atom_site_type_symbol
_atom_site_label
_atom_site_fract_x
_atom_site_fract_y
_atom_site_fract_z
Si Si1 0.120788 0.177070 0.582396
Si Si2 0.146633 0.453053 0.879230
Si Si3 0.306651 0.935609 0.772564
Si Si4 0.500000 0.137454 0.000000
Si Si5 0.305339 0.361857 0.216717
Si Si6 0.253153 0.677526 0.475422
Si Si7 0.887112 0.764592 0.884241
O O1 0.078420 0.309541 0.773161
O O2 0.201749 0.270861 0.381654
O O3 0.000000 0.107469 0.500000
O O4 0.210410 0.055735 0.682544
O O5 0.185628 0.576253 0.680092
O O6 0.261920 0.374473 0.973227
O O7 0.100441 0.571144 0.083160
O O8 0.338353 0.806563 0.574998
O O9 0.413059 0.027941 0.870217
O O10 0.231432 0.837645 0.974175
O O11 0.576823 0.251995 0.819264
O O12 0.318667 0.541843 0.311917
O O13 0.148207 0.771794 0.363645
O O14 0.000000 0.833364 0.000000
#
# Coordination Sequence:
#
# PCOD9113860 Si02
#       7
#     2   2   2   1   2   2   2
#     4  11  25  40  72 107 143 178 237 297 372 432
#     4   9  20  42  65 106 135 183 233 286 361 430
#     4  11  26  45  68 102 142 191 241 297 365 425
#     4  12  26  50  74  98 152 190 250 302 356 422
#     4  10  23  47  72 101 140 189 239 296 354 431
#     4   9  22  45  70 100 138 184 244 284 365 428
#     4  10  23  40  70 102 147 183 233 298 364 436
#
# _framework density 23.405508999999999
#
# number of rings (size 3 to 8) (size 9 to 14) (size 15 to 20)
#    0.000    1.846    1.538    0.000   10.769    1.846 
#    0.000    8.462    0.000    0.000    0.000    0.000 
#    0.000    0.000    0.000    0.000    0.000    0.000 
#
# Total GULP energy -72574.839217 kJ/mol
# GULP energy per Si atom -5582.679940 kJ/mol
# Density = 2.335224 g / cm^3
# Si number density = 23.405509 Si / 1000 Ang^3
#
#
#
# Elastic Constant Matrix: (Units=GPa)
#
#
# Indices 1 2 3 4 5 6 
#
# 1 117.0657 63.9127 41.6685 0.0000 21.7107 0.0000
# 2 63.9127 119.4836 55.8620 0.0000 24.5644 0.0000
# 3 41.6685 55.8620 119.8786 0.0000 22.7296 0.0000
# 4 0.0000 0.0000 0.0000 39.8932 0.0000 0.4800
# 5 21.7107 24.5644 22.7296 0.0000 35.6301 0.0000
# 6 0.0000 0.0000 0.0000 0.4800 0.0000 32.7154
#
#
#
# Elastic Compliance Matrix: (Units=1/GPa)
#
#
# Indices 1 2 3 4 5 6 
#
# 1 0.012556 -0.005519 -0.001210 0.000000 -0.003074 0.000000
# 2 -0.005519 0.013891 -0.003841 0.000000 -0.003764 0.000000
# 3 -0.001210 -0.003841 0.011274 0.000000 -0.003807 0.000000
# 4 0.000000 0.000000 0.000000 0.025071 0.000000 -0.000368
# 5 -0.003074 -0.003764 -0.003807 0.000000 0.034963 0.000000
# 6 0.000000 0.000000 0.000000 -0.000368 0.000000 0.030572
#
#
# Mechanical properties :
#
#
# Convention : Reuss Voigt Hill
#
# Bulk Modulus (GPa) = 60.30751 75.47935 67.89343
# Shear Modulus (GPa) = 32.25949 34.64673 33.45311
#
# Velocity S-wave (km/s) = 3.71656 3.85162 3.78469
# Velocity P-wave (km/s) = 6.65127 7.21793 6.94038
#
# Compressibility (1/GPa) = 0.01658168
#
# Stress axis : x y z
#
# Youngs Moduli (GPa) = 79.64395 71.98955 88.69983
#
# Poissons Ratio (x) = 0.39728 0.10731
# Poissons Ratio (y) = 0.43952 0.34071
# Poissons Ratio (z) = 0.09635 0.27652
#
# Static dielectric constant tensor:
#      x y z
#    x 1.944910 0.000000 -0.005360 
#    y 0.000000 1.896800 0.000000 
#    z -0.005360 0.000000 1.951780 
# 
# From -- ./inp_files/2249.got.cif
#   From: 2010.05.17/outbox.cif.g08.bks.cpg/sg3_2_cif.got.tgz:2249.got - 2010.06.03 18:33:08.
