data_PCOD9113616
_publ_section_title
;
Structure prediction by ZEFSAII (Michael W. Deem and Ramdas Pophale) SiO2 
 PCOD9113616
Probable space group: P 2
;
_chemical_formula_sum "Si O2"
_cell_formula_units_Z 16
_cell_length_a 8.107513
_cell_length_b 18.189185
_cell_length_c 9.381900
_cell_angle_alpha 90.000000
_cell_angle_beta 32.070080
_cell_angle_gamma 90.000000
_cell_volume 734.599011
_symmetry_space_group_name_H-M "P 2"
_symmetry_group_IT_number 3
_symmetry_cell_setting 'monoclinic'
loop_
_space_group_symop_operation_xyz
x,y,z
-x,y,-z
loop_
_atom_site_type_symbol
_atom_site_label
_atom_site_fract_x
_atom_site_fract_y
_atom_site_fract_z
Si Si1 0.332083 0.633860 0.469105
Si Si2 0.139914 0.863328 0.238669
Si Si3 0.373506 0.339282 0.934267
Si Si4 0.248874 0.252979 0.562016
Si Si5 0.268275 0.094700 0.416185
Si Si6 0.084216 0.012797 0.100987
Si Si7 0.160935 0.721162 0.037051
Si Si8 0.366560 0.495067 0.245212
O O1 0.500000 0.631463 0.500000
O O2 0.984022 0.656185 0.762232
O O3 0.366905 0.556992 0.364901
O O4 0.488580 0.697907 0.257541
O O5 0.000000 0.864369 0.500000
O O6 0.069150 0.794783 0.187841
O O7 0.500000 0.855924 0.000000
O O8 0.092823 0.938620 0.186635
O O9 0.613575 0.314606 0.640057
O O10 0.392141 0.427597 0.905406
O O11 0.500000 0.323877 0.000000
O O12 0.066099 0.288772 0.144849
O O13 0.500000 0.236184 0.500000
O O14 0.235033 0.181224 0.471508
O O15 0.598149 0.061322 0.125614
O O16 0.000000 0.073404 0.500000
O O17 0.183332 0.059883 0.629752
O O18 0.000000 0.996708 0.000000
O O19 0.000000 0.724643 0.000000
O O20 0.000000 0.470202 0.500000
O O21 0.500000 0.526756 0.000000
#
# Coordination Sequence:
#
# PCOD9113616 Si02
#       8
#     2   2   2   2   2   2   2   2
#     4  10  22  40  64  91 127 168 215 268 326 388
#     4  12  25  41  64  95 131 169 216 270 323 384
#     4  11  23  43  65  91 128 171 213 262 326 391
#     4  12  25  43  66  97 129 165 215 269 322 386
#     4  12  25  44  69  96 129 170 214 266 323 386
#     4  12  25  44  67  95 131 172 215 266 323 385
#     4  10  22  41  62  90 126 171 216 264 324 388
#     4  11  23  40  64  93 127 168 216 269 326 392
#
# _framework density 21.780588000000002
#
# number of rings (size 3 to 8) (size 9 to 14) (size 15 to 20)
#    0.000    0.750    0.000    9.000    0.000    3.500 
#    0.000    8.750    0.000    0.000    0.000    0.000 
#    0.000    0.000    0.000    0.000    0.000    0.000 
#
# Total GULP energy -89357.842627 kJ/mol
# GULP energy per Si atom -5584.865164 kJ/mol
# Density = 2.173101 g / cm^3
# Si number density = 21.780588 Si / 1000 Ang^3
#
#
#
# Elastic Constant Matrix: (Units=GPa)
#
#
# Indices 1 2 3 4 5 6 
#
# 1 62.0789 33.0206 21.8547 0.0000 14.1781 0.0000
# 2 33.0206 115.0096 34.7072 0.0000 6.4636 0.0000
# 3 21.8547 34.7072 119.2456 0.0000 12.7481 0.0000
# 4 0.0000 0.0000 0.0000 46.9464 0.0000 14.1053
# 5 14.1781 6.4636 12.7481 0.0000 37.9189 0.0000
# 6 0.0000 0.0000 0.0000 14.1053 0.0000 61.3434
#
#
#
# Elastic Compliance Matrix: (Units=1/GPa)
#
#
# Indices 1 2 3 4 5 6 
#
# 1 0.020879 -0.005138 -0.001649 0.000000 -0.006376 0.000000
# 2 -0.005138 0.010816 -0.002297 0.000000 0.000850 0.000000
# 3 -0.001649 -0.002297 0.009594 0.000000 -0.002217 0.000000
# 4 0.000000 0.000000 0.000000 0.022882 0.000000 -0.005261
# 5 -0.006376 0.000850 -0.002217 0.000000 0.029357 0.000000
# 6 0.000000 0.000000 0.000000 -0.005261 0.000000 0.017512
#
#
# Mechanical properties :
#
#
# Convention : Reuss Voigt Hill
#
# Bulk Modulus (GPa) = 43.25516 52.83321 48.04419
# Shear Modulus (GPa) = 36.51927 43.02516 39.77222
#
# Velocity S-wave (km/s) = 4.09918 4.44936 4.27785
# Velocity P-wave (km/s) = 6.50438 7.12077 6.81955
#
# Compressibility (1/GPa) = 0.02311863
#
# Stress axis : x y z
#
# Youngs Moduli (GPa) = 47.89590 92.45842 104.23243
#
# Poissons Ratio (x) = 0.47509 0.17191
# Poissons Ratio (y) = 0.24611 0.23943
# Poissons Ratio (z) = 0.07899 0.21239
#
# Static dielectric constant tensor:
#      x y z
#    x 1.751950 0.000000 -0.031450 
#    y 0.000000 1.713600 0.000000 
#    z -0.031450 0.000000 1.750010 
# 
# From -- ./inp_files/6209.got.cif
#   From: 2010.05.17/outbox.cif.g08.bks.cpg/sg3_4_cif.got.tgz:6209.got - 2010.06.03 18:33:08.
