data_PCOD9113116
_publ_section_title
;
Structure prediction by ZEFSAII (Michael W. Deem and Ramdas Pophale) SiO2 
 PCOD9113116
Probable space group: P 2
;
_chemical_formula_sum "Si O2"
_cell_formula_units_Z 10
_cell_length_a 13.019129
_cell_length_b 6.225688
_cell_length_c 6.504477
_cell_angle_alpha 90.000000
_cell_angle_beta 66.677292
_cell_angle_gamma 90.000000
_cell_volume 484.129229
_symmetry_space_group_name_H-M "P 2"
_symmetry_group_IT_number 3
_symmetry_cell_setting 'monoclinic'
loop_
_space_group_symop_operation_xyz
x,y,z
-x,y,-z
loop_
_atom_site_type_symbol
_atom_site_label
_atom_site_fract_x
_atom_site_fract_y
_atom_site_fract_z
Si Si1 0.590638 0.742810 0.595368
Si Si2 0.000000 0.898079 0.000000
Si Si3 0.695843 0.364527 0.776136
Si Si4 0.194189 0.989440 0.564062
Si Si5 0.500000 0.074266 0.000000
Si Si6 0.105667 0.650536 0.293404
O O1 0.500000 0.678853 0.500000
O O2 0.627421 0.543238 0.705050
O O3 0.704017 0.851946 0.418926
O O4 0.535846 0.923264 0.784519
O O5 0.906083 0.026997 0.198753
O O6 0.062070 0.751411 0.118336
O O7 0.756942 0.205894 0.568529
O O8 0.793218 0.486438 0.820302
O O9 0.606353 0.222439 0.969618
O O10 0.149438 0.840595 0.410779
O O11 0.000000 0.550443 0.500000
#
# Coordination Sequence:
#
# PCOD9113116 Si02
#       6
#     2   1   2   2   1   2
#     4  10  22  41  61  87 122 156 196 245 295 349
#     4  10  20  40  66  86 116 160 198 242 296 348
#     4  10  21  40  63  87 120 158 197 244 294 349
#     4   9  21  39  59  88 123 155 194 246 295 347
#     4  10  22  40  62  88 120 160 196 240 296 348
#     4   9  20  40  60  87 125 155 191 246 297 346
#
# _framework density 20.655640999999999
#
# number of rings (size 3 to 8) (size 9 to 14) (size 15 to 20)
#    0.000    2.400    0.000    0.600    0.000   12.000 
#    0.000   26.000    0.000    0.000    0.000    0.000 
#    0.000    0.000    0.000    0.000    0.000    0.000 
#
# Total GULP energy -55863.169110 kJ/mol
# GULP energy per Si atom -5586.316911 kJ/mol
# Density = 2.060863 g / cm^3
# Si number density = 20.655641 Si / 1000 Ang^3
#
#
#
# Elastic Constant Matrix: (Units=GPa)
#
#
# Indices 1 2 3 4 5 6 
#
# 1 137.8377 41.1235 40.5998 0.0000 -10.7450 0.0000
# 2 41.1235 81.6454 24.3623 0.0000 -25.8214 0.0000
# 3 40.5998 24.3623 71.5983 0.0000 -33.1271 0.0000
# 4 0.0000 0.0000 0.0000 18.4936 0.0000 -33.7711
# 5 -10.7450 -25.8214 -33.1271 0.0000 38.5549 0.0000
# 6 0.0000 0.0000 0.0000 -33.7711 0.0000 143.2326
#
#
#
# Elastic Compliance Matrix: (Units=1/GPa)
#
#
# Indices 1 2 3 4 5 6 
#
# 1 0.010444 -0.005258 -0.007330 0.000000 -0.006909 0.000000
# 2 -0.005258 0.018214 0.002905 0.000000 0.013229 0.000000
# 3 -0.007330 0.002905 0.028367 0.000000 0.024276 0.000000
# 4 0.000000 0.000000 0.000000 0.094956 0.000000 0.022389
# 5 -0.006909 0.013229 0.024276 0.000000 0.053730 0.000000
# 6 0.000000 0.000000 0.000000 0.022389 0.000000 0.012260
#
#
# Mechanical properties :
#
#
# Convention : Reuss Voigt Hill
#
# Bulk Modulus (GPa) = 26.55453 55.91696 41.23574
# Shear Modulus (GPa) = 20.00882 52.38928 36.19905
#
# Velocity S-wave (km/s) = 3.11575 5.04165 4.19083
# Velocity P-wave (km/s) = 5.08208 7.81158 6.58970
#
# Compressibility (1/GPa) = 0.03765836
#
# Stress axis : x y z
#
# Youngs Moduli (GPa) = 95.74782 54.90411 35.25262
#
# Poissons Ratio (x) = 0.28871 0.25839
# Poissons Ratio (y) = 0.50348 -0.10241
# Poissons Ratio (z) = 0.70180 -0.15950
#
# Static dielectric constant tensor:
#      x y z
#    x 1.753310 0.000000 -0.034590 
#    y 0.000000 1.720500 0.000000 
#    z -0.034590 0.000000 1.697600 
# 
# From -- ./inp_files/1916.got.cif
#   From: 2010.05.17/outbox.cif.g08.bks.cpg/sg3_1_cif.got.tgz:1916.got - 2010.06.03 18:33:08.
