data_PCOD9113737
_publ_section_title
;
Structure prediction by ZEFSAII (Michael W. Deem and Ramdas Pophale) SiO2 
 PCOD9113737
Probable space group: P 2
;
_chemical_formula_sum "Si O2"
_cell_formula_units_Z 13
_cell_length_a 18.140489
_cell_length_b 6.486001
_cell_length_c 11.365211
_cell_angle_alpha 90.000000
_cell_angle_beta 153.491848
_cell_angle_gamma 90.000000
_cell_volume 596.835783
_symmetry_space_group_name_H-M "P 2"
_symmetry_group_IT_number 3
_symmetry_cell_setting 'monoclinic'
loop_
_space_group_symop_operation_xyz
x,y,z
-x,y,-z
loop_
_atom_site_type_symbol
_atom_site_label
_atom_site_fract_x
_atom_site_fract_y
_atom_site_fract_z
Si Si1 0.945941 0.062150 0.295937
Si Si2 0.500000 0.905062 0.000000
Si Si3 0.500000 0.541612 0.500000
Si Si4 0.343419 0.536137 0.912521
Si Si5 0.385393 0.289045 0.551121
Si Si6 0.779202 0.239092 0.463449
Si Si7 0.000000 0.669200 0.500000
Si Si8 0.424784 0.946279 0.270963
O O1 0.000000 0.151707 0.500000
O O2 0.042879 0.175360 0.332218
O O3 0.750522 0.047209 0.005576
O O4 0.004004 0.824497 0.393743
O O5 0.426422 0.753685 0.996000
O O6 0.348466 0.051432 0.744845
O O7 0.387424 0.406909 0.428287
O O8 0.413090 0.703200 0.284002
O O9 0.290442 0.424195 0.716175
O O10 0.174694 0.559657 0.744580
O O11 0.472750 0.398399 0.167965
O O12 0.226620 0.296383 0.407803
O O13 0.441821 0.049929 0.623173
O O14 0.500000 0.024188 0.500000
#
# Coordination Sequence:
#
# PCOD9113737 Si02
#       8
#     2   1   1   2   2   2   1   2
#     4  10  22  43  66 106 140 176 218 291 351 404
#     4  12  20  44  58 102 150 180 212 274 378 406
#     4  10  24  44  70  96 124 186 240 280 328 416
#     4  12  24  39  66 104 144 177 222 287 355 414
#     4  12  23  42  67 100 127 188 236 276 336 421
#     4  12  25  38  68 105 144 178 225 288 355 408
#     4  10  24  36  64 104 142 180 210 284 342 420
#     4  10  24  45  71  92 134 187 231 283 334 421
#
# _framework density 21.781535000000002
#
# number of rings (size 3 to 8) (size 9 to 14) (size 15 to 20)
#    0.923    0.000    5.385    1.846    7.538    0.000 
#    0.000    0.769    0.000    1.846    0.000    0.000 
#    0.000    0.000    0.000    0.000    0.000    0.000 
#
# Total GULP energy -72459.703290 kJ/mol
# GULP energy per Si atom -5573.823330 kJ/mol
# Density = 2.173196 g / cm^3
# Si number density = 21.781535 Si / 1000 Ang^3
#
#
#
# Elastic Constant Matrix: (Units=GPa)
#
#
# Indices 1 2 3 4 5 6 
#
# 1 137.5757 37.4429 0.4127 0.0000 8.5548 0.0000
# 2 37.4429 87.5936 -4.7720 0.0000 -4.1317 0.0000
# 3 0.4127 -4.7720 38.5303 0.0000 1.9505 0.0000
# 4 0.0000 0.0000 0.0000 133.5960 0.0000 -58.4240
# 5 8.5548 -4.1317 1.9505 0.0000 28.9381 0.0000
# 6 0.0000 0.0000 0.0000 -58.4240 0.0000 81.3256
#
#
#
# Elastic Compliance Matrix: (Units=1/GPa)
#
#
# Indices 1 2 3 4 5 6 
#
# 1 0.008491 -0.003794 -0.000408 0.000000 -0.003024 0.000000
# 2 -0.003794 0.013259 0.001535 0.000000 0.002911 0.000000
# 3 -0.000408 0.001535 0.026220 0.000000 -0.001428 0.000000
# 4 0.000000 0.000000 0.000000 0.010914 0.000000 0.007841
# 5 -0.003024 0.002911 -0.001428 0.000000 0.035962 0.000000
# 6 0.000000 0.000000 0.000000 0.007841 0.000000 0.017929
#
#
# Mechanical properties :
#
#
# Convention : Reuss Voigt Hill
#
# Bulk Modulus (GPa) = 23.45379 36.65185 30.05282
# Shear Modulus (GPa) = 37.78676 64.14635 50.96655
#
# Velocity S-wave (km/s) = 4.16962 5.43266 4.84250
# Velocity P-wave (km/s) = 5.82856 7.49769 6.71518
#
# Compressibility (1/GPa) = 0.04263703
#
# Stress axis : x y z
#
# Youngs Moduli (GPa) = 117.77633 75.41904 38.13827
#
# Poissons Ratio (x) = 0.28616 0.01555
# Poissons Ratio (y) = 0.44688 -0.05856
# Poissons Ratio (z) = 0.04803 -0.11580
#
# Static dielectric constant tensor:
#      x y z
#    x 1.657150 0.000000 -0.015630 
#    y 0.000000 1.871500 0.000000 
#    z -0.015630 0.000000 1.764680 
# 
# From -- ./inp_files/12400.got.cif
#   From: 2010.05.17/outbox.cif.g08.bks.cpg/sg3_7_cif.got.tgz:12400.got - 2010.06.03 18:33:08.
