data_PCOD9113489
_publ_section_title
;
Structure prediction by ZEFSAII (Michael W. Deem and Ramdas Pophale) SiO2 
 PCOD9113489
Probable space group: P 2
;
_chemical_formula_sum "Si O2"
_cell_formula_units_Z 15
_cell_length_a 7.435624
_cell_length_b 7.553095
_cell_length_c 17.850224
_cell_angle_alpha 90.000000
_cell_angle_beta 44.174457
_cell_angle_gamma 90.000000
_cell_volume 698.590207
_symmetry_space_group_name_H-M "P 2"
_symmetry_group_IT_number 3
_symmetry_cell_setting 'monoclinic'
loop_
_space_group_symop_operation_xyz
x,y,z
-x,y,-z
loop_
_atom_site_type_symbol
_atom_site_label
_atom_site_fract_x
_atom_site_fract_y
_atom_site_fract_z
Si Si1 0.596563 0.325090 0.293444
Si Si2 0.804719 0.509559 0.487107
Si Si3 0.742606 0.415999 0.749983
Si Si4 0.078518 0.622198 0.855117
Si Si5 0.500000 0.818972 0.500000
Si Si6 0.396964 0.706596 0.910790
Si Si7 0.376021 0.075256 0.116609
Si Si8 0.207317 0.955773 0.723693
O O1 0.430518 0.386648 0.414649
O O2 0.426082 0.388494 0.274539
O O3 0.861371 0.434294 0.201457
O O4 0.648024 0.117008 0.278943
O O5 0.681571 0.692950 0.496270
O O6 0.000000 0.532983 0.500000
O O7 0.968612 0.431415 0.368582
O O8 0.655391 0.591878 0.820669
O O9 0.663946 0.248343 0.822320
O O10 0.226359 0.651268 0.889844
O O11 0.213761 0.768165 0.762782
O O12 0.779351 0.655967 0.964808
O O13 0.325281 0.934539 0.606606
O O14 0.459132 0.914845 0.896154
O O15 0.500000 0.119786 0.000000
O O16 0.091613 0.001330 0.189214
#
# Coordination Sequence:
#
# PCOD9113489 Si02
#       8
#     2   2   2   2   1   2   2   2
#     4  10  23  44  70  94 129 168 224 274 327 397
#     4  10  23  47  72  99 131 176 227 276 334 397
#     4  10  24  44  67  97 128 176 218 272 331 390
#     4  10  21  43  69  94 125 172 216 272 324 388
#     4  12  26  44  72 102 132 180 218 282 340 398
#     4  10  22  42  69  92 127 171 221 266 325 390
#     4  12  26  41  61  99 136 171 215 269 330 397
#     4  12  26  42  64 100 131 169 216 266 338 393
#
# _framework density 21.471814999999999
#
# number of rings (size 3 to 8) (size 9 to 14) (size 15 to 20)
#    0.000    1.333    2.667    1.600    5.600    1.600 
#    2.400    0.000    0.000    0.000    0.000    0.000 
#    0.000    0.000    0.000    0.000    0.000    0.000 
#
# Total GULP energy -83833.176300 kJ/mol
# GULP energy per Si atom -5588.878420 kJ/mol
# Density = 2.142294 g / cm^3
# Si number density = 21.471815 Si / 1000 Ang^3
#
#
#
# Elastic Constant Matrix: (Units=GPa)
#
#
# Indices 1 2 3 4 5 6 
#
# 1 27.9549 5.7002 32.7740 0.0000 -1.6377 0.0000
# 2 5.7002 58.5474 18.3953 0.0000 14.6933 0.0000
# 3 32.7740 18.3953 164.4319 0.0000 10.1121 0.0000
# 4 0.0000 0.0000 0.0000 33.6132 0.0000 17.2238
# 5 -1.6377 14.6933 10.1121 0.0000 26.7774 0.0000
# 6 0.0000 0.0000 0.0000 17.2238 0.0000 17.5804
#
#
#
# Elastic Compliance Matrix: (Units=1/GPa)
#
#
# Indices 1 2 3 4 5 6 
#
# 1 0.048543 -0.003855 -0.009784 0.000000 0.008779 0.000000
# 2 -0.003855 0.020526 -0.000840 0.000000 -0.011181 0.000000
# 3 -0.009784 -0.000840 0.008327 0.000000 -0.003282 0.000000
# 4 0.000000 0.000000 0.000000 0.059742 0.000000 -0.058530
# 5 0.008779 -0.011181 -0.003282 0.000000 0.045257 0.000000
# 6 0.000000 0.000000 0.000000 -0.058530 0.000000 0.114224
#
#
# Mechanical properties :
#
#
# Convention : Reuss Voigt Hill
#
# Bulk Modulus (GPa) = 20.64531 40.51924 30.58227
# Shear Modulus (GPa) = 14.63171 28.53185 21.58178
#
# Velocity S-wave (km/s) = 2.61327 3.64923 3.17380
# Velocity P-wave (km/s) = 4.32915 6.05539 5.26352
#
# Compressibility (1/GPa) = 0.04843716
#
# Stress axis : x y z
#
# Youngs Moduli (GPa) = 20.60026 48.71962 120.08409
#
# Poissons Ratio (x) = 0.18783 1.17491
# Poissons Ratio (y) = 0.07942 0.10089
# Poissons Ratio (z) = 0.20155 0.04093
#
# Static dielectric constant tensor:
#      x y z
#    x 1.814730 0.000000 -0.016120 
#    y 0.000000 1.786290 0.000000 
#    z -0.016120 0.000000 1.770180 
# 
# From -- ./inp_files/15712.got.cif
#   From: 2010.05.17/outbox.cif.g08.bks.cpg/sg3_8_cif.got.tgz:15712.got - 2010.06.03 18:33:08.
