data_PCOD9113123
_publ_section_title
;
Structure prediction by ZEFSAII (Michael W. Deem and Ramdas Pophale) SiO2 
 PCOD9113123
Probable space group: P 2
;
_chemical_formula_sum "Si O2"
_cell_formula_units_Z 12
_cell_length_a 7.911060
_cell_length_b 6.900070
_cell_length_c 12.187593
_cell_angle_alpha 90.000000
_cell_angle_beta 133.140464
_cell_angle_gamma 90.000000
_cell_volume 485.443053
_symmetry_space_group_name_H-M "P 2"
_symmetry_group_IT_number 3
_symmetry_cell_setting 'monoclinic'
loop_
_space_group_symop_operation_xyz
x,y,z
-x,y,-z
loop_
_atom_site_type_symbol
_atom_site_label
_atom_site_fract_x
_atom_site_fract_y
_atom_site_fract_z
Si Si1 0.973974 0.505810 0.800379
Si Si2 0.751353 0.139345 0.614853
Si Si3 0.850672 0.719158 0.326347
Si Si4 0.339911 0.609973 0.137888
Si Si5 0.248945 0.050069 0.145480
Si Si6 0.751928 0.120992 0.373600
O O1 0.938046 0.305493 0.719335
O O2 0.758423 0.544060 0.787123
O O3 0.021086 0.661838 0.727199
O O4 0.194441 0.508166 0.978067
O O5 0.500000 0.244006 0.500000
O O6 0.763181 0.013921 0.729278
O O7 0.743924 0.034797 0.494707
O O8 0.612058 0.601645 0.236461
O O9 0.789674 0.947529 0.305034
O O10 0.000000 0.680755 0.500000
O O11 0.278089 0.840876 0.103094
O O12 0.483458 0.178232 0.232783
O O13 0.000000 0.133726 0.000000
O O14 0.000000 0.232908 0.500000
#
# Coordination Sequence:
#
# PCOD9113123 Si02
#       6
#     2   2   2   2   2   2
#     4  11  23  42  64  97 138 174 216 275 340 402
#     4  10  24  42  64  95 136 180 217 271 343 405
#     4  10  23  39  68  99 130 174 226 281 329 395
#     4  10  23  42  67  97 133 178 227 272 336 400
#     4  10  20  40  67  94 126 174 229 272 325 399
#     4   9  21  42  63  94 132 171 225 276 329 397
#
# _framework density 24.719684999999998
#
# number of rings (size 3 to 8) (size 9 to 14) (size 15 to 20)
#    0.000    2.000    1.667    0.500    9.333    0.667 
#    3.000    2.500    0.000    0.000    0.000    0.000 
#    0.000    0.000    0.000    0.000    0.000    0.000 
#
# Total GULP energy -66933.403182 kJ/mol
# GULP energy per Si atom -5577.783598 kJ/mol
# Density = 2.466342 g / cm^3
# Si number density = 24.719685 Si / 1000 Ang^3
#
#
#
# Elastic Constant Matrix: (Units=GPa)
#
#
# Indices 1 2 3 4 5 6 
#
# 1 107.7548 12.3839 52.2876 0.0000 15.3110 0.0000
# 2 12.3839 70.7664 15.1751 0.0000 2.8400 0.0000
# 3 52.2876 15.1751 139.2562 0.0000 21.1504 0.0000
# 4 0.0000 0.0000 0.0000 34.5211 0.0000 -4.0434
# 5 15.3110 2.8400 21.1504 0.0000 66.9261 0.0000
# 6 0.0000 0.0000 0.0000 -4.0434 0.0000 35.2776
#
#
#
# Elastic Compliance Matrix: (Units=1/GPa)
#
#
# Indices 1 2 3 4 5 6 
#
# 1 0.011543 -0.001106 -0.004012 0.000000 -0.001326 0.000000
# 2 -0.001106 0.014576 -0.001174 0.000000 0.000006 0.000000
# 3 -0.004012 -0.001174 0.009105 0.000000 -0.001910 0.000000
# 4 0.000000 0.000000 0.000000 0.029362 0.000000 0.003365
# 5 -0.001326 0.000006 -0.001910 0.000000 0.015849 0.000000
# 6 0.000000 0.000000 0.000000 0.003365 0.000000 0.028732
#
#
# Mechanical properties :
#
#
# Convention : Reuss Voigt Hill
#
# Bulk Modulus (GPa) = 44.17021 53.05228 48.61124
# Shear Modulus (GPa) = 38.67028 43.20701 40.93864
#
# Velocity S-wave (km/s) = 3.95948 4.18530 4.07395
# Velocity P-wave (km/s) = 6.22981 6.69804 6.46816
#
# Compressibility (1/GPa) = 0.02263969
#
# Stress axis : x y z
#
# Youngs Moduli (GPa) = 86.63461 68.60544 109.82424
#
# Poissons Ratio (x) = 0.07590 0.44063
# Poissons Ratio (y) = 0.09585 0.12891
# Poissons Ratio (z) = 0.34759 0.08053
#
# Static dielectric constant tensor:
#      x y z
#    x 2.050170 0.000000 0.076590 
#    y 0.000000 2.003660 0.000000 
#    z 0.076590 0.000000 1.900710 
# 
# From -- ./inp_files/10824.got.cif
#   From: 2010.05.17/outbox.cif.g08.bks.cpg/sg3_6_cif.got.tgz:10824.got - 2010.06.03 18:33:08.
