data_PCOD9113258
_publ_section_title
;
Structure prediction by ZEFSAII (Michael W. Deem and Ramdas Pophale) SiO2 
 PCOD9113258
Probable space group: P 2
;
_chemical_formula_sum "Si O2"
_cell_formula_units_Z 16
_cell_length_a 8.210903
_cell_length_b 5.222079
_cell_length_c 16.958661
_cell_angle_alpha 90.000000
_cell_angle_beta 117.913689
_cell_angle_gamma 90.000000
_cell_volume 642.551692
_symmetry_space_group_name_H-M "P 2"
_symmetry_group_IT_number 3
_symmetry_cell_setting 'monoclinic'
loop_
_space_group_symop_operation_xyz
x,y,z
-x,y,-z
loop_
_atom_site_type_symbol
_atom_site_label
_atom_site_fract_x
_atom_site_fract_y
_atom_site_fract_z
Si Si1 0.674698 0.137950 0.097752
Si Si2 0.667321 0.291301 0.810917
Si Si3 0.969621 0.671971 0.373043
Si Si4 0.638739 0.630826 0.198005
Si Si5 0.808838 0.168885 0.548128
Si Si6 0.189251 0.648754 0.266703
Si Si7 0.966886 0.961847 0.912926
Si Si8 0.459964 0.042988 0.365769
O O1 0.702724 0.396589 0.155162
O O2 0.850351 0.076702 0.083792
O O3 0.643889 0.897821 0.151260
O O4 0.500000 0.165279 0.000000
O O5 0.563842 0.530583 0.824537
O O6 0.800699 0.376430 0.770306
O O7 0.804301 0.157239 0.901653
O O8 0.530829 0.128721 0.724196
O O9 0.084762 0.437732 0.436584
O O10 0.041425 0.670572 0.299714
O O11 0.754426 0.640585 0.306338
O O12 0.039932 0.943650 0.419582
O O13 0.654644 0.102959 0.448804
O O14 0.691352 0.159158 0.604590
O O15 0.127639 0.820350 0.180444
O O16 0.384403 0.750717 0.344318
O O17 0.000000 0.802840 0.000000
#
# Coordination Sequence:
#
# PCOD9113258 Si02
#       8
#     2   2   2   2   2   2   2   2
#     4  12  27  48  71 103 141 184 231 289 353 423
#     4  11  24  42  69  97 138 187 234 289 352 414
#     4  11  21  41  66  99 130 186 224 281 350 415
#     4  12  27  45  71  97 144 186 232 280 358 427
#     4  10  21  37  67  99 133 172 232 290 343 411
#     4  10  21  40  67  94 133 178 229 284 347 408
#     4  11  25  44  71 104 138 179 238 295 344 420
#     4   9  21  36  63 100 131 170 231 293 341 404
#
# _framework density 24.900722999999999
#
# number of rings (size 3 to 8) (size 9 to 14) (size 15 to 20)
#    0.000    1.250    2.500    2.625    8.750    1.500 
#    0.000    0.625    0.000    0.000    0.000    0.000 
#    0.000    0.000    0.000    0.000    0.000    0.000 
#
# Total GULP energy -89375.514798 kJ/mol
# GULP energy per Si atom -5585.969675 kJ/mol
# Density = 2.484405 g / cm^3
# Si number density = 24.900723 Si / 1000 Ang^3
#
#
#
# Elastic Constant Matrix: (Units=GPa)
#
#
# Indices 1 2 3 4 5 6 
#
# 1 90.0154 6.8813 46.7895 0.0000 4.9379 0.0000
# 2 6.8813 91.3678 28.2223 0.0000 10.7897 0.0000
# 3 46.7895 28.2223 108.5857 0.0000 14.2419 0.0000
# 4 0.0000 0.0000 0.0000 6.8437 0.0000 11.0488
# 5 4.9379 10.7897 14.2419 0.0000 51.5491 0.0000
# 6 0.0000 0.0000 0.0000 11.0488 0.0000 15.0252
#
#
#
# Elastic Compliance Matrix: (Units=1/GPa)
#
#
# Indices 1 2 3 4 5 6 
#
# 1 0.014386 0.000885 -0.006458 0.000000 0.000221 0.000000
# 2 0.000885 0.012100 -0.003303 0.000000 -0.001705 0.000000
# 3 -0.006458 -0.003303 0.013155 0.000000 -0.002325 0.000000
# 4 0.000000 0.000000 0.000000 -0.780624 0.000000 0.574033
# 5 0.000221 -0.001705 -0.002325 0.000000 0.020377 0.000000
# 6 0.000000 0.000000 0.000000 0.574033 0.000000 -0.355561
#
#
# Mechanical properties :
#
#
# Convention : Reuss Voigt Hill
#
# Bulk Modulus (GPa) = 45.68233 50.41724 48.04978
# Shear Modulus (GPa) = -4.75683 28.55533 11.89925
#
# Velocity S-wave (km/s) = -1.38364 3.39007 2.18839
# Velocity P-wave (km/s) = 3.97907 5.96780 5.07187
#
# Compressibility (1/GPa) = 0.02189030
#
# Stress axis : x y z
#
# Youngs Moduli (GPa) = 69.51054 82.64763 76.01449
#
# Poissons Ratio (x) = -0.07316 0.49091
# Poissons Ratio (y) = -0.06153 0.25105
# Poissons Ratio (z) = 0.44891 0.27295
#
# Static dielectric constant tensor:
#      x y z
#    x 2.026430 0.000000 0.032730 
#    y 0.000000 2.102630 0.000000 
#    z 0.032730 0.000000 2.052050 
# 
# From -- ./inp_files/14798.got.cif
#   From: 2010.05.17/outbox.cif.g08.bks.cpg/sg3_8_cif.got.tgz:14798.got - 2010.06.03 18:33:08.
