data_PCOD9113778
_publ_section_title
;
Structure prediction by ZEFSAII (Michael W. Deem and Ramdas Pophale) SiO2 
 PCOD9113778
Probable space group: P 2
;
_chemical_formula_sum "Si O2"
_cell_formula_units_Z 14
_cell_length_a 24.056153
_cell_length_b 4.921729
_cell_length_c 14.955627
_cell_angle_alpha 90.000000
_cell_angle_beta 159.606455
_cell_angle_gamma 90.000000
_cell_volume 617.034533
_symmetry_space_group_name_H-M "P 2"
_symmetry_group_IT_number 3
_symmetry_cell_setting 'monoclinic'
loop_
_space_group_symop_operation_xyz
x,y,z
-x,y,-z
loop_
_atom_site_type_symbol
_atom_site_label
_atom_site_fract_x
_atom_site_fract_y
_atom_site_fract_z
Si Si1 0.856366 0.298560 0.612558
Si Si2 0.831718 0.786552 0.451614
Si Si3 0.212084 0.377636 0.170093
Si Si4 0.387867 0.735268 0.037559
Si Si5 0.888799 0.838419 0.254538
Si Si6 0.689328 0.886305 0.788798
Si Si7 0.399171 0.242332 0.623849
O O1 0.786042 0.548405 0.450085
O O2 0.740664 0.197859 0.515792
O O3 0.881317 0.051426 0.581444
O O4 0.024422 0.409287 0.903501
O O5 0.981377 0.697214 0.614466
O O6 0.690071 0.851212 0.170083
O O7 0.269743 0.578677 0.178509
O O8 0.322249 0.393963 0.422794
O O9 0.235346 0.070674 0.173611
O O10 0.475698 0.457374 0.149166
O O11 0.508066 0.963290 0.256403
O O12 0.242167 0.674682 0.885987
O O13 0.000000 0.977408 0.500000
O O14 0.772820 0.979344 0.007155
O O15 0.500000 0.922426 0.500000
#
# Coordination Sequence:
#
# PCOD9113778 Si02
#       7
#     2   2   2   2   2   2   2
#     4  12  24  44  69  96 135 178 229 269 333 400
#     4  11  24  44  70  98 131 180 223 276 337 405
#     4  12  24  44  66  97 135 173 228 265 339 398
#     4  11  26  44  67  99 136 174 224 279 340 392
#     4  10  22  44  69  98 135 174 222 276 338 404
#     4  12  24  42  69 100 137 176 220 279 337 403
#     4  12  26  44  66  99 136 178 223 281 330 397
#
# _framework density 22.689167000000001
#
# number of rings (size 3 to 8) (size 9 to 14) (size 15 to 20)
#    0.000    0.571    2.857    5.143    0.000    5.714 
#    0.000   10.714    0.000    0.000    0.000    0.000 
#    0.000    0.000    0.000    0.000    0.000    0.000 
#
# Total GULP energy -78195.566041 kJ/mol
# GULP energy per Si atom -5585.397574 kJ/mol
# Density = 2.263753 g / cm^3
# Si number density = 22.689167 Si / 1000 Ang^3
#
#
#
# Elastic Constant Matrix: (Units=GPa)
#
#
# Indices 1 2 3 4 5 6 
#
# 1 -5.1476 -19.0490 29.2909 0.0000 -39.5814 0.0000
# 2 -19.0490 55.1307 0.9159 0.0000 -14.6178 0.0000
# 3 29.2909 0.9159 115.9180 0.0000 -25.7929 0.0000
# 4 0.0000 0.0000 0.0000 19.5101 0.0000 1.8722
# 5 -39.5814 -14.6178 -25.7929 0.0000 12.9689 0.0000
# 6 0.0000 0.0000 0.0000 1.8722 0.0000 17.9567
#
#
#
# Elastic Compliance Matrix: (Units=1/GPa)
#
#
# Indices 1 2 3 4 5 6 
#
# 1 -0.002279 -0.007357 -0.004949 0.000000 -0.025089 0.000000
# 2 -0.007357 0.014142 0.000534 0.000000 -0.005454 0.000000
# 3 -0.004949 0.000534 0.011922 0.000000 0.009209 0.000000
# 4 0.000000 0.000000 0.000000 0.051774 0.000000 -0.005398
# 5 -0.025089 -0.005454 0.009209 0.000000 0.012703 0.000000
# 6 0.000000 0.000000 0.000000 -0.005398 0.000000 0.056252
#
#
# Mechanical properties :
#
#
# Convention : Reuss Voigt Hill
#
# Bulk Modulus (GPa) = 4157.55431 20.91298 2089.23364
# Shear Modulus (GPa) = 29.73739 20.40336 25.07038
#
# Velocity S-wave (km/s) = 3.62421 3.00201 3.32768
# Velocity P-wave (km/s) = 43.05679 4.61013 30.61977
#
# Compressibility (1/GPa) = 0.00024053
#
# Stress axis : x y z
#
# Youngs Moduli (GPa) = -438.86600 70.71348 83.87713
#
# Poissons Ratio (x) = 0.52027 0.41508
# Poissons Ratio (y) = -3.22895 -0.04478
# Poissons Ratio (z) = -2.17182 -0.03775
#
# Static dielectric constant tensor:
#      x y z
#    x 1.827630 0.000000 -0.024020 
#    y 0.000000 1.793290 0.000000 
#    z -0.024020 0.000000 1.879020 
# 
# From -- ./inp_files/14395.got.cif
#   From: 2010.05.17/outbox.cif.g08.bks.cpg/sg3_8_cif.got.tgz:14395.got - 2010.06.03 18:33:08.
