data_PCOD9113483
_publ_section_title
;
Structure prediction by ZEFSAII (Michael W. Deem and Ramdas Pophale) SiO2 
 PCOD9113483
Probable space group: P 2
;
_chemical_formula_sum "Si O2"
_cell_formula_units_Z 15
_cell_length_a 6.360342
_cell_length_b 5.436947
_cell_length_c 16.553127
_cell_angle_alpha 90.000000
_cell_angle_beta 84.967538
_cell_angle_gamma 90.000000
_cell_volume 570.214483
_symmetry_space_group_name_H-M "P 2"
_symmetry_group_IT_number 3
_symmetry_cell_setting 'monoclinic'
loop_
_space_group_symop_operation_xyz
x,y,z
-x,y,-z
loop_
_atom_site_type_symbol
_atom_site_label
_atom_site_fract_x
_atom_site_fract_y
_atom_site_fract_z
Si Si1 0.281045 0.429200 0.616305
Si Si2 0.474244 0.114831 0.159403
Si Si3 0.759260 0.254378 0.974888
Si Si4 0.329105 0.375880 0.310168
Si Si5 0.007609 0.671099 0.233709
Si Si6 0.717603 0.614527 0.102784
Si Si7 0.987983 0.034631 0.362791
Si Si8 0.000000 0.666750 0.500000
O O1 0.513086 0.495227 0.633535
O O2 0.154367 0.528342 0.700527
O O3 0.192094 0.529071 0.536121
O O4 0.243782 0.136078 0.612323
O O5 0.257804 0.170801 0.117006
O O6 0.431300 0.152161 0.255728
O O7 0.625440 0.351884 0.136693
O O8 0.580909 0.855357 0.130113
O O9 0.500000 0.171575 0.000000
O O10 0.746097 0.537292 0.007865
O O11 0.000000 0.175742 0.000000
O O12 0.137877 0.266094 0.366799
O O13 0.234783 0.561980 0.247331
O O14 0.932218 0.649881 0.145453
O O15 0.995884 0.941470 0.271240
O O16 0.066974 0.836484 0.422693
#
# Coordination Sequence:
#
# PCOD9113483 Si02
#       8
#     2   2   2   2   2   2   2   1
#     4  10  21  43  66  94 138 182 233 306 371 464
#     4  11  25  45  77 110 150 202 257 323 391 466
#     4  10  24  49  75 112 157 209 266 329 401 472
#     4  11  23  41  71 108 140 183 254 309 388 455
#     4  10  22  40  67 104 138 183 241 305 379 454
#     4  11  24  46  76 107 151 201 254 320 393 466
#     4  10  23  41  68  99 137 188 243 309 377 465
#     4  10  22  44  66  92 144 190 242 302 398 450
#
# _framework density 26.305893000000001
#
# number of rings (size 3 to 8) (size 9 to 14) (size 15 to 20)
#    0.000    1.600    1.333    2.000    3.733    6.933 
#    0.000   21.333    0.000    0.000    0.000    0.000 
#    0.000    0.000    0.000    0.000    0.000    0.000 
#
# Total GULP energy -83577.428641 kJ/mol
# GULP energy per Si atom -5571.828576 kJ/mol
# Density = 2.624602 g / cm^3
# Si number density = 26.305893 Si / 1000 Ang^3
#
#
#
# Elastic Constant Matrix: (Units=GPa)
#
#
# Indices 1 2 3 4 5 6 
#
# 1 122.1626 38.7457 52.0677 0.0000 42.6803 0.0000
# 2 38.7457 101.9471 26.5059 0.0000 15.2660 0.0000
# 3 52.0677 26.5059 132.7512 0.0000 40.2863 0.0000
# 4 0.0000 0.0000 0.0000 41.8097 0.0000 -6.0007
# 5 42.6803 15.2660 40.2863 0.0000 61.1213 0.0000
# 6 0.0000 0.0000 0.0000 -6.0007 0.0000 29.4482
#
#
#
# Elastic Compliance Matrix: (Units=1/GPa)
#
#
# Indices 1 2 3 4 5 6 
#
# 1 0.012384 -0.003159 -0.002302 0.000000 -0.006342 0.000000
# 2 -0.003159 0.011267 -0.001033 0.000000 0.000072 0.000000
# 3 -0.002302 -0.001033 0.010095 0.000000 -0.004788 0.000000
# 4 0.000000 0.000000 0.000000 0.024638 0.000000 0.005021
# 5 -0.006342 0.000072 -0.004788 0.000000 0.023927 0.000000
# 6 0.000000 0.000000 0.000000 0.005021 0.000000 0.034981
#
#
# Mechanical properties :
#
#
# Convention : Reuss Voigt Hill
#
# Bulk Modulus (GPa) = 48.17036 65.72218 56.94627
# Shear Modulus (GPa) = 36.44302 42.44530 39.44416
#
# Velocity S-wave (km/s) = 3.72607 4.02123 3.87646
# Velocity P-wave (km/s) = 6.07148 6.82631 6.45993
#
# Compressibility (1/GPa) = 0.02075965
#
# Stress axis : x y z
#
# Youngs Moduli (GPa) = 80.74656 88.75361 99.05680
#
# Poissons Ratio (x) = 0.28034 0.22806
# Poissons Ratio (y) = 0.25505 0.10229
# Poissons Ratio (z) = 0.18590 0.09165
#
# Static dielectric constant tensor:
#      x y z
#    x 2.215390 0.000000 -0.088650 
#    y 0.000000 2.149610 0.000000 
#    z -0.088650 0.000000 2.199370 
# 
# From -- ./inp_files/15600.got.cif
#   From: 2010.05.17/outbox.cif.g08.bks.cpg/sg3_8_cif.got.tgz:15600.got - 2010.06.03 18:33:08.
