data_PCOD9113270
_publ_section_title
;
Structure prediction by ZEFSAII (Michael W. Deem and Ramdas Pophale) SiO2 
 PCOD9113270
Probable space group: P 2
;
_chemical_formula_sum "Si O2"
_cell_formula_units_Z 12
_cell_length_a 8.824880
_cell_length_b 9.496916
_cell_length_c 9.011226
_cell_angle_alpha 90.000000
_cell_angle_beta 61.682077
_cell_angle_gamma 90.000000
_cell_volume 664.844836
_symmetry_space_group_name_H-M "P 2"
_symmetry_group_IT_number 3
_symmetry_cell_setting 'monoclinic'
loop_
_space_group_symop_operation_xyz
x,y,z
-x,y,-z
loop_
_atom_site_type_symbol
_atom_site_label
_atom_site_fract_x
_atom_site_fract_y
_atom_site_fract_z
Si Si1 0.817612 0.966500 0.663870
Si Si2 0.326967 0.656171 0.976360
Si Si3 0.492999 0.128806 0.680344
Si Si4 0.179272 0.632407 0.340432
Si Si5 0.190551 0.961518 0.980104
Si Si6 0.493440 0.461938 0.327446
O O1 0.782417 0.799280 0.656116
O O2 0.000000 0.998330 0.500000
O O3 0.660164 0.054230 0.671575
O O4 0.824949 0.992770 0.836974
O O5 0.275101 0.805951 0.933585
O O6 0.361031 0.543870 0.832849
O O7 0.500000 0.669888 0.000000
O O8 0.182811 0.611014 0.161763
O O9 0.500000 0.105278 0.500000
O O10 0.499563 0.295924 0.704869
O O11 0.321767 0.064154 0.834086
O O12 0.320275 0.532843 0.347284
O O13 0.000000 0.603267 0.500000
O O14 0.000000 0.962794 0.000000
O O15 0.500000 0.485427 0.500000
#
# Coordination Sequence:
#
# PCOD9113270 Si02
#       6
#     2   2   2   2   2   2
#     4  10  21  38  61  87 113 146 187 231 281 334
#     4   9  19  37  58  82 110 145 185 225 277 335
#     4  11  23  39  56  81 117 153 189 230 277 333
#     4   9  19  36  57  83 110 139 183 229 274 331
#     4  11  22  37  59  87 113 145 188 234 281 333
#     4  10  22  37  55  80 111 148 186 225 276 330
#
# _framework density 18.049323999999999
#
# number of rings (size 3 to 8) (size 9 to 14) (size 15 to 20)
#    0.000    2.000    0.000    4.500    0.000   11.333 
#    0.000    4.167    0.000    0.000    0.000    0.000 
#    0.000    0.000    0.000    0.000    0.000    0.000 
#
# Total GULP energy -66977.820187 kJ/mol
# GULP energy per Si atom -5581.485016 kJ/mol
# Density = 1.800824 g / cm^3
# Si number density = 18.049324 Si / 1000 Ang^3
#
#
#
# Elastic Constant Matrix: (Units=GPa)
#
#
# Indices 1 2 3 4 5 6 
#
# 1 102.3521 75.7033 65.9552 0.0000 5.1637 0.0000
# 2 75.7033 113.0486 106.5785 0.0000 6.5341 0.0000
# 3 65.9552 106.5785 170.7237 0.0000 -14.4894 0.0000
# 4 0.0000 0.0000 0.0000 24.1485 0.0000 14.2995
# 5 5.1637 6.5341 -14.4894 0.0000 27.9421 0.0000
# 6 0.0000 0.0000 0.0000 14.2995 0.0000 7.0780
#
#
#
# Elastic Compliance Matrix: (Units=1/GPa)
#
#
# Indices 1 2 3 4 5 6 
#
# 1 0.019528 -0.014741 0.001720 0.000000 0.000730 0.000000
# 2 -0.014741 0.037845 -0.019300 0.000000 -0.016134 0.000000
# 3 0.001720 -0.019300 0.018408 0.000000 0.013741 0.000000
# 4 0.000000 0.000000 0.000000 -0.210945 0.000000 0.426168
# 5 0.000730 -0.016134 0.013741 0.000000 0.046552 0.000000
# 6 0.000000 0.000000 0.000000 0.426168 0.000000 -0.719697
#
#
# Mechanical properties :
#
#
# Convention : Reuss Voigt Hill
#
# Bulk Modulus (GPa) = 89.77593 98.06650 93.92122
# Shear Modulus (GPa) = -6.75717 21.02622 7.13453
#
# Velocity S-wave (km/s) = -1.93697 3.41681 1.99032
# Velocity P-wave (km/s) = 6.69662 8.36759 7.57830
#
# Compressibility (1/GPa) = 0.01113884
#
# Stress axis : x y z
#
# Youngs Moduli (GPa) = 51.20962 26.42345 54.32465
#
# Poissons Ratio (x) = 0.38950 -0.09345
# Poissons Ratio (y) = 0.75486 1.04849
# Poissons Ratio (z) = -0.08809 0.50998
#
# Static dielectric constant tensor:
#      x y z
#    x 1.610110 0.000000 -0.006110 
#    y 0.000000 1.596340 0.000000 
#    z -0.006110 0.000000 1.642740 
# 
# From -- ./inp_files/5049.got.cif
#   From: 2010.05.17/outbox.cif.g08.bks.cpg/sg3_3_cif.got.tgz:5049.got - 2010.06.03 18:33:08.
