data_PCOD9113828
_publ_section_title
;
Structure prediction by ZEFSAII (Michael W. Deem and Ramdas Pophale) SiO2 
 PCOD9113828
Probable space group: P 2
;
_chemical_formula_sum "Si O2"
_cell_formula_units_Z 11
_cell_length_a 9.263670
_cell_length_b 4.939840
_cell_length_c 16.193149
_cell_angle_alpha 90.000000
_cell_angle_beta 142.171645
_cell_angle_gamma 90.000000
_cell_volume 454.463314
_symmetry_space_group_name_H-M "P 2"
_symmetry_group_IT_number 3
_symmetry_cell_setting 'monoclinic'
loop_
_space_group_symop_operation_xyz
x,y,z
-x,y,-z
loop_
_atom_site_type_symbol
_atom_site_label
_atom_site_fract_x
_atom_site_fract_y
_atom_site_fract_z
Si Si1 0.309190 0.780690 0.341588
Si Si2 0.818113 0.265872 0.813377
Si Si3 0.336789 0.398413 0.074432
Si Si4 0.500000 0.788849 0.000000
Si Si5 0.081524 0.003198 0.719766
Si Si6 0.116090 0.477004 0.639280
O O1 0.500000 0.807516 0.500000
O O2 0.276269 0.477773 0.296042
O O3 0.076620 0.876963 0.281987
O O4 0.318972 0.985572 0.267276
O O5 0.756505 0.410890 0.872417
O O6 0.104181 0.227791 0.938134
O O7 0.368896 0.606683 0.010822
O O8 0.615281 0.378427 0.226148
O O9 0.661135 0.987370 0.125501
O O10 0.089046 0.791733 0.647524
O O11 0.990045 0.292757 0.650891
O O12 0.000000 0.417560 0.500000
#
# Coordination Sequence:
#
# PCOD9113828 Si02
#       6
#     2   2   2   1   2   2
#     4  12  27  45  73  97 142 182 230 283 343 410
#     4  11  26  47  70 104 137 180 236 276 348 404
#     4  10  25  45  74 101 139 182 226 293 334 413
#     4  10  22  46  74 102 136 178 236 282 348 406
#     4  11  25  43  71 101 133 182 233 282 344 408
#     4  11  26  43  70 101 141 177 230 286 349 403
#
# _framework density 24.204374999999999
#
# number of rings (size 3 to 8) (size 9 to 14) (size 15 to 20)
#    0.000    1.091    1.818    2.182   10.182    6.545 
#    0.000    0.000    0.000    0.000    0.000    0.000 
#    0.000    0.000    0.000    0.000    0.000    0.000 
#
# Total GULP energy -61242.542979 kJ/mol
# GULP energy per Si atom -5567.503907 kJ/mol
# Density = 2.414928 g / cm^3
# Si number density = 24.204375 Si / 1000 Ang^3
#
#
#
# Elastic Constant Matrix: (Units=GPa)
#
#
# Indices 1 2 3 4 5 6 
#
# 1 68.5863 0.8974 17.8882 0.0000 -18.1738 0.0000
# 2 0.8974 76.3038 54.3870 0.0000 -9.2224 0.0000
# 3 17.8882 54.3870 153.9891 0.0000 -29.5334 0.0000
# 4 0.0000 0.0000 0.0000 -84.5665 0.0000 -171.8096
# 5 -18.1738 -9.2224 -29.5334 0.0000 29.1555 0.0000
# 6 0.0000 0.0000 0.0000 -171.8096 0.0000 -339.7447
#
#
#
# Elastic Compliance Matrix: (Units=1/GPa)
#
#
# Indices 1 2 3 4 5 6 
#
# 1 0.017583 0.001437 -0.000448 0.000000 0.010961 0.000000
# 2 0.001437 0.017651 -0.006402 0.000000 -0.000006 0.000000
# 3 -0.000448 -0.006402 0.010382 0.000000 0.008212 0.000000
# 4 0.000000 0.000000 0.000000 0.431402 0.000000 -0.218161
# 5 0.010961 -0.000006 0.008212 0.000000 0.049448 0.000000
# 6 0.000000 0.000000 0.000000 -0.218161 0.000000 0.107381
#
#
# Mechanical properties :
#
#
# Convention : Reuss Voigt Hill
#
# Bulk Modulus (GPa) = 28.74382 49.46938 39.10660
# Shear Modulus (GPa) = 7.61881 -63.98403 -28.18261
#
# Velocity S-wave (km/s) = 1.77610 -5.14707 -3.41597
# Velocity P-wave (km/s) = 4.01339 3.85234 0.79587
#
# Compressibility (1/GPa) = 0.03479009
#
# Stress axis : x y z
#
# Youngs Moduli (GPa) = 56.87459 56.65325 96.31796
#
# Poissons Ratio (x) = -0.08143 0.04315
# Poissons Ratio (y) = -0.08174 0.61666
# Poissons Ratio (z) = 0.02548 0.36271
#
# Static dielectric constant tensor:
#      x y z
#    x 2.189790 0.000000 0.622430 
#    y 0.000000 1.948650 0.000000 
#    z 0.622430 0.000000 4.397230 
# 
# From -- ./inp_files/8017.got.cif
#   From: 2010.05.17/outbox.cif.g08.bks.cpg/sg3_5_cif.got.tgz:8017.got - 2010.06.03 18:33:08.
