data_PCOD9113847
_publ_section_title
;
Structure prediction by ZEFSAII (Michael W. Deem and Ramdas Pophale) SiO2 
 PCOD9113847
Probable space group: P 2
;
_chemical_formula_sum "Si O2"
_cell_formula_units_Z 16
_cell_length_a 11.998997
_cell_length_b 5.039735
_cell_length_c 12.026917
_cell_angle_alpha 90.000000
_cell_angle_beta 91.223982
_cell_angle_gamma 90.000000
_cell_volume 727.122955
_symmetry_space_group_name_H-M "P 2"
_symmetry_group_IT_number 3
_symmetry_cell_setting 'monoclinic'
loop_
_space_group_symop_operation_xyz
x,y,z
-x,y,-z
loop_
_atom_site_type_symbol
_atom_site_label
_atom_site_fract_x
_atom_site_fract_y
_atom_site_fract_z
Si Si1 0.100351 0.821700 0.302539
Si Si2 0.678346 0.695431 0.829725
Si Si3 0.612341 0.582164 0.059271
Si Si4 0.053981 0.314814 0.698281
Si Si5 0.812779 0.029575 0.463253
Si Si6 0.528011 0.205030 0.792606
Si Si7 0.743709 0.647627 0.268688
Si Si8 0.407341 0.295460 0.580801
O O1 0.207468 0.770228 0.228045
O O2 0.140866 0.888165 0.428193
O O3 0.030683 0.555168 0.304504
O O4 0.018067 0.061551 0.264408
O O5 0.605474 0.463956 0.769155
O O6 0.606206 0.965634 0.831030
O O7 0.692221 0.572985 0.954210
O O8 0.561842 0.318394 0.119105
O O9 0.676017 0.734793 0.158577
O O10 0.500000 0.695787 0.000000
O O11 0.164646 0.424937 0.763686
O O12 0.104431 0.258211 0.576691
O O13 0.802432 0.861832 0.348576
O O14 0.689658 0.138636 0.484406
O O15 0.466125 0.123431 0.678104
O O16 0.655288 0.517221 0.350161
O O17 0.500000 0.398151 0.500000
#
# Coordination Sequence:
#
# PCOD9113847 Si02
#       8
#     2   2   2   2   2   2   2   2
#     4  12  26  42  74  99 138 180 232 289 352 389
#     4  11  24  45  68 103 136 177 234 287 335 408
#     4   9  22  44  71  96 132 181 221 274 336 412
#     4  11  25  45  68  99 135 183 229 285 337 411
#     4  11  25  39  68  99 137 179 229 275 338 425
#     4  10  23  42  66 101 138 184 222 269 345 416
#     4  10  23  44  66 101 131 181 230 277 332 417
#     4  10  23  38  62  99 146 176 217 278 344 406
#
# _framework density 22.004534
#
# number of rings (size 3 to 8) (size 9 to 14) (size 15 to 20)
#    0.000    1.500    1.250    1.875   12.250    5.000 
#    9.000    0.625    2.750    0.000    0.000    0.000 
#    0.000    0.000    0.000    0.000    0.000    0.000 
#
# Total GULP energy -89320.142621 kJ/mol
# GULP energy per Si atom -5582.508914 kJ/mol
# Density = 2.195445 g / cm^3
# Si number density = 22.004534 Si / 1000 Ang^3
#
#
#
# Elastic Constant Matrix: (Units=GPa)
#
#
# Indices 1 2 3 4 5 6 
#
# 1 122.8586 59.8555 53.0799 0.0000 -21.4106 0.0000
# 2 59.8555 110.1027 19.6262 0.0000 -14.1506 0.0000
# 3 53.0799 19.6262 85.5202 0.0000 -1.9600 0.0000
# 4 0.0000 0.0000 0.0000 8.2646 0.0000 0.2466
# 5 -21.4106 -14.1506 -1.9600 0.0000 31.0806 0.0000
# 6 0.0000 0.0000 0.0000 0.2466 0.0000 34.5977
#
#
#
# Elastic Compliance Matrix: (Units=1/GPa)
#
#
# Indices 1 2 3 4 5 6 
#
# 1 0.016212 -0.006312 -0.008436 0.000000 0.007762 0.000000
# 2 -0.006312 0.012503 0.001081 0.000000 0.001412 0.000000
# 3 -0.008436 0.001081 0.016583 0.000000 -0.004273 0.000000
# 4 0.000000 0.000000 0.000000 0.121024 0.000000 -0.000862
# 5 0.007762 0.001412 -0.004273 0.000000 0.037895 0.000000
# 6 0.000000 0.000000 0.000000 -0.000862 0.000000 0.028910
#
#
# Mechanical properties :
#
#
# Convention : Reuss Voigt Hill
#
# Bulk Modulus (GPa) = 55.66824 64.84497 60.25661
# Shear Modulus (GPa) = 18.76532 27.18323 22.97427
#
# Velocity S-wave (km/s) = 2.92343 3.51856 3.23471
# Velocity P-wave (km/s) = 6.06207 6.78527 6.43384
#
# Compressibility (1/GPa) = 0.01796357
#
# Stress axis : x y z
#
# Youngs Moduli (GPa) = 61.68299 79.98264 60.30263
#
# Poissons Ratio (x) = 0.50485 0.50870
# Poissons Ratio (y) = 0.38934 -0.06517
# Poissons Ratio (z) = 0.52035 -0.08644
#
# Static dielectric constant tensor:
#      x y z
#    x 1.884640 0.000000 0.040050 
#    y 0.000000 1.882490 0.000000 
#    z 0.040050 0.000000 1.825600 
# 
# From -- ./inp_files/11311.got.cif
#   From: 2010.05.17/outbox.cif.g08.bks.cpg/sg3_6_cif.got.tgz:11311.got - 2010.06.03 18:33:08.
