data_PCOD9113713
_publ_section_title
;
Structure prediction by ZEFSAII (Michael W. Deem and Ramdas Pophale) SiO2 
 PCOD9113713
Probable space group: P 2
;
_chemical_formula_sum "Si O2"
_cell_formula_units_Z 10
_cell_length_a 21.447909
_cell_length_b 5.468586
_cell_length_c 11.369812
_cell_angle_alpha 90.000000
_cell_angle_beta 17.711835
_cell_angle_gamma 90.000000
_cell_volume 405.709420
_symmetry_space_group_name_H-M "P 2"
_symmetry_group_IT_number 3
_symmetry_cell_setting 'monoclinic'
loop_
_space_group_symop_operation_xyz
x,y,z
-x,y,-z
loop_
_atom_site_type_symbol
_atom_site_label
_atom_site_fract_x
_atom_site_fract_y
_atom_site_fract_z
Si Si1 0.779127 0.611720 0.200898
Si Si2 0.774946 0.041497 0.842756
Si Si3 0.243003 0.545753 0.028309
Si Si4 0.874788 0.115284 0.110701
Si Si5 0.485130 0.897134 0.887667
O O1 0.924429 0.390653 0.983864
O O2 0.596143 0.669621 0.621756
O O3 0.877591 0.884469 0.017176
O O4 0.729291 0.523399 0.159944
O O5 0.682179 0.303790 0.040649
O O6 0.000000 0.054031 0.500000
O O7 0.670143 0.808710 0.092157
O O8 0.728088 0.973895 0.790822
O O9 0.000000 0.560797 0.500000
O O10 0.638809 0.115989 0.576187
O O11 0.000000 0.039353 0.000000
O O12 0.500000 0.862386 0.000000
#
# Coordination Sequence:
#
# PCOD9113713 Si02
#       5
#     2   2   2   2   2
#     4  10  23  43  66 102 139 184 232 286 349 412
#     4  10  23  44  69 105 133 187 232 291 347 413
#     4  10  22  42  69  98 138 177 234 288 345 412
#     4  10  23  43  66 100 138 184 227 284 348 415
#     4  10  26  46  71 103 145 183 235 287 353 419
#
# _framework density 24.648181000000001
#
# number of rings (size 3 to 8) (size 9 to 14) (size 15 to 20)
#    1.200    0.800    0.000    1.800    2.800    8.000 
#    0.000    0.000    0.000    0.000    0.000    0.000 
#    0.000    0.000    0.000    0.000    0.000    0.000 
#
# Total GULP energy -55694.203588 kJ/mol
# GULP energy per Si atom -5569.420359 kJ/mol
# Density = 2.459208 g / cm^3
# Si number density = 24.648181 Si / 1000 Ang^3
#
#
#
# Elastic Constant Matrix: (Units=GPa)
#
#
# Indices 1 2 3 4 5 6 
#
# 1 151.9308 33.1886 31.8456 0.0000 -6.3606 0.0000
# 2 33.1886 189.2257 17.9995 0.0000 10.3886 0.0000
# 3 31.8456 17.9995 100.3029 0.0000 -1.0435 0.0000
# 4 0.0000 0.0000 0.0000 0.4195 0.0000 -11.9638
# 5 -6.3606 10.3886 -1.0435 0.0000 36.0430 0.0000
# 6 0.0000 0.0000 0.0000 -11.9638 0.0000 36.8777
#
#
#
# Elastic Compliance Matrix: (Units=1/GPa)
#
#
# Indices 1 2 3 4 5 6 
#
# 1 0.007346 -0.001175 -0.002105 0.000000 0.001574 0.000000
# 2 -0.001175 0.005656 -0.000661 0.000000 -0.001856 0.000000
# 3 -0.002105 -0.000661 0.010758 0.000000 0.000131 0.000000
# 4 0.000000 0.000000 0.000000 -0.288870 0.000000 -0.093715
# 5 0.001574 -0.001856 0.000131 0.000000 0.028561 0.000000
# 6 0.000000 0.000000 0.000000 -0.093715 0.000000 -0.003286
#
#
# Mechanical properties :
#
#
# Convention : Reuss Voigt Hill
#
# Bulk Modulus (GPa) = 62.98194 67.50297 65.24246
# Shear Modulus (GPa) = -22.05933 38.56310 8.25188
#
# Velocity S-wave (km/s) = -2.99485 3.95972 1.83170
# Velocity P-wave (km/s) = 3.69446 6.95355 5.56781
#
# Compressibility (1/GPa) = 0.01587757
#
# Stress axis : x y z
#
# Youngs Moduli (GPa) = 136.13518 176.81830 92.95262
#
# Poissons Ratio (x) = 0.20768 0.19567
# Poissons Ratio (y) = 0.15990 0.06147
# Poissons Ratio (z) = 0.28657 0.11693
#
# Static dielectric constant tensor:
#      x y z
#    x 1.925340 0.000000 -0.015340 
#    y 0.000000 1.988060 0.000000 
#    z -0.015340 0.000000 1.992290 
# 
# From -- ./inp_files/8675.got.cif
#   From: 2010.05.17/outbox.cif.g08.bks.cpg/sg3_5_cif.got.tgz:8675.got - 2010.06.03 18:33:08.
