data_PCOD9113288
_publ_section_title
;
Structure prediction by ZEFSAII (Michael W. Deem and Ramdas Pophale) SiO2 
 PCOD9113288
Probable space group: P 2
;
_chemical_formula_sum "Si O2"
_cell_formula_units_Z 12
_cell_length_a 5.388952
_cell_length_b 7.482141
_cell_length_c 14.423682
_cell_angle_alpha 90.000000
_cell_angle_beta 126.650219
_cell_angle_gamma 90.000000
_cell_volume 466.595131
_symmetry_space_group_name_H-M "P 2"
_symmetry_group_IT_number 3
_symmetry_cell_setting 'monoclinic'
loop_
_space_group_symop_operation_xyz
x,y,z
-x,y,-z
loop_
_atom_site_type_symbol
_atom_site_label
_atom_site_fract_x
_atom_site_fract_y
_atom_site_fract_z
Si Si1 0.854462 0.631920 0.295538
Si Si2 0.454003 0.557274 0.357224
Si Si3 0.777303 0.696612 0.876609
Si Si4 0.633888 0.147751 0.431614
Si Si5 0.803635 0.084556 0.831247
Si Si6 0.371106 0.300850 0.873661
O O1 0.748014 0.649616 0.377565
O O2 0.584489 0.736192 0.179631
O O3 0.774354 0.433765 0.236622
O O4 0.218356 0.655843 0.371946
O O5 0.242300 0.566344 0.215775
O O6 0.545518 0.359728 0.406572
O O7 0.912774 0.887535 0.882427
O O8 0.000000 0.609854 0.000000
O O9 0.500000 0.083338 0.500000
O O10 0.458470 0.062031 0.305915
O O11 0.000000 0.129605 0.500000
O O12 0.640252 0.190577 0.879725
O O13 0.089850 0.180272 0.846245
O O14 0.500000 0.381780 0.000000
#
# Coordination Sequence:
#
# PCOD9113288 Si02
#       6
#     2   2   2   2   2   2
#     4  10  21  38  63  93 135 169 225 266 331 391
#     4  10  22  42  63 100 130 167 229 289 326 412
#     4  10  25  41  68  99 148 183 213 263 359 425
#     4  12  24  45  74  96 125 180 241 299 348 378
#     4  12  25  45  62 103 141 177 230 284 336 425
#     4  12  23  38  67  96 140 179 228 272 341 411
#
# _framework density 25.718229999999998
#
# number of rings (size 3 to 8) (size 9 to 14) (size 15 to 20)
#    1.000    0.000    3.333    3.500    4.667    0.000 
#    0.000    1.667    0.000    0.000    0.000    0.000 
#    0.000    0.000    0.000    0.000    0.000    0.000 
#
# Total GULP energy -67025.665886 kJ/mol
# GULP energy per Si atom -5585.472157 kJ/mol
# Density = 2.565969 g / cm^3
# Si number density = 25.718230 Si / 1000 Ang^3
#
#
#
# Elastic Constant Matrix: (Units=GPa)
#
#
# Indices 1 2 3 4 5 6 
#
# 1 216.3569 28.8846 14.3474 0.0000 -0.6366 0.0000
# 2 28.8846 60.1698 -4.6469 0.0000 -2.8887 0.0000
# 3 14.3474 -4.6469 104.2503 0.0000 3.3087 0.0000
# 4 0.0000 0.0000 0.0000 24.2536 0.0000 0.7342
# 5 -0.6366 -2.8887 3.3087 0.0000 34.7917 0.0000
# 6 0.0000 0.0000 0.0000 0.7342 0.0000 15.9368
#
#
#
# Elastic Compliance Matrix: (Units=1/GPa)
#
#
# Indices 1 2 3 4 5 6 
#
# 1 0.005004 -0.002466 -0.000797 0.000000 -0.000037 0.000000
# 2 -0.002466 0.017952 0.001097 0.000000 0.001341 0.000000
# 3 -0.000797 0.001097 0.009778 0.000000 -0.000853 0.000000
# 4 0.000000 0.000000 0.000000 0.041289 0.000000 -0.001902
# 5 -0.000037 0.001341 -0.000853 0.000000 0.028934 0.000000
# 6 0.000000 0.000000 0.000000 -0.001902 0.000000 0.062836
#
#
# Mechanical properties :
#
#
# Convention : Reuss Voigt Hill
#
# Bulk Modulus (GPa) = 35.20829 50.88301 43.04565
# Shear Modulus (GPa) = 27.84087 37.80921 32.82504
#
# Velocity S-wave (km/s) = 3.29376 3.83839 3.57646
# Velocity P-wave (km/s) = 5.30894 6.28268 5.81622
#
# Compressibility (1/GPa) = 0.02840241
#
# Stress axis : x y z
#
# Youngs Moduli (GPa) = 199.84354 55.70317 102.27016
#
# Poissons Ratio (x) = 0.13734 0.08155
# Poissons Ratio (y) = 0.49272 -0.11219
# Poissons Ratio (z) = 0.15935 -0.06110
#
# Static dielectric constant tensor:
#      x y z
#    x 2.206800 0.000000 0.007410 
#    y 0.000000 1.993140 0.000000 
#    z 0.007410 0.000000 2.080760 
# 
# From -- ./inp_files/2231.got.cif
#   From: 2010.05.17/outbox.cif.g08.bks.cpg/sg3_2_cif.got.tgz:2231.got - 2010.06.03 18:33:08.
