data_PCOD9113690
_publ_section_title
;
Structure prediction by ZEFSAII (Michael W. Deem and Ramdas Pophale) SiO2 
 PCOD9113690
Probable space group: P 2
;
_chemical_formula_sum "Si O2"
_cell_formula_units_Z 11
_cell_length_a 7.454896
_cell_length_b 5.274000
_cell_length_c 12.165261
_cell_angle_alpha 90.000000
_cell_angle_beta 78.534842
_cell_angle_gamma 90.000000
_cell_volume 468.758871
_symmetry_space_group_name_H-M "P 2"
_symmetry_group_IT_number 3
_symmetry_cell_setting 'monoclinic'
loop_
_space_group_symop_operation_xyz
x,y,z
-x,y,-z
loop_
_atom_site_type_symbol
_atom_site_label
_atom_site_fract_x
_atom_site_fract_y
_atom_site_fract_z
Si Si1 0.204620 0.964000 0.672288
Si Si2 0.499365 0.308973 0.687863
Si Si3 0.500000 0.657056 0.500000
Si Si4 0.787937 0.967839 0.751153
Si Si5 0.171329 0.467742 0.121259
Si Si6 0.755352 0.589675 0.133275
O O1 0.330556 0.805413 0.574410
O O2 0.231493 0.843218 0.792745
O O3 0.305339 0.230896 0.658896
O O4 0.990835 0.986050 0.675389
O O5 0.584631 0.493245 0.588948
O O6 0.626058 0.066944 0.693374
O O7 0.425202 0.443690 0.805798
O O8 0.777707 0.182031 0.849781
O O9 0.778295 0.681508 0.795363
O O10 0.950385 0.460320 0.137259
O O11 0.245949 0.583338 0.998106
#
# Coordination Sequence:
#
# PCOD9113690 Si02
#       6
#     2   2   1   2   2   2
#     4  10  22  46  68  98 137 184 226 296 339 421
#     4  11  23  44  69 100 134 184 228 299 340 415
#     4  10  24  46  74  96 136 184 244 288 370 400
#     4  11  25  42  71 101 145 173 234 280 348 407
#     4  10  22  42  66 105 139 193 220 276 337 422
#     4   9  21  39  70  95 146 183 231 266 349 406
#
# _framework density 23.466221000000001
#
# number of rings (size 3 to 8) (size 9 to 14) (size 15 to 20)
#    0.000    1.818    1.818    0.545    7.636    2.182 
#    0.000    5.455    0.000    0.000    0.000    0.000 
#    0.000    0.000    0.000    0.000    0.000    0.000 
#
# Total GULP energy -61409.685806 kJ/mol
# GULP energy per Si atom -5582.698710 kJ/mol
# Density = 2.341281 g / cm^3
# Si number density = 23.466221 Si / 1000 Ang^3
#
#
#
# Elastic Constant Matrix: (Units=GPa)
#
#
# Indices 1 2 3 4 5 6 
#
# 1 132.2869 24.1154 40.2355 0.0000 -18.7297 0.0000
# 2 24.1154 47.5528 10.7119 0.0000 -11.1929 0.0000
# 3 40.2355 10.7119 110.1899 0.0000 -27.2231 0.0000
# 4 0.0000 0.0000 0.0000 16.6236 0.0000 -2.0533
# 5 -18.7297 -11.1929 -27.2231 0.0000 20.1067 0.0000
# 6 0.0000 0.0000 0.0000 -2.0533 0.0000 39.3076
#
#
#
# Elastic Compliance Matrix: (Units=1/GPa)
#
#
# Indices 1 2 3 4 5 6 
#
# 1 0.009378 -0.003333 -0.002104 0.000000 0.004031 0.000000
# 2 -0.003333 0.025543 0.002224 0.000000 0.014125 0.000000
# 3 -0.002104 0.002224 0.014198 0.000000 0.018501 0.000000
# 4 0.000000 0.000000 0.000000 0.060546 0.000000 0.003163
# 5 0.004031 0.014125 0.018501 0.000000 0.086402 0.000000
# 6 0.000000 0.000000 0.000000 0.003163 0.000000 0.025606
#
#
# Mechanical properties :
#
#
# Convention : Reuss Voigt Hill
#
# Bulk Modulus (GPa) = 23.42361 48.90614 36.16487
# Shear Modulus (GPa) = 20.63295 29.53869 25.08582
#
# Velocity S-wave (km/s) = 2.96845 3.55177 3.27313
# Velocity P-wave (km/s) = 4.66395 6.14056 5.45247
#
# Compressibility (1/GPa) = 0.04269197
#
# Stress axis : x y z
#
# Youngs Moduli (GPa) = 106.63637 39.14923 70.43105
#
# Poissons Ratio (x) = 0.13048 0.14821
# Poissons Ratio (y) = 0.35540 -0.15661
# Poissons Ratio (z) = 0.22440 -0.08705
#
# Static dielectric constant tensor:
#      x y z
#    x 1.863100 0.000000 0.048710 
#    y 0.000000 1.892080 0.000000 
#    z 0.048710 0.000000 1.998100 
# 
# From -- ./inp_files/10111.got.cif
#   From: 2010.05.17/outbox.cif.g08.bks.cpg/sg3_6_cif.got.tgz:10111.got - 2010.06.03 18:33:08.
