data_PCOD9113587
_publ_section_title
;
Structure prediction by ZEFSAII (Michael W. Deem and Ramdas Pophale) SiO2 
 PCOD9113587
Probable space group: P 2
;
_chemical_formula_sum "Si O2"
_cell_formula_units_Z 13
_cell_length_a 12.167369
_cell_length_b 8.169861
_cell_length_c 5.301822
_cell_angle_alpha 90.000000
_cell_angle_beta 103.462171
_cell_angle_gamma 90.000000
_cell_volume 512.550599
_symmetry_space_group_name_H-M "P 2"
_symmetry_group_IT_number 3
_symmetry_cell_setting 'monoclinic'
loop_
_space_group_symop_operation_xyz
x,y,z
-x,y,-z
loop_
_atom_site_type_symbol
_atom_site_label
_atom_site_fract_x
_atom_site_fract_y
_atom_site_fract_z
Si Si1 0.500000 0.709590 0.500000
Si Si2 0.606994 0.284939 0.892208
Si Si3 0.669243 0.953836 0.790551
Si Si4 0.103757 0.644679 0.871124
Si Si5 0.298496 0.546398 0.342944
Si Si6 0.815196 0.952960 0.371556
Si Si7 0.169615 0.322965 0.651180
O O1 0.567168 0.827425 0.728561
O O2 0.383117 0.641329 0.574015
O O3 0.599551 0.456953 0.749635
O O4 0.623474 0.136239 0.711430
O O5 0.500000 0.249768 0.000000
O O6 0.719999 0.305620 0.115077
O O7 0.760068 0.929083 0.615267
O O8 0.724454 0.961795 0.095839
O O9 0.217941 0.637108 0.101934
O O10 0.116360 0.789869 0.673658
O O11 0.093673 0.462937 0.743535
O O12 0.000000 0.677597 0.000000
O O13 0.217811 0.413137 0.428838
O O14 0.871211 0.135914 0.405173
#
# Coordination Sequence:
#
# PCOD9113587 Si02
#       7
#     1   2   2   2   2   2   2
#     4  12  24  36  68 102 148 194 246 308 382 446
#     4  10  22  39  65 102 145 196 246 302 372 456
#     4  11  25  42  68 103 149 194 249 307 374 449
#     4  11  26  47  76 107 146 194 261 323 393 453
#     4  11  22  46  68 104 146 199 251 312 384 464
#     4  11  24  50  73 106 148 198 250 314 382 456
#     4  10  23  44  72 100 146 191 250 314 378 457
#
# _framework density 25.363350000000001
#
# number of rings (size 3 to 8) (size 9 to 14) (size 15 to 20)
#    0.000    1.231    3.077    1.846    4.308    3.077 
#    5.538    0.000    3.385    0.000    0.000    0.000 
#    0.000    0.000    0.000    0.000    0.000    0.000 
#
# Total GULP energy -72591.045318 kJ/mol
# GULP energy per Si atom -5583.926563 kJ/mol
# Density = 2.530562 g / cm^3
# Si number density = 25.363350 Si / 1000 Ang^3
#
#
#
# Elastic Constant Matrix: (Units=GPa)
#
#
# Indices 1 2 3 4 5 6 
#
# 1 117.0449 47.2246 29.8322 0.0000 -1.9413 0.0000
# 2 47.2246 129.8884 12.0593 0.0000 -31.4681 0.0000
# 3 29.8322 12.0593 79.6653 0.0000 -2.8373 0.0000
# 4 0.0000 0.0000 0.0000 26.2461 0.0000 -40.3480
# 5 -1.9413 -31.4681 -2.8373 0.0000 52.3941 0.0000
# 6 0.0000 0.0000 0.0000 -40.3480 0.0000 -29.0753
#
#
#
# Elastic Compliance Matrix: (Units=1/GPa)
#
#
# Indices 1 2 3 4 5 6 
#
# 1 0.011157 -0.004293 -0.003612 0.000000 -0.002361 0.000000
# 2 -0.004293 0.010773 0.000202 0.000000 0.006322 0.000000
# 3 -0.003612 0.000202 0.013901 0.000000 0.000740 0.000000
# 4 0.000000 0.000000 0.000000 0.012160 0.000000 -0.016874
# 5 -0.002361 0.006322 0.000740 0.000000 0.022836 0.000000
# 6 0.000000 0.000000 0.000000 -0.016874 0.000000 -0.010977
#
#
# Mechanical properties :
#
#
# Convention : Reuss Voigt Hill
#
# Bulk Modulus (GPa) = 48.96108 56.09230 52.52669
# Shear Modulus (GPa) = 60.92730 25.74514 43.33622
#
# Velocity S-wave (km/s) = 4.90652 3.18945 4.13802
# Velocity P-wave (km/s) = 7.17247 5.97720 6.60194
#
# Compressibility (1/GPa) = 0.02042439
#
# Stress axis : x y z
#
# Youngs Moduli (GPa) = 89.62619 92.82742 71.93724
#
# Poissons Ratio (x) = 0.39852 0.25986
# Poissons Ratio (y) = 0.38478 -0.01454
# Poissons Ratio (z) = 0.32376 -0.01876
#
# Static dielectric constant tensor:
#      x y z
#    x 1.946030 0.000000 -0.002970 
#    y 0.000000 2.229530 0.000000 
#    z -0.002970 0.000000 2.063530 
# 
# From -- ./inp_files/2246.got.cif
#   From: 2010.05.17/outbox.cif.g08.bks.cpg/sg3_2_cif.got.tgz:2246.got - 2010.06.03 18:33:08.
