data_PCOD9113309
_publ_section_title
;
Structure prediction by ZEFSAII (Michael W. Deem and Ramdas Pophale) SiO2 
 PCOD9113309
Probable space group: P 2
;
_chemical_formula_sum "Si O2"
_cell_formula_units_Z 12
_cell_length_a 7.121363
_cell_length_b 5.305851
_cell_length_c 16.385816
_cell_angle_alpha 90.000000
_cell_angle_beta 129.751673
_cell_angle_gamma 90.000000
_cell_volume 476.006305
_symmetry_space_group_name_H-M "P 2"
_symmetry_group_IT_number 3
_symmetry_cell_setting 'monoclinic'
loop_
_space_group_symop_operation_xyz
x,y,z
-x,y,-z
loop_
_atom_site_type_symbol
_atom_site_label
_atom_site_fract_x
_atom_site_fract_y
_atom_site_fract_z
Si Si1 0.854314 0.798830 0.878415
Si Si2 0.876070 0.593810 0.554969
Si Si3 0.300049 0.877833 0.880326
Si Si4 0.698676 0.293579 0.773887
Si Si5 0.275001 0.102962 0.538908
Si Si6 0.164417 0.386079 0.783571
O O1 0.668244 0.575800 0.801284
O O2 0.047556 0.835300 0.858733
O O3 0.756159 0.083770 0.858397
O O4 0.000000 0.723623 0.000000
O O5 0.718258 0.344345 0.515835
O O6 0.000000 0.593871 0.500000
O O7 0.071039 0.541184 0.679170
O O8 0.720651 0.846841 0.510683
O O9 0.357689 0.589566 0.871776
O O10 0.263165 0.100181 0.803729
O O11 0.500000 0.971633 0.000000
O O12 0.477441 0.164227 0.662786
O O13 0.929538 0.338102 0.777216
O O14 0.000000 0.098272 0.500000
#
# Coordination Sequence:
#
# PCOD9113309 Si02
#       6
#     2   2   2   2   2   2
#     4  10  21  40  61  92 124 160 211 261 310 378
#     4  10  21  39  59  88 127 158 209 258 305 373
#     4  10  21  40  61  92 124 160 211 261 310 378
#     4  10  21  39  63  86 125 168 206 254 317 371
#     4  10  21  39  59  88 127 158 209 258 305 373
#     4  10  21  39  63  86 125 168 206 254 317 371
#
# _framework density 25.209748999999999
#
# number of rings (size 3 to 8) (size 9 to 14) (size 15 to 20)
#    0.000    2.000    0.000    3.000    0.000    0.667 
#   18.000    1.667    0.000    0.000    0.000    0.000 
#    0.000    0.000    0.000    0.000    0.000    0.000 
#
# Total GULP energy -66944.556706 kJ/mol
# GULP energy per Si atom -5578.713059 kJ/mol
# Density = 2.515237 g / cm^3
# Si number density = 25.209749 Si / 1000 Ang^3
#
#
#
# Elastic Constant Matrix: (Units=GPa)
#
#
# Indices 1 2 3 4 5 6 
#
# 1 102.0713 8.8433 -23.9493 0.0000 16.3195 0.0000
# 2 8.8433 258.4123 63.5971 0.0000 9.5766 0.0000
# 3 -23.9493 63.5971 115.4024 0.0000 5.0527 0.0000
# 4 0.0000 0.0000 0.0000 45.3715 0.0000 -1.6467
# 5 16.3195 9.5766 5.0527 0.0000 22.0995 0.0000
# 6 0.0000 0.0000 0.0000 -1.6467 0.0000 -40.0872
#
#
#
# Elastic Compliance Matrix: (Units=1/GPa)
#
#
# Indices 1 2 3 4 5 6 
#
# 1 0.012186 -0.000917 0.003445 0.000000 -0.009389 0.000000
# 2 -0.000917 0.004589 -0.002689 0.000000 -0.000697 0.000000
# 3 0.003445 -0.002689 0.011033 0.000000 -0.003902 0.000000
# 4 0.000000 0.000000 0.000000 0.022007 0.000000 -0.000904
# 5 -0.009389 -0.000697 -0.003902 0.000000 0.053377 0.000000
# 6 0.000000 0.000000 0.000000 -0.000904 0.000000 -0.024908
#
#
# Mechanical properties :
#
#
# Convention : Reuss Voigt Hill
#
# Bulk Modulus (GPa) = 36.38047 63.65202 50.01625
# Shear Modulus (GPa) = 56.96919 33.96975 45.46947
#
# Velocity S-wave (km/s) = 4.75890 3.67479 4.25154
# Velocity P-wave (km/s) = 6.68271 6.58098 6.63204
#
# Compressibility (1/GPa) = 0.02748727
#
# Stress axis : x y z
#
# Youngs Moduli (GPa) = 82.06058 217.92866 90.63860
#
# Poissons Ratio (x) = 0.19984 -0.31229
# Poissons Ratio (y) = 0.07525 0.24369
# Poissons Ratio (z) = -0.28273 0.58592
#
# Static dielectric constant tensor:
#      x y z
#    x 2.011550 0.000000 -0.083370 
#    y 0.000000 2.037270 0.000000 
#    z -0.083370 0.000000 2.570470 
# 
# From -- ./inp_files/14888.got.cif
#   From: 2010.05.17/outbox.cif.g08.bks.cpg/sg3_8_cif.got.tgz:14888.got - 2010.06.03 18:33:08.
