data_PCOD9113783
_publ_section_title
;
Structure prediction by ZEFSAII (Michael W. Deem and Ramdas Pophale) SiO2 
 PCOD9113783
Probable space group: P 2
;
_chemical_formula_sum "Si O2"
_cell_formula_units_Z 16
_cell_length_a 8.097317
_cell_length_b 8.708303
_cell_length_c 12.261978
_cell_angle_alpha 90.000000
_cell_angle_beta 52.934395
_cell_angle_gamma 90.000000
_cell_volume 689.935752
_symmetry_space_group_name_H-M "P 2"
_symmetry_group_IT_number 3
_symmetry_cell_setting 'monoclinic'
loop_
_space_group_symop_operation_xyz
x,y,z
-x,y,-z
loop_
_atom_site_type_symbol
_atom_site_label
_atom_site_fract_x
_atom_site_fract_y
_atom_site_fract_z
Si Si1 0.490102 0.654990 0.181745
Si Si2 0.514855 0.062206 0.620416
Si Si3 0.845606 0.427387 0.968386
Si Si4 0.925470 0.552975 0.719289
Si Si5 0.673063 0.725735 0.523990
Si Si6 0.267326 0.114228 0.083958
Si Si7 0.791175 0.920913 0.094200
Si Si8 0.179560 0.222245 0.346728
O O1 0.291524 0.641988 0.184445
O O2 0.400306 0.638454 0.338987
O O3 0.599009 0.817970 0.136136
O O4 0.665998 0.533272 0.086537
O O5 0.500000 0.117829 0.500000
O O6 0.612039 0.184429 0.667245
O O7 0.659374 0.908669 0.554674
O O8 0.297625 0.002831 0.761016
O O9 0.982024 0.505901 0.819362
O O10 0.729071 0.290084 0.954759
O O11 0.000000 0.373296 0.000000
O O12 0.868799 0.397222 0.673842
O O13 0.105139 0.657683 0.597654
O O14 0.500000 0.701009 0.500000
O O15 0.173190 0.116847 0.241517
O O16 0.500000 0.056653 0.000000
O O17 0.159481 0.033119 0.025883
O O18 0.000000 0.819173 0.000000
O O19 0.000000 0.178896 0.500000
#
# Coordination Sequence:
#
# PCOD9113783 Si02
#       8
#     2   2   2   2   2   2   2   2
#     4  11  23  41  68 102 138 181 231 290 345 425
#     4  10  24  45  69 104 143 185 236 301 359 426
#     4  11  23  42  67 100 138 181 230 289 354 418
#     4  11  24  45  72 102 141 188 238 293 353 430
#     4  10  22  44  71 102 142 185 231 293 359 422
#     4  11  23  44  68  96 139 181 234 295 346 421
#     4  11  25  44  70 103 141 188 237 293 359 420
#     4  11  24  44  69 105 137 185 241 288 359 430
#
# _framework density 23.190567000000001
#
# number of rings (size 3 to 8) (size 9 to 14) (size 15 to 20)
#    0.000    1.250    1.250    4.500    1.750    5.000 
#    0.000    2.500    0.000    0.000    0.000    0.000 
#    0.000    0.000    0.000    0.000    0.000    0.000 
#
# Total GULP energy -89369.323650 kJ/mol
# GULP energy per Si atom -5585.582728 kJ/mol
# Density = 2.313778 g / cm^3
# Si number density = 23.190567 Si / 1000 Ang^3
#
#
#
# Elastic Constant Matrix: (Units=GPa)
#
#
# Indices 1 2 3 4 5 6 
#
# 1 89.4037 14.4752 48.6704 0.0000 4.1211 0.0000
# 2 14.4752 27.0127 21.5419 0.0000 -6.0908 0.0000
# 3 48.6704 21.5419 104.3194 0.0000 -2.6883 0.0000
# 4 0.0000 0.0000 0.0000 -3.9398 0.0000 6.1897
# 5 4.1211 -6.0908 -2.6883 0.0000 50.1610 0.0000
# 6 0.0000 0.0000 0.0000 6.1897 0.0000 30.0446
#
#
#
# Elastic Compliance Matrix: (Units=1/GPa)
#
#
# Indices 1 2 3 4 5 6 
#
# 1 0.015391 -0.003519 -0.006507 0.000000 -0.002040 0.000000
# 2 -0.003519 0.046357 -0.007789 0.000000 0.005501 0.000000
# 3 -0.006507 -0.007789 0.014239 0.000000 0.000352 0.000000
# 4 0.000000 0.000000 0.000000 -0.191754 0.000000 0.039505
# 5 -0.002040 0.005501 0.000352 0.000000 0.020790 0.000000
# 6 0.000000 0.000000 0.000000 0.039505 0.000000 0.025145
#
#
# Mechanical properties :
#
#
# Convention : Reuss Voigt Hill
#
# Bulk Modulus (GPa) = 24.77818 43.34562 34.06190
# Shear Modulus (GPa) = -240.98656 24.32304 -108.33176
#
# Velocity S-wave (km/s) = -10.20497 3.24208 -6.84216
# Velocity P-wave (km/s) = 11.32022 5.72245 6.90655
#
# Compressibility (1/GPa) = 0.04035808
#
# Stress axis : x y z
#
# Youngs Moduli (GPa) = 64.97218 21.57157 70.22848
#
# Poissons Ratio (x) = 0.07591 0.45696
# Poissons Ratio (y) = 0.22862 0.54703
# Poissons Ratio (z) = 0.42276 0.16803
#
# Static dielectric constant tensor:
#      x y z
#    x 2.377120 0.000000 0.041500 
#    y 0.000000 1.891270 0.000000 
#    z 0.041500 0.000000 1.883540 
# 
# From -- ./inp_files/10702.got.cif
#   From: 2010.05.17/outbox.cif.g08.bks.cpg/sg3_6_cif.got.tgz:10702.got - 2010.06.03 18:33:08.
