data_PCOD9113961
_publ_section_title
;
Structure prediction by ZEFSAII (Michael W. Deem and Ramdas Pophale) SiO2 
 PCOD9113961
Probable space group: P 2
;
_chemical_formula_sum "Si O2"
_cell_formula_units_Z 14
_cell_length_a 10.776305
_cell_length_b 4.959898
_cell_length_c 16.092323
_cell_angle_alpha 90.000000
_cell_angle_beta 131.411783
_cell_angle_gamma 90.000000
_cell_volume 645.071981
_symmetry_space_group_name_H-M "P 2"
_symmetry_group_IT_number 3
_symmetry_cell_setting 'monoclinic'
loop_
_space_group_symop_operation_xyz
x,y,z
-x,y,-z
loop_
_atom_site_type_symbol
_atom_site_label
_atom_site_fract_x
_atom_site_fract_y
_atom_site_fract_z
Si Si1 0.696303 0.846760 0.774941
Si Si2 0.000000 0.555145 0.500000
Si Si3 0.000000 0.839567 0.000000
Si Si4 0.303030 0.767129 0.413057
Si Si5 0.549728 0.637367 0.927083
Si Si6 0.792960 0.259504 0.526134
Si Si7 0.731493 0.155112 0.944630
Si Si8 0.358899 0.573854 0.679249
O O1 0.515426 0.721253 0.707292
O O2 0.745107 0.845260 0.701384
O O3 0.694734 0.121693 0.829145
O O4 0.845972 0.692917 0.889802
O O5 0.965504 0.363905 0.564425
O O6 0.825620 0.704714 0.408222
O O7 0.085100 0.033219 0.969132
O O8 0.500000 0.806598 0.500000
O O9 0.218322 0.966418 0.441194
O O10 0.262956 0.466813 0.426340
O O11 0.700717 0.437697 0.972775
O O12 0.411603 0.546748 0.798370
O O13 0.606666 0.939821 0.931137
O O14 0.500000 0.612497 0.000000
O O15 0.673215 0.312950 0.393455
#
# Coordination Sequence:
#
# PCOD9113961 Si02
#       8
#     2   1   1   2   2   2   2   2
#     4   9  20  40  66  92 131 170 206 268 321 385
#     4   8  20  46  56  94 122 178 206 256 316 382
#     4   8  20  44  60  98 122 176 204 266 316 402
#     4  12  22  38  63 100 122 167 214 262 317 378
#     4  11  22  40  66  91 121 168 218 264 311 382
#     4  10  24  38  62  90 132 166 209 259 315 380
#     4   9  22  41  61  91 124 167 204 257 330 369
#     4   9  20  43  63  91 127 177 207 264 326 380
#
# _framework density 21.703004
#
# number of rings (size 3 to 8) (size 9 to 14) (size 15 to 20)
#    1.714    0.571    1.429    0.857    2.000    2.286 
#    5.143    0.000    0.000    0.000    0.000    0.000 
#    0.000    0.000    0.000    0.000    0.000    0.000 
#
# Total GULP energy -77941.409011 kJ/mol
# GULP energy per Si atom -5567.243501 kJ/mol
# Density = 2.165361 g / cm^3
# Si number density = 21.703004 Si / 1000 Ang^3
#
#
#
# Elastic Constant Matrix: (Units=GPa)
#
#
# Indices 1 2 3 4 5 6 
#
# 1 112.5983 9.2954 62.8774 0.0000 -6.6348 0.0000
# 2 9.2954 57.6944 13.3684 0.0000 -1.8998 0.0000
# 3 62.8774 13.3684 95.7790 0.0000 -17.3299 0.0000
# 4 0.0000 0.0000 0.0000 10.0912 0.0000 -0.2519
# 5 -6.6348 -1.8998 -17.3299 0.0000 56.4201 0.0000
# 6 0.0000 0.0000 0.0000 -0.2519 0.0000 22.8958
#
#
#
# Elastic Compliance Matrix: (Units=1/GPa)
#
#
# Indices 1 2 3 4 5 6 
#
# 1 0.014106 -0.000120 -0.009470 0.000000 -0.001254 0.000000
# 2 -0.000120 0.017915 -0.002452 0.000000 -0.000164 0.000000
# 3 -0.009470 -0.002452 0.017771 0.000000 0.004262 0.000000
# 4 0.000000 0.000000 0.000000 0.099123 0.000000 0.001090
# 5 -0.001254 -0.000164 0.004262 0.000000 0.018880 0.000000
# 6 0.000000 0.000000 0.000000 0.001090 0.000000 0.043688
#
#
# Mechanical properties :
#
#
# Convention : Reuss Voigt Hill
#
# Bulk Modulus (GPa) = 38.89768 48.57266 43.73517
# Shear Modulus (GPa) = 20.48045 29.91680 25.19862
#
# Velocity S-wave (km/s) = 3.07525 3.71679 3.41114
# Velocity P-wave (km/s) = 5.52912 6.39129 5.97578
#
# Compressibility (1/GPa) = 0.02570848
#
# Stress axis : x y z
#
# Youngs Moduli (GPa) = 70.89431 55.82029 56.27086
#
# Poissons Ratio (x) = 0.00667 0.53290
# Poissons Ratio (y) = 0.00847 0.13795
# Poissons Ratio (z) = 0.67139 0.13685
#
# Static dielectric constant tensor:
#      x y z
#    x 1.808000 0.000000 0.011210 
#    y 0.000000 1.851270 0.000000 
#    z 0.011210 0.000000 1.836220 
# 
# From -- ./inp_files/13629.got.cif
#   From: 2010.05.17/outbox.cif.g08.bks.cpg/sg3_7_cif.got.tgz:13629.got - 2010.06.03 18:33:08.
