data_PCOD9113367
_publ_section_title
;
Structure prediction by ZEFSAII (Michael W. Deem and Ramdas Pophale) SiO2 
 PCOD9113367
Probable space group: P 2
;
_chemical_formula_sum "Si O2"
_cell_formula_units_Z 14
_cell_length_a 7.766576
_cell_length_b 8.254827
_cell_length_c 11.394403
_cell_angle_alpha 90.000000
_cell_angle_beta 58.612351
_cell_angle_gamma 90.000000
_cell_volume 623.613706
_symmetry_space_group_name_H-M "P 2"
_symmetry_group_IT_number 3
_symmetry_cell_setting 'monoclinic'
loop_
_space_group_symop_operation_xyz
x,y,z
-x,y,-z
loop_
_atom_site_type_symbol
_atom_site_label
_atom_site_fract_x
_atom_site_fract_y
_atom_site_fract_z
Si Si1 0.809674 0.986690 0.648470
Si Si2 0.423112 0.854392 0.643457
Si Si3 0.225781 0.675502 0.190572
Si Si4 0.680530 0.199628 0.349970
Si Si5 0.696657 0.661323 0.097235
Si Si6 0.227292 0.290367 0.928790
Si Si7 0.139786 0.302586 0.221687
O O1 0.616568 0.928168 0.642731
O O2 0.858394 0.831458 0.713033
O O3 0.000000 0.015744 0.500000
O O4 0.780518 0.156887 0.726004
O O5 0.500000 0.759485 0.500000
O O6 0.294995 0.762458 0.786733
O O7 0.302680 0.007783 0.636990
O O8 0.462608 0.668254 0.140835
O O9 0.158530 0.492739 0.247151
O O10 0.193983 0.706618 0.062869
O O11 0.500000 0.257541 0.500000
O O12 0.643631 0.218485 0.223013
O O13 0.898750 0.276292 0.294700
O O14 0.765640 0.480733 0.100456
O O15 0.261835 0.280366 0.055401
O O16 0.000000 0.223145 0.000000
#
# Coordination Sequence:
#
# PCOD9113367 Si02
#       7
#     2   2   2   2   2   2   2
#     4  11  23  41  65  92 128 169 214 263 323 383
#     4  10  22  40  60  94 129 166 213 261 320 387
#     4   9  21  41  64  97 122 161 222 268 310 383
#     4  10  21  40  60  94 130 167 217 258 318 393
#     4   9  19  40  62  91 126 162 211 265 318 374
#     4   9  20  39  60  94 123 164 213 260 317 380
#     4  10  22  43  66  91 132 170 215 271 320 372
#
# _framework density 22.449798000000001
#
# number of rings (size 3 to 8) (size 9 to 14) (size 15 to 20)
#    0.000    2.286    0.000    1.714    4.000    1.143 
#   20.571    0.000    0.000    0.000    0.000    0.000 
#    0.000    0.000    0.000    0.000    0.000    0.000 
#
# Total GULP energy -78074.259916 kJ/mol
# GULP energy per Si atom -5576.732851 kJ/mol
# Density = 2.239870 g / cm^3
# Si number density = 22.449798 Si / 1000 Ang^3
#
#
#
# Elastic Constant Matrix: (Units=GPa)
#
#
# Indices 1 2 3 4 5 6 
#
# 1 65.0391 31.5420 40.9628 0.0000 -8.2387 0.0000
# 2 31.5420 105.1503 82.3916 0.0000 23.5829 0.0000
# 3 40.9628 82.3916 148.6762 0.0000 16.6062 0.0000
# 4 0.0000 0.0000 0.0000 79.7346 0.0000 36.0928
# 5 -8.2387 23.5829 16.6062 0.0000 24.2101 0.0000
# 6 0.0000 0.0000 0.0000 36.0928 0.0000 53.2148
#
#
#
# Elastic Compliance Matrix: (Units=1/GPa)
#
#
# Indices 1 2 3 4 5 6 
#
# 1 0.024631 -0.008376 -0.004323 0.000000 0.019507 0.000000
# 2 -0.008376 0.022752 -0.008130 0.000000 -0.019437 0.000000
# 3 -0.004323 -0.008130 0.012673 0.000000 -0.002245 0.000000
# 4 0.000000 0.000000 0.000000 0.018098 0.000000 -0.012275
# 5 0.019507 -0.019437 -0.002245 0.000000 0.068416 0.000000
# 6 0.000000 0.000000 0.000000 -0.012275 0.000000 0.027117
#
#
# Mechanical properties :
#
#
# Convention : Reuss Voigt Hill
#
# Bulk Modulus (GPa) = 54.35271 69.85095 62.10183
# Shear Modulus (GPa) = 22.57545 42.36317 32.46931
#
# Velocity S-wave (km/s) = 3.17456 4.34869 3.80716
# Velocity P-wave (km/s) = 6.14007 7.50977 6.85919
#
# Compressibility (1/GPa) = 0.01839835
#
# Stress axis : x y z
#
# Youngs Moduli (GPa) = 40.59865 43.95180 78.90627
#
# Poissons Ratio (x) = 0.36814 0.34115
# Poissons Ratio (y) = 0.34005 0.64150
# Poissons Ratio (z) = 0.17553 0.35732
#
# Static dielectric constant tensor:
#      x y z
#    x 1.924670 0.000000 0.020230 
#    y 0.000000 1.812560 0.000000 
#    z 0.020230 0.000000 1.924150 
# 
# From -- ./inp_files/7377.got.cif
#   From: 2010.05.17/outbox.cif.g08.bks.cpg/sg3_4_cif.got.tgz:7377.got - 2010.06.03 18:33:08.
