data_PCOD9113404
_publ_section_title
;
Structure prediction by ZEFSAII (Michael W. Deem and Ramdas Pophale) SiO2 
 PCOD9113404
Probable space group: P 2
;
_chemical_formula_sum "Si O2"
_cell_formula_units_Z 14
_cell_length_a 18.938802
_cell_length_b 6.282346
_cell_length_c 7.905589
_cell_angle_alpha 90.000000
_cell_angle_beta 139.718665
_cell_angle_gamma 90.000000
_cell_volume 608.141800
_symmetry_space_group_name_H-M "P 2"
_symmetry_group_IT_number 3
_symmetry_cell_setting 'monoclinic'
loop_
_space_group_symop_operation_xyz
x,y,z
-x,y,-z
loop_
_atom_site_type_symbol
_atom_site_label
_atom_site_fract_x
_atom_site_fract_y
_atom_site_fract_z
Si Si1 0.176441 0.576450 0.940825
Si Si2 0.500000 0.099831 0.500000
Si Si3 0.000000 0.329145 0.500000
Si Si4 0.718458 0.695926 0.362039
Si Si5 0.303783 0.935364 0.344953
Si Si6 0.347661 0.383837 0.022456
Si Si7 0.151928 0.088227 0.526395
Si Si8 0.832348 0.315957 0.771301
O O1 0.206373 0.801873 0.075325
O O2 0.291635 0.481359 0.088369
O O3 0.114998 0.426464 0.968854
O O4 0.095471 0.513097 0.644868
O O5 0.452899 0.252146 0.267433
O O6 0.402825 0.960142 0.397897
O O7 0.943432 0.150837 0.521304
O O8 0.665907 0.825440 0.421583
O O9 0.784725 0.512886 0.580193
O O10 0.801297 0.851026 0.413384
O O11 0.640050 0.576206 0.087399
O O12 0.259279 0.165884 0.313762
O O13 0.260051 0.218392 0.783708
O O14 0.114794 0.168208 0.273039
#
# Coordination Sequence:
#
# PCOD9113404 Si02
#       8
#     2   1   1   2   2   2   2   2
#     4  10  21  40  68  98 139 180 224 293 348 415
#     4  12  24  42  72 104 136 194 240 296 352 416
#     4  10  22  40  70 108 140 180 236 280 354 428
#     4   9  20  42  69  93 135 188 219 297 359 407
#     4  10  22  42  70  98 138 186 240 287 351 420
#     4  10  22  40  66  94 141 174 231 293 345 414
#     4   9  20  41  66  98 138 175 226 286 345 427
#     4   9  18  41  65  95 137 178 222 296 347 407
#
# _framework density 23.020947
#
# number of rings (size 3 to 8) (size 9 to 14) (size 15 to 20)
#    0.000    2.286    1.429    0.000    2.000    1.143 
#    0.000   19.286    3.143   13.714    0.000    0.000 
#    0.000    0.000    0.000    0.000    0.000    0.000 
#
# Total GULP energy -77951.520586 kJ/mol
# GULP energy per Si atom -5567.965756 kJ/mol
# Density = 2.296855 g / cm^3
# Si number density = 23.020947 Si / 1000 Ang^3
#
#
#
# Elastic Constant Matrix: (Units=GPa)
#
#
# Indices 1 2 3 4 5 6 
#
# 1 40.1329 47.0558 -53.3924 0.0000 33.6465 0.0000
# 2 47.0558 132.2332 32.3315 0.0000 1.5685 0.0000
# 3 -53.3924 32.3315 -7.1882 0.0000 37.1491 0.0000
# 4 0.0000 0.0000 0.0000 0.6127 0.0000 -29.9713
# 5 33.6465 1.5685 37.1491 0.0000 7.4773 0.0000
# 6 0.0000 0.0000 0.0000 -29.9713 0.0000 25.5383
#
#
#
# Elastic Compliance Matrix: (Units=1/GPa)
#
#
# Indices 1 2 3 4 5 6 
#
# 1 0.007073 -0.000617 -0.008214 0.000000 0.009112 0.000000
# 2 -0.000617 0.007459 0.001664 0.000000 -0.007056 0.000000
# 3 -0.008214 0.001664 0.004446 0.000000 0.014525 0.000000
# 4 0.000000 0.000000 0.000000 -0.028934 0.000000 -0.033957
# 5 0.009112 -0.007056 0.014525 0.000000 0.022048 0.000000
# 6 0.000000 0.000000 0.000000 -0.033957 0.000000 -0.000694
#
#
# Mechanical properties :
#
#
# Convention : Reuss Voigt Hill
#
# Bulk Modulus (GPa) = 215.36183 24.12977 119.74580
# Shear Modulus (GPa) = 183.29509 16.00452 99.64980
#
# Velocity S-wave (km/s) = 8.93274 2.63955 6.58639
# Velocity P-wave (km/s) = 14.14727 4.44905 10.48664
#
# Compressibility (1/GPa) = 0.00464335
#
# Stress axis : x y z
#
# Youngs Moduli (GPa) = 141.38881 134.07112 224.93946
#
# Poissons Ratio (x) = 0.08267 1.84764
# Poissons Ratio (y) = 0.08718 -0.37423
# Poissons Ratio (z) = 1.16136 -0.22305
#
# Static dielectric constant tensor:
#      x y z
#    x 2.825360 0.000000 -2.263670 
#    y 0.000000 1.880290 0.000000 
#    z -2.263670 0.000000 7.302120 
# 
# From -- ./inp_files/6654.got.cif
#   From: 2010.05.17/outbox.cif.g08.bks.cpg/sg3_4_cif.got.tgz:6654.got - 2010.06.03 18:33:08.
