data_PCOD9113053
_publ_section_title
;
Structure prediction by ZEFSAII (Michael W. Deem and Ramdas Pophale) SiO2 
 PCOD9113053
Probable space group: P 2
;
_chemical_formula_sum "Si O2"
_cell_formula_units_Z 15
_cell_length_a 8.997136
_cell_length_b 5.663699
_cell_length_c 13.194618
_cell_angle_alpha 90.000000
_cell_angle_beta 106.960176
_cell_angle_gamma 90.000000
_cell_volume 643.116660
_symmetry_space_group_name_H-M "P 2"
_symmetry_group_IT_number 3
_symmetry_cell_setting 'monoclinic'
loop_
_space_group_symop_operation_xyz
x,y,z
-x,y,-z
loop_
_atom_site_type_symbol
_atom_site_label
_atom_site_fract_x
_atom_site_fract_y
_atom_site_fract_z
Si Si1 0.997608 0.790610 0.893117
Si Si2 0.229356 0.430509 0.873465
Si Si3 0.802148 0.957008 0.543724
Si Si4 0.887515 0.060803 0.284391
Si Si5 0.685749 0.458077 0.522140
Si Si6 0.298062 0.698919 0.284720
Si Si7 0.573674 0.811321 0.203873
Si Si8 0.500000 0.102936 0.000000
O O1 0.825818 0.717629 0.828066
O O2 0.112188 0.567062 0.922748
O O3 0.060616 0.931859 0.809103
O O4 0.000000 0.922557 0.000000
O O5 0.132476 0.326390 0.758828
O O6 0.349820 0.607725 0.846829
O O7 0.339967 0.244223 0.950846
O O8 0.735713 0.204915 0.488654
O O9 0.983357 0.999604 0.607046
O O10 0.760988 0.697455 0.488567
O O11 0.719906 0.912954 0.637939
O O12 0.715828 0.966692 0.274519
O O13 0.500000 0.481124 0.500000
O O14 0.742045 0.478614 0.650725
O O15 0.466087 0.707393 0.269306
O O16 0.480926 0.960311 0.100961
#
# Coordination Sequence:
#
# PCOD9113053 Si02
#       8
#     2   2   2   2   2   2   2   1
#     4  10  21  35  53  80 115 149 196 246 292 349
#     4  10  21  35  54  73 109 161 197 244 293 350
#     4   9  20  38  63  90 118 153 193 243 302 358
#     4   9  20  37  53  81 111 156 197 236 294 357
#     4  10  20  38  65  96 119 151 196 251 308 359
#     4   9  22  36  59  88 118 151 198 252 298 353
#     4  10  21  37  54  81 115 155 201 244 299 352
#     4  10  22  34  52  74 112 160 208 242 292 350
#
# _framework density 23.323919
#
# number of rings (size 3 to 8) (size 9 to 14) (size 15 to 20)
#    0.800    1.600    0.000    1.600    9.333    2.667 
#    2.400    0.000    0.000    0.800    0.000    0.000 
#    0.000    0.000    0.000    0.000    0.000    0.000 
#
# Total GULP energy -83689.390392 kJ/mol
# GULP energy per Si atom -5579.292693 kJ/mol
# Density = 2.327083 g / cm^3
# Si number density = 23.323919 Si / 1000 Ang^3
#
#
#
# Elastic Constant Matrix: (Units=GPa)
#
#
# Indices 1 2 3 4 5 6 
#
# 1 80.3139 12.3160 19.7316 0.0000 9.0715 0.0000
# 2 12.3160 112.8129 25.0698 0.0000 8.7556 0.0000
# 3 19.7316 25.0698 90.5756 0.0000 -0.6975 0.0000
# 4 0.0000 0.0000 0.0000 27.4660 0.0000 2.8863
# 5 9.0715 8.7556 -0.6975 0.0000 36.1856 0.0000
# 6 0.0000 0.0000 0.0000 2.8863 0.0000 11.1362
#
#
#
# Elastic Compliance Matrix: (Units=1/GPa)
#
#
# Indices 1 2 3 4 5 6 
#
# 1 0.013612 -0.000601 -0.002825 0.000000 -0.003322 0.000000
# 2 -0.000601 0.009673 -0.002564 0.000000 -0.002239 0.000000
# 3 -0.002825 -0.002564 0.012378 0.000000 0.001567 0.000000
# 4 0.000000 0.000000 0.000000 0.037428 0.000000 -0.009701
# 5 -0.003322 -0.002239 0.001567 0.000000 0.029040 0.000000
# 6 0.000000 0.000000 0.000000 -0.009701 0.000000 0.092312
#
#
# Mechanical properties :
#
#
# Convention : Reuss Voigt Hill
#
# Bulk Modulus (GPa) = 42.22084 44.21525 43.21805
# Shear Modulus (GPa) = 23.33000 30.06322 26.69661
#
# Velocity S-wave (km/s) = 3.16612 3.59408 3.38687
# Velocity P-wave (km/s) = 5.61311 6.01842 5.81930
#
# Compressibility (1/GPa) = 0.02368499
#
# Stress axis : x y z
#
# Youngs Moduli (GPa) = 73.46232 103.37673 80.79137
#
# Poissons Ratio (x) = 0.06208 0.22822
# Poissons Ratio (y) = 0.04412 0.20714
# Poissons Ratio (z) = 0.20751 0.26504
#
# Static dielectric constant tensor:
#      x y z
#    x 1.841670 0.000000 0.009090 
#    y 0.000000 1.939630 0.000000 
#    z 0.009090 0.000000 1.901330 
# 
# From -- ./inp_files/14792.got.cif
#   From: 2010.05.17/outbox.cif.g08.bks.cpg/sg3_8_cif.got.tgz:14792.got - 2010.06.03 18:33:08.
