data_PCOD9113285
_publ_section_title
;
Structure prediction by ZEFSAII (Michael W. Deem and Ramdas Pophale) SiO2 
 PCOD9113285
Probable space group: P 2
;
_chemical_formula_sum "Si O2"
_cell_formula_units_Z 15
_cell_length_a 20.528768
_cell_length_b 5.628797
_cell_length_c 5.242493
_cell_angle_alpha 90.000000
_cell_angle_beta 81.964783
_cell_angle_gamma 90.000000
_cell_volume 599.834593
_symmetry_space_group_name_H-M "P 2"
_symmetry_group_IT_number 3
_symmetry_cell_setting 'monoclinic'
loop_
_space_group_symop_operation_xyz
x,y,z
-x,y,-z
loop_
_atom_site_type_symbol
_atom_site_label
_atom_site_fract_x
_atom_site_fract_y
_atom_site_fract_z
Si Si1 0.376443 0.186830 0.356009
Si Si2 0.300012 0.847267 0.739280
Si Si3 0.076700 0.412214 0.974209
Si Si4 0.500000 0.178907 0.500000
Si Si5 0.741116 0.455233 0.655708
Si Si6 0.433076 0.816236 0.937493
Si Si7 0.130970 0.168535 0.457468
Si Si8 0.825763 0.780769 0.934965
O O1 0.440260 0.326171 0.416018
O O2 0.326299 0.336738 0.222170
O O3 0.331799 0.082844 0.602825
O O4 0.404382 0.962154 0.191689
O O5 0.276372 0.658722 0.539348
O O6 0.364329 0.732209 0.846278
O O7 0.232236 0.936212 0.910455
O O8 0.094003 0.221716 0.742716
O O9 0.095417 0.311034 0.244306
O O10 0.120044 0.652522 0.921169
O O11 0.000000 0.466493 0.000000
O O12 0.464232 0.009345 0.724290
O O13 0.796174 0.271078 0.534993
O O14 0.777692 0.573370 0.869850
O O15 0.500000 0.682383 0.000000
O O16 0.140807 0.910048 0.324296
#
# Coordination Sequence:
#
# PCOD9113285 Si02
#       8
#     2   2   2   1   2   2   2   2
#     4  10  21  38  63  89 132 175 239 296 374 429
#     4  11  21  38  64  97 132 183 238 297 373 439
#     4  11  26  50  77 112 150 198 249 304 367 460
#     4   8  18  36  60  86 122 182 230 296 364 440
#     4  11  23  39  62 102 137 177 238 299 364 441
#     4   9  18  36  60  89 126 180 236 296 365 441
#     4  11  25  45  76 107 149 195 246 301 375 440
#     4  11  26  44  72 105 149 186 242 305 372 441
#
# _framework density 25.006892000000001
#
# number of rings (size 3 to 8) (size 9 to 14) (size 15 to 20)
#    0.000    1.600    1.333    2.800    3.733    2.667 
#    0.000    8.000    0.000    8.000    0.000    0.000 
#    0.000    0.000    0.000    0.000    0.000    0.000 
#
# Total GULP energy -83743.770184 kJ/mol
# GULP energy per Si atom -5582.918012 kJ/mol
# Density = 2.494998 g / cm^3
# Si number density = 25.006892 Si / 1000 Ang^3
#
#
#
# Elastic Constant Matrix: (Units=GPa)
#
#
# Indices 1 2 3 4 5 6 
#
# 1 240.0718 40.3629 49.7328 0.0000 10.0122 0.0000
# 2 40.3629 51.8718 14.7485 0.0000 -3.8987 0.0000
# 3 49.7328 14.7485 88.3179 0.0000 -10.8666 0.0000
# 4 0.0000 0.0000 0.0000 -20.9049 0.0000 5.0287
# 5 10.0122 -3.8987 -10.8666 0.0000 38.3424 0.0000
# 6 0.0000 0.0000 0.0000 5.0287 0.0000 25.1009
#
#
#
# Elastic Compliance Matrix: (Units=1/GPa)
#
#
# Indices 1 2 3 4 5 6 
#
# 1 0.005465 -0.003655 -0.002785 0.000000 -0.002588 0.000000
# 2 -0.003655 0.022732 -0.001384 0.000000 0.002873 0.000000
# 3 -0.002785 -0.001384 0.013671 0.000000 0.004461 0.000000
# 4 0.000000 0.000000 0.000000 -0.045636 0.000000 0.009143
# 5 -0.002588 0.002873 0.004461 0.000000 0.028313 0.000000
# 6 0.000000 0.000000 0.000000 0.009143 0.000000 0.038007
#
#
# Mechanical properties :
#
#
# Convention : Reuss Voigt Hill
#
# Bulk Modulus (GPa) = 38.14087 65.54999 51.84543
# Shear Modulus (GPa) = 57.50999 26.86883 42.18941
#
# Velocity S-wave (km/s) = 4.80079 3.28145 4.11190
# Velocity P-wave (km/s) = 6.78346 6.37392 6.58188
#
# Compressibility (1/GPa) = 0.02621859
#
# Stress axis : x y z
#
# Youngs Moduli (GPa) = 182.98676 43.99106 73.14583
#
# Poissons Ratio (x) = 0.16078 0.20374
# Poissons Ratio (y) = 0.66880 0.10126
# Poissons Ratio (z) = 0.50969 0.06090
#
# Static dielectric constant tensor:
#      x y z
#    x 2.081450 0.000000 -0.016230 
#    y 0.000000 2.117200 0.000000 
#    z -0.016230 0.000000 2.115920 
# 
# From -- ./inp_files/3889.got.cif
#   From: 2010.05.17/outbox.cif.g08.bks.cpg/sg3_2_cif.got.tgz:3889.got - 2010.06.03 18:33:08.
