data_PCOD9113068
_publ_section_title
;
Structure prediction by ZEFSAII (Michael W. Deem and Ramdas Pophale) SiO2 
 PCOD9113068
Probable space group: P 2
;
_chemical_formula_sum "Si O2"
_cell_formula_units_Z 12
_cell_length_a 18.078777
_cell_length_b 5.337900
_cell_length_c 12.979500
_cell_angle_alpha 90.000000
_cell_angle_beta 21.225266
_cell_angle_gamma 90.000000
_cell_volume 453.470251
_symmetry_space_group_name_H-M "P 2"
_symmetry_group_IT_number 3
_symmetry_cell_setting 'monoclinic'
loop_
_space_group_symop_operation_xyz
x,y,z
-x,y,-z
loop_
_atom_site_type_symbol
_atom_site_label
_atom_site_fract_x
_atom_site_fract_y
_atom_site_fract_z
Si Si1 0.726273 0.129140 0.007372
Si Si2 0.693975 0.556552 0.321321
Si Si3 0.637100 0.422793 0.917139
Si Si4 0.983502 0.616962 0.699091
Si Si5 0.307668 0.728518 0.448993
Si Si6 0.724433 0.061370 0.337814
O O1 0.667147 0.217131 0.967689
O O2 0.833483 0.382057 0.908406
O O3 0.524119 0.077525 0.339001
O O4 0.865110 0.877576 0.829004
O O5 0.500000 0.550412 0.500000
O O6 0.644927 0.573121 0.507895
O O7 0.815179 0.301490 0.165982
O O8 0.797801 0.823621 0.177315
O O9 0.854239 0.525257 0.597287
O O10 0.500000 0.320490 0.000000
O O11 0.509655 0.664520 0.122610
O O12 0.123597 0.646004 0.617368
O O13 0.249870 0.995122 0.575092
#
# Coordination Sequence:
#
# PCOD9113068 Si02
#       6
#     2   2   2   2   2   2
#     4  12  23  42  59  92 129 163 204 253 307 361
#     4  10  20  38  70  94 114 150 213 259 303 363
#     4  10  22  43  60  89 125 173 213 252 288 357
#     4  11  26  38  63  89 131 167 208 245 305 363
#     4   9  22  41  63  91 123 161 209 256 299 353
#     4  10  21  38  64  88 125 155 203 249 314 351
#
# _framework density 26.462596000000001
#
# number of rings (size 3 to 8) (size 9 to 14) (size 15 to 20)
#    1.000    0.667    1.667    3.000    2.333    5.333 
#    0.000    5.833    0.000    6.000    0.000    0.000 
#    0.000    0.000    0.000    0.000    0.000    0.000 
#
# Total GULP energy -67066.118313 kJ/mol
# GULP energy per Si atom -5588.843193 kJ/mol
# Density = 2.640237 g / cm^3
# Si number density = 26.462596 Si / 1000 Ang^3
#
#
#
# Elastic Constant Matrix: (Units=GPa)
#
#
# Indices 1 2 3 4 5 6 
#
# 1 181.8091 46.6795 47.8467 0.0000 -15.2008 0.0000
# 2 46.6795 204.2207 61.3589 0.0000 -6.8878 0.0000
# 3 47.8467 61.3589 161.5268 0.0000 -5.0202 0.0000
# 4 0.0000 0.0000 0.0000 17.9548 0.0000 -4.9390
# 5 -15.2008 -6.8878 -5.0202 0.0000 39.1953 0.0000
# 6 0.0000 0.0000 0.0000 -4.9390 0.0000 36.9877
#
#
#
# Elastic Compliance Matrix: (Units=1/GPa)
#
#
# Indices 1 2 3 4 5 6 
#
# 1 0.006295 -0.000934 -0.001445 0.000000 0.002092 0.000000
# 2 -0.000934 0.005686 -0.001871 0.000000 0.000397 0.000000
# 3 -0.001445 -0.001871 0.007331 0.000000 0.000050 0.000000
# 4 0.000000 0.000000 0.000000 0.057819 0.000000 0.007721
# 5 0.002092 0.000397 0.000050 0.000000 0.026401 0.000000
# 6 0.000000 0.000000 0.000000 0.007721 0.000000 0.028067
#
#
# Mechanical properties :
#
#
# Convention : Reuss Voigt Hill
#
# Bulk Modulus (GPa) = 92.48629 95.48074 93.98351
# Shear Modulus (GPa) = 34.79406 44.93903 39.86654
#
# Velocity S-wave (km/s) = 3.63000 4.12540 3.88561
# Velocity P-wave (km/s) = 7.25224 7.67148 7.46480
#
# Compressibility (1/GPa) = 0.01081241
#
# Stress axis : x y z
#
# Youngs Moduli (GPa) = 158.84832 175.88072 136.40554
#
# Poissons Ratio (x) = 0.16432 0.19708
# Poissons Ratio (y) = 0.14841 0.25518
# Poissons Ratio (z) = 0.22951 0.32902
#
# Static dielectric constant tensor:
#      x y z
#    x 2.153600 0.000000 0.014650 
#    y 0.000000 2.211560 0.000000 
#    z 0.014650 0.000000 2.041180 
# 
# From -- ./inp_files/14267.got.cif
#   From: 2010.05.17/outbox.cif.g08.bks.cpg/sg3_8_cif.got.tgz:14267.got - 2010.06.03 18:33:08.
