data_PCOD9113052
_publ_section_title
;
Structure prediction by ZEFSAII (Michael W. Deem and Ramdas Pophale) SiO2 
 PCOD9113052
Probable space group: P 2
;
_chemical_formula_sum "Si O2"
_cell_formula_units_Z 13
_cell_length_a 17.866560
_cell_length_b 6.727741
_cell_length_c 9.151548
_cell_angle_alpha 90.000000
_cell_angle_beta 145.576557
_cell_angle_gamma 90.000000
_cell_volume 621.852314
_symmetry_space_group_name_H-M "P 2"
_symmetry_group_IT_number 3
_symmetry_cell_setting 'monoclinic'
loop_
_space_group_symop_operation_xyz
x,y,z
-x,y,-z
loop_
_atom_site_type_symbol
_atom_site_label
_atom_site_fract_x
_atom_site_fract_y
_atom_site_fract_z
Si Si1 0.160491 0.613270 0.161633
Si Si2 0.629852 0.543055 0.044862
Si Si3 0.500000 0.187856 0.000000
Si Si4 0.738213 0.339117 0.936142
Si Si5 0.893599 0.582406 0.608107
Si Si6 0.500000 0.045075 0.500000
Si Si7 0.000000 0.331339 0.500000
Si Si8 0.409856 0.853405 0.642387
O O1 0.219909 0.464197 0.138062
O O2 0.138636 0.497653 0.281156
O O3 0.263241 0.784900 0.366702
O O4 0.025772 0.700244 0.871268
O O5 0.751448 0.656715 0.320635
O O6 0.599303 0.331945 0.072273
O O7 0.676175 0.489550 0.955920
O O8 0.495012 0.666173 0.834317
O O9 0.420360 0.040956 0.765448
O O10 0.628331 0.182027 0.717789
O O11 0.867298 0.236664 0.218914
O O12 0.944598 0.454062 0.551739
O O13 0.486299 0.914083 0.619883
#
# Coordination Sequence:
#
# PCOD9113052 Si02
#       8
#     2   2   1   2   2   1   1   2
#     4  10  20  38  65  95 127 164 211 267 324 376
#     4  11  22  42  64  90 129 176 212 267 323 386
#     4  12  24  40  64  98 128 174 216 270 318 400
#     4  10  20  39  64  91 129 169 213 265 327 379
#     4   9  19  36  68  91 121 170 213 254 322 390
#     4  12  24  40  60  96 132 164 220 272 318 384
#     4   8  18  36  62  98 120 166 220 252 318 398
#     4  12  25  40  64  97 131 168 219 267 324 386
#
# _framework density 20.905284000000002
#
# number of rings (size 3 to 8) (size 9 to 14) (size 15 to 20)
#    0.000    1.538    1.538    4.154    2.154    0.000 
#    0.000    1.538   16.923    0.000    0.000    0.000 
#    0.000    0.000    0.000    0.000    0.000    0.000 
#
# Total GULP energy -72438.053017 kJ/mol
# GULP energy per Si atom -5572.157924 kJ/mol
# Density = 2.085770 g / cm^3
# Si number density = 20.905284 Si / 1000 Ang^3
#
#
#
# Elastic Constant Matrix: (Units=GPa)
#
#
# Indices 1 2 3 4 5 6 
#
# 1 114.5305 20.9800 5.2688 0.0000 -21.8362 0.0000
# 2 20.9800 62.9890 41.9684 0.0000 0.1356 0.0000
# 3 5.2688 41.9684 105.4364 0.0000 23.7039 0.0000
# 4 0.0000 0.0000 0.0000 15.7325 0.0000 -15.0385
# 5 -21.8362 0.1356 23.7039 0.0000 50.6349 0.0000
# 6 0.0000 0.0000 0.0000 -15.0385 0.0000 -3.1138
#
#
#
# Elastic Compliance Matrix: (Units=1/GPa)
#
#
# Indices 1 2 3 4 5 6 
#
# 1 0.010199 -0.003254 -0.000229 0.000000 0.004514 0.000000
# 2 -0.003254 0.023573 -0.009937 0.000000 0.003185 0.000000
# 3 -0.000229 -0.009937 0.015051 0.000000 -0.007118 0.000000
# 4 0.000000 0.000000 0.000000 0.011317 0.000000 -0.054657
# 5 0.004514 0.003185 -0.007118 0.000000 0.025020 0.000000
# 6 0.000000 0.000000 0.000000 -0.054657 0.000000 -0.057179
#
#
# Mechanical properties :
#
#
# Convention : Reuss Voigt Hill
#
# Bulk Modulus (GPa) = 45.48856 46.59893 46.04374
# Shear Modulus (GPa) = 80.45219 26.96665 53.70942
#
# Velocity S-wave (km/s) = 6.21029 3.59548 5.07421
# Velocity P-wave (km/s) = 8.55746 6.29091 7.51018
#
# Compressibility (1/GPa) = 0.02198355
#
# Stress axis : x y z
#
# Youngs Moduli (GPa) = 98.05319 42.42067 66.43858
#
# Poissons Ratio (x) = 0.13803 0.01524
# Poissons Ratio (y) = 0.31904 0.66019
# Poissons Ratio (z) = 0.02249 0.42153
#
# Static dielectric constant tensor:
#      x y z
#    x 1.796690 0.000000 0.008450 
#    y 0.000000 1.694680 0.000000 
#    z 0.008450 0.000000 1.788000 
# 
# From -- ./inp_files/8992.got.cif
#   From: 2010.05.17/outbox.cif.g08.bks.cpg/sg3_5_cif.got.tgz:8992.got - 2010.06.03 18:33:08.
