data_PCOD9113090
_publ_section_title
;
Structure prediction by ZEFSAII (Michael W. Deem and Ramdas Pophale) SiO2 
 PCOD9113090
Probable space group: P 2
;
_chemical_formula_sum "Si O2"
_cell_formula_units_Z 12
_cell_length_a 17.033542
_cell_length_b 7.044749
_cell_length_c 6.135088
_cell_angle_alpha 90.000000
_cell_angle_beta 132.288592
_cell_angle_gamma 90.000000
_cell_volume 544.609377
_symmetry_space_group_name_H-M "P 2"
_symmetry_group_IT_number 3
_symmetry_cell_setting 'monoclinic'
loop_
_space_group_symop_operation_xyz
x,y,z
-x,y,-z
loop_
_atom_site_type_symbol
_atom_site_label
_atom_site_fract_x
_atom_site_fract_y
_atom_site_fract_z
Si Si1 0.100863 0.605890 0.834209
Si Si2 0.011103 0.216980 0.270075
Si Si3 0.297432 0.583303 0.872537
Si Si4 0.764417 0.848016 0.630478
Si Si5 0.615556 0.911764 0.736556
Si Si6 0.746076 0.188097 0.281919
O O1 0.209406 0.576462 0.900670
O O2 0.000000 0.658542 0.500000
O O3 0.063794 0.405313 0.870556
O O4 0.131288 0.782062 0.045321
O O5 0.135276 0.266845 0.519791
O O6 0.000000 0.128901 0.500000
O O7 0.000000 0.132677 0.000000
O O8 0.244522 0.693435 0.574516
O O9 0.326971 0.373156 0.853691
O O10 0.389872 0.722878 0.125454
O O11 0.663490 0.845105 0.599093
O O12 0.756947 0.054812 0.511533
O O13 0.500000 0.000464 0.500000
O O14 0.701623 0.051512 0.008751
#
# Coordination Sequence:
#
# PCOD9113090 Si02
#       6
#     2   2   2   2   2   2
#     4  10  20  39  66  91 139 190 224 278 344 423
#     4  11  23  40  68 100 146 194 237 282 347 424
#     4  10  21  43  69  95 133 178 229 285 354 425
#     4  10  24  42  67  96 132 178 233 297 350 423
#     4  10  25  47  67  97 137 176 230 303 366 427
#     4  11  23  43  68 103 135 182 238 292 347 431
#
# _framework density 22.034139
#
# number of rings (size 3 to 8) (size 9 to 14) (size 15 to 20)
#    0.000    1.667    3.333    1.000    2.333    6.000 
#    9.000    1.667    0.000    0.000    0.000    0.000 
#    0.000    0.000    0.000    0.000    0.000    0.000 
#
# Total GULP energy -66827.024916 kJ/mol
# GULP energy per Si atom -5568.918743 kJ/mol
# Density = 2.198399 g / cm^3
# Si number density = 22.034139 Si / 1000 Ang^3
#
#
#
# Elastic Constant Matrix: (Units=GPa)
#
#
# Indices 1 2 3 4 5 6 
#
# 1 51.4156 9.0046 29.8448 0.0000 -6.4577 0.0000
# 2 9.0046 105.5724 11.2533 0.0000 -16.1558 0.0000
# 3 29.8448 11.2533 75.4234 0.0000 -8.8826 0.0000
# 4 0.0000 0.0000 0.0000 20.8205 0.0000 2.6658
# 5 -6.4577 -16.1558 -8.8826 0.0000 33.3175 0.0000
# 6 0.0000 0.0000 0.0000 2.6658 0.0000 6.4574
#
#
#
# Elastic Compliance Matrix: (Units=1/GPa)
#
#
# Indices 1 2 3 4 5 6 
#
# 1 0.025489 -0.000840 -0.009732 0.000000 0.001938 0.000000
# 2 -0.000840 0.010329 -0.000659 0.000000 0.004670 0.000000
# 3 -0.009732 -0.000659 0.017497 0.000000 0.002459 0.000000
# 4 0.000000 0.000000 0.000000 0.050710 0.000000 -0.020935
# 5 0.001938 0.004670 0.002459 0.000000 0.033310 0.000000
# 6 0.000000 0.000000 0.000000 -0.020935 0.000000 0.163504
#
#
# Mechanical properties :
#
#
# Convention : Reuss Voigt Hill
#
# Bulk Modulus (GPa) = 32.41156 36.95741 34.68448
# Shear Modulus (GPa) = 14.98864 24.27301 19.63082
#
# Velocity S-wave (km/s) = 2.61098 3.32265 2.98808
# Velocity P-wave (km/s) = 4.88173 5.61509 5.26120
#
# Compressibility (1/GPa) = 0.03085319
#
# Stress axis : x y z
#
# Youngs Moduli (GPa) = 39.23228 96.81779 57.15114
#
# Poissons Ratio (x) = 0.08133 0.55622
# Poissons Ratio (y) = 0.03296 0.03764
# Poissons Ratio (z) = 0.38182 0.06377
#
# Static dielectric constant tensor:
#      x y z
#    x 1.819730 0.000000 -0.059080 
#    y 0.000000 1.846770 0.000000 
#    z -0.059080 0.000000 1.850890 
# 
# From -- ./inp_files/3227.got.cif
#   From: 2010.05.17/outbox.cif.g08.bks.cpg/sg3_2_cif.got.tgz:3227.got - 2010.06.03 18:33:08.
