data_PCOD9113143
_publ_section_title
;
Structure prediction by ZEFSAII (Michael W. Deem and Ramdas Pophale) SiO2 
 PCOD9113143
Probable space group: P 2
;
_chemical_formula_sum "Si O2"
_cell_formula_units_Z 14
_cell_length_a 7.517812
_cell_length_b 6.525852
_cell_length_c 12.877113
_cell_angle_alpha 90.000000
_cell_angle_beta 83.342889
_cell_angle_gamma 90.000000
_cell_volume 627.493355
_symmetry_space_group_name_H-M "P 2"
_symmetry_group_IT_number 3
_symmetry_cell_setting 'monoclinic'
loop_
_space_group_symop_operation_xyz
x,y,z
-x,y,-z
loop_
_atom_site_type_symbol
_atom_site_label
_atom_site_fract_x
_atom_site_fract_y
_atom_site_fract_z
Si Si1 0.500000 0.721500 0.500000
Si Si2 0.468033 0.367680 0.340060
Si Si3 0.031968 0.367680 0.159940
Si Si4 0.000000 0.721500 0.000000
Si Si5 0.935427 0.292243 0.612339
Si Si6 0.564572 0.292241 0.887661
Si Si7 0.248488 0.011467 0.633453
Si Si8 0.748488 0.011467 0.133454
O O1 0.464441 0.573025 0.405947
O O2 0.335497 0.863055 0.544466
O O3 0.480031 0.410012 0.216179
O O4 0.625889 0.215567 0.365031
O O5 0.276771 0.259538 0.373413
O O6 0.223229 0.259538 0.126588
O O7 0.019970 0.410014 0.283821
O O8 0.874111 0.215567 0.134970
O O9 0.035559 0.573025 0.094053
O O10 0.835498 0.863055 0.044466
O O11 0.051767 0.086488 0.616713
O O12 0.000000 0.390435 0.500000
O O13 0.500000 0.390431 0.000000
O O14 0.551767 0.086486 0.116714
O O15 0.250000 0.921383 0.750000
#
# Coordination Sequence:
#
# PCOD9113143 Si02
#       8
#     1   2   2   1   2   2   2   2
#     4  12  22  40  68  98 128 162 212 268 312 370
#     4  10  23  41  63  94 130 165 208 261 316 375
#     4  10  23  41  63  94 130 165 208 261 316 375
#     4  12  22  40  68  98 128 162 212 268 312 370
#     4  10  20  41  66  87 123 170 207 251 313 373
#     4  10  20  41  66  87 123 170 207 251 313 373
#     4  10  23  42  64  92 128 168 210 259 316 374
#     4  10  23  42  64  92 128 168 210 259 316 374
#
# _framework density 22.310993
#
# number of rings (size 3 to 8) (size 9 to 14) (size 15 to 20)
#    0.000    1.714    0.000    4.286    0.000    5.714 
#    0.000   35.714    0.000    0.000    0.000    0.000 
#    0.000    0.000    0.000    0.000    0.000    0.000 
#
# Total GULP energy -78285.835811 kJ/mol
# GULP energy per Si atom -5591.845415 kJ/mol
# Density = 2.226021 g / cm^3
# Si number density = 22.310993 Si / 1000 Ang^3
#
#
#
# Elastic Constant Matrix: (Units=GPa)
#
#
# Indices 1 2 3 4 5 6 
#
# 1 102.0867 22.0361 20.1393 0.0000 -10.3198 0.0000
# 2 22.0361 62.5322 52.6237 0.0000 -5.3755 0.0000
# 3 20.1393 52.6237 197.2872 0.0000 -12.0775 0.0000
# 4 0.0000 0.0000 0.0000 34.0388 0.0000 1.1457
# 5 -10.3198 -5.3755 -12.0775 0.0000 34.4142 0.0000
# 6 0.0000 0.0000 0.0000 1.1457 0.0000 -0.7143
#
#
#
# Elastic Compliance Matrix: (Units=1/GPa)
#
#
# Indices 1 2 3 4 5 6 
#
# 1 0.010842 -0.003606 0.000020 0.000000 0.002695 0.000000
# 2 -0.003606 0.021879 -0.005442 0.000000 0.000426 0.000000
# 3 0.000020 -0.005442 0.006608 0.000000 0.001475 0.000000
# 4 0.000000 0.000000 0.000000 0.027873 0.000000 0.044706
# 5 0.002695 0.000426 0.001475 0.000000 0.030450 0.000000
# 6 0.000000 0.000000 0.000000 0.044706 0.000000 -1.328191
#
#
# Mechanical properties :
#
#
# Convention : Reuss Voigt Hill
#
# Bulk Modulus (GPa) = 47.00503 61.27825 54.14164
# Shear Modulus (GPa) = -4.14803 31.35486 13.60342
#
# Velocity S-wave (km/s) = -1.36500 3.75287 2.47193
# Velocity P-wave (km/s) = 4.31620 6.80469 5.69796
#
# Compressibility (1/GPa) = 0.02127432
#
# Stress axis : x y z
#
# Youngs Moduli (GPa) = 92.22988 45.70692 151.32049
#
# Poissons Ratio (x) = 0.16482 -0.00303
# Poissons Ratio (y) = 0.33258 0.82342
# Poissons Ratio (z) = -0.00185 0.24872
#
# Static dielectric constant tensor:
#      x y z
#    x 1.803160 0.000000 0.000770 
#    y 0.000000 1.797370 0.000000 
#    z 0.000770 0.000000 1.884240 
# 
# From -- ./inp_files/10238.got.cif
#   From: 2010.05.17/outbox.cif.g08.bks.cpg/sg3_6_cif.got.tgz:10238.got - 2010.06.03 18:33:08.
