data_PCOD9113134
_publ_section_title
;
Structure prediction by ZEFSAII (Michael W. Deem and Ramdas Pophale) SiO2 
 PCOD9113134
Probable space group: P 2
;
_chemical_formula_sum "Si O2"
_cell_formula_units_Z 11
_cell_length_a 5.807004
_cell_length_b 5.079889
_cell_length_c 14.994871
_cell_angle_alpha 90.000000
_cell_angle_beta 102.502760
_cell_angle_gamma 90.000000
_cell_volume 431.843072
_symmetry_space_group_name_H-M "P 2"
_symmetry_group_IT_number 3
_symmetry_cell_setting 'monoclinic'
loop_
_space_group_symop_operation_xyz
x,y,z
-x,y,-z
loop_
_atom_site_type_symbol
_atom_site_label
_atom_site_fract_x
_atom_site_fract_y
_atom_site_fract_z
Si Si1 0.500000 0.547570 0.500000
Si Si2 0.914340 0.939178 0.228432
Si Si3 0.204714 0.771760 0.089621
Si Si4 0.370958 0.562270 0.674161
Si Si5 0.499300 0.285093 0.152029
Si Si6 0.063646 0.185324 0.413045
O O1 0.452190 0.694047 0.588784
O O2 0.289579 0.356402 0.453421
O O3 0.710084 0.773132 0.260071
O O4 0.063920 0.772451 0.171649
O O5 0.771656 0.182829 0.170700
O O6 0.077260 0.016731 0.325383
O O7 0.396975 0.541933 0.095037
O O8 0.341422 0.047683 0.103229
O O9 0.000000 0.756851 0.000000
O O10 0.533100 0.363689 0.745474
O O11 0.148163 0.386839 0.626418
O O12 0.000000 0.036210 0.500000
#
# Coordination Sequence:
#
# PCOD9113134 Si02
#       6
#     1   2   2   2   2   2
#     4  10  20  40  70  98 148 188 244 296 358 434
#     4  11  25  46  75 103 154 194 248 307 365 450
#     4  12  28  49  77 113 147 192 249 309 379 450
#     4  10  22  42  68 105 140 198 240 297 364 435
#     4  11  25  50  73 109 147 195 243 304 379 437
#     4   9  21  40  65 103 146 188 244 295 362 435
#
# _framework density 25.472211999999999
#
# number of rings (size 3 to 8) (size 9 to 14) (size 15 to 20)
#    0.000    1.455    1.818    1.636    7.636    2.909 
#    3.273    4.545    0.000    0.000    0.000    0.000 
#    0.000    0.000    0.000    0.000    0.000    0.000 
#
# Total GULP energy -61525.713324 kJ/mol
# GULP energy per Si atom -5593.246666 kJ/mol
# Density = 2.541424 g / cm^3
# Si number density = 25.472212 Si / 1000 Ang^3
#
#
#
# Elastic Constant Matrix: (Units=GPa)
#
#
# Indices 1 2 3 4 5 6 
#
# 1 48.1546 26.3226 41.3792 0.0000 14.8943 0.0000
# 2 26.3226 121.3185 38.0246 0.0000 16.7291 0.0000
# 3 41.3792 38.0246 122.2855 0.0000 33.6762 0.0000
# 4 0.0000 0.0000 0.0000 -2.5267 0.0000 45.3937
# 5 14.8943 16.7291 33.6762 0.0000 61.8400 0.0000
# 6 0.0000 0.0000 0.0000 45.3937 0.0000 25.4380
#
#
#
# Elastic Compliance Matrix: (Units=1/GPa)
#
#
# Indices 1 2 3 4 5 6 
#
# 1 0.030906 -0.003706 -0.008861 0.000000 -0.001616 0.000000
# 2 -0.003706 0.009640 -0.001495 0.000000 -0.000901 0.000000
# 3 -0.008861 -0.001495 0.012872 0.000000 -0.004471 0.000000
# 4 0.000000 0.000000 0.000000 -0.011972 0.000000 0.021363
# 5 -0.001616 -0.000901 -0.004471 0.000000 0.019239 0.000000
# 6 0.000000 0.000000 0.000000 0.021363 0.000000 0.001189
#
#
# Mechanical properties :
#
#
# Convention : Reuss Voigt Hill
#
# Bulk Modulus (GPa) = 39.53472 55.91236 47.72354
# Shear Modulus (GPa) = 50.79817 29.35240 40.07528
#
# Velocity S-wave (km/s) = 4.47056 3.39828 3.97078
# Velocity P-wave (km/s) = 6.49633 6.11521 6.30864
#
# Compressibility (1/GPa) = 0.02529422
#
# Stress axis : x y z
#
# Youngs Moduli (GPa) = 32.35638 103.73738 77.68683
#
# Poissons Ratio (x) = 0.38441 0.68836
# Poissons Ratio (y) = 0.11990 0.11618
# Poissons Ratio (z) = 0.28670 0.15513
#
# Static dielectric constant tensor:
#      x y z
#    x 2.062610 0.000000 -0.063700 
#    y 0.000000 2.056950 0.000000 
#    z -0.063700 0.000000 2.017430 
# 
# From -- ./inp_files/2644.got.cif
#   From: 2010.05.17/outbox.cif.g08.bks.cpg/sg3_2_cif.got.tgz:2644.got - 2010.06.03 18:33:08.
