data_PCOD9113007
_publ_section_title
;
Structure prediction by ZEFSAII (Michael W. Deem and Ramdas Pophale) SiO2 
 PCOD9113007
Probable space group: P 2
;
_chemical_formula_sum "Si O2"
_cell_formula_units_Z 15
_cell_length_a 18.393168
_cell_length_b 7.563226
_cell_length_c 7.797700
_cell_angle_alpha 90.000000
_cell_angle_beta 140.804849
_cell_angle_gamma 90.000000
_cell_volume 685.523398
_symmetry_space_group_name_H-M "P 2"
_symmetry_group_IT_number 3
_symmetry_cell_setting 'monoclinic'
loop_
_space_group_symop_operation_xyz
x,y,z
-x,y,-z
loop_
_atom_site_type_symbol
_atom_site_label
_atom_site_fract_x
_atom_site_fract_y
_atom_site_fract_z
Si Si1 0.689569 0.167940 0.665956
Si Si2 0.782858 0.243382 0.464056
Si Si3 0.116121 0.909441 0.464276
Si Si4 0.545846 0.092665 0.897816
Si Si5 0.136392 0.598951 0.258114
Si Si6 0.325362 0.853367 0.109069
Si Si7 0.000000 0.677467 0.500000
Si Si8 0.773232 0.516701 0.955199
O O1 0.760781 0.184211 0.620791
O O2 0.556977 0.205147 0.372358
O O3 0.735899 0.314467 0.881237
O O4 0.691697 0.977376 0.757258
O O5 0.811375 0.449385 0.521111
O O6 0.883624 0.116033 0.577579
O O7 0.664319 0.197203 0.149056
O O8 0.150656 0.793652 0.362478
O O9 0.008565 0.809190 0.352217
O O10 0.213983 0.882368 0.785648
O O11 0.572334 0.931531 0.818382
O O12 0.500000 0.031417 0.000000
O O13 0.195218 0.571746 0.182350
O O14 0.000000 0.562885 0.000000
O O15 0.324672 0.649147 0.157050
O O16 0.111346 0.556035 0.726690
#
# Coordination Sequence:
#
# PCOD9113007 Si02
#       8
#     2   2   2   2   2   2   1   2
#     4  10  20  40  65  91 125 159 207 260 310 372
#     4   9  21  39  62  91 118 165 210 250 314 360
#     4  10  21  38  57  82 123 163 201 262 299 356
#     4   9  19  39  64  89 124 160 206 261 302 366
#     4  11  21  39  61  88 125 165 212 256 299 372
#     4  10  21  38  61  90 122 164 205 253 314 367
#     4  10  20  38  56  86 126 168 208 256 304 370
#     4  10  22  40  62  90 127 167 203 258 314 365
#
# _framework density 21.881091999999999
#
# number of rings (size 3 to 8) (size 9 to 14) (size 15 to 20)
#    0.000    2.133    1.333    1.200    0.000    4.800 
#    9.600    8.000    0.000   12.800    0.000    0.000 
#    0.000    0.000    0.000    0.000    0.000    0.000 
#
# Total GULP energy -83771.922244 kJ/mol
# GULP energy per Si atom -5584.794816 kJ/mol
# Density = 2.183129 g / cm^3
# Si number density = 21.881092 Si / 1000 Ang^3
#
#
#
# Elastic Constant Matrix: (Units=GPa)
#
#
# Indices 1 2 3 4 5 6 
#
# 1 62.4675 -0.2099 11.3706 0.0000 -4.1541 0.0000
# 2 -0.2099 68.3077 17.6498 0.0000 9.9995 0.0000
# 3 11.3706 17.6498 55.5232 0.0000 4.6544 0.0000
# 4 0.0000 0.0000 0.0000 31.4088 0.0000 -7.8795
# 5 -4.1541 9.9995 4.6544 0.0000 22.2584 0.0000
# 6 0.0000 0.0000 0.0000 -7.8795 0.0000 23.6337
#
#
#
# Elastic Compliance Matrix: (Units=1/GPa)
#
#
# Indices 1 2 3 4 5 6 
#
# 1 0.016981 0.000525 -0.003960 0.000000 0.003761 0.000000
# 2 0.000525 0.016858 -0.004926 0.000000 -0.006445 0.000000
# 3 -0.003960 -0.004926 0.020625 0.000000 -0.002839 0.000000
# 4 0.000000 0.000000 0.000000 0.034744 0.000000 0.011584
# 5 0.003761 -0.006445 -0.002839 0.000000 0.049118 0.000000
# 6 0.000000 0.000000 0.000000 0.011584 0.000000 0.046174
#
#
# Mechanical properties :
#
#
# Convention : Reuss Voigt Hill
#
# Bulk Modulus (GPa) = 26.49562 27.10215 26.79888
# Shear Modulus (GPa) = 23.38604 25.95939 24.67271
#
# Velocity S-wave (km/s) = 3.27276 3.44813 3.36159
# Velocity P-wave (km/s) = 5.13970 5.31656 5.22888
#
# Compressibility (1/GPa) = 0.03774208
#
# Stress axis : x y z
#
# Youngs Moduli (GPa) = 58.88948 59.32062 48.48439
#
# Poissons Ratio (x) = -0.03112 0.19198
# Poissons Ratio (y) = -0.03090 0.23883
# Poissons Ratio (z) = 0.23318 0.29220
#
# Static dielectric constant tensor:
#      x y z
#    x 1.853120 0.000000 0.001950 
#    y 0.000000 1.766380 0.000000 
#    z 0.001950 0.000000 1.828200 
# 
# From -- ./inp_files/9394.got.cif
#   From: 2010.05.17/outbox.cif.g08.bks.cpg/sg3_5_cif.got.tgz:9394.got - 2010.06.03 18:33:08.
