data_PCOD9113386
_publ_section_title
;
Structure prediction by ZEFSAII (Michael W. Deem and Ramdas Pophale) SiO2 
 PCOD9113386
Probable space group: P 2
;
_chemical_formula_sum "Si O2"
_cell_formula_units_Z 13
_cell_length_a 5.290402
_cell_length_b 5.365378
_cell_length_c 20.269415
_cell_angle_alpha 90.000000
_cell_angle_beta 122.621041
_cell_angle_gamma 90.000000
_cell_volume 484.588992
_symmetry_space_group_name_H-M "P 2"
_symmetry_group_IT_number 3
_symmetry_cell_setting 'monoclinic'
loop_
_space_group_symop_operation_xyz
x,y,z
-x,y,-z
loop_
_atom_site_type_symbol
_atom_site_label
_atom_site_fract_x
_atom_site_fract_y
_atom_site_fract_z
Si Si1 0.598440 0.579420 0.892871
Si Si2 0.891710 0.212326 0.372985
Si Si3 0.297255 0.717455 0.587795
Si Si4 0.557611 0.080760 0.933224
Si Si5 0.120267 0.565362 0.204978
Si Si6 0.976018 0.070161 0.756718
Si Si7 0.500000 0.995465 0.500000
O O1 0.732676 0.306337 0.923912
O O2 0.240882 0.541575 0.854216
O O3 0.699378 0.652409 0.833738
O O4 0.689579 0.803936 0.952849
O O5 0.725550 0.458403 0.376498
O O6 0.947857 0.194444 0.302706
O O7 0.212939 0.177525 0.455916
O O8 0.730202 0.956329 0.369238
O O9 0.536260 0.807770 0.566829
O O10 0.000000 0.714929 0.500000
O O11 0.267562 0.043589 0.845015
O O12 0.500000 0.157313 0.000000
O O13 0.219776 0.284507 0.235784
O O14 0.148039 0.787777 0.262061
#
# Coordination Sequence:
#
# PCOD9113386 Si02
#       7
#     2   2   2   2   2   2   1
#     4  10  21  40  65  93 128 175 225 280 341 408
#     4  11  23  43  67 100 135 179 227 282 346 414
#     4  10  22  41  69  95 138 171 227 280 339 422
#     4  10  21  41  66  96 132 178 223 278 340 404
#     4  10  21  42  65  92 136 173 223 283 341 408
#     4  10  22  42  63  96 133 170 227 280 335 409
#     4  10  24  46  70 106 132 190 226 290 358 426
#
# _framework density 26.826858999999999
#
# number of rings (size 3 to 8) (size 9 to 14) (size 15 to 20)
#    0.000    1.846    0.000    3.692    0.000    5.538 
#   16.615   18.462    3.385    0.000    0.000    0.000 
#    0.000    0.000    0.000    0.000    0.000    0.000 
#
# Total GULP energy -72699.532276 kJ/mol
# GULP energy per Si atom -5592.271714 kJ/mol
# Density = 2.676580 g / cm^3
# Si number density = 26.826859 Si / 1000 Ang^3
#
#
#
# Elastic Constant Matrix: (Units=GPa)
#
#
# Indices 1 2 3 4 5 6 
#
# 1 69.2240 20.1528 13.0056 0.0000 -6.2204 0.0000
# 2 20.1528 219.1408 11.5999 0.0000 -8.1964 0.0000
# 3 13.0056 11.5999 104.0009 0.0000 -26.9703 0.0000
# 4 0.0000 0.0000 0.0000 40.8622 0.0000 -10.9674
# 5 -6.2204 -8.1964 -26.9703 0.0000 57.7647 0.0000
# 6 0.0000 0.0000 0.0000 -10.9674 0.0000 56.4028
#
#
#
# Elastic Compliance Matrix: (Units=1/GPa)
#
#
# Indices 1 2 3 4 5 6 
#
# 1 0.015180 -0.001286 -0.001568 0.000000 0.000720 0.000000
# 2 -0.001286 0.004711 -0.000258 0.000000 0.000409 0.000000
# 3 -0.001568 -0.000258 0.011135 0.000000 0.004993 0.000000
# 4 0.000000 0.000000 0.000000 0.025820 0.000000 0.005021
# 5 0.000720 0.000409 0.004993 0.000000 0.019779 0.000000
# 6 0.000000 0.000000 0.000000 0.005021 0.000000 0.018706
#
#
# Mechanical properties :
#
#
# Convention : Reuss Voigt Hill
#
# Bulk Modulus (GPa) = 40.32240 53.54249 46.93244
# Shear Modulus (GPa) = 45.52836 54.17977 49.85407
#
# Velocity S-wave (km/s) = 4.12408 4.49888 4.31555
# Velocity P-wave (km/s) = 6.14334 6.85481 6.50880
#
# Compressibility (1/GPa) = 0.02480011
#
# Stress axis : x y z
#
# Youngs Moduli (GPa) = 65.87809 212.29035 89.80559
#
# Poissons Ratio (x) = 0.27301 0.14082
# Poissons Ratio (y) = 0.08472 0.02321
# Poissons Ratio (z) = 0.10330 0.05487
#
# Static dielectric constant tensor:
#      x y z
#    x 2.031950 0.000000 -0.262170 
#    y 0.000000 2.102800 0.000000 
#    z -0.262170 0.000000 1.859790 
# 
# From -- ./inp_files/14604.got.cif
#   From: 2010.05.17/outbox.cif.g08.bks.cpg/sg3_8_cif.got.tgz:14604.got - 2010.06.03 18:33:08.
