data_PCOD9113320
_publ_section_title
;
Structure prediction by ZEFSAII (Michael W. Deem and Ramdas Pophale) SiO2 
 PCOD9113320
Probable space group: P 2
;
_chemical_formula_sum "Si O2"
_cell_formula_units_Z 12
_cell_length_a 12.717158
_cell_length_b 5.206968
_cell_length_c 16.891816
_cell_angle_alpha 90.000000
_cell_angle_beta 24.766320
_cell_angle_gamma 90.000000
_cell_volume 468.576763
_symmetry_space_group_name_H-M "P 2"
_symmetry_group_IT_number 3
_symmetry_cell_setting 'monoclinic'
loop_
_space_group_symop_operation_xyz
x,y,z
-x,y,-z
loop_
_atom_site_type_symbol
_atom_site_label
_atom_site_fract_x
_atom_site_fract_y
_atom_site_fract_z
Si Si1 0.715963 0.204130 0.707181
Si Si2 0.797788 0.072533 0.365378
Si Si3 0.511212 0.706623 0.093607
Si Si4 0.507236 0.524873 0.262188
Si Si5 0.761987 0.203985 0.211680
Si Si6 0.024876 0.578008 0.683501
O O1 0.698757 0.485458 0.756916
O O2 0.560244 0.250322 0.732959
O O3 0.000000 0.129376 0.500000
O O4 0.586175 0.990979 0.847797
O O5 0.834233 0.203461 0.254618
O O6 0.509840 0.069511 0.592466
O O7 0.944156 0.275357 0.320552
O O8 0.884358 0.780108 0.310993
O O9 0.614780 0.682018 0.114755
O O10 0.733109 0.642189 0.882856
O O11 0.680768 0.463132 0.218819
O O12 0.233224 0.632554 0.473905
O O13 0.000000 0.098166 0.000000
#
# Coordination Sequence:
#
# PCOD9113320 Si02
#       6
#     2   2   2   2   2   2
#     4  10  22  43  69  94 129 163 212 274 328 384
#     4  10  24  38  57  92 128 167 209 270 301 372
#     4  10  22  39  68  94 123 171 210 264 327 387
#     4   9  24  39  68  90 127 171 212 264 317 384
#     4  10  21  39  61  89 128 170 216 255 317 373
#     4  11  22  41  64  89 132 163 216 255 321 377
#
# _framework density 25.609462000000001
#
# number of rings (size 3 to 8) (size 9 to 14) (size 15 to 20)
#    1.000    1.000    0.000    2.500    7.000    5.333 
#    0.000    5.000    0.000    0.000    0.000    0.000 
#    0.000    0.000    0.000    0.000    0.000    0.000 
#
# Total GULP energy -66941.226297 kJ/mol
# GULP energy per Si atom -5578.435525 kJ/mol
# Density = 2.555117 g / cm^3
# Si number density = 25.609462 Si / 1000 Ang^3
#
#
#
# Elastic Constant Matrix: (Units=GPa)
#
#
# Indices 1 2 3 4 5 6 
#
# 1 80.9121 6.3909 27.0868 0.0000 36.5385 0.0000
# 2 6.3909 83.0767 22.8504 0.0000 5.7684 0.0000
# 3 27.0868 22.8504 171.0293 0.0000 22.5830 0.0000
# 4 0.0000 0.0000 0.0000 30.7815 0.0000 2.0608
# 5 36.5385 5.7684 22.5830 0.0000 37.8018 0.0000
# 6 0.0000 0.0000 0.0000 2.0608 0.0000 21.4916
#
#
#
# Elastic Compliance Matrix: (Units=1/GPa)
#
#
# Indices 1 2 3 4 5 6 
#
# 1 0.022017 -0.000046 -0.000729 0.000000 -0.020839 0.000000
# 2 -0.000046 0.012530 -0.001542 0.000000 -0.000946 0.000000
# 3 -0.000729 -0.001542 0.006562 0.000000 -0.002980 0.000000
# 4 0.000000 0.000000 0.000000 0.032697 0.000000 -0.003135
# 5 -0.020839 -0.000946 -0.002980 0.000000 0.048521 0.000000
# 6 0.000000 0.000000 0.000000 -0.003135 0.000000 0.046830
#
#
# Mechanical properties :
#
#
# Convention : Reuss Voigt Hill
#
# Bulk Modulus (GPa) = 27.41599 49.74159 38.57879
# Shear Modulus (GPa) = 26.88885 36.59433 31.74159
#
# Velocity S-wave (km/s) = 3.24382 3.78423 3.52440
# Velocity P-wave (km/s) = 4.97579 6.20960 5.62662
#
# Compressibility (1/GPa) = 0.03647507
#
# Stress axis : x y z
#
# Youngs Moduli (GPa) = 45.41883 79.80571 152.39424
#
# Poissons Ratio (x) = 0.00369 0.11113
# Poissons Ratio (y) = 0.00210 0.23497
# Poissons Ratio (z) = 0.03312 0.12305
#
# Static dielectric constant tensor:
#      x y z
#    x 2.195110 0.000000 -0.079920 
#    y 0.000000 1.935730 0.000000 
#    z -0.079920 0.000000 1.949100 
# 
# From -- ./inp_files/16013.got.cif
#   From: 2010.05.17/outbox.cif.g08.bks.cpg/sg3_9_cif.got.tgz:16013.got - 2010.06.03 18:33:08.
