data_PCOD9113026
_publ_section_title
;
Structure prediction by ZEFSAII (Michael W. Deem and Ramdas Pophale) SiO2 
 PCOD9113026
Probable space group: P 2
;
_chemical_formula_sum "Si O2"
_cell_formula_units_Z 16
_cell_length_a 8.455441
_cell_length_b 19.285844
_cell_length_c 9.494581
_cell_angle_alpha 90.000000
_cell_angle_beta 148.067207
_cell_angle_gamma 90.000000
_cell_volume 818.924976
_symmetry_space_group_name_H-M "P 2"
_symmetry_group_IT_number 3
_symmetry_cell_setting 'monoclinic'
loop_
_space_group_symop_operation_xyz
x,y,z
-x,y,-z
loop_
_atom_site_type_symbol
_atom_site_label
_atom_site_fract_x
_atom_site_fract_y
_atom_site_fract_z
Si Si1 0.357242 0.872060 0.741165
Si Si2 0.886360 0.239113 0.064069
Si Si3 0.340244 0.645350 0.729034
Si Si4 0.681321 0.385341 0.782008
Si Si5 0.348497 0.028689 0.735406
Si Si6 0.729290 0.173771 0.406650
Si Si7 0.645204 0.756340 0.761467
Si Si8 0.665974 0.484880 0.274823
O O1 0.499237 0.821138 0.734217
O O2 0.000000 0.865843 0.500000
O O3 0.449599 0.951445 0.772017
O O4 0.500000 0.855790 0.000000
O O5 0.789151 0.317786 0.952689
O O6 0.578122 0.205484 0.881010
O O7 0.000000 0.209956 0.000000
O O8 0.145907 0.220099 0.370396
O O9 0.534783 0.690816 0.769833
O O10 0.324281 0.565079 0.668972
O O11 0.000000 0.670674 0.500000
O O12 0.500000 0.646900 0.000000
O O13 0.500000 0.368001 0.500000
O O14 0.480594 0.434908 0.723300
O O15 0.000000 0.422604 0.000000
O O16 0.359079 0.092985 0.635625
O O17 0.000000 0.019176 0.500000
O O18 0.500000 0.048231 0.000000
O O19 0.000000 0.173372 0.500000
O O20 0.500000 0.751161 0.500000
O O21 0.000000 0.761000 0.000000
O O22 0.000000 0.460672 0.500000
O O23 0.500000 0.482413 0.000000
#
# Coordination Sequence:
#
# PCOD9113026 Si02
#       8
#     2   2   2   2   2   2   2   2
#     4  10  20  38  62  82 111 158 199 234 290 358
#     4  11  23  39  55  80 116 152 186 226 287 356
#     4  10  21  40  62  85 118 161 200 235 288 355
#     4  11  23  40  59  81 116 158 194 233 291 361
#     4   9  18  34  58  86 111 143 193 244 290 347
#     4  11  21  37  60  85 109 141 191 244 284 334
#     4  12  24  37  57  90 126 154 195 250 290 334
#     4  10  22  39  62  91 118 147 197 254 291 335
#
# _framework density 19.537808999999999
#
# number of rings (size 3 to 8) (size 9 to 14) (size 15 to 20)
#    0.000    1.500    0.000    6.750    0.000    2.500 
#    0.000    1.875    0.000    0.000    0.000    0.000 
#    0.000    0.000    0.000    0.000    0.000    0.000 
#
# Total GULP energy -89223.108370 kJ/mol
# GULP energy per Si atom -5576.444273 kJ/mol
# Density = 1.949334 g / cm^3
# Si number density = 19.537809 Si / 1000 Ang^3
#
#
#
# Elastic Constant Matrix: (Units=GPa)
#
#
# Indices 1 2 3 4 5 6 
#
# 1 109.9139 67.3869 36.1745 0.0000 13.8267 0.0000
# 2 67.3869 103.0269 19.9624 0.0000 -3.9935 0.0000
# 3 36.1745 19.9624 123.6538 0.0000 11.2503 0.0000
# 4 0.0000 0.0000 0.0000 40.8951 0.0000 106.7732
# 5 13.8267 -3.9935 11.2503 0.0000 41.3965 0.0000
# 6 0.0000 0.0000 0.0000 106.7732 0.0000 340.7217
#
#
#
# Elastic Compliance Matrix: (Units=1/GPa)
#
#
# Indices 1 2 3 4 5 6 
#
# 1 0.017731 -0.011298 -0.002794 0.000000 -0.006253 0.000000
# 2 -0.011298 0.017304 0.000017 0.000000 0.005438 0.000000
# 3 -0.002794 0.000017 0.009040 0.000000 -0.001522 0.000000
# 4 0.000000 0.000000 0.000000 0.134496 0.000000 -0.042148
# 5 -0.006253 0.005438 -0.001522 0.000000 0.027183 0.000000
# 6 0.000000 0.000000 0.000000 -0.042148 0.000000 0.016143
#
#
# Mechanical properties :
#
#
# Convention : Reuss Voigt Hill
#
# Bulk Modulus (GPa) = 62.79908 64.84911 63.82410
# Shear Modulus (GPa) = 19.58044 98.80736 59.19390
#
# Velocity S-wave (km/s) = 3.16916 7.11914 5.51025
# Velocity P-wave (km/s) = 6.75304 10.04191 8.55697
#
# Compressibility (1/GPa) = 0.01592380
#
# Stress axis : x y z
#
# Youngs Moduli (GPa) = 56.39783 57.79125 110.61610
#
# Poissons Ratio (x) = 0.65295 0.30910
# Poissons Ratio (y) = 0.63721 -0.00189
# Poissons Ratio (z) = 0.15759 -0.00099
#
# Static dielectric constant tensor:
#      x y z
#    x 1.632200 0.000000 0.024900 
#    y 0.000000 1.747270 0.000000 
#    z 0.024900 0.000000 1.692050 
# 
# From -- ./inp_files/6332.got.cif
#   From: 2010.05.17/outbox.cif.g08.bks.cpg/sg3_4_cif.got.tgz:6332.got - 2010.06.03 18:33:08.
