data_PCOD9113606
_publ_section_title
;
Structure prediction by ZEFSAII (Michael W. Deem and Ramdas Pophale) SiO2 
 PCOD9113606
Probable space group: P 2
;
_chemical_formula_sum "Si O2"
_cell_formula_units_Z 9
_cell_length_a 10.723922
_cell_length_b 8.207247
_cell_length_c 10.836504
_cell_angle_alpha 90.000000
_cell_angle_beta 152.984558
_cell_angle_gamma 90.000000
_cell_volume 433.228236
_symmetry_space_group_name_H-M "P 2"
_symmetry_group_IT_number 3
_symmetry_cell_setting 'monoclinic'
loop_
_space_group_symop_operation_xyz
x,y,z
-x,y,-z
loop_
_atom_site_type_symbol
_atom_site_label
_atom_site_fract_x
_atom_site_fract_y
_atom_site_fract_z
Si Si1 0.964852 0.695280 0.616370
Si Si2 0.084157 0.066321 0.790071
Si Si3 0.493969 0.189336 0.350825
Si Si4 0.500000 0.269486 0.000000
Si Si5 0.443895 0.503469 0.169803
O O1 0.000000 0.676735 0.500000
O O2 0.655256 0.648394 0.378541
O O3 0.036770 0.879716 0.713900
O O4 0.165766 0.574231 0.867516
O O5 0.794413 0.151317 0.561240
O O6 0.273783 0.086775 0.078365
O O7 0.253521 0.157581 0.831722
O O8 0.500000 0.151549 0.500000
O O9 0.414123 0.378517 0.256112
O O10 0.572838 0.388035 0.176826
#
# Coordination Sequence:
#
# PCOD9113606 Si02
#       5
#     2   2   2   1   2
#     4  12  24  40  61 102 139 164 200 266 341 396
#     4  11  26  40  70  96 134 168 220 263 332 383
#     4  11  25  48  68  91 127 179 230 268 303 377
#     4  10  22  40  62 102 126 172 208 266 322 394
#     4  11  23  40  66  94 133 169 214 261 327 386
#
# _framework density 20.774270000000001
#
# number of rings (size 3 to 8) (size 9 to 14) (size 15 to 20)
#    0.000    0.889    2.222    4.667    9.333    0.000 
#    0.000    6.667    0.000    0.000    0.000    0.000 
#    0.000    0.000    0.000    0.000    0.000    0.000 
#
# Total GULP energy -50351.841521 kJ/mol
# GULP energy per Si atom -5594.649058 kJ/mol
# Density = 2.072699 g / cm^3
# Si number density = 20.774270 Si / 1000 Ang^3
#
#
#
# Elastic Constant Matrix: (Units=GPa)
#
#
# Indices 1 2 3 4 5 6 
#
# 1 28.3810 6.1164 16.9246 0.0000 -2.6035 0.0000
# 2 6.1164 77.3795 17.6705 0.0000 5.2673 0.0000
# 3 16.9246 17.6705 133.6450 0.0000 -5.0114 0.0000
# 4 0.0000 0.0000 0.0000 51.4000 0.0000 -0.4818
# 5 -2.6035 5.2673 -5.0114 0.0000 23.9220 0.0000
# 6 0.0000 0.0000 0.0000 -0.4818 0.0000 11.8232
#
#
#
# Elastic Compliance Matrix: (Units=1/GPa)
#
#
# Indices 1 2 3 4 5 6 
#
# 1 0.038738 -0.002302 -0.004459 0.000000 0.003788 0.000000
# 2 -0.002302 0.013731 -0.001660 0.000000 -0.003622 0.000000
# 3 -0.004459 -0.001660 0.008328 0.000000 0.001625 0.000000
# 4 0.000000 0.000000 0.000000 0.019463 0.000000 0.000793
# 5 0.003788 -0.003622 0.001625 0.000000 0.043353 0.000000
# 6 0.000000 0.000000 0.000000 0.000793 0.000000 0.084612
#
#
# Mechanical properties :
#
#
# Convention : Reuss Voigt Hill
#
# Bulk Modulus (GPa) = 22.75072 35.64763 29.19918
# Shear Modulus (GPa) = 20.85802 30.67530 25.76666
#
# Velocity S-wave (km/s) = 3.17208 3.84683 3.52563
# Velocity P-wave (km/s) = 4.93876 6.07680 5.53709
#
# Compressibility (1/GPa) = 0.04395465
#
# Stress axis : x y z
#
# Youngs Moduli (GPa) = 25.81475 72.82896 120.08246
#
# Poissons Ratio (x) = 0.16762 0.53548
# Poissons Ratio (y) = 0.05941 0.19932
# Poissons Ratio (z) = 0.11512 0.12088
#
# Static dielectric constant tensor:
#      x y z
#    x 1.739760 0.000000 -0.008930 
#    y 0.000000 1.734030 0.000000 
#    z -0.008930 0.000000 1.758020 
# 
# From -- ./inp_files/11352.got.cif
#   From: 2010.05.17/outbox.cif.g08.bks.cpg/sg3_6_cif.got.tgz:11352.got - 2010.06.03 18:33:08.
