data_PCOD9113890
_publ_section_title
;
Structure prediction by ZEFSAII (Michael W. Deem and Ramdas Pophale) SiO2 
 PCOD9113890
Probable space group: P 2
;
_chemical_formula_sum "Si O2"
_cell_formula_units_Z 11
_cell_length_a 16.056798
_cell_length_b 5.364462
_cell_length_c 8.488871
_cell_angle_alpha 90.000000
_cell_angle_beta 143.514557
_cell_angle_gamma 90.000000
_cell_volume 434.783939
_symmetry_space_group_name_H-M "P 2"
_symmetry_group_IT_number 3
_symmetry_cell_setting 'monoclinic'
loop_
_space_group_symop_operation_xyz
x,y,z
-x,y,-z
loop_
_atom_site_type_symbol
_atom_site_label
_atom_site_fract_x
_atom_site_fract_y
_atom_site_fract_z
Si Si1 0.812043 0.554520 0.000547
Si Si2 0.621226 0.745993 0.319623
Si Si3 0.490372 0.240929 0.797996
Si Si4 0.656777 0.063959 0.793822
Si Si5 0.057176 0.828897 0.246155
Si Si6 0.000000 0.802708 0.500000
O O1 0.756890 0.281945 0.890687
O O2 0.704044 0.786452 0.826340
O O3 0.942821 0.607970 0.086713
O O4 0.872615 0.617134 0.266329
O O5 0.566941 0.511478 0.339224
O O6 0.783526 0.729320 0.517860
O O7 0.616459 0.015753 0.393396
O O8 0.500000 0.766499 0.000000
O O9 0.634659 0.136178 0.945709
O O10 0.500000 0.270696 0.000000
O O11 0.500000 0.116513 0.500000
O O12 0.031877 0.945966 0.384623
O O13 0.000000 0.962939 0.000000
#
# Coordination Sequence:
#
# PCOD9113890 Si02
#       6
#     2   2   2   2   2   1
#     4  10  26  46  68 101 138 193 233 298 364 425
#     4  10  23  43  66 101 132 181 228 286 349 422
#     4  10  24  35  67  92 132 172 227 278 344 404
#     4  12  26  44  69 102 142 183 242 297 359 435
#     4  10  24  44  74 103 148 184 243 300 364 434
#     4   8  24  44  72 102 142 196 238 298 370 430
#
# _framework density 25.299921000000001
#
# number of rings (size 3 to 8) (size 9 to 14) (size 15 to 20)
#    1.091    0.727    0.000    1.636   15.273    2.182 
#    0.000    1.818    0.000    0.000    0.000    0.000 
#    0.000    0.000    0.000    0.000    0.000    0.000 
#
# Total GULP energy -61256.116522 kJ/mol
# GULP energy per Si atom -5568.737866 kJ/mol
# Density = 2.524234 g / cm^3
# Si number density = 25.299921 Si / 1000 Ang^3
#
#
#
# Elastic Constant Matrix: (Units=GPa)
#
#
# Indices 1 2 3 4 5 6 
#
# 1 108.5749 32.1360 50.0764 0.0000 11.6437 0.0000
# 2 32.1360 154.8388 27.9103 0.0000 16.3638 0.0000
# 3 50.0764 27.9103 131.9289 0.0000 -3.2864 0.0000
# 4 0.0000 0.0000 0.0000 23.1450 0.0000 -2.5940
# 5 11.6437 16.3638 -3.2864 0.0000 60.0910 0.0000
# 6 0.0000 0.0000 0.0000 -2.5940 0.0000 55.4947
#
#
#
# Elastic Compliance Matrix: (Units=1/GPa)
#
#
# Indices 1 2 3 4 5 6 
#
# 1 0.011823 -0.001467 -0.004230 0.000000 -0.002123 0.000000
# 2 -0.001467 0.007122 -0.000993 0.000000 -0.001710 0.000000
# 3 -0.004230 -0.000993 0.009436 0.000000 0.001606 0.000000
# 4 0.000000 0.000000 0.000000 0.043433 0.000000 0.002030
# 5 -0.002123 -0.001710 0.001606 0.000000 0.017606 0.000000
# 6 0.000000 0.000000 0.000000 0.002030 0.000000 0.018115
#
#
# Mechanical properties :
#
#
# Convention : Reuss Voigt Hill
#
# Bulk Modulus (GPa) = 66.66008 68.39866 67.52937
# Shear Modulus (GPa) = 39.70927 46.76080 43.23503
#
# Velocity S-wave (km/s) = 3.96604 4.30380 4.13837
# Velocity P-wave (km/s) = 6.88315 7.19658 7.04161
#
# Compressibility (1/GPa) = 0.01500148
#
# Stress axis : x y z
#
# Youngs Moduli (GPa) = 84.57996 140.40261 105.98265
#
# Poissons Ratio (x) = 0.20597 0.44833
# Poissons Ratio (y) = 0.12408 0.10519
# Poissons Ratio (z) = 0.35779 0.13936
#
# Static dielectric constant tensor:
#      x y z
#    x 2.299630 0.000000 -0.138400 
#    y 0.000000 1.963880 0.000000 
#    z -0.138400 0.000000 1.779670 
# 
# From -- ./inp_files/8010.got.cif
#   From: 2010.05.17/outbox.cif.g08.bks.cpg/sg3_5_cif.got.tgz:8010.got - 2010.06.03 18:33:08.
