data_PCOD9113990
_publ_section_title
;
Structure prediction by ZEFSAII (Michael W. Deem and Ramdas Pophale) SiO2 
 PCOD9113990
Probable space group: P 2
;
_chemical_formula_sum "Si O2"
_cell_formula_units_Z 14
_cell_length_a 8.896220
_cell_length_b 4.850969
_cell_length_c 16.542582
_cell_angle_alpha 90.000000
_cell_angle_beta 53.652136
_cell_angle_gamma 90.000000
_cell_volume 574.998839
_symmetry_space_group_name_H-M "P 2"
_symmetry_group_IT_number 3
_symmetry_cell_setting 'monoclinic'
loop_
_space_group_symop_operation_xyz
x,y,z
-x,y,-z
loop_
_atom_site_type_symbol
_atom_site_label
_atom_site_fract_x
_atom_site_fract_y
_atom_site_fract_z
Si Si1 0.622207 0.931930 0.805367
Si Si2 0.500000 0.266932 0.000000
Si Si3 0.000000 0.606655 0.500000
Si Si4 0.569496 0.167015 0.294142
Si Si5 0.896883 0.432609 0.868742
Si Si6 0.042009 0.946678 0.894139
Si Si7 0.849680 0.411766 0.714334
Si Si8 0.422075 0.685655 0.434343
O O1 0.537648 0.053021 0.750108
O O2 0.665661 0.608719 0.782962
O O3 0.819693 0.089651 0.739612
O O4 0.519820 0.069813 0.914503
O O5 0.323636 0.475978 0.051078
O O6 0.076145 0.447389 0.398218
O O7 0.199001 0.718640 0.478664
O O8 0.777083 0.091063 0.200506
O O9 0.511047 0.980385 0.387954
O O10 0.513615 0.471605 0.340399
O O11 0.965999 0.497506 0.756342
O O12 0.017381 0.623334 0.888559
O O13 0.891356 0.109451 0.890449
O O14 0.000000 0.009515 0.000000
O O15 0.500000 0.607727 0.500000
#
# Coordination Sequence:
#
# PCOD9113990 Si02
#       8
#     2   1   1   2   2   2   2   2
#     4  11  22  45  66 108 137 190 235 300 372 435
#     4  10  24  42  76  98 150 176 252 312 370 448
#     4  12  26  50  82 108 150 200 254 308 384 442
#     4  12  25  49  71 105 153 190 244 311 372 445
#     4  11  25  45  67 109 135 197 239 311 369 442
#     4  12  27  45  72 102 148 197 245 294 379 448
#     4  11  25  42  71 104 146 177 249 303 365 442
#     4  12  29  51  77 113 147 199 251 315 375 445
#
# _framework density 24.347875999999999
#
# number of rings (size 3 to 8) (size 9 to 14) (size 15 to 20)
#    0.000    0.571    2.857    4.286    4.000   10.857 
#    0.000    0.000    0.000    0.000    0.000    0.000 
#    0.000    0.000    0.000    0.000    0.000    0.000 
#
# Total GULP energy -77964.451510 kJ/mol
# GULP energy per Si atom -5568.889394 kJ/mol
# Density = 2.429246 g / cm^3
# Si number density = 24.347876 Si / 1000 Ang^3
#
#
#
# Elastic Constant Matrix: (Units=GPa)
#
#
# Indices 1 2 3 4 5 6 
#
# 1 79.3584 3.5879 34.1163 0.0000 7.6102 0.0000
# 2 3.5879 97.3762 11.8103 0.0000 -4.2237 0.0000
# 3 34.1163 11.8103 147.5466 0.0000 21.4996 0.0000
# 4 0.0000 0.0000 0.0000 51.3331 0.0000 7.2902
# 5 7.6102 -4.2237 21.4996 0.0000 53.5766 0.0000
# 6 0.0000 0.0000 0.0000 7.2902 0.0000 25.9548
#
#
#
# Elastic Compliance Matrix: (Units=1/GPa)
#
#
# Indices 1 2 3 4 5 6 
#
# 1 0.014022 -0.000171 -0.003119 0.000000 -0.000754 0.000000
# 2 -0.000171 0.010448 -0.000977 0.000000 0.001240 0.000000
# 3 -0.003119 -0.000977 0.007991 0.000000 -0.002841 0.000000
# 4 0.000000 0.000000 0.000000 0.020290 0.000000 -0.005699
# 5 -0.000754 0.001240 -0.002841 0.000000 0.020010 0.000000
# 6 0.000000 0.000000 0.000000 -0.005699 0.000000 0.040129
#
#
# Mechanical properties :
#
#
# Convention : Reuss Voigt Hill
#
# Bulk Modulus (GPa) = 41.79511 47.03449 44.41480
# Shear Modulus (GPa) = 38.64005 44.49069 41.56537
#
# Velocity S-wave (km/s) = 3.98804 4.27932 4.13624
# Velocity P-wave (km/s) = 6.19750 6.61638 6.41036
#
# Compressibility (1/GPa) = 0.02392625
#
# Stress axis : x y z
#
# Youngs Moduli (GPa) = 71.31759 95.71117 125.14400
#
# Poissons Ratio (x) = 0.01638 0.39028
# Poissons Ratio (y) = 0.01220 0.12232
# Poissons Ratio (z) = 0.22241 0.09355
#
# Static dielectric constant tensor:
#      x y z
#    x 2.365380 0.000000 -0.041920 
#    y 0.000000 1.875390 0.000000 
#    z -0.041920 0.000000 1.838760 
# 
# From -- ./inp_files/9287.got.cif
#   From: 2010.05.17/outbox.cif.g08.bks.cpg/sg3_5_cif.got.tgz:9287.got - 2010.06.03 18:33:08.
