data_PCOD9113943
_publ_section_title
;
Structure prediction by ZEFSAII (Michael W. Deem and Ramdas Pophale) SiO2 
 PCOD9113943
Probable space group: P 2
;
_chemical_formula_sum "Si O2"
_cell_formula_units_Z 13
_cell_length_a 5.484062
_cell_length_b 19.373894
_cell_length_c 5.114870
_cell_angle_alpha 90.000000
_cell_angle_beta 82.923244
_cell_angle_gamma 90.000000
_cell_volume 539.302897
_symmetry_space_group_name_H-M "P 2"
_symmetry_group_IT_number 3
_symmetry_cell_setting 'monoclinic'
loop_
_space_group_symop_operation_xyz
x,y,z
-x,y,-z
loop_
_atom_site_type_symbol
_atom_site_label
_atom_site_fract_x
_atom_site_fract_y
_atom_site_fract_z
Si Si1 0.500000 0.652120 0.500000
Si Si2 0.500000 0.125453 0.500000
Si Si3 0.734468 0.536419 0.170537
Si Si4 0.845932 0.245828 0.284423
Si Si5 0.819254 0.752363 0.771448
Si Si6 0.500000 0.026903 0.000000
Si Si7 0.834625 0.902484 0.775234
Si Si8 0.725635 0.388281 0.158337
O O1 0.706138 0.600104 0.367820
O O2 0.610285 0.698114 0.719188
O O3 0.724439 0.178514 0.428233
O O4 0.474894 0.077177 0.756039
O O5 0.735389 0.460734 0.312628
O O6 0.500000 0.542130 0.000000
O O7 0.000000 0.540679 0.000000
O O8 0.668956 0.309772 0.248890
O O9 0.000000 0.277403 0.500000
O O10 0.000000 0.228690 0.000000
O O11 0.696860 0.829447 0.767659
O O12 0.000000 0.751376 0.500000
O O13 0.000000 0.740973 0.000000
O O14 0.700063 0.972443 0.870073
O O15 0.000000 0.914549 0.500000
O O16 0.000000 0.887082 0.000000
O O17 0.500000 0.402915 0.000000
O O18 0.000000 0.382122 0.000000
#
# Coordination Sequence:
#
# PCOD9113943 Si02
#       8
#     1   1   2   2   2   1   2   2
#     4  12  28  42  76 108 154 204 246 328 398 474
#     4  12  28  42  70 108 152 182 242 302 376 462
#     4  10  25  48  71 107 153 202 259 319 389 461
#     4  11  26  46  72 104 144 196 244 310 373 448
#     4  10  26  47  73 108 146 194 262 319 386 465
#     4  12  26  44  72 108 140 196 236 304 372 462
#     4  10  23  46  72 101 141 190 248 311 366 448
#     4   9  21  45  75 105 145 199 262 317 372 451
#
# _framework density 24.105191999999999
#
# number of rings (size 3 to 8) (size 9 to 14) (size 15 to 20)
#    0.000    1.538    0.000    1.846    9.692    8.615 
#    8.308    0.000    0.000    0.000    0.000    0.000 
#    0.000    0.000    0.000    0.000    0.000    0.000 
#
# Total GULP energy -72506.338173 kJ/mol
# GULP energy per Si atom -5577.410629 kJ/mol
# Density = 2.405033 g / cm^3
# Si number density = 24.105192 Si / 1000 Ang^3
#
#
#
# Elastic Constant Matrix: (Units=GPa)
#
#
# Indices 1 2 3 4 5 6 
#
# 1 84.8111 27.4261 36.7423 0.0000 -11.9879 0.0000
# 2 27.4261 198.9185 40.2122 0.0000 0.7617 0.0000
# 3 36.7423 40.2122 159.6595 0.0000 -15.0956 0.0000
# 4 0.0000 0.0000 0.0000 116.6219 0.0000 24.7341
# 5 -11.9879 0.7617 -15.0956 0.0000 49.5962 0.0000
# 6 0.0000 0.0000 0.0000 24.7341 0.0000 20.8189
#
#
#
# Elastic Compliance Matrix: (Units=1/GPa)
#
#
# Indices 1 2 3 4 5 6 
#
# 1 0.013710 -0.001381 -0.002566 0.000000 0.002554 0.000000
# 2 -0.001381 0.005448 -0.001126 0.000000 -0.000760 0.000000
# 3 -0.002566 -0.001126 0.007290 0.000000 0.001616 0.000000
# 4 0.000000 0.000000 0.000000 0.011463 0.000000 -0.013619
# 5 0.002554 -0.000760 0.001616 0.000000 0.021284 0.000000
# 6 0.000000 0.000000 0.000000 -0.013619 0.000000 0.064213
#
#
# Mechanical properties :
#
#
# Convention : Reuss Voigt Hill
#
# Bulk Modulus (GPa) = 61.34207 72.46112 66.90159
# Shear Modulus (GPa) = 35.97398 60.00799 47.99099
#
# Velocity S-wave (km/s) = 3.86732 4.99482 4.46679
# Velocity P-wave (km/s) = 6.74125 7.96178 7.37680
#
# Compressibility (1/GPa) = 0.01630203
#
# Stress axis : x y z
#
# Youngs Moduli (GPa) = 72.93852 183.54607 137.17027
#
# Poissons Ratio (x) = 0.25355 0.35194
# Poissons Ratio (y) = 0.10076 0.15448
# Poissons Ratio (z) = 0.18714 0.20671
#
# Static dielectric constant tensor:
#      x y z
#    x 1.994610 0.000000 -0.012560 
#    y 0.000000 2.021410 0.000000 
#    z -0.012560 0.000000 1.956620 
# 
# From -- ./inp_files/609.got.cif
#   From: 2010.05.17/outbox.cif.g08.bks.cpg/sg3_1_cif.got.tgz:609.got - 2010.06.03 18:33:08.
