data_PCOD9113583
_publ_section_title
;
Structure prediction by ZEFSAII (Michael W. Deem and Ramdas Pophale) SiO2 
 PCOD9113583
Probable space group: P 2
;
_chemical_formula_sum "Si O2"
_cell_formula_units_Z 12
_cell_length_a 21.956721
_cell_length_b 5.485412
_cell_length_c 10.053800
_cell_angle_alpha 90.000000
_cell_angle_beta 27.001628
_cell_angle_gamma 90.000000
_cell_volume 549.766104
_symmetry_space_group_name_H-M "P 2"
_symmetry_group_IT_number 3
_symmetry_cell_setting 'monoclinic'
loop_
_space_group_symop_operation_xyz
x,y,z
-x,y,-z
loop_
_atom_site_type_symbol
_atom_site_label
_atom_site_fract_x
_atom_site_fract_y
_atom_site_fract_z
Si Si1 0.897876 0.677570 0.321908
Si Si2 0.215538 0.194021 0.020407
Si Si3 0.426751 0.479461 0.482380
Si Si4 0.632994 0.679911 0.668983
Si Si5 0.066659 0.177618 0.581830
Si Si6 0.443127 0.977076 0.411820
O O1 0.751875 0.700859 0.539576
O O2 0.095413 0.425774 0.607771
O O3 0.000000 0.658943 0.000000
O O4 0.071014 0.925926 0.657178
O O5 0.079907 0.212606 0.198884
O O6 0.170539 0.149738 0.257525
O O7 0.313394 0.427545 0.811626
O O8 0.309159 0.996426 0.762776
O O9 0.344158 0.509551 0.504385
O O10 0.511562 0.232991 0.304540
O O11 0.510125 0.726234 0.325648
O O12 0.596680 0.932692 0.663461
O O13 0.500000 0.591222 0.000000
#
# Coordination Sequence:
#
# PCOD9113583 Si02
#       6
#     2   2   2   2   2   2
#     4  12  26  40  57  91 127 149 189 245 301 338
#     4   9  20  38  60  85 117 153 208 224 302 341
#     4   8  18  33  59  82 108 149 194 242 274 341
#     4  10  22  39  63  87 117 158 198 233 292 360
#     4  11  25  34  62  85 118 160 192 247 278 356
#     4   8  18  33  59  82 108 149 194 242 274 341
#
# _framework density 21.827463000000002
#
# number of rings (size 3 to 8) (size 9 to 14) (size 15 to 20)
#    2.000    0.333    0.000    2.500    7.000    2.000 
#    0.000    0.000    0.000    6.000    0.000    0.000 
#    0.000    0.000    0.000    0.000    0.000    0.000 
#
# Total GULP energy -66802.995320 kJ/mol
# GULP energy per Si atom -5566.916277 kJ/mol
# Density = 2.177778 g / cm^3
# Si number density = 21.827463 Si / 1000 Ang^3
#
#
#
# Elastic Constant Matrix: (Units=GPa)
#
#
# Indices 1 2 3 4 5 6 
#
# 1 122.1328 41.4478 29.0105 0.0000 11.4272 0.0000
# 2 41.4478 124.3527 14.2703 0.0000 3.7865 0.0000
# 3 29.0105 14.2703 63.7972 0.0000 28.1263 0.0000
# 4 0.0000 0.0000 0.0000 43.6678 0.0000 38.9631
# 5 11.4272 3.7865 28.1263 0.0000 33.9051 0.0000
# 6 0.0000 0.0000 0.0000 38.9631 0.0000 55.5235
#
#
#
# Elastic Compliance Matrix: (Units=1/GPa)
#
#
# Indices 1 2 3 4 5 6 
#
# 1 0.010118 -0.002913 -0.004082 0.000000 0.000302 0.000000
# 2 -0.002913 0.009112 -0.001100 0.000000 0.000877 0.000000
# 3 -0.004082 -0.001100 0.026986 0.000000 -0.020888 0.000000
# 4 0.000000 0.000000 0.000000 0.061253 0.000000 -0.042984
# 5 0.000302 0.000877 -0.020888 0.000000 0.046622 0.000000
# 6 0.000000 0.000000 0.000000 -0.042984 0.000000 0.048174
#
#
# Mechanical properties :
#
#
# Convention : Reuss Voigt Hill
#
# Bulk Modulus (GPa) = 33.30578 53.30445 43.30511
# Shear Modulus (GPa) = 21.88526 41.65621 31.77074
#
# Velocity S-wave (km/s) = 3.16990 4.37330 3.81929
# Velocity P-wave (km/s) = 5.35625 7.06929 6.27153
#
# Compressibility (1/GPa) = 0.03002482
#
# Stress axis : x y z
#
# Youngs Moduli (GPa) = 98.83513 109.74373 37.05638
#
# Poissons Ratio (x) = 0.31969 0.15128
# Poissons Ratio (y) = 0.28791 0.04077
# Poissons Ratio (z) = 0.40348 0.12073
#
# Static dielectric constant tensor:
#      x y z
#    x 1.740310 0.000000 0.076680 
#    y 0.000000 1.861230 0.000000 
#    z 0.076680 0.000000 1.720790 
# 
# From -- ./inp_files/9517.got.cif
#   From: 2010.05.17/outbox.cif.g08.bks.cpg/sg3_5_cif.got.tgz:9517.got - 2010.06.03 18:33:08.
