data_PCOD9113756
_publ_section_title
;
Structure prediction by ZEFSAII (Michael W. Deem and Ramdas Pophale) SiO2 
 PCOD9113756
Probable space group: P 2
;
_chemical_formula_sum "Si O2"
_cell_formula_units_Z 13
_cell_length_a 9.121477
_cell_length_b 9.944186
_cell_length_c 9.122440
_cell_angle_alpha 90.000000
_cell_angle_beta 131.767990
_cell_angle_gamma 90.000000
_cell_volume 617.157347
_symmetry_space_group_name_H-M "P 2"
_symmetry_group_IT_number 3
_symmetry_cell_setting 'monoclinic'
loop_
_space_group_symop_operation_xyz
x,y,z
-x,y,-z
loop_
_atom_site_type_symbol
_atom_site_label
_atom_site_fract_x
_atom_site_fract_y
_atom_site_fract_z
Si Si1 0.109659 0.959150 0.423288
Si Si2 0.094261 0.487264 0.709865
Si Si3 0.180153 0.247350 0.354102
Si Si4 0.500000 0.372765 0.000000
Si Si5 0.890769 0.740798 0.081041
Si Si6 0.469249 0.924914 0.155248
Si Si7 0.392528 0.214815 0.209480
O O1 0.326213 0.914957 0.620838
O O2 0.000000 0.994406 0.500000
O O3 0.999772 0.842172 0.264539
O O4 0.106793 0.094911 0.326153
O O5 0.100162 0.593629 0.844006
O O6 0.000000 0.546406 0.500000
O O7 0.965589 0.356952 0.672929
O O8 0.318534 0.455215 0.816921
O O9 0.234093 0.268229 0.219651
O O10 0.391016 0.243043 0.578181
O O11 0.397700 0.285738 0.057286
O O12 0.669887 0.796822 0.918927
O O13 0.000000 0.744970 0.000000
O O14 0.369504 0.056690 0.161127
O O15 0.500000 0.946499 0.000000
#
# Coordination Sequence:
#
# PCOD9113756 Si02
#       7
#     2   2   2   1   2   2   2
#     4  11  23  44  76 103 138 181 232 289 348 407
#     4  12  28  48  68  99 144 186 230 284 347 419
#     4  10  23  44  72 104 143 174 227 292 350 402
#     4  12  26  42  70 100 136 184 230 278 350 412
#     4  12  29  47  68 103 138 186 235 281 347 419
#     4  11  23  43  72 103 138 177 232 285 340 413
#     4  10  22  43  71 108 135 179 227 288 347 407
#
# _framework density 21.064322000000001
#
# number of rings (size 3 to 8) (size 9 to 14) (size 15 to 20)
#    0.000    0.923    3.846    1.846    7.538    1.846 
#    0.000    0.000    0.000    0.000    0.000    0.000 
#    0.000    0.000    0.000    0.000    0.000    0.000 
#
# Total GULP energy -72704.457661 kJ/mol
# GULP energy per Si atom -5592.650589 kJ/mol
# Density = 2.101638 g / cm^3
# Si number density = 21.064322 Si / 1000 Ang^3
#
#
#
# Elastic Constant Matrix: (Units=GPa)
#
#
# Indices 1 2 3 4 5 6 
#
# 1 90.9348 21.9472 30.8764 0.0000 -6.5855 0.0000
# 2 21.9472 73.2516 14.8435 0.0000 13.9199 0.0000
# 3 30.8764 14.8435 47.2953 0.0000 9.1812 0.0000
# 4 0.0000 0.0000 0.0000 127.8329 0.0000 -46.1329
# 5 -6.5855 13.9199 9.1812 0.0000 45.6701 0.0000
# 6 0.0000 0.0000 0.0000 -46.1329 0.0000 19.3596
#
#
#
# Elastic Compliance Matrix: (Units=1/GPa)
#
#
# Indices 1 2 3 4 5 6 
#
# 1 0.015733 -0.003686 -0.010170 0.000000 0.005437 0.000000
# 2 -0.003686 0.016057 -0.001644 0.000000 -0.005095 0.000000
# 3 -0.010170 -0.001644 0.029643 0.000000 -0.006925 0.000000
# 4 0.000000 0.000000 0.000000 0.055862 0.000000 0.133117
# 5 0.005437 -0.005095 -0.006925 0.000000 0.025625 0.000000
# 6 0.000000 0.000000 0.000000 0.133117 0.000000 0.368863
#
#
# Mechanical properties :
#
#
# Convention : Reuss Voigt Hill
#
# Bulk Modulus (GPa) = 32.85807 38.53510 35.69658
# Shear Modulus (GPa) = 9.04274 48.16017 28.60145
#
# Velocity S-wave (km/s) = 2.07418 4.78675 3.68885
# Velocity P-wave (km/s) = 4.62267 6.99174 5.92678
#
# Compressibility (1/GPa) = 0.03043393
#
# Stress axis : x y z
#
# Youngs Moduli (GPa) = 63.55874 62.27652 33.73443
#
# Poissons Ratio (x) = 0.22957 0.34308
# Poissons Ratio (y) = 0.23430 0.05545
# Poissons Ratio (z) = 0.64639 0.10237
#
# Static dielectric constant tensor:
#      x y z
#    x 1.689420 0.000000 0.046770 
#    y 0.000000 1.725060 0.000000 
#    z 0.046770 0.000000 1.793590 
# 
# From -- ./inp_files/5516.got.cif
#   From: 2010.05.17/outbox.cif.g08.bks.cpg/sg3_3_cif.got.tgz:5516.got - 2010.06.03 18:33:08.
