data_PCOD9113095
_publ_section_title
;
Structure prediction by ZEFSAII (Michael W. Deem and Ramdas Pophale) SiO2 
 PCOD9113095
Probable space group: P 2
;
_chemical_formula_sum "Si O2"
_cell_formula_units_Z 16
_cell_length_a 7.467335
_cell_length_b 8.862126
_cell_length_c 19.246034
_cell_angle_alpha 90.000000
_cell_angle_beta 32.982108
_cell_angle_gamma 90.000000
_cell_volume 693.337456
_symmetry_space_group_name_H-M "P 2"
_symmetry_group_IT_number 3
_symmetry_cell_setting 'monoclinic'
loop_
_space_group_symop_operation_xyz
x,y,z
-x,y,-z
loop_
_atom_site_type_symbol
_atom_site_label
_atom_site_fract_x
_atom_site_fract_y
_atom_site_fract_z
Si Si1 0.724740 0.389640 0.280182
Si Si2 0.223812 0.568415 0.209119
Si Si3 0.058355 0.557411 0.061837
Si Si4 0.255590 0.825681 0.480474
Si Si5 0.797494 0.878596 0.194715
Si Si6 0.774282 0.481376 0.465371
Si Si7 0.194305 0.120386 0.137669
Si Si8 0.258566 0.914580 0.249251
O O1 0.344600 0.402547 0.425180
O O2 0.924847 0.520258 0.256926
O O3 0.824654 0.429749 0.169688
O O4 0.894458 0.234608 0.245663
O O5 0.252501 0.745873 0.217687
O O6 0.126476 0.481112 0.312625
O O7 0.555085 0.523672 0.062222
O O8 0.955796 0.716820 0.128351
O O9 0.000000 0.575397 0.000000
O O10 0.586301 0.875895 0.335023
O O11 0.285203 0.659284 0.502499
O O12 0.000000 0.811455 0.500000
O O13 0.080369 0.926813 0.595896
O O14 0.555854 0.917834 0.208840
O O15 0.079990 0.997126 0.118268
O O16 0.500000 0.423257 0.500000
O O17 0.278264 0.037513 0.182456
O O18 0.500000 0.199364 0.000000
#
# Coordination Sequence:
#
# PCOD9113095 Si02
#       8
#     2   2   2   2   2   2   2   2
#     4  11  24  45  61  92 135 176 227 267 335 415
#     4  10  20  39  68  96 126 162 221 288 329 386
#     4  12  22  38  67 101 128 169 224 281 336 387
#     4   9  19  37  67  98 130 164 220 290 338 391
#     4  11  23  43  67 102 135 172 231 278 340 404
#     4   9  19  36  64  91 121 164 217 277 333 386
#     4  12  27  43  65  95 140 191 220 273 343 415
#     4  10  22  43  69 101 133 172 229 285 340 395
#
# _framework density 23.076786999999999
#
# number of rings (size 3 to 8) (size 9 to 14) (size 15 to 20)
#    0.000    1.500    2.500    2.625    3.500    0.000 
#   11.250    0.000    0.000    0.000    0.000    0.000 
#    0.000    0.000    0.000    0.000    0.000    0.000 
#
# Total GULP energy -89363.173786 kJ/mol
# GULP energy per Si atom -5585.198362 kJ/mol
# Density = 2.302426 g / cm^3
# Si number density = 23.076787 Si / 1000 Ang^3
#
#
#
# Elastic Constant Matrix: (Units=GPa)
#
#
# Indices 1 2 3 4 5 6 
#
# 1 63.7504 28.0131 36.9591 0.0000 9.4938 0.0000
# 2 28.0131 48.3661 40.5304 0.0000 17.0489 0.0000
# 3 36.9591 40.5304 173.4040 0.0000 12.3840 0.0000
# 4 0.0000 0.0000 0.0000 2.3038 0.0000 23.9517
# 5 9.4938 17.0489 12.3840 0.0000 32.9399 0.0000
# 6 0.0000 0.0000 0.0000 23.9517 0.0000 -17.8740
#
#
#
# Elastic Compliance Matrix: (Units=1/GPa)
#
#
# Indices 1 2 3 4 5 6 
#
# 1 0.021636 -0.010835 -0.002090 0.000000 0.000158 0.000000
# 2 -0.010835 0.036061 -0.005148 0.000000 -0.013606 0.000000
# 3 -0.002090 -0.005148 0.007380 0.000000 0.000492 0.000000
# 4 0.000000 0.000000 0.000000 0.029070 0.000000 0.038955
# 5 0.000158 -0.013606 0.000492 0.000000 0.037170 0.000000
# 6 0.000000 0.000000 0.000000 0.038955 0.000000 -0.003747
#
#
# Mechanical properties :
#
#
# Convention : Reuss Voigt Hill
#
# Bulk Modulus (GPa) = 34.56494 55.16952 44.86723
# Shear Modulus (GPa) = 28.84178 15.47515 22.15847
#
# Velocity S-wave (km/s) = 3.53911 2.59239 3.10208
# Velocity P-wave (km/s) = 5.63127 5.73755 5.68466
#
# Compressibility (1/GPa) = 0.02893105
#
# Stress axis : x y z
#
# Youngs Moduli (GPa) = 46.22016 27.73077 135.49430
#
# Poissons Ratio (x) = 0.30047 0.28319
# Poissons Ratio (y) = 0.50081 0.69746
# Poissons Ratio (z) = 0.09660 0.14275
#
# Static dielectric constant tensor:
#      x y z
#    x 1.972700 0.000000 -0.078850 
#    y 0.000000 1.808960 0.000000 
#    z -0.078850 0.000000 2.200020 
# 
# From -- ./inp_files/15815.got.cif
#   From: 2010.05.17/outbox.cif.g08.bks.cpg/sg3_8_cif.got.tgz:15815.got - 2010.06.03 18:33:08.
