data_PCOD9113903
_publ_section_title
;
Structure prediction by ZEFSAII (Michael W. Deem and Ramdas Pophale) SiO2 
 PCOD9113903
Probable space group: P 2
;
_chemical_formula_sum "Si O2"
_cell_formula_units_Z 13
_cell_length_a 13.458910
_cell_length_b 7.850207
_cell_length_c 5.247274
_cell_angle_alpha 90.000000
_cell_angle_beta 109.033208
_cell_angle_gamma 90.000000
_cell_volume 524.092630
_symmetry_space_group_name_H-M "P 2"
_symmetry_group_IT_number 3
_symmetry_cell_setting 'monoclinic'
loop_
_space_group_symop_operation_xyz
x,y,z
-x,y,-z
loop_
_atom_site_type_symbol
_atom_site_label
_atom_site_fract_x
_atom_site_fract_y
_atom_site_fract_z
Si Si1 0.086903 0.564300 0.877500
Si Si2 0.775280 0.730301 0.373323
Si Si3 0.321235 0.539369 0.311729
Si Si4 0.409967 0.843639 0.127080
Si Si5 0.000000 0.253603 0.500000
Si Si6 0.791810 0.094427 0.538578
Si Si7 0.330409 0.196057 0.077956
O O1 0.114997 0.674528 0.652555
O O2 0.048362 0.381195 0.750030
O O3 0.202287 0.550886 0.099191
O O4 0.000000 0.632048 0.000000
O O5 0.712196 0.564521 0.421384
O O6 0.787170 0.889891 0.570607
O O7 0.701515 0.817729 0.104228
O O8 0.395137 0.703062 0.330069
O O9 0.371451 0.380286 0.205012
O O10 0.412549 0.042492 0.198272
O O11 0.500000 0.805642 0.000000
O O12 0.092916 0.145886 0.455000
O O13 0.760060 0.168594 0.784708
O O14 0.714278 0.169168 0.247682
#
# Coordination Sequence:
#
# PCOD9113903 Si02
#       7
#     2   2   2   2   1   2   2
#     4  11  22  38  62  95 134 182 232 280 336 404
#     4  10  23  44  67  95 139 186 229 292 354 415
#     4  11  22  42  71  97 140 183 229 288 348 416
#     4  10  24  45  71 102 137 177 235 295 357 428
#     4  12  24  38  62  96 138 186 242 282 336 418
#     4  11  24  43  66 100 137 187 231 290 344 412
#     4  11  23  45  70  98 141 182 228 286 362 407
#
# _framework density 24.804773999999998
#
# number of rings (size 3 to 8) (size 9 to 14) (size 15 to 20)
#    0.000    1.231    3.077    2.769    2.154    3.077 
#    0.000    0.000    6.769    0.000    0.000    0.000 
#    0.000    0.000    0.000    0.000    0.000    0.000 
#
# Total GULP energy -72579.104790 kJ/mol
# GULP energy per Si atom -5583.008061 kJ/mol
# Density = 2.474832 g / cm^3
# Si number density = 24.804774 Si / 1000 Ang^3
#
#
#
# Elastic Constant Matrix: (Units=GPa)
#
#
# Indices 1 2 3 4 5 6 
#
# 1 108.2366 29.5985 13.8807 0.0000 -24.9568 0.0000
# 2 29.5985 128.4365 22.1810 0.0000 -10.5411 0.0000
# 3 13.8807 22.1810 66.9686 0.0000 -10.3644 0.0000
# 4 0.0000 0.0000 0.0000 22.2031 0.0000 -30.1598
# 5 -24.9568 -10.5411 -10.3644 0.0000 45.7271 0.0000
# 6 0.0000 0.0000 0.0000 -30.1598 0.0000 -1.6773
#
#
#
# Elastic Compliance Matrix: (Units=1/GPa)
#
#
# Indices 1 2 3 4 5 6 
#
# 1 0.011139 -0.001980 -0.000811 0.000000 0.005439 0.000000
# 2 -0.001980 0.008689 -0.002409 0.000000 0.000376 0.000000
# 3 -0.000811 -0.002409 0.016316 0.000000 0.002700 0.000000
# 4 0.000000 0.000000 0.000000 0.001771 0.000000 -0.031853
# 5 0.005439 0.000376 0.002700 0.000000 0.025536 0.000000
# 6 0.000000 0.000000 0.000000 -0.031853 0.000000 -0.023449
#
#
# Mechanical properties :
#
#
# Convention : Reuss Voigt Hill
#
# Bulk Modulus (GPa) = 38.84599 48.32913 43.58756
# Shear Modulus (GPa) = 84.76721 29.11603 56.94162
#
# Velocity S-wave (km/s) = 5.85217 3.42980 4.79643
# Velocity P-wave (km/s) = 7.83317 5.93387 6.94872
#
# Compressibility (1/GPa) = 0.02574268
#
# Stress axis : x y z
#
# Youngs Moduli (GPa) = 89.77724 115.08384 61.28817
#
# Poissons Ratio (x) = 0.22792 0.04971
# Poissons Ratio (y) = 0.17780 0.14766
# Poissons Ratio (z) = 0.07281 0.27728
#
# Static dielectric constant tensor:
#      x y z
#    x 1.899440 0.000000 -0.035930 
#    y 0.000000 2.081140 0.000000 
#    z -0.035930 0.000000 2.122610 
# 
# From -- ./inp_files/2253.got.cif
#   From: 2010.05.17/outbox.cif.g08.bks.cpg/sg3_2_cif.got.tgz:2253.got - 2010.06.03 18:33:08.
