data_PCOD9113017
_publ_section_title
;
Structure prediction by ZEFSAII (Michael W. Deem and Ramdas Pophale) SiO2 
 PCOD9113017
Probable space group: P 2
;
_chemical_formula_sum "Si O2"
_cell_formula_units_Z 14
_cell_length_a 7.976771
_cell_length_b 15.949141
_cell_length_c 7.107238
_cell_angle_alpha 90.000000
_cell_angle_beta 141.257684
_cell_angle_gamma 90.000000
_cell_volume 565.866441
_symmetry_space_group_name_H-M "P 2"
_symmetry_group_IT_number 3
_symmetry_cell_setting 'monoclinic'
loop_
_space_group_symop_operation_xyz
x,y,z
-x,y,-z
loop_
_atom_site_type_symbol
_atom_site_label
_atom_site_fract_x
_atom_site_fract_y
_atom_site_fract_z
Si Si1 0.896939 0.252270 0.629571
Si Si2 0.935100 0.978570 0.163478
Si Si3 0.550395 0.684034 0.317900
Si Si4 0.400783 0.341598 0.127604
Si Si5 0.283209 0.519796 0.149411
Si Si6 0.404512 0.091415 0.717114
Si Si7 0.940598 0.786364 0.173491
O O1 0.682251 0.326080 0.477959
O O2 0.722665 0.168689 0.510523
O O3 0.000000 0.247868 0.500000
O O4 0.175131 0.272052 0.976259
O O5 0.936823 0.882557 0.232359
O O6 0.160696 0.026769 0.479245
O O7 0.000000 0.973945 0.000000
O O8 0.662521 0.032443 0.914652
O O9 0.500000 0.683140 0.500000
O O10 0.426791 0.593548 0.155868
O O11 0.847054 0.720310 0.555241
O O12 0.353156 0.751196 0.058627
O O13 0.262114 0.431819 0.025355
O O14 0.500000 0.333668 0.000000
O O15 0.500000 0.502323 0.500000
O O16 0.000000 0.544913 0.000000
O O17 0.500000 0.130223 0.000000
O O18 0.000000 0.786694 0.000000
#
# Coordination Sequence:
#
# PCOD9113017 Si02
#       7
#     2   2   2   2   2   2   2
#     4  10  20  38  61  82 106 150 204 241 275 351
#     4  11  23  39  60  91 124 153 195 253 308 354
#     4   9  16  29  51  79 110 149 191 231 276 342
#     4  10  21  38  60  81 109 150 195 237 287 351
#     4  11  21  35  56  88 121 147 189 248 303 349
#     4  12  23  40  64  87 116 158 205 248 298 362
#     4   9  17  31  53  80 110 149 193 232 278 345
#
# _framework density 24.740818999999998
#
# number of rings (size 3 to 8) (size 9 to 14) (size 15 to 20)
#    0.000    1.714    0.000    7.714    0.000    2.286 
#    0.000    7.143    0.000    5.143    0.000    0.000 
#    0.000    0.000    0.000    0.000    0.000    0.000 
#
# Total GULP energy -78120.563369 kJ/mol
# GULP energy per Si atom -5580.040241 kJ/mol
# Density = 2.468451 g / cm^3
# Si number density = 24.740819 Si / 1000 Ang^3
#
#
#
# Elastic Constant Matrix: (Units=GPa)
#
#
# Indices 1 2 3 4 5 6 
#
# 1 81.9230 23.8244 35.1408 0.0000 11.3684 0.0000
# 2 23.8244 176.7537 50.2051 0.0000 25.6082 0.0000
# 3 35.1408 50.2051 164.2944 0.0000 34.5170 0.0000
# 4 0.0000 0.0000 0.0000 29.5246 0.0000 29.9680
# 5 11.3684 25.6082 34.5170 0.0000 35.5832 0.0000
# 6 0.0000 0.0000 0.0000 29.9680 0.0000 -76.5971
#
#
#
# Elastic Compliance Matrix: (Units=1/GPa)
#
#
# Indices 1 2 3 4 5 6 
#
# 1 0.013687 -0.000979 -0.002333 0.000000 -0.001405 0.000000
# 2 -0.000979 0.006589 -0.001097 0.000000 -0.003365 0.000000
# 3 -0.002333 -0.001097 0.008287 0.000000 -0.006504 0.000000
# 4 0.000000 0.000000 0.000000 0.024243 0.000000 0.009485
# 5 -0.001405 -0.003365 -0.006504 0.000000 0.037283 0.000000
# 6 0.000000 0.000000 0.000000 0.009485 0.000000 -0.009344
#
#
# Mechanical properties :
#
#
# Convention : Reuss Voigt Hill
#
# Bulk Modulus (GPa) = 50.64523 71.25683 60.95103
# Shear Modulus (GPa) = 52.00549 18.62220 35.31384
#
# Velocity S-wave (km/s) = 4.58974 2.74650 3.78213
# Velocity P-wave (km/s) = 6.97154 6.23871 6.61528
#
# Compressibility (1/GPa) = 0.01974520
#
# Stress axis : x y z
#
# Youngs Moduli (GPa) = 73.06204 151.77730 120.66496
#
# Poissons Ratio (x) = 0.14852 0.28154
# Poissons Ratio (y) = 0.07149 0.13239
# Poissons Ratio (z) = 0.17047 0.16652
#
# Static dielectric constant tensor:
#      x y z
#    x 2.137370 0.000000 -0.081200 
#    y 0.000000 2.025730 0.000000 
#    z -0.081200 0.000000 1.914060 
# 
# From -- ./inp_files/6152.got.cif
#   From: 2010.05.17/outbox.cif.g08.bks.cpg/sg3_4_cif.got.tgz:6152.got - 2010.06.03 18:33:08.
