data_PCOD9113806
_publ_section_title
;
Structure prediction by ZEFSAII (Michael W. Deem and Ramdas Pophale) SiO2 
 PCOD9113806
Probable space group: P 2
;
_chemical_formula_sum "Si O2"
_cell_formula_units_Z 13
_cell_length_a 7.679422
_cell_length_b 6.399602
_cell_length_c 10.733353
_cell_angle_alpha 90.000000
_cell_angle_beta 98.613400
_cell_angle_gamma 90.000000
_cell_volume 521.543861
_symmetry_space_group_name_H-M "P 2"
_symmetry_group_IT_number 3
_symmetry_cell_setting 'monoclinic'
loop_
_space_group_symop_operation_xyz
x,y,z
-x,y,-z
loop_
_atom_site_type_symbol
_atom_site_label
_atom_site_fract_x
_atom_site_fract_y
_atom_site_fract_z
Si Si1 0.624491 0.093550 0.131665
Si Si2 0.798394 0.137037 0.641840
Si Si3 0.173462 0.745117 0.940227
Si Si4 0.101509 0.495536 0.685686
Si Si5 0.000000 0.856450 0.500000
Si Si6 0.534024 0.398082 0.336055
Si Si7 0.634051 0.792209 0.790323
O O1 0.591995 0.292442 0.211643
O O2 0.802741 0.985171 0.104910
O O3 0.548882 0.910120 0.209848
O O4 0.500000 0.118457 0.000000
O O5 0.607936 0.246043 0.617135
O O6 0.959469 0.304665 0.678434
O O7 0.769708 0.963460 0.749377
O O8 0.841242 0.009635 0.520784
O O9 0.162424 0.578209 0.828211
O O10 0.316966 0.713678 0.065522
O O11 0.000000 0.723317 0.000000
O O12 0.019350 0.703759 0.618105
O O13 0.264837 0.452843 0.606356
O O14 0.414399 0.602464 0.303590
#
# Coordination Sequence:
#
# PCOD9113806 Si02
#       7
#     2   2   2   2   1   2   2
#     4   9  21  37  64 106 150 191 234 290 360 442
#     4  11  26  51  77 108 150 194 251 315 379 443
#     4  11  22  41  70 109 156 193 238 300 376 438
#     4  12  28  49  78 108 146 201 257 311 375 446
#     4  12  28  54  74 100 154 190 252 334 378 434
#     4  11  24  45  78 108 144 198 251 297 374 455
#     4  10  22  45  71 108 156 187 233 305 367 452
#
# _framework density 24.925996999999999
#
# number of rings (size 3 to 8) (size 9 to 14) (size 15 to 20)
#    0.000    1.231    1.538    3.231    6.462    0.000 
#    2.769   13.077    0.000    0.000    0.000    0.000 
#    0.000    0.000    0.000    0.000    0.000    0.000 
#
# Total GULP energy -72515.656164 kJ/mol
# GULP energy per Si atom -5578.127397 kJ/mol
# Density = 2.486926 g / cm^3
# Si number density = 24.925997 Si / 1000 Ang^3
#
#
#
# Elastic Constant Matrix: (Units=GPa)
#
#
# Indices 1 2 3 4 5 6 
#
# 1 136.0201 65.7656 38.9191 0.0000 -21.3265 0.0000
# 2 65.7656 123.7182 45.2858 0.0000 -6.3708 0.0000
# 3 38.9191 45.2858 80.0884 0.0000 -17.6049 0.0000
# 4 0.0000 0.0000 0.0000 25.6990 0.0000 7.9148
# 5 -21.3265 -6.3708 -17.6049 0.0000 35.2346 0.0000
# 6 0.0000 0.0000 0.0000 7.9148 0.0000 1.2373
#
#
#
# Elastic Compliance Matrix: (Units=1/GPa)
#
#
# Indices 1 2 3 4 5 6 
#
# 1 0.010992 -0.005087 -0.001353 0.000000 0.005057 0.000000
# 2 -0.005087 0.012590 -0.005418 0.000000 -0.003510 0.000000
# 3 -0.001353 -0.005418 0.017763 0.000000 0.007077 0.000000
# 4 0.000000 0.000000 0.000000 -0.040113 0.000000 0.256589
# 5 0.005057 -0.003510 0.007077 0.000000 0.034343 0.000000
# 6 0.000000 0.000000 0.000000 0.256589 0.000000 -0.833134
#
#
# Mechanical properties :
#
#
# Convention : Reuss Voigt Hill
#
# Bulk Modulus (GPa) = 56.73092 71.08530 63.90811
# Shear Modulus (GPa) = -6.51070 25.09127 9.29029
#
# Velocity S-wave (km/s) = -1.61793 3.17619 1.93268
# Velocity P-wave (km/s) = 4.39533 6.48316 5.53851
#
# Compressibility (1/GPa) = 0.01762707
#
# Stress axis : x y z
#
# Youngs Moduli (GPa) = 90.97913 79.43065 56.29643
#
# Poissons Ratio (x) = 0.40407 0.07618
# Poissons Ratio (y) = 0.46282 0.30503
# Poissons Ratio (z) = 0.12312 0.43037
#
# Static dielectric constant tensor:
#      x y z
#    x 2.439640 0.000000 0.277380 
#    y 0.000000 2.030360 0.000000 
#    z 0.277380 0.000000 2.204560 
# 
# From -- ./inp_files/10195.got.cif
#   From: 2010.05.17/outbox.cif.g08.bks.cpg/sg3_6_cif.got.tgz:10195.got - 2010.06.03 18:33:08.
