data_PCOD9113506
_publ_section_title
;
Structure prediction by ZEFSAII (Michael W. Deem and Ramdas Pophale) SiO2 
 PCOD9113506
Probable space group: P 2
;
_chemical_formula_sum "Si O2"
_cell_formula_units_Z 13
_cell_length_a 17.123819
_cell_length_b 5.291361
_cell_length_c 5.306205
_cell_angle_alpha 90.000000
_cell_angle_beta 88.463091
_cell_angle_gamma 90.000000
_cell_volume 480.613297
_symmetry_space_group_name_H-M "P 2"
_symmetry_group_IT_number 3
_symmetry_cell_setting 'monoclinic'
loop_
_space_group_symop_operation_xyz
x,y,z
-x,y,-z
loop_
_atom_site_type_symbol
_atom_site_label
_atom_site_fract_x
_atom_site_fract_y
_atom_site_fract_z
Si Si1 0.589847 0.986770 0.579789
Si Si2 0.229772 0.669020 0.070051
Si Si3 0.449004 0.484829 0.249009
Si Si4 0.714906 0.158534 0.169342
Si Si5 0.078581 0.907696 0.099432
Si Si6 0.843605 0.302638 0.542064
Si Si7 0.000000 0.529401 0.500000
O O1 0.500000 0.950707 0.500000
O O2 0.610082 0.709194 0.679367
O O3 0.640779 0.086342 0.345250
O O4 0.588866 0.210564 0.784781
O O5 0.272895 0.936163 0.034289
O O6 0.278238 0.444955 0.932724
O O7 0.144429 0.738561 0.953221
O O8 0.203222 0.542995 0.337703
O O9 0.500000 0.451160 0.500000
O O10 0.500000 0.551919 0.000000
O O11 0.787154 0.156638 0.360274
O O12 0.038338 0.707845 0.290004
O O13 0.129114 0.121778 0.232752
O O14 0.000000 0.030558 0.000000
O O15 0.926603 0.368873 0.411932
#
# Coordination Sequence:
#
# PCOD9113506 Si02
#       7
#     2   2   2   2   2   2   1
#     4  10  23  47  71 108 139 193 244 303 373 446
#     4  11  26  46  70 103 144 193 238 305 367 448
#     4  10  21  44  72 109 147 186 244 307 372 446
#     4  12  26  48  73 101 153 190 243 306 376 436
#     4  11  24  43  68 104 137 185 244 296 369 430
#     4  11  26  45  69 110 139 195 249 296 381 440
#     4  10  24  40  70  98 144 186 238 304 356 454
#
# _framework density 27.048777000000001
#
# number of rings (size 3 to 8) (size 9 to 14) (size 15 to 20)
#    0.000    1.231    1.538    2.769    8.615    2.462 
#   16.615    0.000    0.000    0.000    0.000    0.000 
#    0.000    0.000    0.000    0.000    0.000    0.000 
#
# Total GULP energy -72767.712921 kJ/mol
# GULP energy per Si atom -5597.516379 kJ/mol
# Density = 2.698721 g / cm^3
# Si number density = 27.048777 Si / 1000 Ang^3
#
#
#
# Elastic Constant Matrix: (Units=GPa)
#
#
# Indices 1 2 3 4 5 6 
#
# 1 131.9889 41.1732 27.1608 0.0000 -7.4173 0.0000
# 2 41.1732 190.1448 31.5190 0.0000 -12.5347 0.0000
# 3 27.1608 31.5190 80.5266 0.0000 -16.7455 0.0000
# 4 0.0000 0.0000 0.0000 78.7487 0.0000 -1.2620
# 5 -7.4173 -12.5347 -16.7455 0.0000 63.6567 0.0000
# 6 0.0000 0.0000 0.0000 -1.2620 0.0000 49.1682
#
#
#
# Elastic Compliance Matrix: (Units=1/GPa)
#
#
# Indices 1 2 3 4 5 6 
#
# 1 0.008505 -0.001457 -0.002276 0.000000 0.000105 0.000000
# 2 -0.001457 0.005893 -0.001702 0.000000 0.000543 0.000000
# 3 -0.002276 -0.001702 0.014522 0.000000 0.003220 0.000000
# 4 0.000000 0.000000 0.000000 0.012704 0.000000 0.000326
# 5 0.000105 0.000543 0.003220 0.000000 0.016675 0.000000
# 6 0.000000 0.000000 0.000000 0.000326 0.000000 0.020347
#
#
# Mechanical properties :
#
#
# Convention : Reuss Voigt Hill
#
# Bulk Modulus (GPa) = 55.40754 66.92958 61.16856
# Shear Modulus (GPa) = 52.33762 58.50186 55.41974
#
# Velocity S-wave (km/s) = 4.40356 4.65567 4.53137
# Velocity P-wave (km/s) = 6.81057 7.32790 7.07397
#
# Compressibility (1/GPa) = 0.01804809
#
# Stress axis : x y z
#
# Youngs Moduli (GPa) = 117.57239 169.70307 68.86204
#
# Poissons Ratio (x) = 0.24733 0.15676
# Poissons Ratio (y) = 0.17135 0.11720
# Poissons Ratio (z) = 0.26765 0.28883
#
# Static dielectric constant tensor:
#      x y z
#    x 2.506990 0.000000 0.280930 
#    y 0.000000 2.140430 0.000000 
#    z 0.280930 0.000000 2.226870 
# 
# From -- ./inp_files/3447.got.cif
#   From: 2010.05.17/outbox.cif.g08.bks.cpg/sg3_2_cif.got.tgz:3447.got - 2010.06.03 18:33:08.
