data_PCOD9113802
_publ_section_title
;
Structure prediction by ZEFSAII (Michael W. Deem and Ramdas Pophale) SiO2 
 PCOD9113802
Probable space group: P 2
;
_chemical_formula_sum "Si O2"
_cell_formula_units_Z 14
_cell_length_a 11.214926
_cell_length_b 5.358301
_cell_length_c 10.530712
_cell_angle_alpha 90.000000
_cell_angle_beta 108.289205
_cell_angle_gamma 90.000000
_cell_volume 600.854320
_symmetry_space_group_name_H-M "P 2"
_symmetry_group_IT_number 3
_symmetry_cell_setting 'monoclinic'
loop_
_space_group_symop_operation_xyz
x,y,z
-x,y,-z
loop_
_atom_site_type_symbol
_atom_site_label
_atom_site_fract_x
_atom_site_fract_y
_atom_site_fract_z
Si Si1 0.258164 0.709710 0.210029
Si Si2 0.359287 0.953217 0.005040
Si Si3 0.000000 0.679802 0.500000
Si Si4 0.000000 0.810044 0.000000
Si Si5 0.031618 0.047251 0.737625
Si Si6 0.227928 0.222771 0.351163
Si Si7 0.769432 0.315890 0.367419
Si Si8 0.358186 0.462745 0.907994
O O1 0.286356 0.454598 0.293417
O O2 0.244551 0.952156 0.294490
O O3 0.355445 0.818073 0.139187
O O4 0.125195 0.672236 0.090993
O O5 0.295107 0.733817 0.900791
O O6 0.305274 0.233648 0.975883
O O7 0.500000 0.991854 0.000000
O O8 0.872766 0.526089 0.433635
O O9 0.018985 0.840817 0.378618
O O10 0.040905 0.963707 0.887141
O O11 0.153299 0.140087 0.702963
O O12 0.923784 0.259647 0.699771
O O13 0.270658 0.211622 0.510906
O O14 0.653175 0.395900 0.242653
O O15 0.500000 0.498145 0.000000
#
# Coordination Sequence:
#
# PCOD9113802 Si02
#       8
#     2   2   1   1   2   2   2   2
#     4  11  24  39  62  96 134 176 219 279 350 400
#     4  10  22  45  69  95 128 174 232 296 339 398
#     4  12  22  40  62  98 138 188 238 264 342 426
#     4  10  24  36  58  92 140 172 216 278 330 418
#     4  11  23  40  58  95 139 187 229 264 338 419
#     4  11  23  40  59  94 139 173 219 272 339 427
#     4  12  23  38  69  91 138 188 226 277 335 424
#     4  10  24  41  69  98 125 168 234 291 338 390
#
# _framework density 23.300155
#
# number of rings (size 3 to 8) (size 9 to 14) (size 15 to 20)
#    0.000    1.143    2.857    3.429    4.000    3.429 
#    0.000    0.000    0.000   20.571    0.000    0.000 
#    0.000    0.000    0.000    0.000    0.000    0.000 
#
# Total GULP energy -78106.952869 kJ/mol
# GULP energy per Si atom -5579.068062 kJ/mol
# Density = 2.324712 g / cm^3
# Si number density = 23.300155 Si / 1000 Ang^3
#
#
#
# Elastic Constant Matrix: (Units=GPa)
#
#
# Indices 1 2 3 4 5 6 
#
# 1 52.4728 5.3140 28.8610 0.0000 -6.7191 0.0000
# 2 5.3140 125.2847 33.5500 0.0000 -5.8907 0.0000
# 3 28.8610 33.5500 179.7491 0.0000 -7.0761 0.0000
# 4 0.0000 0.0000 0.0000 28.5883 0.0000 -8.0008
# 5 -6.7191 -5.8907 -7.0761 0.0000 41.2124 0.0000
# 6 0.0000 0.0000 0.0000 -8.0008 0.0000 23.5107
#
#
#
# Elastic Compliance Matrix: (Units=1/GPa)
#
#
# Indices 1 2 3 4 5 6 
#
# 1 0.021244 0.000125 -0.003320 0.000000 0.002911 0.000000
# 2 0.000125 0.008439 -0.001557 0.000000 0.000959 0.000000
# 3 -0.003320 -0.001557 0.006400 0.000000 0.000335 0.000000
# 4 0.000000 0.000000 0.000000 0.038661 0.000000 0.013157
# 5 0.002911 0.000959 0.000335 0.000000 0.024934 0.000000
# 6 0.000000 0.000000 0.000000 0.013157 0.000000 0.047011
#
#
# Mechanical properties :
#
#
# Convention : Reuss Voigt Hill
#
# Bulk Modulus (GPa) = 37.62505 54.77295 46.19900
# Shear Modulus (GPa) = 30.29345 37.98107 34.13726
#
# Velocity S-wave (km/s) = 3.60966 4.04180 3.83183
# Velocity P-wave (km/s) = 5.79274 6.73351 6.28076
#
# Compressibility (1/GPa) = 0.02657804
#
# Stress axis : x y z
#
# Youngs Moduli (GPa) = 47.07322 118.50216 156.24561
#
# Poissons Ratio (x) = -0.01479 0.51867
# Poissons Ratio (y) = -0.00587 0.24333
# Poissons Ratio (z) = 0.15626 0.18455
#
# Static dielectric constant tensor:
#      x y z
#    x 2.027410 0.000000 -0.038710 
#    y 0.000000 1.995040 0.000000 
#    z -0.038710 0.000000 1.890030 
# 
# From -- ./inp_files/6766.got.cif
#   From: 2010.05.17/outbox.cif.g08.bks.cpg/sg3_4_cif.got.tgz:6766.got - 2010.06.03 18:33:08.
