data_PCOD9113222
_publ_section_title
;
Structure prediction by ZEFSAII (Michael W. Deem and Ramdas Pophale) SiO2 
 PCOD9113222
Probable space group: P 2
;
_chemical_formula_sum "Si O2"
_cell_formula_units_Z 13
_cell_length_a 18.361353
_cell_length_b 5.833313
_cell_length_c 4.908549
_cell_angle_alpha 90.000000
_cell_angle_beta 81.933845
_cell_angle_gamma 90.000000
_cell_volume 520.541186
_symmetry_space_group_name_H-M "P 2"
_symmetry_group_IT_number 3
_symmetry_cell_setting 'monoclinic'
loop_
_space_group_symop_operation_xyz
x,y,z
-x,y,-z
loop_
_atom_site_type_symbol
_atom_site_label
_atom_site_fract_x
_atom_site_fract_y
_atom_site_fract_z
Si Si1 0.500000 0.225610 0.000000
Si Si2 0.076828 0.340063 0.882471
Si Si3 0.767781 0.549655 0.034285
Si Si4 0.230607 0.834184 0.469244
Si Si5 0.388592 0.543568 0.743390
Si Si6 0.923697 0.040655 0.618932
Si Si7 0.613710 0.873198 0.754442
O O1 0.449780 0.376677 0.827337
O O2 0.552651 0.066420 0.788990
O O3 0.153956 0.446806 0.927494
O O4 0.075728 0.270612 0.568442
O O5 0.074550 0.109927 0.068348
O O6 0.000000 0.464095 0.000000
O O7 0.767664 0.783727 0.212431
O O8 0.692748 0.432002 0.177134
O O9 0.762049 0.602539 0.717830
O O10 0.304733 0.967695 0.353494
O O11 0.152280 0.926461 0.420842
O O12 0.399884 0.660934 0.445269
O O13 0.387249 0.760924 0.947936
O O14 0.000000 0.916909 0.500000
#
# Coordination Sequence:
#
# PCOD9113222 Si02
#       7
#     1   2   2   2   2   2   2
#     4  12  26  46  80  96 132 202 214 274 392 388
#     4  10  21  36  58  90 126 162 208 260 305 378
#     4  10  21  40  62  89 126 164 207 268 322 374
#     4  10  21  40  62  89 126 164 207 268 322 374
#     4  10  25  46  67 102 138 167 230 288 323 417
#     4  10  21  36  58  90 126 162 208 260 305 378
#     4  10  25  46  67 102 138 167 230 288 323 417
#
# _framework density 24.97401
#
# number of rings (size 3 to 8) (size 9 to 14) (size 15 to 20)
#    0.000    1.846    0.000    2.308    2.154    6.154 
#    0.000    0.000    0.000    0.000    0.000    0.000 
#    0.000    0.000    0.000    0.000    0.000    0.000 
#
# Total GULP energy -72718.036523 kJ/mol
# GULP energy per Si atom -5593.695117 kJ/mol
# Density = 2.491717 g / cm^3
# Si number density = 24.974010 Si / 1000 Ang^3
#
#
#
# Elastic Constant Matrix: (Units=GPa)
#
#
# Indices 1 2 3 4 5 6 
#
# 1 267.9001 62.8618 26.9047 0.0000 -16.7672 0.0000
# 2 62.8618 34.1280 8.3938 0.0000 -7.7424 0.0000
# 3 26.9047 8.3938 79.3175 0.0000 12.8940 0.0000
# 4 0.0000 0.0000 0.0000 23.2142 0.0000 5.5255
# 5 -16.7672 -7.7424 12.8940 0.0000 40.5717 0.0000
# 6 0.0000 0.0000 0.0000 5.5255 0.0000 57.8732
#
#
#
# Elastic Compliance Matrix: (Units=1/GPa)
#
#
# Indices 1 2 3 4 5 6 
#
# 1 0.006675 -0.011814 -0.001156 0.000000 0.000872 0.000000
# 2 -0.011814 0.053078 -0.002597 0.000000 0.006072 0.000000
# 3 -0.001156 -0.002597 0.014164 0.000000 -0.005475 0.000000
# 4 0.000000 0.000000 0.000000 0.044079 0.000000 -0.004208
# 5 0.000872 0.006072 -0.005475 0.000000 0.027907 0.000000
# 6 0.000000 0.000000 0.000000 -0.004208 0.000000 0.017681
#
#
# Mechanical properties :
#
#
# Convention : Reuss Voigt Hill
#
# Bulk Modulus (GPa) = 23.37274 64.18513 43.77893
# Shear Modulus (GPa) = 23.92596 43.21084 33.56840
#
# Velocity S-wave (km/s) = 3.09857 4.16412 3.67022
# Velocity P-wave (km/s) = 4.70964 6.99117 5.96058
#
# Compressibility (1/GPa) = 0.04278489
#
# Stress axis : x y z
#
# Youngs Moduli (GPa) = 149.80372 18.84033 70.59947
#
# Poissons Ratio (x) = 0.22257 0.08160
# Poissons Ratio (y) = 1.76973 0.18333
# Poissons Ratio (z) = 0.17315 0.04892
#
# Static dielectric constant tensor:
#      x y z
#    x 2.031810 0.000000 -0.064190 
#    y 0.000000 1.980730 0.000000 
#    z -0.064190 0.000000 1.909760 
# 
# From -- ./inp_files/3421.got.cif
#   From: 2010.05.17/outbox.cif.g08.bks.cpg/sg3_2_cif.got.tgz:3421.got - 2010.06.03 18:33:08.
