data_PCOD9113955
_publ_section_title
;
Structure prediction by ZEFSAII (Michael W. Deem and Ramdas Pophale) SiO2 
 PCOD9113955
Probable space group: P 2
;
_chemical_formula_sum "Si O2"
_cell_formula_units_Z 8
_cell_length_a 7.728892
_cell_length_b 5.134695
_cell_length_c 7.833769
_cell_angle_alpha 90.000000
_cell_angle_beta 84.035433
_cell_angle_gamma 90.000000
_cell_volume 309.204030
_symmetry_space_group_name_H-M "P 2"
_symmetry_group_IT_number 3
_symmetry_cell_setting 'monoclinic'
loop_
_space_group_symop_operation_xyz
x,y,z
-x,y,-z
loop_
_atom_site_type_symbol
_atom_site_label
_atom_site_fract_x
_atom_site_fract_y
_atom_site_fract_z
Si Si1 0.488599 0.120270 0.330301
Si Si2 0.182868 0.503840 0.450247
Si Si3 0.789543 0.858954 0.869151
Si Si4 0.162127 0.924359 0.760881
O O1 0.500000 0.939439 0.500000
O O2 0.358524 0.338796 0.416209
O O3 0.382021 0.997084 0.185405
O O4 0.690250 0.148619 0.260389
O O5 0.178868 0.623575 0.262059
O O6 0.174375 0.731901 0.596195
O O7 0.000000 0.353144 0.500000
O O8 0.966445 0.021168 0.814157
O O9 0.786768 0.781856 0.066625
#
# Coordination Sequence:
#
# PCOD9113955 Si02
#       4
#     2   2   2   2
#     4  12  25  40  71 104 137 178 224 285 340 403
#     4  10  24  45  70 102 140 179 230 283 340 406
#     4  10  23  49  71  98 136 185 227 283 338 407
#     4  10  23  49  73  97 138 182 231 279 343 406
#
# _framework density 25.872883999999999
#
# number of rings (size 3 to 8) (size 9 to 14) (size 15 to 20)
#    0.000    1.500    2.500    0.750    7.000    0.000 
#    9.000    2.500    0.000    0.000    0.000    0.000 
#    0.000    0.000    0.000    0.000    0.000    0.000 
#
# Total GULP energy -44582.951889 kJ/mol
# GULP energy per Si atom -5572.868986 kJ/mol
# Density = 2.581400 g / cm^3
# Si number density = 25.872884 Si / 1000 Ang^3
#
#
#
# Elastic Constant Matrix: (Units=GPa)
#
#
# Indices 1 2 3 4 5 6 
#
# 1 189.8800 12.2039 -13.9317 0.0000 -31.2381 0.0000
# 2 12.2039 39.1633 18.3833 0.0000 -10.8120 0.0000
# 3 -13.9317 18.3833 146.1887 0.0000 28.8683 0.0000
# 4 0.0000 0.0000 0.0000 11.4035 0.0000 -0.5249
# 5 -31.2381 -10.8120 28.8683 0.0000 57.5983 0.0000
# 6 0.0000 0.0000 0.0000 -0.5249 0.0000 23.7093
#
#
#
# Elastic Compliance Matrix: (Units=1/GPa)
#
#
# Indices 1 2 3 4 5 6 
#
# 1 0.005820 -0.001069 0.000117 0.000000 0.002897 0.000000
# 2 -0.001069 0.030654 -0.005525 0.000000 0.007944 0.000000
# 3 0.000117 -0.005525 0.008589 0.000000 -0.005278 0.000000
# 4 0.000000 0.000000 0.000000 0.087782 0.000000 0.001943
# 5 0.002897 0.007944 -0.005278 0.000000 0.023070 0.000000
# 6 0.000000 0.000000 0.000000 0.001943 0.000000 0.042221
#
#
# Mechanical properties :
#
#
# Convention : Reuss Voigt Hill
#
# Bulk Modulus (GPa) = 31.14404 45.39366 38.26885
# Shear Modulus (GPa) = 22.54359 42.44731 32.49545
#
# Velocity S-wave (km/s) = 2.95502 4.05484 3.54781
# Velocity P-wave (km/s) = 4.86891 6.28532 5.62190
#
# Compressibility (1/GPa) = 0.03210887
#
# Stress axis : x y z
#
# Youngs Moduli (GPa) = 171.80868 32.62242 116.43103
#
# Poissons Ratio (x) = 0.03486 -0.01361
# Poissons Ratio (y) = 0.18361 0.64331
# Poissons Ratio (z) = -0.02008 0.18025
#
# Static dielectric constant tensor:
#      x y z
#    x 2.241550 0.000000 0.068500 
#    y 0.000000 2.106800 0.000000 
#    z 0.068500 0.000000 2.051790 
# 
# From -- ./inp_files/4671.got.cif
#   From: 2010.05.17/outbox.cif.g08.bks.cpg/sg3_3_cif.got.tgz:4671.got - 2010.06.03 18:33:08.
