data_PCOD9113031
_publ_section_title
;
Structure prediction by ZEFSAII (Michael W. Deem and Ramdas Pophale) SiO2 
 PCOD9113031
Probable space group: P 2
;
_chemical_formula_sum "Si O2"
_cell_formula_units_Z 13
_cell_length_a 15.459152
_cell_length_b 5.199968
_cell_length_c 12.446401
_cell_angle_alpha 90.000000
_cell_angle_beta 146.284730
_cell_angle_gamma 90.000000
_cell_volume 555.360334
_symmetry_space_group_name_H-M "P 2"
_symmetry_group_IT_number 3
_symmetry_cell_setting 'monoclinic'
loop_
_space_group_symop_operation_xyz
x,y,z
-x,y,-z
loop_
_atom_site_type_symbol
_atom_site_label
_atom_site_fract_x
_atom_site_fract_y
_atom_site_fract_z
Si Si1 0.183033 0.628560 0.692447
Si Si2 0.491678 0.940556 0.250154
Si Si3 0.854627 0.088648 0.049791
Si Si4 0.425421 0.436209 0.800272
Si Si5 0.847620 0.591916 0.911571
Si Si6 0.133612 0.129358 0.722886
Si Si7 0.500000 0.750174 0.500000
O O1 0.213214 0.409225 0.812895
O O2 0.000000 0.683463 0.500000
O O3 0.244537 0.909553 0.788498
O O4 0.250785 0.521849 0.652627
O O5 0.311649 0.018739 0.071015
O O6 0.569074 0.171644 0.261390
O O7 0.515208 0.669373 0.214065
O O8 0.527821 0.905978 0.416261
O O9 0.851755 0.376336 0.006796
O O10 0.881782 0.879886 0.987543
O O11 0.955243 0.053324 0.260097
O O12 0.500000 0.427680 0.000000
O O13 0.665993 0.598423 0.684096
O O14 0.000000 0.521718 0.000000
O O15 0.000000 0.187480 0.500000
#
# Coordination Sequence:
#
# PCOD9113031 Si02
#       7
#     2   2   2   2   2   2   1
#     4  10  21  38  57  88 140 177 217 280 341 410
#     4  11  24  42  72  98 138 196 229 307 356 424
#     4  11  22  43  71  98 140 185 234 291 364 417
#     4  12  23  40  67 103 138 180 245 282 357 445
#     4  11  25  47  74 105 137 184 241 303 358 429
#     4  10  20  38  62  91 136 184 222 272 354 420
#     4  10  26  52  74 106 150 188 252 304 368 416
#
# _framework density 23.408223
#
# number of rings (size 3 to 8) (size 9 to 14) (size 15 to 20)
#    0.000    1.231    0.000    6.462    0.000    5.538 
#   16.615    0.000    0.000    0.000    0.000    0.000 
#    0.000    0.000    0.000    0.000    0.000    0.000 
#
# Total GULP energy -72439.076406 kJ/mol
# GULP energy per Si atom -5572.236647 kJ/mol
# Density = 2.335494 g / cm^3
# Si number density = 23.408223 Si / 1000 Ang^3
#
#
#
# Elastic Constant Matrix: (Units=GPa)
#
#
# Indices 1 2 3 4 5 6 
#
# 1 151.4643 35.4786 53.4819 0.0000 -6.3553 0.0000
# 2 35.4786 142.2069 16.8430 0.0000 -17.7152 0.0000
# 3 53.4819 16.8430 80.7122 0.0000 -18.5148 0.0000
# 4 0.0000 0.0000 0.0000 11.7987 0.0000 -4.1114
# 5 -6.3553 -17.7152 -18.5148 0.0000 37.1258 0.0000
# 6 0.0000 0.0000 0.0000 -4.1114 0.0000 51.3134
#
#
#
# Elastic Compliance Matrix: (Units=1/GPa)
#
#
# Indices 1 2 3 4 5 6 
#
# 1 0.009128 -0.001842 -0.006219 0.000000 -0.002418 0.000000
# 2 -0.001842 0.007899 0.000412 0.000000 0.003659 0.000000
# 3 -0.006219 0.000412 0.018321 0.000000 0.008269 0.000000
# 4 0.000000 0.000000 0.000000 0.087189 0.000000 0.006986
# 5 -0.002418 0.003659 0.008269 0.000000 0.032391 0.000000
# 6 0.000000 0.000000 0.000000 0.006986 0.000000 0.020048
#
#
# Mechanical properties :
#
#
# Convention : Reuss Voigt Hill
#
# Bulk Modulus (GPa) = 49.87587 65.11005 57.49296
# Shear Modulus (GPa) = 25.38619 37.95291 31.66955
#
# Velocity S-wave (km/s) = 3.29675 4.03097 3.68220
# Velocity P-wave (km/s) = 5.98704 7.03849 6.53395
#
# Compressibility (1/GPa) = 0.02004978
#
# Stress axis : x y z
#
# Youngs Moduli (GPa) = 109.55259 126.60470 54.58142
#
# Poissons Ratio (x) = 0.23320 0.33942
# Poissons Ratio (y) = 0.20179 -0.02246
# Poissons Ratio (z) = 0.68127 -0.05211
#
# Static dielectric constant tensor:
#      x y z
#    x 2.100510 0.000000 -0.031590 
#    y 0.000000 1.972060 0.000000 
#    z -0.031590 0.000000 2.390550 
# 
# From -- ./inp_files/12093.got.cif
#   From: 2010.05.17/outbox.cif.g08.bks.cpg/sg3_7_cif.got.tgz:12093.got - 2010.06.03 18:33:08.
