data_PCOD9113790
_publ_section_title
;
Structure prediction by ZEFSAII (Michael W. Deem and Ramdas Pophale) SiO2 
 PCOD9113790
Probable space group: P 2
;
_chemical_formula_sum "Si O2"
_cell_formula_units_Z 14
_cell_length_a 17.532804
_cell_length_b 7.332327
_cell_length_c 5.314162
_cell_angle_alpha 90.000000
_cell_angle_beta 100.577022
_cell_angle_gamma 90.000000
_cell_volume 671.561059
_symmetry_space_group_name_H-M "P 2"
_symmetry_group_IT_number 3
_symmetry_cell_setting 'monoclinic'
loop_
_space_group_symop_operation_xyz
x,y,z
-x,y,-z
loop_
_atom_site_type_symbol
_atom_site_label
_atom_site_fract_x
_atom_site_fract_y
_atom_site_fract_z
Si Si1 0.881050 0.436370 0.789939
Si Si2 0.413265 0.461573 0.469502
Si Si3 0.262325 0.961028 0.864909
Si Si4 0.000000 0.149121 0.000000
Si Si5 0.104411 0.808920 0.937564
Si Si6 0.730345 0.199436 0.629299
Si Si7 0.000000 0.580800 0.500000
Si Si8 0.411729 0.703521 0.968019
O O1 0.799998 0.342639 0.694138
O O2 0.933945 0.452202 0.574528
O O3 0.870782 0.644465 0.866945
O O4 0.933168 0.309277 0.004561
O O5 0.500000 0.384949 0.500000
O O6 0.349765 0.307156 0.407201
O O7 0.405718 0.560747 0.733983
O O8 0.404843 0.604422 0.234168
O O9 0.262555 0.095373 0.629060
O O10 0.179818 0.857304 0.818727
O O11 0.339503 0.838680 0.896062
O O12 0.264722 0.064209 0.132502
O O13 0.931872 0.987734 0.952197
O O14 0.038263 0.714736 0.727133
O O15 0.500000 0.782230 0.000000
#
# Coordination Sequence:
#
# PCOD9113790 Si02
#       8
#     2   2   2   1   2   2   1   2
#     4  12  27  46  67  98 137 184 234 291 349 414
#     4  10  22  44  73 102 138 184 230 282 348 418
#     4  12  28  44  69 104 141 183 230 292 345 411
#     4  12  22  50  64  94 138 172 244 284 346 414
#     4  12  27  46  67  98 137 184 234 291 349 414
#     4  12  28  44  69 104 141 183 230 292 345 411
#     4  12  26  42  72  94 126 192 226 290 350 400
#     4  10  22  44  73 102 138 184 230 282 348 418
#
# _framework density 20.846948999999999
#
# number of rings (size 3 to 8) (size 9 to 14) (size 15 to 20)
#    0.000    0.571    4.286    2.571   10.000    1.143 
#    0.000    0.000    0.000    0.000    0.000    0.000 
#    0.000    0.000    0.000    0.000    0.000    0.000 
#
# Total GULP energy -78023.273850 kJ/mol
# GULP energy per Si atom -5573.090989 kJ/mol
# Density = 2.079950 g / cm^3
# Si number density = 20.846949 Si / 1000 Ang^3
#
#
#
# Elastic Constant Matrix: (Units=GPa)
#
#
# Indices 1 2 3 4 5 6 
#
# 1 141.4164 54.1685 20.7652 0.0000 -2.5401 0.0000
# 2 54.1685 79.7117 -0.6074 0.0000 -0.1088 0.0000
# 3 20.7652 -0.6074 62.8883 0.0000 4.6750 0.0000
# 4 0.0000 0.0000 0.0000 11.7194 0.0000 2.9841
# 5 -2.5401 -0.1088 4.6750 0.0000 23.8849 0.0000
# 6 0.0000 0.0000 0.0000 2.9841 0.0000 41.2761
#
#
#
# Elastic Compliance Matrix: (Units=1/GPa)
#
#
# Indices 1 2 3 4 5 6 
#
# 1 0.010333 -0.007047 -0.003612 0.000000 0.001774 0.000000
# 2 -0.007047 0.017352 0.002582 0.000000 -0.001176 0.000000
# 3 -0.003612 0.002582 0.017400 0.000000 -0.003778 0.000000
# 4 0.000000 0.000000 0.000000 0.086929 0.000000 -0.006285
# 5 0.001774 -0.001176 -0.003778 0.000000 0.042790 0.000000
# 6 0.000000 0.000000 0.000000 -0.006285 0.000000 0.024681
#
#
# Mechanical properties :
#
#
# Convention : Reuss Voigt Hill
#
# Bulk Modulus (GPa) = 34.56517 48.07431 41.31974
# Shear Modulus (GPa) = 22.19444 29.35542 25.77493
#
# Velocity S-wave (km/s) = 3.26642 3.75659 3.52005
# Velocity P-wave (km/s) = 5.55360 6.47508 6.03196
#
# Compressibility (1/GPa) = 0.02893085
#
# Stress axis : x y z
#
# Youngs Moduli (GPa) = 96.78011 57.63052 57.47278
#
# Poissons Ratio (x) = 0.40611 0.20757
# Poissons Ratio (y) = 0.68198 -0.14838
# Poissons Ratio (z) = 0.34954 -0.14879
#
# Static dielectric constant tensor:
#      x y z
#    x 1.737890 0.000000 -0.005930 
#    y 0.000000 1.716410 0.000000 
#    z -0.005930 0.000000 1.770640 
# 
# From -- ./inp_files/3560.got.cif
#   From: 2010.05.17/outbox.cif.g08.bks.cpg/sg3_2_cif.got.tgz:3560.got - 2010.06.03 18:33:08.
