data_PCOD9113831
_publ_section_title
;
Structure prediction by ZEFSAII (Michael W. Deem and Ramdas Pophale) SiO2 
 PCOD9113831
Probable space group: P 2
;
_chemical_formula_sum "Si O2"
_cell_formula_units_Z 14
_cell_length_a 8.940638
_cell_length_b 5.546927
_cell_length_c 14.470752
_cell_angle_alpha 90.000000
_cell_angle_beta 125.750149
_cell_angle_gamma 90.000000
_cell_volume 582.424137
_symmetry_space_group_name_H-M "P 2"
_symmetry_group_IT_number 3
_symmetry_cell_setting 'monoclinic'
loop_
_space_group_symop_operation_xyz
x,y,z
-x,y,-z
loop_
_atom_site_type_symbol
_atom_site_label
_atom_site_fract_x
_atom_site_fract_y
_atom_site_fract_z
Si Si1 0.453634 0.451630 0.576809
Si Si2 0.000000 0.081662 0.000000
Si Si3 0.100054 0.168968 0.462140
Si Si4 0.136021 0.414108 0.765435
Si Si5 0.288968 0.794912 0.672306
Si Si6 0.656200 0.788677 0.890113
Si Si7 0.500000 0.461641 0.000000
Si Si8 0.823640 0.443100 0.794906
O O1 0.500000 0.594991 0.500000
O O2 0.294228 0.264340 0.496350
O O3 0.375590 0.611764 0.630013
O O4 0.642634 0.340897 0.680421
O O5 0.087937 0.242976 0.110057
O O6 0.171738 0.945142 0.016109
O O7 0.000000 0.347524 0.500000
O O8 0.960795 0.191383 0.324854
O O9 0.168842 0.970462 0.563964
O O10 0.189107 0.631458 0.713975
O O11 0.322491 0.338295 0.887059
O O12 0.979195 0.514928 0.777658
O O13 0.469306 0.916109 0.785586
O O14 0.589757 0.617452 0.949125
O O15 0.749481 0.648232 0.837314
#
# Coordination Sequence:
#
# PCOD9113831 Si02
#       8
#     2   1   2   2   2   2   1   2
#     4  11  23  45  68  98 143 180 235 293 359 419
#     4  12  22  42  70 108 142 178 236 296 348 428
#     4  12  25  43  70 103 138 184 243 297 355 429
#     4  11  23  47  73 105 143 190 237 298 357 428
#     4  10  25  46  70 101 144 189 240 297 353 423
#     4  10  23  47  70 102 148 185 239 290 351 430
#     4  10  22  46  76 102 142 200 234 288 364 418
#     4  11  24  44  74 102 140 190 229 295 355 426
#
# _framework density 24.037464
#
# number of rings (size 3 to 8) (size 9 to 14) (size 15 to 20)
#    0.000    1.143    2.857    3.000    2.000    0.571 
#   15.429    0.714    0.000    0.000    0.000    0.000 
#    0.000    0.000    0.000    0.000    0.000    0.000 
#
# Total GULP energy -78079.566201 kJ/mol
# GULP energy per Si atom -5577.111871 kJ/mol
# Density = 2.398275 g / cm^3
# Si number density = 24.037464 Si / 1000 Ang^3
#
#
#
# Elastic Constant Matrix: (Units=GPa)
#
#
# Indices 1 2 3 4 5 6 
#
# 1 180.4504 24.0110 69.1546 0.0000 -3.6408 0.0000
# 2 24.0110 28.5943 43.6822 0.0000 13.1714 0.0000
# 3 69.1546 43.6822 212.5654 0.0000 53.5501 0.0000
# 4 0.0000 0.0000 0.0000 34.5811 0.0000 11.5995
# 5 -3.6408 13.1714 53.5501 0.0000 64.8069 0.0000
# 6 0.0000 0.0000 0.0000 11.5995 0.0000 17.2998
#
#
#
# Elastic Compliance Matrix: (Units=1/GPa)
#
#
# Indices 1 2 3 4 5 6 
#
# 1 0.006971 -0.003816 -0.002245 0.000000 0.003022 0.000000
# 2 -0.003816 0.053302 -0.008751 0.000000 -0.003817 0.000000
# 3 -0.002245 -0.008751 0.008609 0.000000 -0.005461 0.000000
# 4 0.000000 0.000000 0.000000 0.037308 0.000000 -0.025015
# 5 0.003022 -0.003817 -0.005461 0.000000 0.020889 0.000000
# 6 0.000000 0.000000 0.000000 -0.025015 0.000000 0.074577
#
#
# Mechanical properties :
#
#
# Convention : Reuss Voigt Hill
#
# Bulk Modulus (GPa) = 25.47195 77.25618 51.36407
# Shear Modulus (GPa) = 20.46120 42.32173 31.39147
#
# Velocity S-wave (km/s) = 2.92073 4.20057 3.61770
# Velocity P-wave (km/s) = 4.68978 7.46566 6.23418
#
# Compressibility (1/GPa) = 0.03925887
#
# Stress axis : x y z
#
# Youngs Moduli (GPa) = 143.45576 18.76086 116.15931
#
# Poissons Ratio (x) = 0.07159 0.26078
# Poissons Ratio (y) = 0.54742 1.01647
# Poissons Ratio (z) = 0.32206 0.16417
#
# Static dielectric constant tensor:
#      x y z
#    x 2.080400 0.000000 0.065720 
#    y 0.000000 2.036340 0.000000 
#    z 0.065720 0.000000 1.945060 
# 
# From -- ./inp_files/13395.got.cif
#   From: 2010.05.17/outbox.cif.g08.bks.cpg/sg3_7_cif.got.tgz:13395.got - 2010.06.03 18:33:08.
