data_PCOD9113464
_publ_section_title
;
Structure prediction by ZEFSAII (Michael W. Deem and Ramdas Pophale) SiO2 
 PCOD9113464
Probable space group: P 2
;
_chemical_formula_sum "Si O2"
_cell_formula_units_Z 16
_cell_length_a 14.760586
_cell_length_b 6.807887
_cell_length_c 28.029428
_cell_angle_alpha 90.000000
_cell_angle_beta 164.260049
_cell_angle_gamma 90.000000
_cell_volume 764.072502
_symmetry_space_group_name_H-M "P 2"
_symmetry_group_IT_number 3
_symmetry_cell_setting 'monoclinic'
loop_
_space_group_symop_operation_xyz
x,y,z
-x,y,-z
loop_
_atom_site_type_symbol
_atom_site_label
_atom_site_fract_x
_atom_site_fract_y
_atom_site_fract_z
Si Si1 0.924900 0.876800 0.525328
Si Si2 0.492551 0.093141 0.238689
Si Si3 0.118194 0.080464 0.812967
Si Si4 0.498325 0.556298 0.732905
Si Si5 0.057518 0.807439 0.196600
Si Si6 0.903753 0.516731 0.698698
Si Si7 0.870972 0.773348 0.996512
Si Si8 0.157680 0.817859 0.409300
O O1 0.824295 0.656272 0.455681
O O2 0.989593 0.867663 0.614134
O O3 0.585492 0.989576 0.336268
O O4 0.205670 0.014003 0.642753
O O5 0.490874 0.324244 0.250267
O O6 0.181702 0.992184 0.052878
O O7 0.075069 0.309838 0.786935
O O8 0.500000 0.018407 0.000000
O O9 0.000676 0.010093 0.805239
O O10 0.901931 0.981557 0.661403
O O11 0.813545 0.640018 0.861306
O O12 0.561007 0.659019 0.815748
O O13 0.976070 0.648537 0.196065
O O14 0.448504 0.791191 0.383159
O O15 0.865890 0.784949 0.050363
O O16 0.500000 0.500224 0.500000
O O17 0.972774 0.624634 0.683691
#
# Coordination Sequence:
#
# PCOD9113464 Si02
#       8
#     2   2   2   2   2   2   2   2
#     4  10  22  43  67  93 130 176 221 275 332 396
#     4  10  24  41  66  96 138 177 218 277 336 391
#     4  11  24  40  62  96 132 163 207 267 339 397
#     4  10  22  43  66  96 134 175 222 273 331 396
#     4  10  21  42  68  90 125 169 218 272 318 383
#     4   9  20  40  64  91 123 163 217 266 319 392
#     4  10  22  41  65  96 131 172 221 280 326 387
#     4  10  21  42  69  90 122 171 216 269 319 385
#
# _framework density 20.940418999999999
#
# number of rings (size 3 to 8) (size 9 to 14) (size 15 to 20)
#    0.000    2.000    1.250    1.875    1.750   12.000 
#    2.250    0.000    0.000    0.000    0.000    0.000 
#    0.000    0.000    0.000    0.000    0.000    0.000 
#
# Total GULP energy -89160.307353 kJ/mol
# GULP energy per Si atom -5572.519210 kJ/mol
# Density = 2.089276 g / cm^3
# Si number density = 20.940419 Si / 1000 Ang^3
#
#
#
# Elastic Constant Matrix: (Units=GPa)
#
#
# Indices 1 2 3 4 5 6 
#
# 1 131.1068 38.5033 44.2339 0.0001 -38.5029 0.0000
# 2 38.5033 144.4791 17.9619 0.0001 -6.5322 0.0000
# 3 44.2339 17.9619 70.6541 0.0001 -16.2175 0.0001
# 4 0.0001 0.0001 0.0001 17.5920 0.0000 7.7103
# 5 -38.5029 -6.5322 -16.2175 0.0000 39.7660 0.0000
# 6 0.0000 0.0000 0.0001 7.7103 0.0000 6.4497
#
#
#
# Elastic Compliance Matrix: (Units=1/GPa)
#
#
# Indices 1 2 3 4 5 6 
#
# 1 0.013070 -0.002372 -0.005256 0.000000 0.010121 0.000000
# 2 -0.002372 0.007586 -0.000755 0.000000 -0.001359 0.000000
# 3 -0.005256 -0.000755 0.018137 0.000000 0.002183 0.000000
# 4 0.000000 0.000000 0.000000 0.119407 0.000000 -0.142746
# 5 0.010121 -0.001359 0.002183 0.000000 0.035614 0.000000
# 6 0.000000 0.000000 0.000000 -0.142746 0.000000 0.325693
#
#
# Mechanical properties :
#
#
# Convention : Reuss Voigt Hill
#
# Bulk Modulus (GPa) = 45.40099 60.84869 53.12484
# Shear Modulus (GPa) = 9.19765 29.13093 19.16429
#
# Velocity S-wave (km/s) = 2.09805 3.73384 3.02848
# Velocity P-wave (km/s) = 5.25330 6.90723 6.13625
#
# Compressibility (1/GPa) = 0.02202595
#
# Stress axis : x y z
#
# Youngs Moduli (GPa) = 76.51237 131.82123 55.13450
#
# Poissons Ratio (x) = 0.31268 0.28980
# Poissons Ratio (y) = 0.18149 0.04165
# Poissons Ratio (z) = 0.40217 0.09957
#
# Static dielectric constant tensor:
#      x y z
#    x 1.792480 0.000000 0.085630 
#    y 0.000000 1.762110 0.000000 
#    z 0.085630 0.000000 1.853160 
# 
# From -- ./inp_files/16553.got.cif
#   From: 2010.05.17/outbox.cif.g08.bks.cpg/sg3_9_cif.got.tgz:16553.got - 2010.06.03 18:33:08.
