data_PCOD9113905
_publ_section_title
;
Structure prediction by ZEFSAII (Michael W. Deem and Ramdas Pophale) SiO2 
 PCOD9113905
Probable space group: P 2
;
_chemical_formula_sum "Si O2"
_cell_formula_units_Z 10
_cell_length_a 10.886013
_cell_length_b 4.832121
_cell_length_c 15.542844
_cell_angle_alpha 90.000000
_cell_angle_beta 152.377121
_cell_angle_gamma 90.000000
_cell_volume 379.076866
_symmetry_space_group_name_H-M "P 2"
_symmetry_group_IT_number 3
_symmetry_cell_setting 'monoclinic'
loop_
_space_group_symop_operation_xyz
x,y,z
-x,y,-z
loop_
_atom_site_type_symbol
_atom_site_label
_atom_site_fract_x
_atom_site_fract_y
_atom_site_fract_z
Si Si1 0.689922 0.482260 0.292402
Si Si2 0.596411 0.015916 0.952153
Si Si3 0.915047 0.024444 0.851127
Si Si4 0.071844 0.719430 0.308555
Si Si5 0.365697 0.217964 0.559758
O O1 0.546429 0.770293 0.187697
O O2 0.606405 0.329149 0.327600
O O3 0.000000 0.528171 0.500000
O O4 0.610505 0.266782 0.166781
O O5 0.830396 0.151664 0.038670
O O6 0.773786 0.844561 0.132141
O O7 0.255137 0.908652 0.482905
O O8 0.855148 0.781783 0.745534
O O9 0.654788 0.209475 0.696935
O O10 0.148004 0.410801 0.379057
O O11 0.000000 0.937677 0.000000
#
# Coordination Sequence:
#
# PCOD9113905 Si02
#       5
#     2   2   2   2   2
#     4  12  25  47  74  97 134 184 238 278 328 406
#     4  10  24  47  66 100 137 179 231 269 346 401
#     4  10  23  44  67  99 140 181 211 280 333 425
#     4  10  25  41  67 101 140 174 220 275 349 402
#     4  12  23  45  65 105 135 176 224 281 338 396
#
# _framework density 26.379873
#
# number of rings (size 3 to 8) (size 9 to 14) (size 15 to 20)
#    1.200    0.000    2.000    3.600    0.000    4.800 
#    0.000    6.000    0.000    0.000    0.000    0.000 
#    0.000    0.000    0.000    0.000    0.000    0.000 
#
# Total GULP energy -55943.049094 kJ/mol
# GULP energy per Si atom -5594.304909 kJ/mol
# Density = 2.631983 g / cm^3
# Si number density = 26.379873 Si / 1000 Ang^3
#
#
#
# Elastic Constant Matrix: (Units=GPa)
#
#
# Indices 1 2 3 4 5 6 
#
# 1 81.6615 21.5521 29.4252 0.0000 -11.0273 0.0000
# 2 21.5521 110.5555 51.2245 0.0000 1.9919 0.0000
# 3 29.4252 51.2245 183.1753 0.0000 10.1571 0.0000
# 4 0.0000 0.0000 0.0000 50.8450 0.0000 -1.8104
# 5 -11.0273 1.9919 10.1571 0.0000 44.9400 0.0000
# 6 0.0000 0.0000 0.0000 -1.8104 0.0000 20.9689
#
#
#
# Elastic Compliance Matrix: (Units=1/GPa)
#
#
# Indices 1 2 3 4 5 6 
#
# 1 0.013977 -0.001900 -0.001933 0.000000 0.003951 0.000000
# 2 -0.001900 0.010652 -0.002655 0.000000 -0.000338 0.000000
# 3 -0.001933 -0.002655 0.006615 0.000000 -0.001852 0.000000
# 4 0.000000 0.000000 0.000000 0.019728 0.000000 0.001703
# 5 0.003951 -0.000338 -0.001852 0.000000 0.023655 0.000000
# 6 0.000000 0.000000 0.000000 0.001703 0.000000 0.047837
#
#
# Mechanical properties :
#
#
# Convention : Reuss Voigt Hill
#
# Bulk Modulus (GPa) = 54.74100 64.42177 59.58139
# Shear Modulus (GPa) = 35.32842 41.56346 38.44594
#
# Velocity S-wave (km/s) = 3.66350 3.97366 3.82173
# Velocity P-wave (km/s) = 6.22022 6.74738 6.48915
#
# Compressibility (1/GPa) = 0.01826784
#
# Stress axis : x y z
#
# Youngs Moduli (GPa) = 71.54497 93.88061 151.17571
#
# Poissons Ratio (x) = 0.17841 0.29221
# Poissons Ratio (y) = 0.13596 0.40133
# Poissons Ratio (z) = 0.13829 0.24923
#
# Static dielectric constant tensor:
#      x y z
#    x 2.218020 0.000000 -0.013490 
#    y 0.000000 1.945410 0.000000 
#    z -0.013490 0.000000 2.069810 
# 
# From -- ./inp_files/16629.got.cif
#   From: 2010.05.17/outbox.cif.g08.bks.cpg/sg3_9_cif.got.tgz:16629.got - 2010.06.03 18:33:08.
