data_PCOD9113339
_publ_section_title
;
Structure prediction by ZEFSAII (Michael W. Deem and Ramdas Pophale) SiO2 
 PCOD9113339
Probable space group: P 2
;
_chemical_formula_sum "Si O2"
_cell_formula_units_Z 12
_cell_length_a 4.867492
_cell_length_b 5.518437
_cell_length_c 20.699998
_cell_angle_alpha 90.000000
_cell_angle_beta 59.687260
_cell_angle_gamma 90.000000
_cell_volume 480.004160
_symmetry_space_group_name_H-M "P 2"
_symmetry_group_IT_number 3
_symmetry_cell_setting 'monoclinic'
loop_
_space_group_symop_operation_xyz
x,y,z
-x,y,-z
loop_
_atom_site_type_symbol
_atom_site_label
_atom_site_fract_x
_atom_site_fract_y
_atom_site_fract_z
Si Si1 0.571650 0.733090 0.665492
Si Si2 0.973870 0.343552 0.700417
Si Si3 0.698794 0.153383 0.220241
Si Si4 0.369972 0.654461 0.943312
Si Si5 0.378048 0.151813 0.088968
Si Si6 0.756153 0.920958 0.413581
O O1 0.772148 0.541061 0.684241
O O2 0.183952 0.360589 0.741022
O O3 0.885896 0.879880 0.603506
O O4 0.343138 0.899712 0.736787
O O5 0.662154 0.189077 0.760012
O O6 0.365555 0.714953 0.623837
O O7 0.197456 0.174819 0.629427
O O8 0.996754 0.146216 0.137071
O O9 0.489636 0.404861 0.898693
O O10 0.490457 0.901237 0.896926
O O11 0.500000 0.656046 0.000000
O O12 0.000000 0.654894 0.000000
O O13 0.500000 0.151574 0.000000
O O14 0.500000 0.933433 0.500000
#
# Coordination Sequence:
#
# PCOD9113339 Si02
#       6
#     2   2   2   2   2   2
#     4  10  21  40  63  91 134 171 223 272 339 411
#     4  10  22  41  63  92 130 175 220 272 339 411
#     4  10  23  39  62  93 126 175 226 281 338 412
#     4  10  22  40  62  88 127 164 211 275 346 405
#     4  10  23  43  65  96 132 175 228 292 346 407
#     4  10  21  39  63  96 131 170 219 279 332 405
#
# _framework density 24.999783000000001
#
# number of rings (size 3 to 8) (size 9 to 14) (size 15 to 20)
#    0.000    2.000    0.000    2.000    2.333    6.000 
#    3.000    5.000    0.000    0.000    0.000    0.000 
#    0.000    0.000    0.000    0.000    0.000    0.000 
#
# Total GULP energy -66917.564246 kJ/mol
# GULP energy per Si atom -5576.463687 kJ/mol
# Density = 2.494288 g / cm^3
# Si number density = 24.999783 Si / 1000 Ang^3
#
#
#
# Elastic Constant Matrix: (Units=GPa)
#
#
# Indices 1 2 3 4 5 6 
#
# 1 172.8623 15.8278 13.9307 0.0000 -15.4572 0.0000
# 2 15.8278 152.2290 3.0587 0.0000 5.0139 0.0000
# 3 13.9307 3.0587 114.8012 0.0000 -11.9746 0.0000
# 4 0.0000 0.0000 0.0000 12.8878 0.0000 1.4754
# 5 -15.4572 5.0139 -11.9746 0.0000 35.4250 0.0000
# 6 0.0000 0.0000 0.0000 1.4754 0.0000 41.4118
#
#
#
# Elastic Compliance Matrix: (Units=1/GPa)
#
#
# Indices 1 2 3 4 5 6 
#
# 1 0.006121 -0.000714 -0.000450 0.000000 0.002619 0.000000
# 2 -0.000714 0.006692 -0.000231 0.000000 -0.001337 0.000000
# 3 -0.000450 -0.000231 0.009074 0.000000 0.002904 0.000000
# 4 0.000000 0.000000 0.000000 0.077911 0.000000 -0.002776
# 5 0.002619 -0.001337 0.002904 0.000000 0.030542 0.000000
# 6 0.000000 0.000000 0.000000 -0.002776 0.000000 0.024247
#
#
# Mechanical properties :
#
#
# Convention : Reuss Voigt Hill
#
# Bulk Modulus (GPa) = 52.36520 56.16964 54.26742
# Shear Modulus (GPa) = 30.53570 45.08328 37.80949
#
# Velocity S-wave (km/s) = 3.49870 4.25119 3.89317
# Velocity P-wave (km/s) = 6.10843 6.82742 6.47791
#
# Compressibility (1/GPa) = 0.01909665
#
# Stress axis : x y z
#
# Youngs Moduli (GPa) = 163.37658 149.43396 110.20022
#
# Poissons Ratio (x) = 0.10664 0.04964
# Poissons Ratio (y) = 0.11659 0.02547
# Poissons Ratio (z) = 0.07360 0.03454
#
# Static dielectric constant tensor:
#      x y z
#    x 1.973020 0.000000 0.092630 
#    y 0.000000 2.265630 0.000000 
#    z 0.092630 0.000000 1.996250 
# 
# From -- ./inp_files/15536.got.cif
#   From: 2010.05.17/outbox.cif.g08.bks.cpg/sg3_8_cif.got.tgz:15536.got - 2010.06.03 18:33:08.
