data_PCOD9113244
_publ_section_title
;
Structure prediction by ZEFSAII (Michael W. Deem and Ramdas Pophale) SiO2 
 PCOD9113244
Probable space group: P 2
;
_chemical_formula_sum "Si O2"
_cell_formula_units_Z 12
_cell_length_a 9.498272
_cell_length_b 6.808229
_cell_length_c 7.564251
_cell_angle_alpha 90.000000
_cell_angle_beta 92.150896
_cell_angle_gamma 90.000000
_cell_volume 488.808330
_symmetry_space_group_name_H-M "P 2"
_symmetry_group_IT_number 3
_symmetry_cell_setting 'monoclinic'
loop_
_space_group_symop_operation_xyz
x,y,z
-x,y,-z
loop_
_atom_site_type_symbol
_atom_site_label
_atom_site_fract_x
_atom_site_fract_y
_atom_site_fract_z
Si Si1 0.313601 0.471700 0.326524
Si Si2 0.717877 0.926779 0.741178
Si Si3 0.466089 0.196012 0.789133
Si Si4 0.193981 0.960591 0.845020
Si Si5 0.878294 0.575106 0.372825
Si Si6 0.928577 0.216044 0.748752
O O1 0.299387 0.700517 0.294080
O O2 0.469403 0.389984 0.299993
O O3 0.240017 0.465541 0.515450
O O4 0.208141 0.344950 0.192906
O O5 0.568683 0.029950 0.715360
O O6 0.833303 0.053817 0.637779
O O7 0.765239 0.939957 0.947770
O O8 0.311559 0.105026 0.767741
O O9 0.500000 0.219270 0.000000
O O10 0.183107 0.744933 0.755064
O O11 0.045559 0.070245 0.829776
O O12 0.000000 0.674224 0.500000
O O13 0.970369 0.397995 0.296424
#
# Coordination Sequence:
#
# PCOD9113244 Si02
#       6
#     2   2   2   2   2   2
#     4  10  22  42  66  90 126 172 208 257 323 380
#     4  10  22  41  66  93 124 164 211 261 317 376
#     4   9  22  42  64  92 125 164 212 265 317 374
#     4  11  23  40  66  97 125 162 213 267 316 373
#     4  10  23  40  63  94 129 169 209 260 322 377
#     4  10  21  37  60  92 126 161 206 252 308 374
#
# _framework density 24.549499000000001
#
# number of rings (size 3 to 8) (size 9 to 14) (size 15 to 20)
#    0.000    2.000    0.000    2.500    0.000   16.000 
#    0.000    5.000    0.000    0.000    0.000    0.000 
#    0.000    0.000    0.000    0.000    0.000    0.000 
#
# Total GULP energy -66855.245009 kJ/mol
# GULP energy per Si atom -5571.270417 kJ/mol
# Density = 2.449362 g / cm^3
# Si number density = 24.549499 Si / 1000 Ang^3
#
#
#
# Elastic Constant Matrix: (Units=GPa)
#
#
# Indices 1 2 3 4 5 6 
#
# 1 179.0521 60.3421 32.9956 0.0000 -20.9222 0.0000
# 2 60.3421 207.5228 40.0345 0.0000 -17.7816 0.0000
# 3 32.9956 40.0345 60.0227 0.0000 -2.7539 0.0000
# 4 0.0000 0.0000 0.0000 359.8937 0.0000 -373.2082
# 5 -20.9222 -17.7816 -2.7539 0.0000 26.4144 0.0000
# 6 0.0000 0.0000 0.0000 -373.2082 0.0000 413.2663
#
#
#
# Elastic Compliance Matrix: (Units=1/GPa)
#
#
# Indices 1 2 3 4 5 6 
#
# 1 0.007019 -0.001089 -0.002925 0.000000 0.004522 0.000000
# 2 -0.001089 0.006012 -0.003281 0.000000 0.002842 0.000000
# 3 -0.002925 -0.003281 0.020346 0.000000 -0.002404 0.000000
# 4 0.000000 0.000000 0.000000 0.043743 0.000000 0.039503
# 5 0.004522 0.002842 -0.002404 0.000000 0.043102 0.000000
# 6 0.000000 0.000000 0.000000 0.039503 0.000000 0.038094
#
#
# Mechanical properties :
#
#
# Convention : Reuss Voigt Hill
#
# Bulk Modulus (GPa) = 53.22554 79.26022 66.24288
# Shear Modulus (GPa) = 27.90669 180.79659 104.35164
#
# Velocity S-wave (km/s) = 3.37523 8.59102 6.52678
# Velocity P-wave (km/s) = 6.07598 11.43518 9.15645
#
# Compressibility (1/GPa) = 0.01878797
#
# Stress axis : x y z
#
# Youngs Moduli (GPa) = 142.46222 166.33578 49.14985
#
# Poissons Ratio (x) = 0.18121 0.14374
# Poissons Ratio (y) = 0.15520 0.16124
# Poissons Ratio (z) = 0.41665 0.54568
#
# Static dielectric constant tensor:
#      x y z
#    x 1.813130 0.000000 -0.137000 
#    y 0.000000 1.924360 0.000000 
#    z -0.137000 0.000000 2.000210 
# 
# From -- ./inp_files/6536.got.cif
#   From: 2010.05.17/outbox.cif.g08.bks.cpg/sg3_4_cif.got.tgz:6536.got - 2010.06.03 18:33:08.
