data_PCOD9113676
_publ_section_title
;
Structure prediction by ZEFSAII (Michael W. Deem and Ramdas Pophale) SiO2 
 PCOD9113676
Probable space group: P 2
;
_chemical_formula_sum "Si O2"
_cell_formula_units_Z 14
_cell_length_a 8.797122
_cell_length_b 5.353862
_cell_length_c 13.075183
_cell_angle_alpha 90.000000
_cell_angle_beta 97.959975
_cell_angle_gamma 90.000000
_cell_volume 609.889096
_symmetry_space_group_name_H-M "P 2"
_symmetry_group_IT_number 3
_symmetry_cell_setting 'monoclinic'
loop_
_space_group_symop_operation_xyz
x,y,z
-x,y,-z
loop_
_atom_site_type_symbol
_atom_site_label
_atom_site_fract_x
_atom_site_fract_y
_atom_site_fract_z
Si Si1 0.362599 0.384920 0.676251
Si Si2 0.177532 0.511176 0.051876
Si Si3 0.336746 0.707339 0.478561
Si Si4 0.717242 0.401880 0.715266
Si Si5 0.828364 0.008371 0.031429
Si Si6 0.808572 0.885763 0.267314
Si Si7 0.913301 0.057605 0.582713
O O1 0.352432 0.470179 0.555555
O O2 0.540324 0.332489 0.720069
O O3 0.287312 0.631199 0.722626
O O4 0.274242 0.135251 0.698185
O O5 0.193223 0.447834 0.172111
O O6 0.250226 0.780035 0.035739
O O7 0.000000 0.537897 0.000000
O O8 0.244835 0.278888 0.994645
O O9 0.500000 0.843117 0.500000
O O10 0.305979 0.641741 0.358565
O O11 0.196866 0.879751 0.493248
O O12 0.813383 0.218621 0.651455
O O13 0.834250 0.930942 0.149430
O O14 0.000000 0.036322 0.000000
O O15 0.972972 0.890794 0.338279
O O16 0.000000 0.209302 0.500000
#
# Coordination Sequence:
#
# PCOD9113676 Si02
#       7
#     2   2   2   2   2   2   2
#     4  11  27  50  70 108 151 197 240 299 375 452
#     4  10  22  41  69 104 137 179 246 295 352 427
#     4  10  25  44  70 106 150 196 238 300 370 456
#     4  11  27  44  76 100 152 202 240 296 387 441
#     4  10  22  42  68 101 140 179 231 309 360 415
#     4  12  26  47  76 106 149 188 248 313 364 431
#     4  12  25  41  76 110 146 190 256 302 374 437
#
# _framework density 22.954992000000001
#
# number of rings (size 3 to 8) (size 9 to 14) (size 15 to 20)
#    0.000    1.143    1.429    3.429   12.000    1.143 
#    0.000    4.286    0.000    0.000    0.000    0.000 
#    0.000    0.000    0.000    0.000    0.000    0.000 
#
# Total GULP energy -78229.690129 kJ/mol
# GULP energy per Si atom -5587.835009 kJ/mol
# Density = 2.290275 g / cm^3
# Si number density = 22.954992 Si / 1000 Ang^3
#
#
#
# Elastic Constant Matrix: (Units=GPa)
#
#
# Indices 1 2 3 4 5 6 
#
# 1 100.7332 21.5922 31.0561 0.0000 6.1733 0.0000
# 2 21.5922 93.7064 -13.6991 0.0000 1.6419 0.0000
# 3 31.0561 -13.6991 113.3374 0.0000 8.6872 0.0000
# 4 0.0000 0.0000 0.0000 25.9104 0.0000 -8.5320
# 5 6.1733 1.6419 8.6872 0.0000 28.7708 0.0000
# 6 0.0000 0.0000 0.0000 -8.5320 0.0000 33.3245
#
#
#
# Elastic Compliance Matrix: (Units=1/GPa)
#
#
# Indices 1 2 3 4 5 6 
#
# 1 0.011777 -0.003205 -0.003516 0.000000 -0.001282 0.000000
# 2 -0.003205 0.011766 0.002354 0.000000 -0.000694 0.000000
# 3 -0.003516 0.002354 0.010261 0.000000 -0.002478 0.000000
# 4 0.000000 0.000000 0.000000 0.042148 0.000000 0.010791
# 5 -0.001282 -0.000694 -0.002478 0.000000 0.035821 0.000000
# 6 0.000000 0.000000 0.000000 0.010791 0.000000 0.032771
#
#
# Mechanical properties :
#
#
# Convention : Reuss Voigt Hill
#
# Bulk Modulus (GPa) = 39.88972 42.85282 41.37127
# Shear Modulus (GPa) = 30.93382 35.52299 33.22841
#
# Velocity S-wave (km/s) = 3.67493 3.93810 3.80879
# Velocity P-wave (km/s) = 5.95163 6.27590 6.11591
#
# Compressibility (1/GPa) = 0.02506911
#
# Stress axis : x y z
#
# Youngs Moduli (GPa) = 84.91210 84.98734 97.45512
#
# Poissons Ratio (x) = 0.27240 0.34267
# Poissons Ratio (y) = 0.27216 -0.22938
# Poissons Ratio (z) = 0.29857 -0.20004
#
# Static dielectric constant tensor:
#      x y z
#    x 1.894890 0.000000 -0.036920 
#    y 0.000000 1.916510 0.000000 
#    z -0.036920 0.000000 1.839680 
# 
# From -- ./inp_files/6641.got.cif
#   From: 2010.05.17/outbox.cif.g08.bks.cpg/sg3_4_cif.got.tgz:6641.got - 2010.06.03 18:33:08.
