data_PCOD9113636
_publ_section_title
;
Structure prediction by ZEFSAII (Michael W. Deem and Ramdas Pophale) SiO2 
 PCOD9113636
Probable space group: P 2
;
_chemical_formula_sum "Si O2"
_cell_formula_units_Z 14
_cell_length_a 9.363528
_cell_length_b 6.520739
_cell_length_c 17.902088
_cell_angle_alpha 90.000000
_cell_angle_beta 36.820099
_cell_angle_gamma 90.000000
_cell_volume 655.069717
_symmetry_space_group_name_H-M "P 2"
_symmetry_group_IT_number 3
_symmetry_cell_setting 'monoclinic'
loop_
_space_group_symop_operation_xyz
x,y,z
-x,y,-z
loop_
_atom_site_type_symbol
_atom_site_label
_atom_site_fract_x
_atom_site_fract_y
_atom_site_fract_z
Si Si1 0.500000 0.416620 0.000000
Si Si2 0.000000 0.640078 0.000000
Si Si3 0.276411 0.257788 0.404264
Si Si4 0.711476 0.797442 0.988838
Si Si5 0.580822 0.985353 0.383899
Si Si6 0.351212 0.996085 0.240271
Si Si7 0.905826 0.088728 0.787560
Si Si8 0.531421 0.655993 0.276640
O O1 0.412396 0.577826 0.973242
O O2 0.272508 0.277435 0.118467
O O3 0.758615 0.551240 0.139067
O O4 0.095852 0.773068 0.027991
O O5 0.383606 0.127906 0.427089
O O6 0.349508 0.490678 0.384268
O O7 0.000000 0.227500 0.500000
O O8 0.402089 0.177821 0.275675
O O9 0.814606 0.886601 0.869727
O O10 0.537846 0.967958 0.095528
O O11 0.500000 0.913594 0.500000
O O12 0.825538 0.112024 0.295238
O O13 0.613946 0.801541 0.310334
O O14 0.388972 0.794865 0.275442
O O15 0.113356 0.038653 0.292553
#
# Coordination Sequence:
#
# PCOD9113636 Si02
#       8
#     1   1   2   2   2   2   2   2
#     4  12  24  38  66 104 142 182 230 272 346 432
#     4  10  22  40  68 102 142 166 224 284 342 416
#     4  11  26  47  68 101 134 180 242 282 343 420
#     4  11  22  42  63 102 141 177 228 276 351 417
#     4  11  26  48  70  98 140 184 233 291 344 403
#     4  10  22  42  66  95 138 179 222 278 346 403
#     4  12  23  41  68  99 141 182 224 287 344 404
#     4  10  24  44  72 102 135 185 226 285 353 411
#
# _framework density 21.371772
#
# number of rings (size 3 to 8) (size 9 to 14) (size 15 to 20)
#    0.000    1.143    4.286    0.857    6.000    4.000 
#    0.000    0.714    0.000    0.000    0.000    0.000 
#    0.000    0.000    0.000    0.000    0.000    0.000 
#
# Total GULP energy -78019.724360 kJ/mol
# GULP energy per Si atom -5572.837454 kJ/mol
# Density = 2.132313 g / cm^3
# Si number density = 21.371772 Si / 1000 Ang^3
#
#
#
# Elastic Constant Matrix: (Units=GPa)
#
#
# Indices 1 2 3 4 5 6 
#
# 1 172.8884 34.7445 51.0661 0.0000 -0.1799 0.0000
# 2 34.7445 62.2327 31.6791 0.0000 -10.5552 0.0000
# 3 51.0661 31.6791 87.6128 0.0000 -6.9461 0.0000
# 4 0.0000 0.0000 0.0000 14.1904 0.0000 -11.4429
# 5 -0.1799 -10.5552 -6.9461 0.0000 43.1067 0.0000
# 6 0.0000 0.0000 0.0000 -11.4429 0.0000 -83.4390
#
#
#
# Elastic Compliance Matrix: (Units=1/GPa)
#
#
# Indices 1 2 3 4 5 6 
#
# 1 0.007305 -0.002523 -0.003436 0.000000 -0.001141 0.000000
# 2 -0.002523 0.021173 -0.005850 0.000000 0.004231 0.000000
# 3 -0.003436 -0.005850 0.015616 0.000000 0.001070 0.000000
# 4 0.000000 0.000000 0.000000 0.063453 0.000000 -0.008702
# 5 -0.001141 0.004231 0.001070 0.000000 0.024402 0.000000
# 6 0.000000 0.000000 0.000000 -0.008702 0.000000 -0.010791
#
#
# Mechanical properties :
#
#
# Convention : Reuss Voigt Hill
#
# Bulk Modulus (GPa) = 48.83521 61.96813 55.40167
# Shear Modulus (GPa) = 32.98156 8.45457 20.71807
#
# Velocity S-wave (km/s) = 3.93266 1.99112 3.11692
# Velocity P-wave (km/s) = 6.59705 5.86040 6.23960
#
# Compressibility (1/GPa) = 0.02047703
#
# Stress axis : x y z
#
# Youngs Moduli (GPa) = 136.89747 47.23097 64.03492
#
# Poissons Ratio (x) = 0.11915 0.22002
# Poissons Ratio (y) = 0.34535 0.37459
# Poissons Ratio (z) = 0.47037 0.27629
#
# Static dielectric constant tensor:
#      x y z
#    x 1.781430 0.000000 -0.055710 
#    y 0.000000 1.729850 0.000000 
#    z -0.055710 0.000000 1.874310 
# 
# From -- ./inp_files/6736.got.cif
#   From: 2010.05.17/outbox.cif.g08.bks.cpg/sg3_4_cif.got.tgz:6736.got - 2010.06.03 18:33:08.
