data_PCOD9113318
_publ_section_title
;
Structure prediction by ZEFSAII (Michael W. Deem and Ramdas Pophale) SiO2 
 PCOD9113318
Probable space group: P 2
;
_chemical_formula_sum "Si O2"
_cell_formula_units_Z 16
_cell_length_a 20.531213
_cell_length_b 5.130836
_cell_length_c 9.899178
_cell_angle_alpha 90.000000
_cell_angle_beta 53.148334
_cell_angle_gamma 90.000000
_cell_volume 834.440689
_symmetry_space_group_name_H-M "P 2"
_symmetry_group_IT_number 3
_symmetry_cell_setting 'monoclinic'
loop_
_space_group_symop_operation_xyz
x,y,z
-x,y,-z
loop_
_atom_site_type_symbol
_atom_site_label
_atom_site_fract_x
_atom_site_fract_y
_atom_site_fract_z
Si Si1 0.854899 0.365710 0.973331
Si Si2 0.424589 0.810786 0.190616
Si Si3 0.829670 0.448000 0.688173
Si Si4 0.580637 0.852898 0.489414
Si Si5 0.965796 0.865946 0.892565
Si Si6 0.305921 0.349266 0.644030
Si Si7 0.924810 0.946670 0.493015
Si Si8 0.680684 0.306960 0.687165
O O1 0.829051 0.404596 0.849614
O O2 0.916014 0.598936 0.936600
O O3 0.904473 0.098452 0.929714
O O4 0.775701 0.361996 0.166999
O O5 0.445880 0.858135 0.320677
O O6 0.391663 0.517994 0.215908
O O7 0.353393 0.017768 0.248851
O O8 0.500000 0.857466 0.000000
O O9 0.856010 0.741806 0.621447
O O10 0.746500 0.380636 0.716478
O O11 0.894835 0.242040 0.546815
O O12 0.500000 0.845689 0.500000
O O13 0.638322 0.602132 0.401250
O O14 0.637567 0.102111 0.391495
O O15 0.041616 0.882803 0.696232
O O16 0.000000 0.894239 0.000000
O O17 0.286042 0.329250 0.508182
O O18 0.000000 0.903851 0.500000
#
# Coordination Sequence:
#
# PCOD9113318 Si02
#       8
#     2   2   2   2   2   2   2   2
#     4  12  24  43  61  91 125 156 204 254 299 359
#     4  10  21  39  61  88 121 152 196 248 288 353
#     4  12  24  40  65  90 121 162 200 251 307 359
#     4  10  21  39  61  88 117 158 198 237 298 353
#     4  12  27  41  63  91 119 160 209 250 303 359
#     4  10  23  39  59  87 124 156 194 248 294 355
#     4  12  23  43  63  87 123 158 203 256 303 351
#     4  10  23  39  59  90 120 157 198 237 306 355
#
# _framework density 19.174520999999999
#
# number of rings (size 3 to 8) (size 9 to 14) (size 15 to 20)
#    0.000    1.000    2.500    3.750    3.500    2.000 
#    0.000    0.000    0.000    0.000    0.000    0.000 
#    0.000    0.000    0.000    0.000    0.000    0.000 
#
# Total GULP energy -89479.777087 kJ/mol
# GULP energy per Si atom -5592.486068 kJ/mol
# Density = 1.913088 g / cm^3
# Si number density = 19.174521 Si / 1000 Ang^3
#
#
#
# Elastic Constant Matrix: (Units=GPa)
#
#
# Indices 1 2 3 4 5 6 
#
# 1 77.8352 -19.2842 21.0913 0.0000 19.5103 0.0000
# 2 -19.2842 77.0328 -3.7577 0.0000 -2.7838 0.0000
# 3 21.0913 -3.7577 112.8359 0.0000 -0.8122 0.0000
# 4 0.0000 0.0000 0.0000 14.5546 0.0000 -4.7967
# 5 19.5103 -2.7838 -0.8122 0.0000 22.9188 0.0000
# 6 0.0000 0.0000 0.0000 -4.7967 0.0000 2.9453
#
#
#
# Elastic Compliance Matrix: (Units=1/GPa)
#
#
# Indices 1 2 3 4 5 6 
#
# 1 0.018655 0.003940 -0.003468 0.000000 -0.015525 0.000000
# 2 0.003940 0.013893 -0.000286 0.000000 -0.001676 0.000000
# 3 -0.003468 -0.000286 0.009524 0.000000 0.003255 0.000000
# 4 0.000000 0.000000 0.000000 0.148307 0.000000 0.241531
# 5 -0.015525 -0.001676 0.003255 0.000000 0.056760 0.000000
# 6 0.000000 0.000000 0.000000 0.241531 0.000000 0.732879
#
#
# Mechanical properties :
#
#
# Convention : Reuss Voigt Hill
#
# Bulk Modulus (GPa) = 23.55961 29.31143 26.43552
# Shear Modulus (GPa) = 5.03123 26.06071 15.54597
#
# Velocity S-wave (km/s) = 1.62161 3.69064 2.85048
# Velocity P-wave (km/s) = 3.97741 5.78627 4.96491
#
# Compressibility (1/GPa) = 0.04244553
#
# Stress axis : x y z
#
# Youngs Moduli (GPa) = 53.60539 71.97743 104.99258
#
# Poissons Ratio (x) = -0.28358 0.36406
# Poissons Ratio (y) = -0.21120 0.03001
# Poissons Ratio (z) = 0.18588 0.02057
#
# Static dielectric constant tensor:
#      x y z
#    x 1.633420 0.000000 -0.008320 
#    y 0.000000 1.667710 0.000000 
#    z -0.008320 0.000000 1.871090 
# 
# From -- ./inp_files/8907.got.cif
#   From: 2010.05.17/outbox.cif.g08.bks.cpg/sg3_5_cif.got.tgz:8907.got - 2010.06.03 18:33:08.
