data_PCOD9113859
_publ_section_title
;
Structure prediction by ZEFSAII (Michael W. Deem and Ramdas Pophale) SiO2 
 PCOD9113859
Probable space group: P 2
;
_chemical_formula_sum "Si O2"
_cell_formula_units_Z 13
_cell_length_a 11.354763
_cell_length_b 5.740870
_cell_length_c 8.043755
_cell_angle_alpha 90.000000
_cell_angle_beta 97.229122
_cell_angle_gamma 90.000000
_cell_volume 520.173906
_symmetry_space_group_name_H-M "P 2"
_symmetry_group_IT_number 3
_symmetry_cell_setting 'monoclinic'
loop_
_space_group_symop_operation_xyz
x,y,z
-x,y,-z
loop_
_atom_site_type_symbol
_atom_site_label
_atom_site_fract_x
_atom_site_fract_y
_atom_site_fract_z
Si Si1 0.109456 0.916440 0.101953
Si Si2 0.973852 0.557640 0.314000
Si Si3 0.631020 0.501305 0.441402
Si Si4 0.572165 0.999028 0.340043
Si Si5 0.500000 0.766570 0.000000
Si Si6 0.245142 0.564144 0.930660
Si Si7 0.809731 0.309335 0.737084
O O1 0.036495 0.720484 0.187678
O O2 0.199550 0.034520 0.246282
O O3 0.192767 0.815440 0.974567
O O4 0.000000 0.059848 0.000000
O O5 0.838804 0.503530 0.241099
O O6 0.000000 0.657880 0.500000
O O7 0.058490 0.335055 0.313551
O O8 0.500000 0.519193 0.500000
O O9 0.652290 0.763423 0.374648
O O10 0.721750 0.443304 0.603658
O O11 0.626803 0.259481 0.332276
O O12 0.500000 0.015335 0.500000
O O13 0.496483 0.928770 0.163621
O O14 0.614605 0.601380 0.040200
O O15 0.209231 0.398461 0.078234
#
# Coordination Sequence:
#
# PCOD9113859 Si02
#       7
#     2   2   2   2   1   2   2
#     4   9  20  40  66  92 126 177 234 297 361 434
#     4  10  23  41  67  99 140 177 239 305 370 444
#     4  10  23  40  70 101 145 188 242 298 368 441
#     4  10  24  46  67 103 146 193 245 301 368 444
#     4  12  26  44  76 102 152 198 244 308 372 444
#     4  10  23  43  64 102 136 186 243 300 364 449
#     4  11  22  40  73  92 136 190 234 306 373 438
#
# _framework density 24.991641000000001
#
# number of rings (size 3 to 8) (size 9 to 14) (size 15 to 20)
#    0.000    1.846    0.000    4.154   10.769    1.231 
#    2.769    1.538    0.000    0.000    0.000    0.000 
#    0.000    0.000    0.000    0.000    0.000    0.000 
#
# Total GULP energy -72493.804552 kJ/mol
# GULP energy per Si atom -5576.446504 kJ/mol
# Density = 2.493476 g / cm^3
# Si number density = 24.991641 Si / 1000 Ang^3
#
#
#
# Elastic Constant Matrix: (Units=GPa)
#
#
# Indices 1 2 3 4 5 6 
#
# 1 159.6245 20.8501 40.3210 0.0000 18.0863 0.0000
# 2 20.8501 98.9829 11.5143 0.0000 14.3968 0.0000
# 3 40.3210 11.5143 139.3852 0.0000 22.1521 0.0000
# 4 0.0000 0.0000 0.0000 33.0715 0.0000 8.6432
# 5 18.0863 14.3968 22.1521 0.0000 34.1786 0.0000
# 6 0.0000 0.0000 0.0000 8.6432 0.0000 22.8268
#
#
#
# Elastic Compliance Matrix: (Units=1/GPa)
#
#
# Indices 1 2 3 4 5 6 
#
# 1 0.007054 -0.000967 -0.001597 0.000000 -0.002291 0.000000
# 2 -0.000967 0.010899 0.000031 0.000000 -0.004099 0.000000
# 3 -0.001597 0.000031 0.008363 0.000000 -0.004588 0.000000
# 4 0.000000 0.000000 0.000000 0.033558 0.000000 -0.012707
# 5 -0.002291 -0.004099 -0.004588 0.000000 0.035171 0.000000
# 6 0.000000 0.000000 0.000000 -0.012707 0.000000 0.048619
#
#
# Mechanical properties :
#
#
# Convention : Reuss Voigt Hill
#
# Bulk Modulus (GPa) = 47.05800 60.37372 53.71586
# Shear Modulus (GPa) = 32.08974 39.70254 35.89614
#
# Velocity S-wave (km/s) = 3.58721 3.99009 3.79400
# Velocity P-wave (km/s) = 6.00232 6.74075 6.38222
#
# Compressibility (1/GPa) = 0.02125037
#
# Stress axis : x y z
#
# Youngs Moduli (GPa) = 141.76672 91.75091 119.57600
#
# Poissons Ratio (x) = 0.08872 0.19092
# Poissons Ratio (y) = 0.13708 -0.00369
# Poissons Ratio (z) = 0.22635 -0.00283
#
# Static dielectric constant tensor:
#      x y z
#    x 2.054350 0.000000 0.047960 
#    y 0.000000 2.099530 0.000000 
#    z 0.047960 0.000000 2.133340 
# 
# From -- ./inp_files/6733.got.cif
#   From: 2010.05.17/outbox.cif.g08.bks.cpg/sg3_4_cif.got.tgz:6733.got - 2010.06.03 18:33:08.
