data_PCOD9113843
_publ_section_title
;
Structure prediction by ZEFSAII (Michael W. Deem and Ramdas Pophale) SiO2 
 PCOD9113843
Probable space group: P 2
;
_chemical_formula_sum "Si O2"
_cell_formula_units_Z 11
_cell_length_a 15.409060
_cell_length_b 5.976253
_cell_length_c 15.339177
_cell_angle_alpha 90.000000
_cell_angle_beta 19.034592
_cell_angle_gamma 90.000000
_cell_volume 460.691123
_symmetry_space_group_name_H-M "P 2"
_symmetry_group_IT_number 3
_symmetry_cell_setting 'monoclinic'
loop_
_space_group_symop_operation_xyz
x,y,z
-x,y,-z
loop_
_atom_site_type_symbol
_atom_site_label
_atom_site_fract_x
_atom_site_fract_y
_atom_site_fract_z
Si Si1 0.699406 0.500000 0.134482
Si Si2 0.500000 0.471811 0.500000
Si Si3 0.090347 0.807290 0.316865
Si Si4 0.000000 0.386588 0.500000
Si Si5 0.184053 0.758448 0.590549
Si Si6 0.500000 0.094502 0.000000
Si Si7 0.073379 0.125067 0.833852
O O1 0.662430 0.590037 0.269261
O O2 0.425419 0.584140 0.351932
O O3 0.927127 0.621927 0.865318
O O4 0.811419 0.246650 0.041116
O O5 0.287254 0.320423 0.650418
O O6 0.073423 0.540498 0.346280
O O7 0.000000 0.872136 0.500000
O O8 0.899569 0.872645 0.420365
O O9 0.372127 0.931397 0.047844
O O10 0.728535 0.252870 0.743946
O O11 0.207386 0.945651 0.643382
O O12 0.000000 0.038165 0.000000
#
# Coordination Sequence:
#
# PCOD9113843 Si02
#       7
#     2   1   2   1   2   1   2
#     4  11  26  45  68 108 141 189 237 298 355 441
#     4  10  22  50  68 100 148 184 244 294 352 452
#     4  10  27  49  69 111 148 183 263 298 348 461
#     4  10  24  42  76 100 136 198 236 300 374 414
#     4  12  28  43  76 106 145 194 237 303 367 418
#     4  12  22  48  76 102 140 202 234 306 378 418
#     4  10  25  46  70 106 147 188 242 299 358 440
#
# _framework density 23.877167
#
# number of rings (size 3 to 8) (size 9 to 14) (size 15 to 20)
#    0.545    0.727    2.727    0.545   10.182    2.909 
#    0.000    1.818    0.000    0.000    0.000    0.000 
#    0.000    0.000    0.000    0.000    0.000    0.000 
#
# Total GULP energy -61333.061298 kJ/mol
# GULP energy per Si atom -5575.732845 kJ/mol
# Density = 2.382282 g / cm^3
# Si number density = 23.877167 Si / 1000 Ang^3
#
#
#
# Elastic Constant Matrix: (Units=GPa)
#
#
# Indices 1 2 3 4 5 6 
#
# 1 96.4637 28.3434 23.8278 0.0000 -10.5482 0.0000
# 2 28.3434 70.6338 47.6821 0.0000 -11.0365 0.0000
# 3 23.8278 47.6821 148.3201 0.0000 -24.8261 0.0000
# 4 0.0000 0.0000 0.0000 16.8070 0.0000 -9.0091
# 5 -10.5482 -11.0365 -24.8261 0.0000 33.8002 0.0000
# 6 0.0000 0.0000 0.0000 -9.0091 0.0000 10.0174
#
#
#
# Elastic Compliance Matrix: (Units=1/GPa)
#
#
# Indices 1 2 3 4 5 6 
#
# 1 0.011918 -0.004336 -0.000154 0.000000 0.002190 0.000000
# 2 -0.004336 0.019763 -0.005476 0.000000 0.001077 0.000000
# 3 -0.000154 -0.005476 0.009372 0.000000 0.005048 0.000000
# 4 0.000000 0.000000 0.000000 0.114881 0.000000 0.103318
# 5 0.002190 0.001077 0.005048 0.000000 0.034329 0.000000
# 6 0.000000 0.000000 0.000000 0.103318 0.000000 0.192745
#
#
# Mechanical properties :
#
#
# Convention : Reuss Voigt Hill
#
# Bulk Modulus (GPa) = 47.34838 57.23603 52.29220
# Shear Modulus (GPa) = 12.19567 26.49585 19.34576
#
# Velocity S-wave (km/s) = 2.26247 3.33479 2.84952
# Velocity P-wave (km/s) = 5.16701 6.23304 5.72490
#
# Compressibility (1/GPa) = 0.02112005
#
# Stress axis : x y z
#
# Youngs Moduli (GPa) = 83.90494 50.60012 106.69632
#
# Poissons Ratio (x) = 0.21941 0.01643
# Poissons Ratio (y) = 0.36383 0.58431
# Poissons Ratio (z) = 0.01292 0.27711
#
# Static dielectric constant tensor:
#      x y z
#    x 1.970970 0.000000 0.030060 
#    y 0.000000 2.007610 0.000000 
#    z 0.030060 0.000000 2.034050 
# 
# From -- ./inp_files/15391.got.cif
#   From: 2010.05.17/outbox.cif.g08.bks.cpg/sg3_8_cif.got.tgz:15391.got - 2010.06.03 18:33:08.
