data_PCOD9113388
_publ_section_title
;
Structure prediction by ZEFSAII (Michael W. Deem and Ramdas Pophale) SiO2 
 PCOD9113388
Probable space group: P 2
;
_chemical_formula_sum "Si O2"
_cell_formula_units_Z 8
_cell_length_a 8.748547
_cell_length_b 8.517877
_cell_length_c 7.291680
_cell_angle_alpha 90.000000
_cell_angle_beta 142.414746
_cell_angle_gamma 90.000000
_cell_volume 331.423187
_symmetry_space_group_name_H-M "P 2"
_symmetry_group_IT_number 3
_symmetry_cell_setting 'monoclinic'
loop_
_space_group_symop_operation_xyz
x,y,z
-x,y,-z
loop_
_atom_site_type_symbol
_atom_site_label
_atom_site_fract_x
_atom_site_fract_y
_atom_site_fract_z
Si Si1 0.081819 0.481080 0.878382
Si Si2 0.786913 0.147579 0.094318
Si Si3 0.422040 0.660907 0.712999
Si Si4 0.706553 0.019866 0.431554
O O1 0.163059 0.331531 0.836553
O O2 0.162650 0.567358 0.435449
O O3 0.326977 0.590358 0.140161
O O4 0.000000 0.421075 0.000000
O O5 0.747216 0.061646 0.252841
O O6 0.028435 0.067728 0.235313
O O7 0.531690 0.123223 0.742117
O O8 0.364435 0.840161 0.606619
O O9 0.500000 0.658804 0.000000
#
# Coordination Sequence:
#
# PCOD9113388 Si02
#       4
#     2   2   2   2
#     4  12  28  46  67 104 148 185 218 279 361 419
#     4  10  21  40  65  97 136 170 225 284 333 399
#     4  12  25  44  75 105 133 181 239 289 332 404
#     4  10  21  40  67 102 128 167 236 292 327 381
#
# _framework density 24.138324000000001
#
# number of rings (size 3 to 8) (size 9 to 14) (size 15 to 20)
#    0.000    1.000    2.500    4.500   14.000    0.000 
#    0.000    7.500    0.000    0.000    0.000    0.000 
#    0.000    0.000    0.000    0.000    0.000    0.000 
#
# Total GULP energy -44754.606957 kJ/mol
# GULP energy per Si atom -5594.325870 kJ/mol
# Density = 2.408338 g / cm^3
# Si number density = 24.138324 Si / 1000 Ang^3
#
#
#
# Elastic Constant Matrix: (Units=GPa)
#
#
# Indices 1 2 3 4 5 6 
#
# 1 61.3240 32.8046 60.2712 0.0000 25.6653 0.0000
# 2 32.8046 157.8458 54.1111 0.0000 33.6474 0.0000
# 3 60.2712 54.1111 162.9976 0.0000 66.7237 0.0000
# 4 0.0000 0.0000 0.0000 38.9768 0.0000 25.5552
# 5 25.6653 33.6474 66.7237 0.0000 62.0671 0.0000
# 6 0.0000 0.0000 0.0000 25.5552 0.0000 11.1841
#
#
#
# Elastic Compliance Matrix: (Units=1/GPa)
#
#
# Indices 1 2 3 4 5 6 
#
# 1 0.026408 -0.002420 -0.008980 0.000000 0.000046 0.000000
# 2 -0.002420 0.007570 -0.000622 0.000000 -0.002435 0.000000
# 3 -0.008980 -0.000622 0.014295 0.000000 -0.011317 0.000000
# 4 0.000000 0.000000 0.000000 -0.051504 0.000000 0.117685
# 5 0.000046 -0.002435 -0.011317 0.000000 0.029578 0.000000
# 6 0.000000 0.000000 0.000000 0.117685 0.000000 -0.179494
#
#
# Mechanical properties :
#
#
# Convention : Reuss Voigt Hill
#
# Bulk Modulus (GPa) = 41.27129 75.17126 58.22127
# Shear Modulus (GPa) = -41.31326 38.11097 -1.60114
#
# Velocity S-wave (km/s) = -4.14154 3.97779 -0.81533
# Velocity P-wave (km/s) = 2.39476 7.23233 4.82554
#
# Compressibility (1/GPa) = 0.02422992
#
# Stress axis : x y z
#
# Youngs Moduli (GPa) = 37.86701 132.09429 69.95664
#
# Poissons Ratio (x) = 0.31961 0.62824
# Poissons Ratio (y) = 0.09162 0.04349
# Poissons Ratio (z) = 0.34006 0.08212
#
# Static dielectric constant tensor:
#      x y z
#    x 2.021250 0.000000 0.016710 
#    y 0.000000 1.863410 0.000000 
#    z 0.016710 0.000000 1.942250 
# 
# From -- ./inp_files/5014.got.cif
#   From: 2010.05.17/outbox.cif.g08.bks.cpg/sg3_3_cif.got.tgz:5014.got - 2010.06.03 18:33:08.
