data_PCOD9113658
_publ_section_title
;
Structure prediction by ZEFSAII (Michael W. Deem and Ramdas Pophale) SiO2 
 PCOD9113658
Probable space group: P 2
;
_chemical_formula_sum "Si O2"
_cell_formula_units_Z 16
_cell_length_a 22.037362
_cell_length_b 7.995292
_cell_length_c 9.107303
_cell_angle_alpha 90.000000
_cell_angle_beta 150.050252
_cell_angle_gamma 90.000000
_cell_volume 801.112138
_symmetry_space_group_name_H-M "P 2"
_symmetry_group_IT_number 3
_symmetry_cell_setting 'monoclinic'
loop_
_space_group_symop_operation_xyz
x,y,z
-x,y,-z
loop_
_atom_site_type_symbol
_atom_site_label
_atom_site_fract_x
_atom_site_fract_y
_atom_site_fract_z
Si Si1 0.757485 0.345190 0.673668
Si Si2 0.121972 0.686766 0.163214
Si Si3 0.380623 0.955403 0.326035
Si Si4 0.482107 0.176731 0.802917
Si Si5 0.881092 0.784376 0.178406
Si Si6 0.145481 0.038030 0.318183
Si Si7 0.720500 0.195245 0.137744
Si Si8 0.137094 0.405763 0.783841
O O1 0.803454 0.515061 0.694044
O O2 0.613334 0.325349 0.376626
O O3 0.806530 0.180538 0.692515
O O4 0.802476 0.350689 0.936344
O O5 0.187334 0.849565 0.368746
O O6 0.090410 0.745386 0.931660
O O7 0.000000 0.653578 0.000000
O O8 0.500000 0.868233 0.500000
O O9 0.426830 0.046576 0.570228
O O10 0.253280 0.863277 0.092344
O O11 0.340256 0.091107 0.120716
O O12 0.500000 0.095933 0.000000
O O13 0.609367 0.243960 0.009367
O O14 0.868630 0.605587 0.231396
O O15 0.000000 0.872213 0.500000
O O16 0.189830 0.087461 0.572893
O O17 0.000000 0.036721 0.000000
O O18 0.793165 0.341088 0.211539
O O19 0.000000 0.339650 0.500000
#
# Coordination Sequence:
#
# PCOD9113658 Si02
#       8
#     2   2   2   2   2   2   2   2
#     4  11  21  42  68  89 137 175 222 276 340 396
#     4  10  24  41  64 101 142 172 222 281 335 408
#     4  10  23  43  66  95 132 176 223 283 343 404
#     4  11  22  43  67  92 126 176 226 280 339 404
#     4  10  23  42  67  97 135 176 218 289 345 400
#     4  11  23  39  65 100 130 176 221 271 344 405
#     4  11  23  40  67  94 130 174 225 279 337 405
#     4  10  22  41  65  98 128 168 223 277 345 408
#
# _framework density 19.972234
#
# number of rings (size 3 to 8) (size 9 to 14) (size 15 to 20)
#    0.000    1.500    2.500    1.875    3.500    2.500 
#    4.500    0.000    8.250    0.000    0.000    0.000 
#    0.000    0.000    0.000    0.000    0.000    0.000 
#
# Total GULP energy -89303.552230 kJ/mol
# GULP energy per Si atom -5581.472014 kJ/mol
# Density = 1.992678 g / cm^3
# Si number density = 19.972234 Si / 1000 Ang^3
#
#
#
# Elastic Constant Matrix: (Units=GPa)
#
#
# Indices 1 2 3 4 5 6 
#
# 1 151.5785 58.0740 64.6100 0.0000 18.0937 0.0000
# 2 58.0740 87.8972 34.0640 0.0000 4.7758 0.0000
# 3 64.6100 34.0640 127.6567 0.0000 6.6158 0.0000
# 4 0.0000 0.0000 0.0000 43.4650 0.0000 -7.3430
# 5 18.0937 4.7758 6.6158 0.0000 43.6663 0.0000
# 6 0.0000 0.0000 0.0000 -7.3430 0.0000 19.4276
#
#
#
# Elastic Compliance Matrix: (Units=1/GPa)
#
#
# Indices 1 2 3 4 5 6 
#
# 1 0.010673 -0.005406 -0.003790 0.000000 -0.003257 0.000000
# 2 -0.005406 0.015461 -0.001429 0.000000 0.000765 0.000000
# 3 -0.003790 -0.001429 0.010123 0.000000 0.000193 0.000000
# 4 0.000000 0.000000 0.000000 0.024576 0.000000 0.009289
# 5 -0.003257 0.000765 0.000193 0.000000 0.024138 0.000000
# 6 0.000000 0.000000 0.000000 0.009289 0.000000 0.054984
#
#
# Mechanical properties :
#
#
# Convention : Reuss Voigt Hill
#
# Bulk Modulus (GPa) = 66.63994 75.62536 71.13265
# Shear Modulus (GPa) = 30.08288 35.33741 32.71014
#
# Velocity S-wave (km/s) = 3.88523 4.21090 4.05134
# Velocity P-wave (km/s) = 7.31884 7.84791 7.58799
#
# Compressibility (1/GPa) = 0.01500602
#
# Stress axis : x y z
#
# Youngs Moduli (GPa) = 93.69680 64.67998 98.78140
#
# Poissons Ratio (x) = 0.34963 0.37443
# Poissons Ratio (y) = 0.50648 0.14119
# Poissons Ratio (z) = 0.35516 0.09245
#
# Static dielectric constant tensor:
#      x y z
#    x 1.734580 0.000000 0.017330 
#    y 0.000000 1.702230 0.000000 
#    z 0.017330 0.000000 1.735890 
# 
# From -- ./inp_files/9474.got.cif
#   From: 2010.05.17/outbox.cif.g08.bks.cpg/sg3_5_cif.got.tgz:9474.got - 2010.06.03 18:33:08.
