data_PCOD9113775
_publ_section_title
;
Structure prediction by ZEFSAII (Michael W. Deem and Ramdas Pophale) SiO2 
 PCOD9113775
Probable space group: P 2
;
_chemical_formula_sum "Si O2"
_cell_formula_units_Z 15
_cell_length_a 10.157050
_cell_length_b 6.783062
_cell_length_c 19.040133
_cell_angle_alpha 90.000000
_cell_angle_beta 148.259314
_cell_angle_gamma 90.000000
_cell_volume 690.099294
_symmetry_space_group_name_H-M "P 2"
_symmetry_group_IT_number 3
_symmetry_cell_setting 'monoclinic'
loop_
_space_group_symop_operation_xyz
x,y,z
-x,y,-z
loop_
_atom_site_type_symbol
_atom_site_label
_atom_site_fract_x
_atom_site_fract_y
_atom_site_fract_z
Si Si1 0.423526 0.573420 0.856520
Si Si2 0.985292 0.285911 0.303100
Si Si3 0.448526 0.720441 0.227906
Si Si4 0.899892 0.607685 0.160995
Si Si5 0.686265 0.136656 0.772485
Si Si6 0.751744 0.952338 0.654514
Si Si7 0.000000 0.413687 0.000000
Si Si8 0.759779 0.427926 0.441426
O O1 0.390621 0.694345 0.770442
O O2 0.271330 0.675092 0.850547
O O3 0.295274 0.354445 0.799017
O O4 0.710685 0.569780 0.011796
O O5 0.068217 0.068254 0.318846
O O6 0.157493 0.374008 0.442619
O O7 0.016606 0.410244 0.245551
O O8 0.618675 0.636324 0.368230
O O9 0.342884 0.933963 0.197373
O O10 0.230058 0.564037 0.112207
O O11 0.106799 0.770542 0.245068
O O12 0.684353 0.089943 0.689445
O O13 0.931752 0.259736 0.906609
O O14 0.440446 0.267208 0.675628
O O15 0.500000 0.893335 0.500000
O O16 0.000000 0.424254 0.500000
#
# Coordination Sequence:
#
# PCOD9113775 Si02
#       8
#     2   2   2   2   2   2   1   2
#     4   9  21  46  66 100 123 177 225 278 343 385
#     4  10  22  44  68  94 136 172 227 277 335 408
#     4  11  24  43  70  93 142 173 224 284 343 415
#     4   9  23  42  66  99 130 172 229 274 340 400
#     4  11  27  42  64 104 134 176 230 278 346 412
#     4  12  26  43  66 100 139 180 220 281 342 412
#     4  10  26  44  66 100 126 184 220 276 348 402
#     4  11  22  43  67 100 129 176 228 281 346 404
#
# _framework density 21.736003
#
# number of rings (size 3 to 8) (size 9 to 14) (size 15 to 20)
#    0.800    0.800    2.667    0.400    7.467    3.200 
#    4.800    0.000    0.000    0.000    0.000    0.000 
#    0.000    0.000    0.000    0.000    0.000    0.000 
#
# Total GULP energy -83584.389841 kJ/mol
# GULP energy per Si atom -5572.292656 kJ/mol
# Density = 2.168653 g / cm^3
# Si number density = 21.736003 Si / 1000 Ang^3
#
#
#
# Elastic Constant Matrix: (Units=GPa)
#
#
# Indices 1 2 3 4 5 6 
#
# 1 41.8986 11.7446 10.3999 0.0000 5.0602 0.0000
# 2 11.7446 80.5637 39.1573 0.0000 18.4953 0.0000
# 3 10.3999 39.1573 132.7060 0.0000 8.5364 0.0000
# 4 0.0000 0.0000 0.0000 28.5674 0.0000 7.9254
# 5 5.0602 18.4953 8.5364 0.0000 25.3601 0.0000
# 6 0.0000 0.0000 0.0000 7.9254 0.0000 23.5989
#
#
#
# Elastic Compliance Matrix: (Units=1/GPa)
#
#
# Indices 1 2 3 4 5 6 
#
# 1 0.025174 -0.002507 -0.001050 0.000000 -0.002841 0.000000
# 2 -0.002507 0.017279 -0.004215 0.000000 -0.010683 0.000000
# 3 -0.001050 -0.004215 0.008842 0.000000 0.000307 0.000000
# 4 0.000000 0.000000 0.000000 0.038601 0.000000 -0.012964
# 5 -0.002841 -0.010683 0.000307 0.000000 0.047686 0.000000
# 6 0.000000 0.000000 0.000000 -0.012964 0.000000 0.046729
#
#
# Mechanical properties :
#
#
# Convention : Reuss Voigt Hill
#
# Bulk Modulus (GPa) = 27.97208 41.97467 34.97337
# Shear Modulus (GPa) = 23.61026 28.42970 26.01998
#
# Velocity S-wave (km/s) = 3.29937 3.62049 3.46365
# Velocity P-wave (km/s) = 5.23559 6.06880 5.66753
#
# Compressibility (1/GPa) = 0.03574993
#
# Stress axis : x y z
#
# Youngs Moduli (GPa) = 39.72396 57.87338 113.10084
#
# Poissons Ratio (x) = 0.14510 0.11879
# Poissons Ratio (y) = 0.09959 0.47670
# Poissons Ratio (z) = 0.04172 0.24393
#
# Static dielectric constant tensor:
#      x y z
#    x 1.856330 0.000000 0.035950 
#    y 0.000000 1.782430 0.000000 
#    z 0.035950 0.000000 1.800090 
# 
# From -- ./inp_files/15898.got.cif
#   From: 2010.05.17/outbox.cif.g08.bks.cpg/sg3_8_cif.got.tgz:15898.got - 2010.06.03 18:33:08.
