data_PCOD9113931
_publ_section_title
;
Structure prediction by ZEFSAII (Michael W. Deem and Ramdas Pophale) SiO2 
 PCOD9113931
Probable space group: P 2
;
_chemical_formula_sum "Si O2"
_cell_formula_units_Z 12
_cell_length_a 8.290250
_cell_length_b 5.049439
_cell_length_c 14.591664
_cell_angle_alpha 90.000000
_cell_angle_beta 132.291560
_cell_angle_gamma 90.000000
_cell_volume 451.844440
_symmetry_space_group_name_H-M "P 2"
_symmetry_group_IT_number 3
_symmetry_cell_setting 'monoclinic'
loop_
_space_group_symop_operation_xyz
x,y,z
-x,y,-z
loop_
_atom_site_type_symbol
_atom_site_label
_atom_site_fract_x
_atom_site_fract_y
_atom_site_fract_z
Si Si1 0.516573 0.628510 0.281275
Si Si2 0.536863 0.258297 0.117800
Si Si3 0.889969 0.937366 0.054164
Si Si4 0.891894 0.025872 0.367434
Si Si5 0.914923 0.472884 0.789284
Si Si6 0.722022 0.627325 0.539664
O O1 0.489573 0.468062 0.178363
O O2 0.674562 0.874722 0.321970
O O3 0.277409 0.635731 0.232223
O O4 0.645862 0.495293 0.416086
O O5 0.782785 0.176894 0.239784
O O6 0.500000 0.348404 0.000000
O O7 0.358176 0.025987 0.057605
O O8 0.015599 0.201414 0.136987
O O9 0.898882 0.695320 0.129111
O O10 0.000000 0.862280 0.000000
O O11 0.000000 0.155072 0.500000
O O12 0.079600 0.826708 0.404566
O O13 0.815575 0.429930 0.651151
O O14 0.500000 0.749156 0.500000
#
# Coordination Sequence:
#
# PCOD9113931 Si02
#       6
#     2   2   2   2   2   2
#     4  10  23  45  69 104 146 192 243 310 372 444
#     4  12  27  43  69 108 147 198 249 309 371 450
#     4  12  25  44  73 107 151 200 245 307 370 440
#     4  10  23  45  72  99 144 193 247 312 375 444
#     4  11  24  46  73 109 150 195 251 304 371 442
#     4   9  21  46  75 106 140 190 249 312 374 447
#
# _framework density 26.557812999999999
#
# number of rings (size 3 to 8) (size 9 to 14) (size 15 to 20)
#    0.000    1.333    1.667    2.500    4.667    2.667 
#    6.000    2.500    0.000    0.000    0.000    0.000 
#    0.000    0.000    0.000    0.000    0.000    0.000 
#
# Total GULP energy -67108.823371 kJ/mol
# GULP energy per Si atom -5592.401948 kJ/mol
# Density = 2.649737 g / cm^3
# Si number density = 26.557813 Si / 1000 Ang^3
#
#
#
# Elastic Constant Matrix: (Units=GPa)
#
#
# Indices 1 2 3 4 5 6 
#
# 1 93.5676 -4.3606 45.3487 0.0000 13.9043 0.0000
# 2 -4.3606 63.8880 50.0570 0.0000 2.3125 0.0000
# 3 45.3487 50.0570 275.0757 0.0000 -31.6522 0.0000
# 4 0.0000 0.0000 0.0000 -159.7593 0.0000 29.0366
# 5 13.9043 2.3125 -31.6522 0.0000 65.2672 0.0000
# 6 0.0000 0.0000 0.0000 29.0366 0.0000 17.3383
#
#
#
# Elastic Compliance Matrix: (Units=1/GPa)
#
#
# Indices 1 2 3 4 5 6 
#
# 1 0.013175 0.003707 -0.003373 0.000000 -0.004574 0.000000
# 2 0.003707 0.019658 -0.004617 0.000000 -0.003725 0.000000
# 3 -0.003373 -0.004617 0.005437 0.000000 0.003519 0.000000
# 4 0.000000 0.000000 0.000000 -0.004799 0.000000 0.008037
# 5 -0.004574 -0.003725 0.003519 0.000000 0.018134 0.000000
# 6 0.000000 0.000000 0.000000 0.008037 0.000000 0.044217
#
#
# Mechanical properties :
#
#
# Convention : Reuss Voigt Hill
#
# Bulk Modulus (GPa) = 33.66564 68.29129 50.97847
# Shear Modulus (GPa) = 43.74910 7.33499 25.54205
#
# Velocity S-wave (km/s) = 4.06312 1.66370 3.10458
# Velocity P-wave (km/s) = 5.89201 5.42776 5.66464
#
# Compressibility (1/GPa) = 0.02970387
#
# Stress axis : x y z
#
# Youngs Moduli (GPa) = 75.90337 50.87019 183.94157
#
# Poissons Ratio (x) = -0.18860 0.62042
# Poissons Ratio (y) = -0.28141 0.84928
# Poissons Ratio (z) = 0.25602 0.23488
#
# Static dielectric constant tensor:
#      x y z
#    x 2.665360 0.000000 0.159110 
#    y 0.000000 2.055360 0.000000 
#    z 0.159110 0.000000 2.122630 
# 
# From -- ./inp_files/12590.got.cif
#   From: 2010.05.17/outbox.cif.g08.bks.cpg/sg3_7_cif.got.tgz:12590.got - 2010.06.03 18:33:08.
