data_PCOD9113492
_publ_section_title
;
Structure prediction by ZEFSAII (Michael W. Deem and Ramdas Pophale) SiO2 
 PCOD9113492
Probable space group: P 2
;
_chemical_formula_sum "Si O2"
_cell_formula_units_Z 16
_cell_length_a 7.952811
_cell_length_b 5.359938
_cell_length_c 17.555179
_cell_angle_alpha 90.000000
_cell_angle_beta 120.285136
_cell_angle_gamma 90.000000
_cell_volume 646.191608
_symmetry_space_group_name_H-M "P 2"
_symmetry_group_IT_number 3
_symmetry_cell_setting 'monoclinic'
loop_
_space_group_symop_operation_xyz
x,y,z
-x,y,-z
loop_
_atom_site_type_symbol
_atom_site_label
_atom_site_fract_x
_atom_site_fract_y
_atom_site_fract_z
Si Si1 0.733579 0.066420 0.364714
Si Si2 0.696815 0.724429 0.584149
Si Si3 0.912759 0.050638 0.856755
Si Si4 0.883854 0.543112 0.759714
Si Si5 0.540597 0.277963 0.831847
Si Si6 0.834662 0.204482 0.551231
Si Si7 0.257504 0.685961 0.752650
Si Si8 0.335258 0.032387 0.913372
O O1 0.571126 0.155458 0.267404
O O2 0.713313 0.098559 0.450340
O O3 0.933612 0.219295 0.403805
O O4 0.779293 0.793935 0.339959
O O5 0.500000 0.788137 0.500000
O O6 0.696385 0.630985 0.670127
O O7 0.765944 0.479062 0.554948
O O8 0.813740 0.982782 0.608128
O O9 0.864277 0.262508 0.782914
O O10 0.751653 0.144862 0.880541
O O11 0.145017 0.093198 0.919094
O O12 0.902909 0.760080 0.828429
O O13 0.069399 0.540131 0.743718
O O14 0.471632 0.560876 0.800388
O O15 0.450585 0.251238 0.896450
O O16 0.267324 0.890406 0.821920
O O17 0.500000 0.895027 0.000000
#
# Coordination Sequence:
#
# PCOD9113492 Si02
#       8
#     2   2   2   2   2   2   2   2
#     4  10  24  39  64  91 133 178 236 289 343 413
#     4  12  26  39  62  91 137 182 235 293 351 397
#     4  11  26  43  74 107 138 188 233 290 350 426
#     4  11  23  45  67  97 143 187 240 287 351 420
#     4  11  24  42  74 102 139 181 239 282 357 425
#     4  11  25  41  59  94 130 185 234 292 345 405
#     4  10  21  43  71 100 132 190 232 288 349 432
#     4  10  24  47  72 104 143 181 229 288 361 431
#
# _framework density 24.760458
#
# number of rings (size 3 to 8) (size 9 to 14) (size 15 to 20)
#    0.000    1.250    2.500    1.875   10.500    2.000 
#    0.000    0.000    0.000    0.000    0.000    0.000 
#    0.000    0.000    0.000    0.000    0.000    0.000 
#
# Total GULP energy -89071.857120 kJ/mol
# GULP energy per Si atom -5566.991070 kJ/mol
# Density = 2.470410 g / cm^3
# Si number density = 24.760458 Si / 1000 Ang^3
#
#
#
# Elastic Constant Matrix: (Units=GPa)
#
#
# Indices 1 2 3 4 5 6 
#
# 1 109.2857 36.5689 39.1272 0.0000 21.5367 0.0000
# 2 36.5689 80.8521 -4.6104 0.0000 -8.0098 0.0000
# 3 39.1272 -4.6104 78.8408 0.0000 -3.9218 0.0000
# 4 0.0000 0.0000 0.0000 19.7231 0.0000 -20.7067
# 5 21.5367 -8.0098 -3.9218 0.0000 28.8189 0.0000
# 6 0.0000 0.0000 0.0000 -20.7067 0.0000 69.7624
#
#
#
# Elastic Compliance Matrix: (Units=1/GPa)
#
#
# Indices 1 2 3 4 5 6 
#
# 1 0.022729 -0.013257 -0.013173 0.000000 -0.022463 0.000000
# 2 -0.013257 0.020518 0.008614 0.000000 0.016782 0.000000
# 3 -0.013173 0.008614 0.020472 0.000000 0.015024 0.000000
# 4 0.000000 0.000000 0.000000 0.073654 0.000000 0.021862
# 5 -0.022463 0.016782 0.015024 0.000000 0.058195 0.000000
# 6 0.000000 0.000000 0.000000 0.021862 0.000000 0.020823
#
#
# Mechanical properties :
#
#
# Convention : Reuss Voigt Hill
#
# Bulk Modulus (GPa) = 35.60263 45.68336 40.64299
# Shear Modulus (GPa) = 19.12885 36.85375 27.99130
#
# Velocity S-wave (km/s) = 2.78251 3.86218 3.36591
# Velocity P-wave (km/s) = 4.97324 6.19506 5.61747
#
# Compressibility (1/GPa) = 0.02808781
#
# Stress axis : x y z
#
# Youngs Moduli (GPa) = 43.99644 48.73802 48.84678
#
# Poissons Ratio (x) = 0.64611 0.64344
# Poissons Ratio (y) = 0.58325 -0.42075
# Poissons Ratio (z) = 0.57955 -0.41981
#
# Static dielectric constant tensor:
#      x y z
#    x 2.074400 0.000000 -0.085100 
#    y 0.000000 2.039770 0.000000 
#    z -0.085100 0.000000 1.878230 
# 
# From -- ./inp_files/15728.got.cif
#   From: 2010.05.17/outbox.cif.g08.bks.cpg/sg3_8_cif.got.tgz:15728.got - 2010.06.03 18:33:08.
