data_PCOD9113556
_publ_section_title
;
Structure prediction by ZEFSAII (Michael W. Deem and Ramdas Pophale) SiO2 
 PCOD9113556
Probable space group: P 2
;
_chemical_formula_sum "Si O2"
_cell_formula_units_Z 11
_cell_length_a 5.458774
_cell_length_b 5.140486
_cell_length_c 15.274083
_cell_angle_alpha 90.000000
_cell_angle_beta 78.171602
_cell_angle_gamma 90.000000
_cell_volume 419.501267
_symmetry_space_group_name_H-M "P 2"
_symmetry_group_IT_number 3
_symmetry_cell_setting 'monoclinic'
loop_
_space_group_symop_operation_xyz
x,y,z
-x,y,-z
loop_
_atom_site_type_symbol
_atom_site_label
_atom_site_fract_x
_atom_site_fract_y
_atom_site_fract_z
Si Si1 0.468341 0.730130 0.765887
Si Si2 0.973904 0.384379 0.146020
Si Si3 0.709284 0.905922 0.910767
Si Si4 0.113185 0.336946 0.324408
Si Si5 0.439590 0.937291 0.409507
Si Si6 0.000000 0.557613 0.500000
O O1 0.559836 0.944347 0.829265
O O2 0.716203 0.576248 0.719392
O O3 0.290365 0.535237 0.833350
O O4 0.365806 0.818212 0.676981
O O5 0.159843 0.622829 0.106395
O O6 0.976307 0.273119 0.245420
O O7 0.082812 0.129800 0.090133
O O8 0.500000 0.912106 0.000000
O O9 0.295257 0.133803 0.356968
O O10 0.932568 0.402356 0.417759
O O11 0.500000 0.056423 0.500000
O O12 0.239480 0.723724 0.456284
#
# Coordination Sequence:
#
# PCOD9113556 Si02
#       6
#     2   2   2   2   2   1
#     4  10  24  43  67 102 143 184 245 297 372 441
#     4  11  24  44  74 101 142 192 232 305 377 433
#     4  11  25  47  73 107 143 184 242 308 367 449
#     4  10  22  40  61  95 139 183 245 301 353 438
#     4  11  22  38  64  96 139 187 244 301 353 438
#     4  10  22  38  56  92 132 188 236 294 358 418
#
# _framework density 26.221609999999998
#
# number of rings (size 3 to 8) (size 9 to 14) (size 15 to 20)
#    0.000    1.455    1.818    2.182    2.545    6.545 
#    0.000    1.818    0.000    0.000    0.000    0.000 
#    0.000    0.000    0.000    0.000    0.000    0.000 
#
# Total GULP energy -61407.624618 kJ/mol
# GULP energy per Si atom -5582.511329 kJ/mol
# Density = 2.616193 g / cm^3
# Si number density = 26.221610 Si / 1000 Ang^3
#
#
#
# Elastic Constant Matrix: (Units=GPa)
#
#
# Indices 1 2 3 4 5 6 
#
# 1 58.1457 16.1450 42.8843 0.0000 -12.7257 0.0000
# 2 16.1450 106.0959 53.3348 0.0000 -11.8515 0.0000
# 3 42.8843 53.3348 188.7521 0.0000 -20.5138 0.0000
# 4 0.0000 0.0000 0.0000 29.5791 0.0000 -36.1376
# 5 -12.7257 -11.8515 -20.5138 0.0000 42.3058 0.0000
# 6 0.0000 0.0000 0.0000 -36.1376 0.0000 67.4954
#
#
#
# Elastic Compliance Matrix: (Units=1/GPa)
#
#
# Indices 1 2 3 4 5 6 
#
# 1 0.021417 -0.000668 -0.004220 0.000000 0.004209 0.000000
# 2 -0.000668 0.011118 -0.002822 0.000000 0.001545 0.000000
# 3 -0.004220 -0.002822 0.007210 0.000000 0.001436 0.000000
# 4 0.000000 0.000000 0.000000 0.097745 0.000000 0.052333
# 5 0.004209 0.001545 0.001436 0.000000 0.026033 0.000000
# 6 0.000000 0.000000 0.000000 0.052333 0.000000 0.042835
#
#
# Mechanical properties :
#
#
# Convention : Reuss Voigt Hill
#
# Bulk Modulus (GPa) = 41.10718 64.19131 52.64925
# Shear Modulus (GPa) = 21.74989 43.91804 32.83397
#
# Velocity S-wave (km/s) = 2.88317 4.09697 3.54244
# Velocity P-wave (km/s) = 5.17633 6.84935 6.07075
#
# Compressibility (1/GPa) = 0.02432665
#
# Stress axis : x y z
#
# Youngs Moduli (GPa) = 46.69181 89.94184 138.69247
#
# Poissons Ratio (x) = 0.06004 0.58526
# Poissons Ratio (y) = 0.03117 0.39139
# Poissons Ratio (z) = 0.19703 0.25382
#
# Static dielectric constant tensor:
#      x y z
#    x 2.160420 0.000000 0.086250 
#    y 0.000000 2.123810 0.000000 
#    z 0.086250 0.000000 1.895320 
# 
# From -- ./inp_files/2637.got.cif
#   From: 2010.05.17/outbox.cif.g08.bks.cpg/sg3_2_cif.got.tgz:2637.got - 2010.06.03 18:33:08.
