data_PCOD9113936
_publ_section_title
;
Structure prediction by ZEFSAII (Michael W. Deem and Ramdas Pophale) SiO2 
 PCOD9113936
Probable space group: P 2
;
_chemical_formula_sum "Si O2"
_cell_formula_units_Z 12
_cell_length_a 7.809503
_cell_length_b 8.816601
_cell_length_c 8.772969
_cell_angle_alpha 90.000000
_cell_angle_beta 70.358371
_cell_angle_gamma 90.000000
_cell_volume 568.900190
_symmetry_space_group_name_H-M "P 2"
_symmetry_group_IT_number 3
_symmetry_cell_setting 'monoclinic'
loop_
_space_group_symop_operation_xyz
x,y,z
-x,y,-z
loop_
_atom_site_type_symbol
_atom_site_label
_atom_site_fract_x
_atom_site_fract_y
_atom_site_fract_z
Si Si1 0.500000 0.078411 0.000000
Si Si2 0.216891 0.281052 0.244716
Si Si3 0.530342 0.484955 0.169177
Si Si4 0.807457 0.804004 0.398136
Si Si5 0.084331 0.502361 0.811074
Si Si6 0.000000 0.051587 0.500000
Si Si7 0.515631 0.827912 0.736539
O O1 0.676331 0.184087 0.917281
O O2 0.503619 0.966132 0.855311
O O3 0.051266 0.378823 0.222590
O O4 0.152731 0.162374 0.390207
O O5 0.643008 0.396303 0.714583
O O6 0.716208 0.440577 0.199337
O O7 0.523886 0.665416 0.179164
O O8 0.500000 0.453902 0.000000
O O9 0.888909 0.646084 0.310790
O O10 0.705515 0.800528 0.591984
O O11 0.646714 0.849673 0.333623
O O12 0.945826 0.941159 0.377619
O O13 0.000000 0.553424 0.000000
#
# Coordination Sequence:
#
# PCOD9113936 Si02
#       7
#     1   2   2   2   2   1   2
#     4  12  22  46  78  98 152 192 236 302 362 438
#     4  12  27  43  68 108 146 191 232 299 366 431
#     4  11  22  44  71  99 135 183 241 295 350 421
#     4  10  25  45  69 102 140 184 245 298 353 427
#     4  11  24  44  73 107 137 187 251 300 352 430
#     4  12  28  44  66 106 148 196 232 298 374 426
#     4  10  23  45  73 102 132 192 246 294 355 426
#
# _framework density 21.093330999999999
#
# number of rings (size 3 to 8) (size 9 to 14) (size 15 to 20)
#    0.000    1.000    5.000    0.000    4.667    5.333 
#    0.000    0.000    0.000    0.000    0.000    0.000 
#    0.000    0.000    0.000    0.000    0.000    0.000 
#
# Total GULP energy -66922.105804 kJ/mol
# GULP energy per Si atom -5576.842150 kJ/mol
# Density = 2.104532 g / cm^3
# Si number density = 21.093331 Si / 1000 Ang^3
#
#
#
# Elastic Constant Matrix: (Units=GPa)
#
#
# Indices 1 2 3 4 5 6 
#
# 1 150.3688 87.4006 31.5083 0.0000 -1.0579 0.0000
# 2 87.4006 136.4413 43.9631 0.0000 7.8069 0.0000
# 3 31.5083 43.9631 71.7200 0.0000 2.8390 0.0000
# 4 0.0000 0.0000 0.0000 25.2729 0.0000 -41.9726
# 5 -1.0579 7.8069 2.8390 0.0000 14.2298 0.0000
# 6 0.0000 0.0000 0.0000 -41.9726 0.0000 -76.0148
#
#
#
# Elastic Compliance Matrix: (Units=1/GPa)
#
#
# Indices 1 2 3 4 5 6 
#
# 1 0.010928 -0.007062 -0.000663 0.000000 0.004819 0.000000
# 2 -0.007062 0.013920 -0.005148 0.000000 -0.007135 0.000000
# 3 -0.000663 -0.005148 0.017417 0.000000 -0.000700 0.000000
# 4 0.000000 0.000000 0.000000 0.020640 0.000000 -0.011397
# 5 0.004819 -0.007135 -0.000700 0.000000 0.074687 0.000000
# 6 0.000000 0.000000 0.000000 -0.011397 0.000000 -0.006862
#
#
# Mechanical properties :
#
#
# Convention : Reuss Voigt Hill
#
# Bulk Modulus (GPa) = 60.53217 76.03046 68.28132
# Shear Modulus (GPa) = 30.86746 5.74145 18.30446
#
# Velocity S-wave (km/s) = 3.82956 1.65162 2.94901
# Velocity P-wave (km/s) = 6.95080 6.30557 6.63603
#
# Compressibility (1/GPa) = 0.01652014
#
# Stress axis : x y z
#
# Youngs Moduli (GPa) = 91.50754 71.83868 57.41424
#
# Poissons Ratio (x) = 0.50736 0.03804
# Poissons Ratio (y) = 0.64627 0.29555
# Poissons Ratio (z) = 0.06063 0.36980
#
# Static dielectric constant tensor:
#      x y z
#    x 2.065030 0.000000 0.130680 
#    y 0.000000 1.755260 0.000000 
#    z 0.130680 0.000000 2.034570 
# 
# From -- ./inp_files/5114.got.cif
#   From: 2010.05.17/outbox.cif.g08.bks.cpg/sg3_3_cif.got.tgz:5114.got - 2010.06.03 18:33:08.
