data_PCOD9113230
_publ_section_title
;
Structure prediction by ZEFSAII (Michael W. Deem and Ramdas Pophale) SiO2 
 PCOD9113230
Probable space group: P 2
;
_chemical_formula_sum "Si O2"
_cell_formula_units_Z 16
_cell_length_a 33.489511
_cell_length_b 5.339869
_cell_length_c 26.272734
_cell_angle_alpha 90.000000
_cell_angle_beta 170.373960
_cell_angle_gamma 90.000000
_cell_volume 785.642036
_symmetry_space_group_name_H-M "P 2"
_symmetry_group_IT_number 3
_symmetry_cell_setting 'monoclinic'
loop_
_space_group_symop_operation_xyz
x,y,z
-x,y,-z
loop_
_atom_site_type_symbol
_atom_site_label
_atom_site_fract_x
_atom_site_fract_y
_atom_site_fract_z
Si Si1 0.543999 0.627260 0.495693
Si Si2 0.309338 0.439351 0.804687
Si Si3 0.728571 0.120890 0.676984
Si Si4 0.443128 0.668015 0.783049
Si Si5 0.233851 0.050719 0.784847
Si Si6 0.726760 0.111340 0.967757
Si Si7 0.908071 0.615629 0.144461
Si Si8 0.783355 0.395572 0.141267
O O1 0.500000 0.614825 0.500000
O O2 0.668598 0.375484 0.631784
O O3 0.686810 0.875798 0.659021
O O4 0.291311 0.645635 0.149375
O O5 0.040671 0.521374 0.452236
O O6 0.279793 0.150067 0.786019
O O7 0.500000 0.468169 0.000000
O O8 0.417039 0.565560 0.990781
O O9 0.535221 0.102636 0.387794
O O10 0.000000 0.127315 0.000000
O O11 0.167784 0.623824 0.445976
O O12 0.514781 0.955727 0.878023
O O13 0.563169 0.569936 0.881783
O O14 0.000000 0.874091 0.500000
O O15 0.167155 0.253311 0.743893
O O16 0.865515 0.344726 0.116141
O O17 0.718495 0.198379 0.015865
O O18 0.856466 0.847830 0.118262
#
# Coordination Sequence:
#
# PCOD9113230 Si02
#       8
#     2   2   2   2   2   2   2   2
#     4  10  21  41  63  95 128 168 208 257 310 379
#     4  10  21  37  57  82 113 158 211 256 316 369
#     4  10  21  40  65  95 128 167 207 260 312 373
#     4  11  22  37  58  84 119 159 206 259 315 367
#     4   9  20  37  53  79 114 149 197 258 308 364
#     4  10  23  43  61  91 126 162 206 257 312 370
#     4  10  24  40  64  87 128 163 204 257 313 368
#     4  10  22  37  59  83 120 156 207 258 314 369
#
# _framework density 20.36551
#
# number of rings (size 3 to 8) (size 9 to 14) (size 15 to 20)
#    0.000    2.000    0.000    3.375    7.000    1.500 
#    4.500    0.000    0.000    0.000    0.000    0.000 
#    0.000    0.000    0.000    0.000    0.000    0.000 
#
# Total GULP energy -89173.591280 kJ/mol
# GULP energy per Si atom -5573.349455 kJ/mol
# Density = 2.031916 g / cm^3
# Si number density = 20.365510 Si / 1000 Ang^3
#
#
#
# Elastic Constant Matrix: (Units=GPa)
#
#
# Indices 1 2 3 4 5 6 
#
# 1 114.4844 27.8119 44.7612 0.0000 8.3529 0.0000
# 2 27.8119 82.0890 45.2260 0.0000 3.8659 0.0000
# 3 44.7612 45.2260 134.8986 0.0000 39.5407 0.0000
# 4 0.0000 0.0000 0.0000 -0.4775 0.0000 18.2219
# 5 8.3529 3.8659 39.5407 0.0000 26.6543 0.0000
# 6 0.0000 0.0000 0.0000 18.2219 0.0000 5.2472
#
#
#
# Elastic Compliance Matrix: (Units=1/GPa)
#
#
# Indices 1 2 3 4 5 6 
#
# 1 0.010358 -0.001668 -0.003534 0.000000 0.002238 0.000000
# 2 -0.001668 0.016642 -0.007912 0.000000 0.009846 0.000000
# 3 -0.003534 -0.007912 0.018715 0.000000 -0.025508 0.000000
# 4 0.000000 0.000000 0.000000 -0.015685 0.000000 0.054468
# 5 0.002238 0.009846 -0.025508 0.000000 0.073228 0.000000
# 6 0.000000 0.000000 0.000000 0.054468 0.000000 0.001427
#
#
# Mechanical properties :
#
#
# Convention : Reuss Voigt Hill
#
# Bulk Modulus (GPa) = 51.31436 63.00779 57.16108
# Shear Modulus (GPa) = 36.38718 20.52964 28.45841
#
# Velocity S-wave (km/s) = 4.23153 3.17844 3.74221
# Velocity P-wave (km/s) = 7.00898 6.66900 6.84111
#
# Compressibility (1/GPa) = 0.01948772
#
# Stress axis : x y z
#
# Youngs Moduli (GPa) = 96.54001 60.08739 53.43301
#
# Poissons Ratio (x) = 0.10022 0.18883
# Poissons Ratio (y) = 0.16101 0.42277
# Poissons Ratio (z) = 0.34117 0.47543
#
# Static dielectric constant tensor:
#      x y z
#    x 1.701960 0.000000 0.000420 
#    y 0.000000 1.941110 0.000000 
#    z 0.000420 0.000000 1.805180 
# 
# From -- ./inp_files/16422.got.cif
#   From: 2010.05.17/outbox.cif.g08.bks.cpg/sg3_9_cif.got.tgz:16422.got - 2010.06.03 18:33:08.
