data_PCOD9113220
_publ_section_title
;
Structure prediction by ZEFSAII (Michael W. Deem and Ramdas Pophale) SiO2 
 PCOD9113220
Probable space group: P 2
;
_chemical_formula_sum "Si O2"
_cell_formula_units_Z 15
_cell_length_a 9.596591
_cell_length_b 16.779839
_cell_length_c 8.969794
_cell_angle_alpha 90.000000
_cell_angle_beta 148.713406
_cell_angle_gamma 90.000000
_cell_volume 750.104206
_symmetry_space_group_name_H-M "P 2"
_symmetry_group_IT_number 3
_symmetry_cell_setting 'monoclinic'
loop_
_space_group_symop_operation_xyz
x,y,z
-x,y,-z
loop_
_atom_site_type_symbol
_atom_site_label
_atom_site_fract_x
_atom_site_fract_y
_atom_site_fract_z
Si Si1 0.547670 0.479130 0.699899
Si Si2 0.791911 0.202839 0.692616
Si Si3 0.045059 0.068459 0.365019
Si Si4 0.026786 0.702137 0.844679
Si Si5 0.987610 0.533986 0.665982
Si Si6 0.540414 0.965478 0.858773
Si Si7 0.527140 0.797095 0.346079
Si Si8 0.000000 0.356794 0.000000
O O1 0.500000 0.526293 0.500000
O O2 0.247136 0.474530 0.490307
O O3 0.744361 0.407297 0.823280
O O4 0.730298 0.515479 0.996092
O O5 0.500000 0.200597 0.500000
O O6 0.841205 0.151544 0.592195
O O7 0.889328 0.294671 0.774498
O O8 0.000000 0.164867 0.000000
O O9 0.000000 0.076599 0.500000
O O10 0.273205 0.003322 0.547492
O O11 0.775705 0.030136 0.051792
O O12 0.932380 0.622686 0.675681
O O13 0.835954 0.772534 0.609222
O O14 0.334524 0.727836 0.106440
O O15 0.000000 0.692067 0.000000
O O16 0.000000 0.530901 0.500000
O O17 0.570745 0.879287 0.814424
O O18 0.500000 0.956161 0.000000
O O19 0.500000 0.801809 0.500000
#
# Coordination Sequence:
#
# PCOD9113220 Si02
#       8
#     2   2   2   2   2   2   2   1
#     4  12  22  44  71  93 128 176 212 261 326 400
#     4  10  22  38  65  93 122 154 203 263 303 371
#     4  10  21  39  60  88 125 164 208 249 309 379
#     4  10  21  39  59  87 122 171 213 258 318 382
#     4  12  26  41  66 102 134 166 220 277 321 383
#     4  10  21  36  57  85 121 168 209 250 310 377
#     4  10  21  36  57  85 123 160 215 266 308 359
#     4  10  24  42  72  96 124 158 224 258 314 402
#
# _framework density 19.997223000000002
#
# number of rings (size 3 to 8) (size 9 to 14) (size 15 to 20)
#    0.400    1.067    1.333    4.000    0.000    3.733 
#    0.000    0.667    2.933    0.000    0.000    0.000 
#    0.000    0.000    0.000    0.000    0.000    0.000 
#
# Total GULP energy -83575.736778 kJ/mol
# GULP energy per Si atom -5571.715785 kJ/mol
# Density = 1.995171 g / cm^3
# Si number density = 19.997223 Si / 1000 Ang^3
#
#
#
# Elastic Constant Matrix: (Units=GPa)
#
#
# Indices 1 2 3 4 5 6 
#
# 1 62.8980 33.1549 41.0920 0.0000 2.9961 0.0000
# 2 33.1549 89.6470 11.4522 0.0000 0.6357 0.0000
# 3 41.0920 11.4522 109.3216 0.0000 13.7945 0.0000
# 4 0.0000 0.0000 0.0000 10.5526 0.0000 50.7938
# 5 2.9961 0.6357 13.7945 0.0000 29.8074 0.0000
# 6 0.0000 0.0000 0.0000 50.7938 0.0000 1.1201
#
#
#
# Elastic Compliance Matrix: (Units=1/GPa)
#
#
# Indices 1 2 3 4 5 6 
#
# 1 0.026378 -0.008588 -0.009244 0.000000 0.001810 0.000000
# 2 -0.008588 0.014105 0.001784 0.000000 -0.000263 0.000000
# 3 -0.009244 0.001784 0.013087 0.000000 -0.005165 0.000000
# 4 0.000000 0.000000 0.000000 -0.000436 0.000000 0.019778
# 5 0.001810 -0.000263 -0.005165 0.000000 0.035763 0.000000
# 6 0.000000 0.000000 0.000000 0.019778 0.000000 -0.004109
#
#
# Mechanical properties :
#
#
# Convention : Reuss Voigt Hill
#
# Bulk Modulus (GPa) = 46.56758 48.14054 47.35406
# Shear Modulus (GPa) = 40.30880 20.04051 30.17466
#
# Velocity S-wave (km/s) = 4.49455 3.16913 3.88872
# Velocity P-wave (km/s) = 7.09029 6.12512 6.62530
#
# Compressibility (1/GPa) = 0.02147417
#
# Stress axis : x y z
#
# Youngs Moduli (GPa) = 37.90967 70.89703 76.41236
#
# Poissons Ratio (x) = 0.60885 0.70635
# Poissons Ratio (y) = 0.32556 -0.13629
# Poissons Ratio (z) = 0.35043 -0.12645
#
# Static dielectric constant tensor:
#      x y z
#    x 1.740340 0.000000 -0.045800 
#    y 0.000000 1.703430 0.000000 
#    z -0.045800 0.000000 1.792990 
# 
# From -- ./inp_files/6269.got.cif
#   From: 2010.05.17/outbox.cif.g08.bks.cpg/sg3_4_cif.got.tgz:6269.got - 2010.06.03 18:33:08.
