data_PCOD9113603
_publ_section_title
;
Structure prediction by ZEFSAII (Michael W. Deem and Ramdas Pophale) SiO2 
 PCOD9113603
Probable space group: P 2
;
_chemical_formula_sum "Si O2"
_cell_formula_units_Z 15
_cell_length_a 7.539323
_cell_length_b 13.719312
_cell_length_c 8.194021
_cell_angle_alpha 90.000000
_cell_angle_beta 52.857645
_cell_angle_gamma 90.000000
_cell_volume 675.608583
_symmetry_space_group_name_H-M "P 2"
_symmetry_group_IT_number 3
_symmetry_cell_setting 'monoclinic'
loop_
_space_group_symop_operation_xyz
x,y,z
-x,y,-z
loop_
_atom_site_type_symbol
_atom_site_label
_atom_site_fract_x
_atom_site_fract_y
_atom_site_fract_z
Si Si1 0.691719 0.864670 0.525981
Si Si2 0.735887 0.263231 0.662178
Si Si3 0.438531 0.727294 0.853829
Si Si4 0.335893 0.525861 0.843299
Si Si5 0.200897 0.463188 0.256685
Si Si6 0.126528 0.913108 0.089355
Si Si7 0.255890 0.047507 0.292259
Si Si8 0.500000 0.378225 0.500000
O O1 0.500000 0.853308 0.500000
O O2 0.663544 0.770261 0.653048
O O3 0.933729 0.873905 0.315784
O O4 0.640261 0.964424 0.651065
O O5 0.728785 0.349438 0.798699
O O6 0.645669 0.155686 0.749736
O O7 0.627983 0.310636 0.559774
O O8 0.000000 0.250012 0.500000
O O9 0.325583 0.641014 0.813844
O O10 0.500000 0.692225 0.000000
O O11 0.281344 0.821869 0.959298
O O12 0.586948 0.511846 0.774222
O O13 0.335527 0.450026 0.693708
O O14 0.176257 0.503027 0.086445
O O15 0.000000 0.470650 0.500000
O O16 0.246323 0.000277 0.118341
O O17 0.000000 0.949878 0.000000
O O18 0.000000 0.052284 0.500000
#
# Coordination Sequence:
#
# PCOD9113603 Si02
#       8
#     2   2   2   2   2   2   2   1
#     4  11  23  39  63  90 130 167 211 268 318 383
#     4   9  19  40  64  93 129 166 215 269 332 395
#     4  12  23  41  64  91 129 174 217 267 323 386
#     4  10  22  40  61  94 127 167 221 272 326 390
#     4   9  18  38  63  88 127 169 207 272 327 388
#     4  11  23  41  61  91 132 173 215 266 320 390
#     4   9  20  38  62  92 127 169 211 265 324 390
#     4  10  22  40  70  92 132 172 218 286 330 392
#
# _framework density 22.202207000000001
#
# number of rings (size 3 to 8) (size 9 to 14) (size 15 to 20)
#    0.000    1.867    4.000    0.000    1.867    1.067 
#    0.000   18.000    0.000    0.000    0.000    0.000 
#    0.000    0.000    0.000    0.000    0.000    0.000 
#
# Total GULP energy -83727.720505 kJ/mol
# GULP energy per Si atom -5581.848034 kJ/mol
# Density = 2.215167 g / cm^3
# Si number density = 22.202207 Si / 1000 Ang^3
#
#
#
# Elastic Constant Matrix: (Units=GPa)
#
#
# Indices 1 2 3 4 5 6 
#
# 1 56.2423 24.2499 16.0173 0.0000 2.9593 0.0000
# 2 24.2499 168.5487 47.8149 0.0000 10.4262 0.0000
# 3 16.0173 47.8149 131.3785 0.0000 -2.9814 0.0000
# 4 0.0000 0.0000 0.0000 26.1078 0.0000 14.8223
# 5 2.9593 10.4262 -2.9814 0.0000 30.8756 0.0000
# 6 0.0000 0.0000 0.0000 14.8223 0.0000 4.4522
#
#
#
# Elastic Compliance Matrix: (Units=1/GPa)
#
#
# Indices 1 2 3 4 5 6 
#
# 1 0.019260 -0.002253 -0.001556 0.000000 -0.001235 0.000000
# 2 -0.002253 0.007073 -0.002354 0.000000 -0.002400 0.000000
# 3 -0.001556 -0.002354 0.008699 0.000000 0.001784 0.000000
# 4 0.000000 0.000000 0.000000 -0.043031 0.000000 0.143259
# 5 -0.001235 -0.002400 0.001784 0.000000 0.033489 0.000000
# 6 0.000000 0.000000 0.000000 0.143259 0.000000 -0.252335
#
#
# Mechanical properties :
#
#
# Convention : Reuss Voigt Hill
#
# Bulk Modulus (GPa) = 44.04290 59.14816 51.59553
# Shear Modulus (GPa) = -24.16055 30.15961 2.99953
#
# Velocity S-wave (km/s) = -3.30237 3.68965 1.16359
# Velocity P-wave (km/s) = 2.31070 6.69701 5.00945
#
# Compressibility (1/GPa) = 0.02270514
#
# Stress axis : x y z
#
# Youngs Moduli (GPa) = 51.92144 141.37338 114.96123
#
# Poissons Ratio (x) = 0.31853 0.17889
# Poissons Ratio (y) = 0.11699 0.27063
# Poissons Ratio (z) = 0.08080 0.33281
#
# Static dielectric constant tensor:
#      x y z
#    x 1.853170 0.000000 0.037080 
#    y 0.000000 1.831260 0.000000 
#    z 0.037080 0.000000 1.910780 
# 
# From -- ./inp_files/5974.got.cif
#   From: 2010.05.17/outbox.cif.g08.bks.cpg/sg3_3_cif.got.tgz:5974.got - 2010.06.03 18:33:08.
