data_PCOD9113576
_publ_section_title
;
Structure prediction by ZEFSAII (Michael W. Deem and Ramdas Pophale) SiO2 
 PCOD9113576
Probable space group: P 2
;
_chemical_formula_sum "Si O2"
_cell_formula_units_Z 15
_cell_length_a 5.352551
_cell_length_b 13.560786
_cell_length_c 9.748617
_cell_angle_alpha 90.000000
_cell_angle_beta 65.396863
_cell_angle_gamma 90.000000
_cell_volume 643.360617
_symmetry_space_group_name_H-M "P 2"
_symmetry_group_IT_number 3
_symmetry_cell_setting 'monoclinic'
loop_
_space_group_symop_operation_xyz
x,y,z
-x,y,-z
loop_
_atom_site_type_symbol
_atom_site_label
_atom_site_fract_x
_atom_site_fract_y
_atom_site_fract_z
Si Si1 0.184910 0.761660 0.586838
Si Si2 0.850414 0.041836 0.682419
Si Si3 0.284354 0.545389 0.459762
Si Si4 0.826928 0.858579 0.898057
Si Si5 0.479051 0.329707 0.857622
Si Si6 0.645008 0.159363 0.321905
Si Si7 0.000000 0.487770 0.000000
Si Si8 0.283371 0.526860 0.167715
O O1 0.500000 0.802104 0.500000
O O2 0.218004 0.644206 0.558626
O O3 0.000000 0.795507 0.500000
O O4 0.013877 0.784379 0.762967
O O5 0.545255 0.078856 0.713000
O O6 0.000000 0.021034 0.500000
O O7 0.047385 0.123006 0.712677
O O8 0.829112 0.953600 0.796066
O O9 0.500000 0.486808 0.500000
O O10 0.364278 0.577748 0.289077
O O11 0.000000 0.491168 0.500000
O O12 0.500000 0.833546 0.000000
O O13 0.000000 0.873917 0.000000
O O14 0.394669 0.256552 0.759319
O O15 0.727704 0.408690 0.792041
O O16 0.500000 0.276384 0.000000
O O17 0.247605 0.412551 0.925029
O O18 0.500000 0.175959 0.500000
O O19 0.015495 0.546209 0.138371
O O20 0.500000 0.553765 0.000000
#
# Coordination Sequence:
#
# PCOD9113576 Si02
#       8
#     2   2   2   2   2   2   1   2
#     4  10  22  45  70  96 134 175 216 269 345 418
#     4  10  23  42  62  89 130 177 216 270 336 394
#     4  10  23  41  64  96 126 165 218 272 339 412
#     4  12  25  42  69 106 134 171 227 284 333 408
#     4   9  20  35  56  86 124 173 217 267 332 383
#     4  10  22  39  59  89 129 170 221 270 322 389
#     4   8  18  36  58  86 122 172 218 266 332 388
#     4   9  20  38  62  89 127 171 224 276 331 389
#
# _framework density 23.315072000000001
#
# number of rings (size 3 to 8) (size 9 to 14) (size 15 to 20)
#    0.000    2.400    0.000    2.000    7.467    3.733 
#    0.000    8.000    0.000    0.000    0.000    0.000 
#    0.000    0.000    0.000    0.000    0.000    0.000 
#
# Total GULP energy -83502.368890 kJ/mol
# GULP energy per Si atom -5566.824593 kJ/mol
# Density = 2.326201 g / cm^3
# Si number density = 23.315072 Si / 1000 Ang^3
#
#
#
# Elastic Constant Matrix: (Units=GPa)
#
#
# Indices 1 2 3 4 5 6 
#
# 1 170.2361 4.7620 72.6578 0.0000 25.2456 0.0000
# 2 4.7620 53.5723 54.2455 0.0000 14.1039 0.0000
# 3 72.6578 54.2455 179.1280 0.0000 26.9957 0.0000
# 4 0.0000 0.0000 0.0000 29.5421 0.0000 2.6217
# 5 25.2456 14.1039 26.9957 0.0000 47.9807 0.0000
# 6 0.0000 0.0000 0.0000 2.6217 0.0000 6.7506
#
#
#
# Elastic Compliance Matrix: (Units=1/GPa)
#
#
# Indices 1 2 3 4 5 6 
#
# 1 0.007937 0.004186 -0.004012 0.000000 -0.003149 0.000000
# 2 0.004186 0.029723 -0.009889 0.000000 -0.005376 0.000000
# 3 -0.004012 -0.009889 0.010324 0.000000 -0.000791 0.000000
# 4 0.000000 0.000000 0.000000 0.035058 0.000000 -0.013615
# 5 -0.003149 -0.005376 -0.000791 0.000000 0.024524 0.000000
# 6 0.000000 0.000000 0.000000 -0.013615 0.000000 0.153422
#
#
# Mechanical properties :
#
#
# Convention : Reuss Voigt Hill
#
# Bulk Modulus (GPa) = 35.02212 74.02968 54.52590
# Shear Modulus (GPa) = 17.24527 34.93942 26.09235
#
# Velocity S-wave (km/s) = 2.72262 3.87535 3.34895
# Velocity P-wave (km/s) = 4.99374 7.20036 6.19607
#
# Compressibility (1/GPa) = 0.02855339
#
# Stress axis : x y z
#
# Youngs Moduli (GPa) = 125.99834 33.64441 96.86240
#
# Poissons Ratio (x) = -0.14085 0.38866
# Poissons Ratio (y) = -0.52748 0.95786
# Poissons Ratio (z) = 0.50556 0.33270
#
# Static dielectric constant tensor:
#      x y z
#    x 4.112080 0.000000 -0.015530 
#    y 0.000000 1.916810 0.000000 
#    z -0.015530 0.000000 2.012510 
# 
# From -- ./inp_files/4502.got.cif
#   From: 2010.05.17/outbox.cif.g08.bks.cpg/sg3_3_cif.got.tgz:4502.got - 2010.06.03 18:33:08.
