data_PCOD9113838
_publ_section_title
;
Structure prediction by ZEFSAII (Michael W. Deem and Ramdas Pophale) SiO2 
 PCOD9113838
Probable space group: P 2
;
_chemical_formula_sum "Si O2"
_cell_formula_units_Z 12
_cell_length_a 16.911710
_cell_length_b 4.803650
_cell_length_c 10.569920
_cell_angle_alpha 90.000000
_cell_angle_beta 147.100108
_cell_angle_gamma 90.000000
_cell_volume 466.410853
_symmetry_space_group_name_H-M "P 2"
_symmetry_group_IT_number 3
_symmetry_cell_setting 'monoclinic'
loop_
_space_group_symop_operation_xyz
x,y,z
-x,y,-z
loop_
_atom_site_type_symbol
_atom_site_label
_atom_site_fract_x
_atom_site_fract_y
_atom_site_fract_z
Si Si1 0.219754 0.049250 0.573182
Si Si2 0.428912 0.446153 0.767679
Si Si3 0.328498 0.088894 0.271880
Si Si4 0.674093 0.566089 0.891883
Si Si5 0.848642 0.545673 0.348713
Si Si6 0.849742 0.365568 0.741421
O O1 0.378837 0.120954 0.723333
O O2 0.229010 0.275694 0.699042
O O3 0.108688 0.158850 0.317532
O O4 0.161225 0.772594 0.555728
O O5 0.536076 0.504922 0.795989
O O6 0.274096 0.553216 0.496241
O O7 0.500000 0.541173 0.000000
O O8 0.500000 0.175812 0.500000
O O9 0.332815 0.767304 0.238074
O O10 0.264844 0.273720 0.073299
O O11 0.239956 0.186038 0.275208
O O12 0.779728 0.695857 0.135981
O O13 0.000000 0.446625 0.500000
O O14 0.000000 0.485276 0.000000
#
# Coordination Sequence:
#
# PCOD9113838 Si02
#       6
#     2   2   2   2   2   2
#     4  10  25  46  73 103 146 190 243 301 362 428
#     4  10  22  48  73 106 142 190 250 301 362 428
#     4  12  26  47  72 104 146 196 239 300 361 447
#     4  12  26  44  74 105 143 192 245 296 366 435
#     4  12  26  45  72 108 146 191 244 305 364 435
#     4  10  25  46  77 108 151 193 246 299 373 434
#
# _framework density 25.728387000000001
#
# number of rings (size 3 to 8) (size 9 to 14) (size 15 to 20)
#    1.000    0.000    3.333    2.000    4.667    4.000 
#    0.000    1.667    0.000    0.000    0.000    0.000 
#    0.000    0.000    0.000    0.000    0.000    0.000 
#
# Total GULP energy -66835.343767 kJ/mol
# GULP energy per Si atom -5569.611981 kJ/mol
# Density = 2.566983 g / cm^3
# Si number density = 25.728387 Si / 1000 Ang^3
#
#
#
# Elastic Constant Matrix: (Units=GPa)
#
#
# Indices 1 2 3 4 5 6 
#
# 1 79.0913 20.2462 32.1047 0.0000 -0.4466 0.0000
# 2 20.2462 66.0503 -12.1130 0.0000 -7.2080 0.0000
# 3 32.1047 -12.1130 126.0906 0.0000 -10.4157 0.0000
# 4 0.0000 0.0000 0.0000 18.7898 0.0000 -13.7872
# 5 -0.4466 -7.2080 -10.4157 0.0000 35.6851 0.0000
# 6 0.0000 0.0000 0.0000 -13.7872 0.0000 12.4164
#
#
#
# Elastic Compliance Matrix: (Units=1/GPa)
#
#
# Indices 1 2 3 4 5 6 
#
# 1 0.016197 -0.006136 -0.004918 0.000000 -0.002472 0.000000
# 2 -0.006136 0.018210 0.003698 0.000000 0.004681 0.000000
# 3 -0.004918 0.003698 0.009832 0.000000 0.003555 0.000000
# 4 0.000000 0.000000 0.000000 0.287321 0.000000 0.319043
# 5 -0.002472 0.004681 0.003555 0.000000 0.029975 0.000000
# 6 0.000000 0.000000 0.000000 0.319043 0.000000 0.434805
#
#
# Mechanical properties :
#
#
# Convention : Reuss Voigt Hill
#
# Bulk Modulus (GPa) = 33.86676 39.07868 36.47272
# Shear Modulus (GPa) = 6.09092 28.77789 17.43441
#
# Velocity S-wave (km/s) = 1.54030 3.34807 2.60596
# Velocity P-wave (km/s) = 4.04415 5.49254 4.82302
#
# Compressibility (1/GPa) = 0.02952748
#
# Stress axis : x y z
#
# Youngs Moduli (GPa) = 61.74122 54.91484 101.70985
#
# Poissons Ratio (x) = 0.33698 0.50017
# Poissons Ratio (y) = 0.37887 -0.37617
# Poissons Ratio (z) = 0.30362 -0.20310
#
# Static dielectric constant tensor:
#      x y z
#    x 2.007910 0.000000 0.074870 
#    y 0.000000 2.023190 0.000000 
#    z 0.074870 0.000000 2.158920 
# 
# From -- ./inp_files/8014.got.cif
#   From: 2010.05.17/outbox.cif.g08.bks.cpg/sg3_5_cif.got.tgz:8014.got - 2010.06.03 18:33:08.
