data_PCOD9113887
_publ_section_title
;
Structure prediction by ZEFSAII (Michael W. Deem and Ramdas Pophale) SiO2 
 PCOD9113887
Probable space group: P 2
;
_chemical_formula_sum "Si O2"
_cell_formula_units_Z 16
_cell_length_a 8.882589
_cell_length_b 10.326886
_cell_length_c 16.749300
_cell_angle_alpha 90.000000
_cell_angle_beta 148.124534
_cell_angle_gamma 90.000000
_cell_volume 811.336511
_symmetry_space_group_name_H-M "P 2"
_symmetry_group_IT_number 3
_symmetry_cell_setting 'monoclinic'
loop_
_space_group_symop_operation_xyz
x,y,z
-x,y,-z
loop_
_atom_site_type_symbol
_atom_site_label
_atom_site_fract_x
_atom_site_fract_y
_atom_site_fract_z
Si Si1 0.290724 0.371630 0.091092
Si Si2 0.729249 0.157832 0.532434
Si Si3 0.529161 0.659391 0.606348
Si Si4 0.709846 0.415323 0.419305
Si Si5 0.563801 0.857171 0.123536
Si Si6 0.602385 0.149663 0.136156
Si Si7 0.138873 0.883410 0.476048
Si Si8 0.115335 0.637398 0.961590
O O1 0.466812 0.428105 0.243919
O O2 0.466623 0.258825 0.129647
O O3 0.232247 0.491025 0.005389
O O4 0.000000 0.322372 0.000000
O O5 0.500000 0.170741 0.500000
O O6 0.697864 0.275121 0.455682
O O7 0.056052 0.161495 0.709525
O O8 0.712413 0.016137 0.485030
O O9 0.500000 0.690136 0.500000
O O10 0.361440 0.525957 0.548813
O O11 0.368669 0.770376 0.583215
O O12 0.855186 0.655023 0.782865
O O13 0.000000 0.431852 0.500000
O O14 0.889361 0.840850 0.301004
O O15 0.508246 0.006709 0.123094
O O16 0.500000 0.854062 0.000000
O O17 0.358046 0.746092 0.063836
O O18 0.500000 0.165637 0.000000
O O19 0.000000 0.904160 0.500000
O O20 0.000000 0.643229 0.000000
#
# Coordination Sequence:
#
# PCOD9113887 Si02
#       8
#     2   2   2   2   2   2   2   2
#     4  11  24  44  66  95 133 173 220 276 325 397
#     4  11  25  43  67  98 134 171 219 281 334 396
#     4  12  25  42  66  99 134 172 222 271 333 397
#     4  12  24  44  67  94 133 174 225 276 334 392
#     4  10  23  43  64  93 131 167 214 263 324 394
#     4  10  24  43  65  97 131 173 220 267 335 400
#     4  11  24  42  69  99 131 172 221 271 334 395
#     4  11  23  44  63  94 131 167 216 268 320 391
#
# _framework density 19.720547
#
# number of rings (size 3 to 8) (size 9 to 14) (size 15 to 20)
#    0.000    1.000    3.750    3.000    5.250    4.000 
#    0.000    0.000    0.000    0.000    0.000    0.000 
#    0.000    0.000    0.000    0.000    0.000    0.000 
#
# Total GULP energy -89382.954860 kJ/mol
# GULP energy per Si atom -5586.434679 kJ/mol
# Density = 1.967566 g / cm^3
# Si number density = 19.720547 Si / 1000 Ang^3
#
#
#
# Elastic Constant Matrix: (Units=GPa)
#
#
# Indices 1 2 3 4 5 6 
#
# 1 60.9683 23.6152 4.2396 0.0000 20.8775 0.0000
# 2 23.6152 112.6867 18.0556 0.0000 24.0938 0.0000
# 3 4.2396 18.0556 81.0799 0.0000 4.4477 0.0000
# 4 0.0000 0.0000 0.0000 17.8302 0.0000 6.9053
# 5 20.8775 24.0938 4.4477 0.0000 33.3214 0.0000
# 6 0.0000 0.0000 0.0000 6.9053 0.0000 31.9296
#
#
#
# Elastic Compliance Matrix: (Units=1/GPa)
#
#
# Indices 1 2 3 4 5 6 
#
# 1 0.021220 -0.001892 -0.000034 0.000000 -0.011923 0.000000
# 2 -0.001892 0.010976 -0.001990 0.000000 -0.006485 0.000000
# 3 -0.000034 -0.001990 0.012792 0.000000 -0.000247 0.000000
# 4 0.000000 0.000000 0.000000 0.061212 0.000000 -0.013238
# 5 -0.011923 -0.006485 -0.000247 0.000000 0.042203 0.000000
# 6 0.000000 0.000000 0.000000 -0.013238 0.000000 0.034182
#
#
# Mechanical properties :
#
#
# Convention : Reuss Voigt Hill
#
# Bulk Modulus (GPa) = 26.91354 38.50618 32.70986
# Shear Modulus (GPa) = 24.65457 30.53787 27.59622
#
# Velocity S-wave (km/s) = 3.53965 3.93941 3.74487
# Velocity P-wave (km/s) = 5.51204 6.34509 5.94318
#
# Compressibility (1/GPa) = 0.03715601
#
# Stress axis : x y z
#
# Youngs Moduli (GPa) = 47.12540 91.10656 78.17429
#
# Poissons Ratio (x) = 0.17240 0.00267
# Poissons Ratio (y) = 0.08917 0.15553
# Poissons Ratio (z) = 0.00161 0.18126
#
# Static dielectric constant tensor:
#      x y z
#    x 1.669280 0.000000 0.012350 
#    y 0.000000 1.689900 0.000000 
#    z 0.012350 0.000000 1.697440 
# 
# From -- ./inp_files/15060.got.cif
#   From: 2010.05.17/outbox.cif.g08.bks.cpg/sg3_8_cif.got.tgz:15060.got - 2010.06.03 18:33:08.
