data_PCOD9113292
_publ_section_title
;
Structure prediction by ZEFSAII (Michael W. Deem and Ramdas Pophale) SiO2 
 PCOD9113292
Probable space group: P 2
;
_chemical_formula_sum "Si O2"
_cell_formula_units_Z 16
_cell_length_a 18.751491
_cell_length_b 9.357806
_cell_length_c 8.379020
_cell_angle_alpha 90.000000
_cell_angle_beta 149.311061
_cell_angle_gamma 90.000000
_cell_volume 750.402187
_symmetry_space_group_name_H-M "P 2"
_symmetry_group_IT_number 3
_symmetry_cell_setting 'monoclinic'
loop_
_space_group_symop_operation_xyz
x,y,z
-x,y,-z
loop_
_atom_site_type_symbol
_atom_site_label
_atom_site_fract_x
_atom_site_fract_y
_atom_site_fract_z
Si Si1 0.198885 0.460160 0.493703
Si Si2 0.619054 0.479941 0.592666
Si Si3 0.568275 0.148355 0.459041
Si Si4 0.303941 0.155660 0.758441
Si Si5 0.638234 0.701896 0.345256
Si Si6 0.205862 0.981040 0.262535
Si Si7 0.977023 0.093300 0.630637
Si Si8 0.087349 0.410253 0.917635
O O1 0.294274 0.327189 0.728831
O O2 0.286430 0.602125 0.639346
O O3 0.066531 0.478570 0.356125
O O4 0.144431 0.417178 0.210504
O O5 0.500000 0.500050 0.500000
O O6 0.602273 0.315827 0.502192
O O7 0.598717 0.597294 0.415842
O O8 0.788924 0.479467 0.951146
O O9 0.500000 0.134720 0.500000
O O10 0.700768 0.046976 0.699790
O O11 0.454950 0.108918 0.106788
O O12 0.186414 0.114136 0.659435
O O13 0.248921 0.083298 0.491646
O O14 0.744373 0.822769 0.605341
O O15 0.500000 0.766004 0.000000
O O16 0.047026 0.997514 0.902133
O O17 0.051448 0.248968 0.794149
O O18 0.000000 0.034494 0.500000
#
# Coordination Sequence:
#
# PCOD9113292 Si02
#       8
#     2   2   2   2   2   2   2   2
#     4   9  18  36  64  90 126 157 214 257 322 361
#     4  10  21  38  64  90 129 162 214 255 324 378
#     4  11  22  37  63  97 127 161 210 263 321 376
#     4  11  21  37  64  93 123 162 207 268 311 377
#     4  11  23  40  61  92 127 171 216 263 311 376
#     4  12  23  41  61  91 126 170 216 257 314 378
#     4  11  22  39  63  93 128 159 205 265 328 378
#     4   9  17  36  61  93 121 161 199 261 317 383
#
# _framework density 21.321899999999999
#
# number of rings (size 3 to 8) (size 9 to 14) (size 15 to 20)
#    0.000    1.500    2.500    3.750    1.750    0.500 
#    9.000    1.250    0.000    3.000    0.000    0.000 
#    0.000    0.000    0.000    0.000    0.000    0.000 
#
# Total GULP energy -89345.468088 kJ/mol
# GULP energy per Si atom -5584.091756 kJ/mol
# Density = 2.127337 g / cm^3
# Si number density = 21.321900 Si / 1000 Ang^3
#
#
#
# Elastic Constant Matrix: (Units=GPa)
#
#
# Indices 1 2 3 4 5 6 
#
# 1 96.7036 22.8992 7.3652 0.0000 21.8603 0.0000
# 2 22.8992 72.7464 3.3764 0.0000 6.4665 0.0000
# 3 7.3652 3.3764 62.1356 0.0000 7.0660 0.0000
# 4 0.0000 0.0000 0.0000 8.4021 0.0000 4.8149
# 5 21.8603 6.4665 7.0660 0.0000 30.6353 0.0000
# 6 0.0000 0.0000 0.0000 4.8149 0.0000 1.9914
#
#
#
# Elastic Compliance Matrix: (Units=1/GPa)
#
#
# Indices 1 2 3 4 5 6 
#
# 1 0.013095 -0.003344 -0.000399 0.000000 -0.008546 0.000000
# 2 -0.003344 0.014875 -0.000335 0.000000 -0.000676 0.000000
# 3 -0.000399 -0.000335 0.016553 0.000000 -0.003463 0.000000
# 4 0.000000 0.000000 0.000000 -0.308660 0.000000 0.746301
# 5 -0.008546 -0.000676 -0.003463 0.000000 0.039682 0.000000
# 6 0.000000 0.000000 0.000000 0.746301 0.000000 -1.302302
#
#
# Mechanical properties :
#
#
# Convention : Reuss Voigt Hill
#
# Bulk Modulus (GPa) = 27.49688 33.20747 30.35218
# Shear Modulus (GPa) = -3.31900 21.40208 9.04154
#
# Velocity S-wave (km/s) = -1.24900 3.17165 2.06148
# Velocity P-wave (km/s) = 3.29303 5.38709 4.46457
#
# Compressibility (1/GPa) = 0.03636776
#
# Stress axis : x y z
#
# Youngs Moduli (GPa) = 76.36496 67.22852 60.41170
#
# Poissons Ratio (x) = 0.22480 0.02408
# Poissons Ratio (y) = 0.25535 0.02024
# Poissons Ratio (z) = 0.03044 0.02252
#
# Static dielectric constant tensor:
#      x y z
#    x 1.827400 0.000000 0.026850 
#    y 0.000000 1.725220 0.000000 
#    z 0.026850 0.000000 1.794480 
# 
# From -- ./inp_files/9484.got.cif
#   From: 2010.05.17/outbox.cif.g08.bks.cpg/sg3_5_cif.got.tgz:9484.got - 2010.06.03 18:33:08.
