data_PCOD9113519
_publ_section_title
;
Structure prediction by ZEFSAII (Michael W. Deem and Ramdas Pophale) SiO2 
 PCOD9113519
Probable space group: P 2
;
_chemical_formula_sum "Si O2"
_cell_formula_units_Z 12
_cell_length_a 13.821609
_cell_length_b 6.516524
_cell_length_c 5.863307
_cell_angle_alpha 90.000000
_cell_angle_beta 71.807019
_cell_angle_gamma 90.000000
_cell_volume 501.701678
_symmetry_space_group_name_H-M "P 2"
_symmetry_group_IT_number 3
_symmetry_cell_setting 'monoclinic'
loop_
_space_group_symop_operation_xyz
x,y,z
-x,y,-z
loop_
_atom_site_type_symbol
_atom_site_label
_atom_site_fract_x
_atom_site_fract_y
_atom_site_fract_z
Si Si1 0.171750 0.349340 0.413819
Si Si2 0.500000 0.098694 0.000000
Si Si3 0.756812 0.696863 0.976397
Si Si4 0.126641 0.735656 0.709145
Si Si5 0.303644 0.981431 0.358305
Si Si6 0.000000 0.041205 0.500000
Si Si7 0.448433 0.489015 0.791119
O O1 0.116895 0.503320 0.629701
O O2 0.090702 0.194510 0.364407
O O3 0.260776 0.205979 0.449776
O O4 0.221732 0.508245 0.207105
O O5 0.565040 0.252002 0.116670
O O6 0.424269 0.984614 0.230468
O O7 0.861983 0.726337 0.031650
O O8 0.653247 0.619212 0.166459
O O9 0.734274 0.905556 0.861346
O O10 0.240183 0.825274 0.561913
O O11 0.049880 0.892905 0.651198
O O12 0.500000 0.491752 0.500000
O O13 0.500000 0.565584 0.000000
#
# Coordination Sequence:
#
# PCOD9113519 Si02
#       7
#     2   1   2   2   2   1   2
#     4  10  21  46  68  93 139 175 231 293 364 432
#     4  10  22  40  66 102 146 188 242 286 350 424
#     4  11  24  41  69 102 138 184 236 297 361 427
#     4  10  24  42  71  99 135 182 231 299 367 432
#     4  10  23  41  64  99 140 183 235 288 348 427
#     4  10  22  46  68 100 134 178 232 300 370 452
#     4  10  24  41  68 105 148 195 248 291 356 426
#
# _framework density 23.918595
#
# number of rings (size 3 to 8) (size 9 to 14) (size 15 to 20)
#    0.500    1.333    1.667    0.500    8.167    4.000 
#    0.000   20.000    0.000    0.000    0.000    0.000 
#    0.000    0.000    0.000    0.000    0.000    0.000 
#
# Total GULP energy -66835.400721 kJ/mol
# GULP energy per Si atom -5569.616727 kJ/mol
# Density = 2.386416 g / cm^3
# Si number density = 23.918595 Si / 1000 Ang^3
#
#
#
# Elastic Constant Matrix: (Units=GPa)
#
#
# Indices 1 2 3 4 5 6 
#
# 1 78.1743 35.1992 10.9354 0.0000 -1.8024 0.0000
# 2 35.1992 118.7899 11.6496 0.0000 0.4996 0.0000
# 3 10.9354 11.6496 53.9348 0.0000 -10.2302 0.0000
# 4 0.0000 0.0000 0.0000 9.8094 0.0000 -14.2927
# 5 -1.8024 0.4996 -10.2302 0.0000 44.3110 0.0000
# 6 0.0000 0.0000 0.0000 -14.2927 0.0000 46.6791
#
#
#
# Elastic Compliance Matrix: (Units=1/GPa)
#
#
# Indices 1 2 3 4 5 6 
#
# 1 0.014998 -0.004240 -0.002092 0.000000 0.000175 0.000000
# 2 -0.004240 0.009812 -0.001374 0.000000 -0.000600 0.000000
# 3 -0.002092 -0.001374 0.020130 0.000000 0.004578 0.000000
# 4 0.000000 0.000000 0.000000 0.184056 0.000000 0.056356
# 5 0.000175 -0.000600 0.004578 0.000000 0.023639 0.000000
# 6 0.000000 0.000000 0.000000 0.056356 0.000000 0.038679
#
#
# Mechanical properties :
#
#
# Convention : Reuss Voigt Hill
#
# Bulk Modulus (GPa) = 33.86471 40.71862 37.29167
# Shear Modulus (GPa) = 15.79453 33.03422 24.41438
#
# Velocity S-wave (km/s) = 2.57251 3.72036 3.19835
# Velocity P-wave (km/s) = 4.79716 5.95949 5.40964
#
# Compressibility (1/GPa) = 0.02952926
#
# Stress axis : x y z
#
# Youngs Moduli (GPa) = 66.67773 101.91915 49.67701
#
# Poissons Ratio (x) = 0.43209 0.10392
# Poissons Ratio (y) = 0.28269 0.06823
# Poissons Ratio (z) = 0.13948 0.13999
#
# Static dielectric constant tensor:
#      x y z
#    x 1.976770 0.000000 -0.006700 
#    y 0.000000 1.890920 0.000000 
#    z -0.006700 0.000000 2.077500 
# 
# From -- ./inp_files/2836.got.cif
#   From: 2010.05.17/outbox.cif.g08.bks.cpg/sg3_2_cif.got.tgz:2836.got - 2010.06.03 18:33:08.
