data_PCOD9113692
_publ_section_title
;
Structure prediction by ZEFSAII (Michael W. Deem and Ramdas Pophale) SiO2 
 PCOD9113692
Probable space group: P 2
;
_chemical_formula_sum "Si O2"
_cell_formula_units_Z 7
_cell_length_a 4.955553
_cell_length_b 5.475412
_cell_length_c 9.994538
_cell_angle_alpha 90.000000
_cell_angle_beta 95.484586
_cell_angle_gamma 90.000000
_cell_volume 269.947223
_symmetry_space_group_name_H-M "P 2"
_symmetry_group_IT_number 3
_symmetry_cell_setting 'monoclinic'
loop_
_space_group_symop_operation_xyz
x,y,z
-x,y,-z
loop_
_atom_site_type_symbol
_atom_site_label
_atom_site_fract_x
_atom_site_fract_y
_atom_site_fract_z
Si Si1 0.007291 0.101620 0.145007
Si Si2 0.496239 0.810765 0.228474
Si Si3 0.120802 0.421077 0.634191
Si Si4 0.500000 0.044375 0.500000
O O1 0.078385 0.293627 0.267137
O O2 0.219059 0.876248 0.139918
O O3 0.718937 0.993043 0.175875
O O4 0.000000 0.225270 0.000000
O O5 0.665928 0.565962 0.262990
O O6 0.406149 0.878124 0.374471
O O7 0.277217 0.213843 0.558141
O O8 0.000000 0.568660 0.500000
#
# Coordination Sequence:
#
# PCOD9113692 Si02
#       4
#     2   2   2   1
#     4  11  26  49  70 103 152 193 241 303 360 440
#     4  11  25  41  75 107 142 190 246 294 372 434
#     4  11  24  43  77 108 145 191 246 307 370 429
#     4  10  22  42  66 110 152 172 242 310 362 426
#
# _framework density 25.931000000000001
#
# number of rings (size 3 to 8) (size 9 to 14) (size 15 to 20)
#    0.000    1.143    2.857    1.714    8.000    1.143 
#    0.000    5.714    0.000    0.000    0.000    0.000 
#    0.000    0.000    0.000    0.000    0.000    0.000 
#
# Total GULP energy -39075.787206 kJ/mol
# GULP energy per Si atom -5582.255315 kJ/mol
# Density = 2.587198 g / cm^3
# Si number density = 25.931000 Si / 1000 Ang^3
#
#
#
# Elastic Constant Matrix: (Units=GPa)
#
#
# Indices 1 2 3 4 5 6 
#
# 1 120.3167 18.6559 25.5276 0.0000 -9.7796 0.0000
# 2 18.6559 61.7295 21.3943 0.0000 -10.5857 0.0000
# 3 25.5276 21.3943 176.4791 0.0000 -15.5759 0.0000
# 4 0.0000 0.0000 0.0000 15.4079 0.0000 -7.8066
# 5 -9.7796 -10.5857 -15.5759 0.0000 29.8277 0.0000
# 6 0.0000 0.0000 0.0000 -7.8066 0.0000 45.9408
#
#
#
# Elastic Compliance Matrix: (Units=1/GPa)
#
#
# Indices 1 2 3 4 5 6 
#
# 1 0.008967 -0.002105 -0.000889 0.000000 0.001728 0.000000
# 2 -0.002105 0.018201 -0.001460 0.000000 0.005007 0.000000
# 3 -0.000889 -0.001460 0.006186 0.000000 0.002420 0.000000
# 4 0.000000 0.000000 0.000000 0.071016 0.000000 0.012068
# 5 0.001728 0.005007 0.002420 0.000000 0.037133 0.000000
# 6 0.000000 0.000000 0.000000 0.012068 0.000000 0.023818
#
#
# Mechanical properties :
#
#
# Convention : Reuss Voigt Hill
#
# Bulk Modulus (GPa) = 40.91007 54.40896 47.65951
# Shear Modulus (GPa) = 27.41566 37.76512 32.59039
#
# Velocity S-wave (km/s) = 3.25507 3.82038 3.54900
# Velocity P-wave (km/s) = 5.47157 6.36303 5.93407
#
# Compressibility (1/GPa) = 0.02444386
#
# Stress axis : x y z
#
# Youngs Moduli (GPa) = 111.51969 54.94334 161.66464
#
# Poissons Ratio (x) = 0.11568 0.14377
# Poissons Ratio (y) = 0.23479 0.23603
# Poissons Ratio (z) = 0.09917 0.08022
#
# Static dielectric constant tensor:
#      x y z
#    x 2.194080 0.000000 0.268800 
#    y 0.000000 2.126550 0.000000 
#    z 0.268800 0.000000 2.172490 
# 
# From -- ./inp_files/729.got.cif
#   From: 2010.05.17/outbox.cif.g08.bks.cpg/sg3_1_cif.got.tgz:729.got - 2010.06.03 18:33:08.
