data_PCOD9113109
_publ_section_title
;
Structure prediction by ZEFSAII (Michael W. Deem and Ramdas Pophale) SiO2 
 PCOD9113109
Probable space group: P 2
;
_chemical_formula_sum "Si O2"
_cell_formula_units_Z 15
_cell_length_a 22.313080
_cell_length_b 6.280553
_cell_length_c 14.147711
_cell_angle_alpha 90.000000
_cell_angle_beta 160.919924
_cell_angle_gamma 90.000000
_cell_volume 648.103356
_symmetry_space_group_name_H-M "P 2"
_symmetry_group_IT_number 3
_symmetry_cell_setting 'monoclinic'
loop_
_space_group_symop_operation_xyz
x,y,z
-x,y,-z
loop_
_atom_site_type_symbol
_atom_site_label
_atom_site_fract_x
_atom_site_fract_y
_atom_site_fract_z
Si Si1 0.953531 0.412300 0.629079
Si Si2 0.163087 0.717731 0.802975
Si Si3 0.607295 0.187404 0.521245
Si Si4 0.394524 0.553257 0.978018
Si Si5 0.500000 0.922266 0.000000
Si Si6 0.251689 0.073121 0.079467
Si Si7 0.039699 0.461019 0.959528
Si Si8 0.687890 0.201241 0.435007
O O1 0.054902 0.536081 0.697094
O O2 0.981508 0.541942 0.769131
O O3 0.745525 0.397365 0.285479
O O4 0.057647 0.190179 0.794294
O O5 0.312265 0.618754 0.955764
O O6 0.000000 0.831967 0.500000
O O7 0.247579 0.872656 0.005893
O O8 0.403407 0.228439 0.256324
O O9 0.686528 0.032793 0.720854
O O10 0.613901 0.106272 0.423803
O O11 0.749552 0.385479 0.732765
O O12 0.399439 0.763862 0.922322
O O13 0.584159 0.428640 0.269774
O O14 0.632903 0.059404 0.264523
O O15 0.901856 0.256424 0.761831
O O16 0.000000 0.579448 0.000000
#
# Coordination Sequence:
#
# PCOD9113109 Si02
#       8
#     2   2   2   2   1   2   2   2
#     4  10  21  39  61  88 123 159 198 250 310 371
#     4  10  23  38  60  92 125 158 200 252 308 369
#     4   9  20  38  62  87 117 157 207 251 299 366
#     4  11  24  40  60  96 128 157 207 257 312 375
#     4  12  24  38  64  92 122 164 208 258 312 370
#     4  10  20  40  63  88 120 159 201 250 304 364
#     4   9  19  37  61  86 115 158 207 249 299 361
#     4  11  22  41  64  87 123 167 201 256 318 365
#
# _framework density 23.144458
#
# number of rings (size 3 to 8) (size 9 to 14) (size 15 to 20)
#    0.000    1.867    0.000    3.600    0.000    9.067 
#    0.000   18.667    0.000    6.400    0.000    0.000 
#    0.000    0.000    0.000    0.000    0.000    0.000 
#
# Total GULP energy -83772.215437 kJ/mol
# GULP energy per Si atom -5584.814362 kJ/mol
# Density = 2.309178 g / cm^3
# Si number density = 23.144458 Si / 1000 Ang^3
#
#
#
# Elastic Constant Matrix: (Units=GPa)
#
#
# Indices 1 2 3 4 5 6 
#
# 1 164.1501 26.8451 14.5485 0.0000 -19.9276 0.0000
# 2 26.8451 35.0148 18.9026 0.0000 -9.2940 0.0000
# 3 14.5485 18.9026 87.0458 0.0000 -7.3492 0.0000
# 4 0.0000 0.0000 0.0000 8.9436 0.0000 -6.4605
# 5 -19.9276 -9.2940 -7.3492 0.0000 46.8842 0.0000
# 6 0.0000 0.0000 0.0000 -6.4605 0.0000 31.1272
#
#
#
# Elastic Compliance Matrix: (Units=1/GPa)
#
#
# Indices 1 2 3 4 5 6 
#
# 1 0.007149 -0.004964 0.000057 0.000000 0.002064 0.000000
# 2 -0.004964 0.037198 -0.006895 0.000000 0.004183 0.000000
# 3 0.000057 -0.006895 0.013035 0.000000 0.000701 0.000000
# 4 0.000000 0.000000 0.000000 0.131532 0.000000 0.027299
# 5 0.002064 0.004183 0.000701 0.000000 0.023145 0.000000
# 6 0.000000 0.000000 0.000000 0.027299 0.000000 0.037792
#
#
# Mechanical properties :
#
#
# Convention : Reuss Voigt Hill
#
# Bulk Modulus (GPa) = 29.60466 45.20034 37.40250
# Shear Modulus (GPa) = 17.56143 32.45197 25.00670
#
# Velocity S-wave (km/s) = 2.75757 3.74859 3.29060
# Velocity P-wave (km/s) = 4.79145 6.18934 5.53471
#
# Compressibility (1/GPa) = 0.03377846
#
# Stress axis : x y z
#
# Youngs Moduli (GPa) = 139.87375 26.88317 76.71619
#
# Poissons Ratio (x) = 0.13346 -0.00440
# Poissons Ratio (y) = 0.69440 0.52895
# Poissons Ratio (z) = -0.00803 0.18536
#
# Static dielectric constant tensor:
#      x y z
#    x 1.918600 0.000000 -0.030870 
#    y 0.000000 1.842490 0.000000 
#    z -0.030870 0.000000 1.891440 
# 
# From -- ./inp_files/14439.got.cif
#   From: 2010.05.17/outbox.cif.g08.bks.cpg/sg3_8_cif.got.tgz:14439.got - 2010.06.03 18:33:08.
