data_PCOD9113560
_publ_section_title
;
Structure prediction by ZEFSAII (Michael W. Deem and Ramdas Pophale) SiO2 
 PCOD9113560
Probable space group: P 2
;
_chemical_formula_sum "Si O2"
_cell_formula_units_Z 10
_cell_length_a 13.341562
_cell_length_b 6.437470
_cell_length_c 13.678507
_cell_angle_alpha 90.000000
_cell_angle_beta 21.514608
_cell_angle_gamma 90.000000
_cell_volume 430.840992
_symmetry_space_group_name_H-M "P 2"
_symmetry_group_IT_number 3
_symmetry_cell_setting 'monoclinic'
loop_
_space_group_symop_operation_xyz
x,y,z
-x,y,-z
loop_
_atom_site_type_symbol
_atom_site_label
_atom_site_fract_x
_atom_site_fract_y
_atom_site_fract_z
Si Si1 0.580824 0.456040 0.628008
Si Si2 0.915987 0.057434 0.326592
Si Si3 0.214337 0.307645 0.214250
Si Si4 0.921234 0.689328 0.464652
Si Si5 0.979292 0.687649 0.902869
O O1 0.700868 0.519865 0.625877
O O2 0.276147 0.540095 0.892796
O O3 0.668915 0.216747 0.530482
O O4 0.759295 0.582363 0.385787
O O5 0.143135 0.183772 0.181028
O O6 0.838060 0.882949 0.475857
O O7 0.031170 0.920810 0.132680
O O8 0.000000 0.287697 0.500000
O O9 0.193029 0.550050 0.202184
O O10 0.500000 0.246334 0.000000
O O11 0.000000 0.768356 0.500000
O O12 0.000000 0.696757 0.000000
#
# Coordination Sequence:
#
# PCOD9113560 Si02
#       5
#     2   2   2   2   2
#     4  10  24  44  67  99 138 174 224 288 347 412
#     4  10  23  41  69  98 133 181 231 281 345 416
#     4  10  22  38  60  96 139 180 222 272 334 406
#     4   9  20  38  63  95 134 176 220 273 333 406
#     4  11  25  47  71  98 132 177 232 294 354 412
#
# _framework density 23.210418000000001
#
# number of rings (size 3 to 8) (size 9 to 14) (size 15 to 20)
#    0.000    2.000    0.000    1.200    0.000   24.800 
#    0.000    4.000    0.000    0.000    0.000    0.000 
#    0.000    0.000    0.000    0.000    0.000    0.000 
#
# Total GULP energy -55760.730213 kJ/mol
# GULP energy per Si atom -5576.073021 kJ/mol
# Density = 2.315759 g / cm^3
# Si number density = 23.210418 Si / 1000 Ang^3
#
#
#
# Elastic Constant Matrix: (Units=GPa)
#
#
# Indices 1 2 3 4 5 6 
#
# 1 154.5480 43.0847 33.6986 0.0000 21.3697 0.0000
# 2 43.0847 143.7267 9.2517 0.0000 7.5564 0.0000
# 3 33.6986 9.2517 101.9096 0.0000 10.8898 0.0000
# 4 0.0000 0.0000 0.0000 21.4502 0.0000 6.3524
# 5 21.3697 7.5564 10.8898 0.0000 30.1959 0.0000
# 6 0.0000 0.0000 0.0000 6.3524 0.0000 30.5296
#
#
#
# Elastic Compliance Matrix: (Units=1/GPa)
#
#
# Indices 1 2 3 4 5 6 
#
# 1 0.008106 -0.002064 -0.002013 0.000000 -0.004494 0.000000
# 2 -0.002064 0.007598 0.000041 0.000000 -0.000455 0.000000
# 3 -0.002013 0.000041 0.010737 0.000000 -0.002458 0.000000
# 4 0.000000 0.000000 0.000000 0.049681 0.000000 -0.010337
# 5 -0.004494 -0.000455 -0.002458 0.000000 0.037298 0.000000
# 6 0.000000 0.000000 0.000000 -0.010337 0.000000 0.034906
#
#
# Mechanical properties :
#
#
# Convention : Reuss Voigt Hill
#
# Bulk Modulus (GPa) = 54.43654 63.58382 59.01018
# Shear Modulus (GPa) = 30.76532 37.37843 34.07187
#
# Velocity S-wave (km/s) = 3.64469 4.01735 3.83555
# Velocity P-wave (km/s) = 6.41997 6.99806 6.71524
#
# Compressibility (1/GPa) = 0.01837002
#
# Stress axis : x y z
#
# Youngs Moduli (GPa) = 123.36142 131.61898 93.13487
#
# Poissons Ratio (x) = 0.27168 0.18747
# Poissons Ratio (y) = 0.25464 -0.00386
# Poissons Ratio (z) = 0.24831 -0.00546
#
# Static dielectric constant tensor:
#      x y z
#    x 1.906890 0.000000 0.023920 
#    y 0.000000 1.962700 0.000000 
#    z 0.023920 0.000000 1.970130 
# 
# From -- ./inp_files/13811.got.cif
#   From: 2010.05.17/outbox.cif.g08.bks.cpg/sg3_7_cif.got.tgz:13811.got - 2010.06.03 18:33:08.
