data_PCOD9113047
_publ_section_title
;
Structure prediction by ZEFSAII (Michael W. Deem and Ramdas Pophale) SiO2 
 PCOD9113047
Probable space group: P 2
;
_chemical_formula_sum "Si O2"
_cell_formula_units_Z 13
_cell_length_a 12.731479
_cell_length_b 8.945955
_cell_length_c 10.543743
_cell_angle_alpha 90.000000
_cell_angle_beta 33.733789
_cell_angle_gamma 90.000000
_cell_volume 666.891823
_symmetry_space_group_name_H-M "P 2"
_symmetry_group_IT_number 3
_symmetry_cell_setting 'monoclinic'
loop_
_space_group_symop_operation_xyz
x,y,z
-x,y,-z
loop_
_atom_site_type_symbol
_atom_site_label
_atom_site_fract_x
_atom_site_fract_y
_atom_site_fract_z
Si Si1 0.559586 0.818560 0.751196
Si Si2 0.505287 0.542422 0.630886
Si Si3 0.906482 0.551922 0.858195
Si Si4 0.187716 0.792046 0.254742
Si Si5 0.308622 0.005363 0.610926
Si Si6 0.144273 0.329090 0.740453
Si Si7 0.000000 0.770205 0.000000
O O1 0.570668 0.664346 0.664283
O O2 0.680647 0.783641 0.753970
O O3 0.640293 0.944437 0.579390
O O4 0.340282 0.858019 0.002273
O O5 0.500000 0.621924 0.500000
O O6 0.653262 0.410852 0.459458
O O7 0.299069 0.497884 0.886957
O O8 0.883370 0.643855 0.750234
O O9 0.980151 0.667763 0.893596
O O10 0.041834 0.407714 0.723404
O O11 0.000000 0.868756 0.500000
O O12 0.500000 0.031724 0.500000
O O13 0.188232 0.155256 0.709527
O O14 0.180082 0.878931 0.806523
O O15 0.000000 0.366810 0.000000
#
# Coordination Sequence:
#
# PCOD9113047 Si02
#       7
#     2   2   2   2   2   2   1
#     4  10  22  38  61  93 121 161 214 265 314 369
#     4  11  19  36  62  87 124 160 206 261 317 368
#     4  11  22  37  66  92 121 164 210 267 319 366
#     4  10  20  38  64  90 117 154 211 267 312 360
#     4  12  25  38  59  94 136 171 206 256 319 378
#     4  12  23  38  57  93 134 169 206 249 314 390
#     4  12  22  38  62  94 128 158 216 258 318 380
#
# _framework density 19.493416
#
# number of rings (size 3 to 8) (size 9 to 14) (size 15 to 20)
#    0.000    0.923    3.077    6.462    0.000    0.000 
#    0.000    0.000    0.000   23.077    0.000    0.000 
#    0.000    0.000    0.000    0.000    0.000    0.000 
#
# Total GULP energy -72477.058309 kJ/mol
# GULP energy per Si atom -5575.158331 kJ/mol
# Density = 1.944905 g / cm^3
# Si number density = 19.493416 Si / 1000 Ang^3
#
#
#
# Elastic Constant Matrix: (Units=GPa)
#
#
# Indices 1 2 3 4 5 6 
#
# 1 96.7166 32.7595 24.4659 0.0000 -0.0524 0.0000
# 2 32.7595 94.7775 35.8663 0.0000 -9.6363 0.0000
# 3 24.4659 35.8663 109.3652 0.0000 -13.5699 0.0000
# 4 0.0000 0.0000 0.0000 58.0175 0.0000 -47.5814
# 5 -0.0524 -9.6363 -13.5699 0.0000 34.6265 0.0000
# 6 0.0000 0.0000 0.0000 -47.5814 0.0000 56.6991
#
#
#
# Elastic Compliance Matrix: (Units=1/GPa)
#
#
# Indices 1 2 3 4 5 6 
#
# 1 0.012013 -0.003684 -0.001686 0.000000 -0.001668 0.000000
# 2 -0.003684 0.013295 -0.003235 0.000000 0.002427 0.000000
# 3 -0.001686 -0.003235 0.011005 0.000000 0.003410 0.000000
# 4 0.000000 0.000000 0.000000 0.055287 0.000000 0.046396
# 5 -0.001668 0.002427 0.003410 0.000000 0.030889 0.000000
# 6 0.000000 0.000000 0.000000 0.046396 0.000000 0.056572
#
#
# Mechanical properties :
#
#
# Convention : Reuss Voigt Hill
#
# Bulk Modulus (GPa) = 52.34736 54.11586 53.23161
# Shear Modulus (GPa) = 24.67456 43.71979 34.19717
#
# Velocity S-wave (km/s) = 3.56165 4.74096 4.19297
# Velocity P-wave (km/s) = 6.62012 7.60199 7.12798
#
# Compressibility (1/GPa) = 0.01910316
#
# Stress axis : x y z
#
# Youngs Moduli (GPa) = 83.24407 75.21511 90.86842
#
# Poissons Ratio (x) = 0.27707 0.15323
# Poissons Ratio (y) = 0.30664 0.29396
# Poissons Ratio (z) = 0.14037 0.24332
#
# Static dielectric constant tensor:
#      x y z
#    x 1.693550 0.000000 -0.018050 
#    y 0.000000 1.664520 0.000000 
#    z -0.018050 0.000000 1.738740 
# 
# From -- ./inp_files/12186.got.cif
#   From: 2010.05.17/outbox.cif.g08.bks.cpg/sg3_7_cif.got.tgz:12186.got - 2010.06.03 18:33:08.
