data_PCOD9113777
_publ_section_title
;
Structure prediction by ZEFSAII (Michael W. Deem and Ramdas Pophale) SiO2 
 PCOD9113777
Probable space group: P 2
;
_chemical_formula_sum "Si O2"
_cell_formula_units_Z 14
_cell_length_a 6.536328
_cell_length_b 6.643525
_cell_length_c 15.900865
_cell_angle_alpha 90.000000
_cell_angle_beta 68.785646
_cell_angle_gamma 90.000000
_cell_volume 643.691413
_symmetry_space_group_name_H-M "P 2"
_symmetry_group_IT_number 3
_symmetry_cell_setting 'monoclinic'
loop_
_space_group_symop_operation_xyz
x,y,z
-x,y,-z
loop_
_atom_site_type_symbol
_atom_site_label
_atom_site_fract_x
_atom_site_fract_y
_atom_site_fract_z
Si Si1 0.281889 0.847900 0.566991
Si Si2 0.000000 0.613239 0.000000
Si Si3 0.439362 0.995418 0.219649
Si Si4 0.000000 0.547406 0.500000
Si Si5 0.069286 0.152221 0.395388
Si Si6 0.428729 0.405385 0.862494
Si Si7 0.184123 0.683434 0.144199
Si Si8 0.298147 0.652215 0.734749
O O1 0.500000 0.951200 0.500000
O O2 0.351189 0.700117 0.631836
O O3 0.177652 0.697023 0.513745
O O4 0.118877 0.023281 0.624699
O O5 0.888713 0.733397 0.939981
O O6 0.197122 0.478923 0.933336
O O7 0.293465 0.080806 0.318963
O O8 0.536610 0.170645 0.148305
O O9 0.281213 0.863180 0.184397
O O10 0.631838 0.853250 0.225207
O O11 0.934395 0.392753 0.586051
O O12 0.000000 0.082473 0.500000
O O13 0.628405 0.513104 0.880927
O O14 0.428455 0.482268 0.765490
O O15 0.959976 0.609143 0.220588
#
# Coordination Sequence:
#
# PCOD9113777 Si02
#       8
#     2   1   2   1   2   2   2   2
#     4  12  24  41  64  91 135 183 226 277 332 382
#     4  10  22  48  66 104 134 170 222 268 346 410
#     4  11  23  43  68 100 135 181 220 277 341 382
#     4  10  26  40  62  96 126 188 220 286 318 386
#     4  10  23  41  63  93 140 175 229 278 322 390
#     4  10  24  43  72  95 134 170 219 280 331 407
#     4  10  22  44  69  96 133 178 212 275 332 403
#     4  10  24  39  65  96 129 175 222 273 327 398
#
# _framework density 21.749552999999999
#
# number of rings (size 3 to 8) (size 9 to 14) (size 15 to 20)
#    0.429    1.143    2.143    1.286    4.000    4.000 
#    0.000   17.143    0.000    0.000    0.000    0.000 
#    0.000    0.000    0.000    0.000    0.000    0.000 
#
# Total GULP energy -78047.247920 kJ/mol
# GULP energy per Si atom -5574.803423 kJ/mol
# Density = 2.170005 g / cm^3
# Si number density = 21.749553 Si / 1000 Ang^3
#
#
#
# Elastic Constant Matrix: (Units=GPa)
#
#
# Indices 1 2 3 4 5 6 
#
# 1 117.2928 32.9297 32.8043 0.0000 2.8501 0.0000
# 2 32.9297 76.3163 -0.4486 0.0000 -0.0942 0.0000
# 3 32.8043 -0.4486 66.9293 0.0000 6.8614 0.0000
# 4 0.0000 0.0000 0.0000 15.4703 0.0000 -10.7919
# 5 2.8501 -0.0942 6.8614 0.0000 45.2837 0.0000
# 6 0.0000 0.0000 0.0000 -10.7919 0.0000 8.1458
#
#
#
# Elastic Compliance Matrix: (Units=1/GPa)
#
#
# Indices 1 2 3 4 5 6 
#
# 1 0.011520 -0.005004 -0.005693 0.000000 0.000127 0.000000
# 2 -0.005004 0.015277 0.002559 0.000000 -0.000041 0.000000
# 3 -0.005693 0.002559 0.017991 0.000000 -0.002362 0.000000
# 4 0.000000 0.000000 0.000000 0.852737 0.000000 1.129742
# 5 0.000127 -0.000041 -0.002362 0.000000 0.022433 0.000000
# 6 0.000000 0.000000 0.000000 1.129742 0.000000 1.619494
#
#
# Mechanical properties :
#
#
# Convention : Reuss Voigt Hill
#
# Bulk Modulus (GPa) = 35.07186 43.45657 39.26422
# Shear Modulus (GPa) = 1.94914 26.79683 14.37299
#
# Velocity S-wave (km/s) = 0.94769 3.51388 2.57347
# Velocity P-wave (km/s) = 4.16627 6.04045 5.18868
#
# Compressibility (1/GPa) = 0.02851289
#
# Stress axis : x y z
#
# Youngs Moduli (GPa) = 86.80922 65.45591 55.58444
#
# Poissons Ratio (x) = 0.32753 0.31642
# Poissons Ratio (y) = 0.43438 -0.14225
# Poissons Ratio (z) = 0.49418 -0.16751
#
# Static dielectric constant tensor:
#      x y z
#    x 1.818170 0.000000 0.039970 
#    y 0.000000 1.767660 0.000000 
#    z 0.039970 0.000000 1.849220 
# 
# From -- ./inp_files/14581.got.cif
#   From: 2010.05.17/outbox.cif.g08.bks.cpg/sg3_8_cif.got.tgz:14581.got - 2010.06.03 18:33:08.
