data_PCOD9113205
_publ_section_title
;
Structure prediction by ZEFSAII (Michael W. Deem and Ramdas Pophale) SiO2 
 PCOD9113205
Probable space group: P 2
;
_chemical_formula_sum "Si O2"
_cell_formula_units_Z 16
_cell_length_a 9.112912
_cell_length_b 5.139070
_cell_length_c 15.883596
_cell_angle_alpha 90.000000
_cell_angle_beta 58.658383
_cell_angle_gamma 90.000000
_cell_volume 635.315908
_symmetry_space_group_name_H-M "P 2"
_symmetry_group_IT_number 3
_symmetry_cell_setting 'monoclinic'
loop_
_space_group_symop_operation_xyz
x,y,z
-x,y,-z
loop_
_atom_site_type_symbol
_atom_site_label
_atom_site_fract_x
_atom_site_fract_y
_atom_site_fract_z
Si Si1 0.395123 0.343000 0.646683
Si Si2 0.174936 0.196019 0.998732
Si Si3 0.338086 0.832189 0.223418
Si Si4 0.288440 0.701789 0.881193
Si Si5 0.198118 0.853497 0.741229
Si Si6 0.666696 0.332641 0.889418
Si Si7 0.971929 0.803046 0.387472
Si Si8 0.238169 0.291185 0.509096
O O1 0.342245 0.642883 0.670422
O O2 0.332910 0.269241 0.571386
O O3 0.597733 0.306518 0.601109
O O4 0.277856 0.139361 0.732741
O O5 0.287039 0.414828 0.917878
O O6 0.251207 0.909284 0.965077
O O7 0.173081 0.272444 0.096786
O O8 0.000000 0.206472 0.000000
O O9 0.522603 0.772429 0.208062
O O10 0.322826 0.615863 0.154197
O O11 0.176210 0.798538 0.332285
O O12 0.336748 0.116257 0.182010
O O13 0.150430 0.746983 0.847927
O O14 0.067493 0.841886 0.701918
O O15 0.500000 0.306774 0.000000
O O16 0.881017 0.543498 0.447724
O O17 0.880869 0.041482 0.460754
#
# Coordination Sequence:
#
# PCOD9113205 Si02
#       8
#     2   2   2   2   2   2   2   2
#     4   9  17  33  56  84 113 153 185 236 288 335
#     4  12  27  41  63  88 115 152 195 247 294 338
#     4  12  24  40  63  85 118 158 193 240 289 345
#     4  12  24  43  59  86 122 156 190 238 295 353
#     4  10  21  34  56  85 116 148 192 234 290 341
#     4  12  23  43  63  84 113 154 203 237 282 352
#     4  10  21  34  56  88 112 149 191 240 284 333
#     4   9  17  33  56  84 117 143 193 239 280 334
#
# _framework density 25.184322999999999
#
# number of rings (size 3 to 8) (size 9 to 14) (size 15 to 20)
#    0.000    1.250    2.500    3.750    3.500    3.000 
#    0.000    0.000    0.000    4.500    0.000    0.000 
#    0.000    0.000    0.000    0.000    0.000    0.000 
#
# Total GULP energy -89585.093635 kJ/mol
# GULP energy per Si atom -5599.068352 kJ/mol
# Density = 2.512700 g / cm^3
# Si number density = 25.184323 Si / 1000 Ang^3
#
#
#
# Elastic Constant Matrix: (Units=GPa)
#
#
# Indices 1 2 3 4 5 6 
#
# 1 107.5598 10.1755 18.0530 0.0000 -4.3760 0.0000
# 2 10.1755 115.2902 23.3102 0.0000 -19.7923 0.0000
# 3 18.0530 23.3102 42.9889 0.0000 -14.2066 0.0000
# 4 0.0000 0.0000 0.0000 14.1214 0.0000 1.9491
# 5 -4.3760 -19.7923 -14.2066 0.0000 54.5439 0.0000
# 6 0.0000 0.0000 0.0000 1.9491 0.0000 36.3017
#
#
#
# Elastic Compliance Matrix: (Units=1/GPa)
#
#
# Indices 1 2 3 4 5 6 
#
# 1 0.010008 -0.000077 -0.004272 0.000000 -0.000338 0.000000
# 2 -0.000077 0.010029 -0.004601 0.000000 0.002435 0.000000
# 3 -0.004272 -0.004601 0.029418 0.000000 0.005650 0.000000
# 4 0.000000 0.000000 0.000000 0.071343 0.000000 -0.003831
# 5 -0.000338 0.002435 0.005650 0.000000 0.020662 0.000000
# 6 0.000000 0.000000 0.000000 -0.003831 0.000000 0.027753
#
#
# Mechanical properties :
#
#
# Convention : Reuss Voigt Hill
#
# Bulk Modulus (GPa) = 31.69278 40.99070 36.34174
# Shear Modulus (GPa) = 25.29966 35.28009 30.28988
#
# Velocity S-wave (km/s) = 3.17295 3.74689 3.47180
# Velocity P-wave (km/s) = 5.10246 5.91866 5.52565
#
# Compressibility (1/GPa) = 0.03155293
#
# Stress axis : x y z
#
# Youngs Moduli (GPa) = 99.92175 99.71297 33.99288
#
# Poissons Ratio (x) = 0.00773 0.14523
# Poissons Ratio (y) = 0.00774 0.15640
# Poissons Ratio (z) = 0.42691 0.45877
#
# Static dielectric constant tensor:
#      x y z
#    x 2.014930 0.000000 -0.010990 
#    y 0.000000 1.931320 0.000000 
#    z -0.010990 0.000000 2.041520 
# 
# From -- ./inp_files/14848.got.cif
#   From: 2010.05.17/outbox.cif.g08.bks.cpg/sg3_8_cif.got.tgz:14848.got - 2010.06.03 18:33:08.
