data_PCOD9113999
_publ_section_title
;
Structure prediction by ZEFSAII (Michael W. Deem and Ramdas Pophale) SiO2 
 PCOD9113999
Probable space group: P 2
;
_chemical_formula_sum "Si O2"
_cell_formula_units_Z 14
_cell_length_a 15.537287
_cell_length_b 5.007033
_cell_length_c 21.582229
_cell_angle_alpha 90.000000
_cell_angle_beta 160.198956
_cell_angle_gamma 90.000000
_cell_volume 568.771379
_symmetry_space_group_name_H-M "P 2"
_symmetry_group_IT_number 3
_symmetry_cell_setting 'monoclinic'
loop_
_space_group_symop_operation_xyz
x,y,z
-x,y,-z
loop_
_atom_site_type_symbol
_atom_site_label
_atom_site_fract_x
_atom_site_fract_y
_atom_site_fract_z
Si Si1 0.215381 0.187780 0.787193
Si Si2 0.112135 0.033352 0.318667
Si Si3 0.772868 0.960231 0.970874
Si Si4 0.500000 0.379009 0.500000
Si Si5 0.518544 0.430430 0.753491
Si Si6 0.000000 0.011569 0.000000
Si Si7 0.024231 0.674306 0.589726
Si Si8 0.548592 0.641862 0.650189
O O1 0.218112 0.467011 0.752771
O O2 0.032432 0.182038 0.723649
O O3 0.098988 0.965681 0.663182
O O4 0.500000 0.116314 0.000000
O O5 0.315374 0.209995 0.418316
O O6 0.277107 0.784981 0.456624
O O7 0.905230 0.959737 0.126632
O O8 0.531463 0.158758 0.801394
O O9 0.940326 0.108271 0.029890
O O10 0.703931 0.656968 0.907167
O O11 0.643358 0.563499 0.646373
O O12 0.246878 0.570470 0.570888
O O13 0.558618 0.399695 0.706253
O O14 0.748908 0.840676 0.815746
O O15 0.000000 0.661118 0.500000
#
# Coordination Sequence:
#
# PCOD9113999 Si02
#       8
#     2   2   2   1   2   1   2   2
#     4  12  29  52  80 120 159 205 260 328 392 468
#     4  12  28  47  75 112 159 205 260 320 398 460
#     4  11  27  42  72 104 147 197 252 316 370 461
#     4  12  26  42  76 106 152 208 256 314 390 470
#     4  11  26  46  73 104 147 195 256 317 381 450
#     4  10  24  44  66 104 144 194 264 306 372 450
#     4  12  27  51  83 110 152 204 262 325 394 465
#     4  11  25  46  69 105 152 201 259 309 391 453
#
# _framework density 24.614457999999999
#
# number of rings (size 3 to 8) (size 9 to 14) (size 15 to 20)
#    0.000    0.571    1.429    4.714   18.000    0.571 
#    0.000    0.000    0.000    0.000    0.000    0.000 
#    0.000    0.000    0.000    0.000    0.000    0.000 
#
# Total GULP energy -78340.301407 kJ/mol
# GULP energy per Si atom -5595.735815 kJ/mol
# Density = 2.455843 g / cm^3
# Si number density = 24.614458 Si / 1000 Ang^3
#
#
#
# Elastic Constant Matrix: (Units=GPa)
#
#
# Indices 1 2 3 4 5 6 
#
# 1 139.6486 29.2991 28.6214 0.0000 -34.3298 0.0000
# 2 29.2991 87.4324 21.0391 0.0000 -18.2328 0.0000
# 3 28.6214 21.0391 105.5030 0.0000 -31.2192 0.0000
# 4 0.0000 0.0000 0.0000 13.8436 0.0000 -2.4614
# 5 -34.3298 -18.2328 -31.2192 0.0000 50.0698 0.0000
# 6 0.0000 0.0000 0.0000 -2.4614 0.0000 20.5657
#
#
#
# Elastic Compliance Matrix: (Units=1/GPa)
#
#
# Indices 1 2 3 4 5 6 
#
# 1 0.008905 -0.001786 -0.000546 0.000000 0.005115 0.000000
# 2 -0.001786 0.012904 -0.001301 0.000000 0.002664 0.000000
# 3 -0.000546 -0.001301 0.011815 0.000000 0.006519 0.000000
# 4 0.000000 0.000000 0.000000 0.073806 0.000000 0.008833
# 5 0.005115 0.002664 0.006519 0.000000 0.028513 0.000000
# 6 0.000000 0.000000 0.000000 0.008833 0.000000 0.049682
#
#
# Mechanical properties :
#
#
# Convention : Reuss Voigt Hill
#
# Bulk Modulus (GPa) = 37.93869 54.50035 46.21952
# Shear Modulus (GPa) = 24.79210 33.80412 29.29811
#
# Velocity S-wave (km/s) = 3.17711 3.70989 3.45379
# Velocity P-wave (km/s) = 5.37637 6.36716 5.89262
#
# Compressibility (1/GPa) = 0.02635831
#
# Stress axis : x y z
#
# Youngs Moduli (GPa) = 112.29894 77.49332 84.63923
#
# Poissons Ratio (x) = 0.13841 0.04622
# Poissons Ratio (y) = 0.20057 0.11009
# Poissons Ratio (z) = 0.06133 0.10079
#
# Static dielectric constant tensor:
#      x y z
#    x 2.124500 0.000000 0.053230 
#    y 0.000000 2.004830 0.000000 
#    z 0.053230 0.000000 2.053350 
# 
# From -- ./inp_files/16049.got.cif
#   From: 2010.05.17/outbox.cif.g08.bks.cpg/sg3_9_cif.got.tgz:16049.got - 2010.06.03 18:33:08.
