data_PCOD9113896
_publ_section_title
;
Structure prediction by ZEFSAII (Michael W. Deem and Ramdas Pophale) SiO2 
 PCOD9113896
Probable space group: P 2
;
_chemical_formula_sum "Si O2"
_cell_formula_units_Z 13
_cell_length_a 18.513109
_cell_length_b 5.333340
_cell_length_c 5.088172
_cell_angle_alpha 90.000000
_cell_angle_beta 80.823409
_cell_angle_gamma 90.000000
_cell_volume 495.959509
_symmetry_space_group_name_H-M "P 2"
_symmetry_group_IT_number 3
_symmetry_cell_setting 'monoclinic'
loop_
_space_group_symop_operation_xyz
x,y,z
-x,y,-z
loop_
_atom_site_type_symbol
_atom_site_label
_atom_site_fract_x
_atom_site_fract_y
_atom_site_fract_z
Si Si1 0.647720 0.843830 0.600398
Si Si2 0.144340 0.669651 0.962422
Si Si3 0.500000 0.856305 0.500000
Si Si4 0.083363 0.419450 0.473912
Si Si5 0.571521 0.467207 0.042789
Si Si6 0.289783 0.458751 0.818634
Si Si7 0.206473 0.074862 0.518026
O O1 0.572762 0.993529 0.571183
O O2 0.676405 0.711617 0.319181
O O3 0.724875 0.943806 0.667977
O O4 0.615028 0.624355 0.799078
O O5 0.103204 0.514401 0.755590
O O6 0.219342 0.537934 0.020785
O O7 0.171577 0.911904 0.779170
O O8 0.096100 0.641657 0.252670
O O9 0.533418 0.668583 0.260412
O O10 0.139263 0.188320 0.394913
O O11 0.000000 0.337140 0.500000
O O12 0.639657 0.313470 0.116808
O O13 0.500000 0.314552 0.000000
O O14 0.252191 0.303209 0.612422
#
# Coordination Sequence:
#
# PCOD9113896 Si02
#       7
#     2   2   1   2   2   2   2
#     4   9  18  37  60  94 131 182 230 288 347 409
#     4  10  24  44  72 103 142 187 236 290 363 430
#     4   8  16  34  56  88 136 180 222 278 346 406
#     4  11  25  49  74 107 146 187 234 302 362 441
#     4   9  17  33  63  90 132 182 222 284 348 403
#     4   9  20  37  60  94 132 172 230 290 343 415
#     4  10  23  43  71 104 136 187 238 291 359 433
#
# _framework density 26.211818000000001
#
# number of rings (size 3 to 8) (size 9 to 14) (size 15 to 20)
#    0.000    2.462    0.000    0.462    6.462    3.077 
#   11.077    7.692    0.000   12.000    0.000    0.000 
#    0.000    0.000    0.000    0.000    0.000    0.000 
#
# Total GULP energy -72457.205953 kJ/mol
# GULP energy per Si atom -5573.631227 kJ/mol
# Density = 2.615216 g / cm^3
# Si number density = 26.211818 Si / 1000 Ang^3
#
#
#
# Elastic Constant Matrix: (Units=GPa)
#
#
# Indices 1 2 3 4 5 6 
#
# 1 282.6654 54.9565 45.1285 0.0000 1.4084 0.0000
# 2 54.9565 54.2646 12.8153 0.0000 -2.6344 0.0000
# 3 45.1285 12.8153 87.2720 0.0000 -10.6245 0.0000
# 4 0.0000 0.0000 0.0000 -165.1295 0.0000 -18.3098
# 5 1.4084 -2.6344 -10.6245 0.0000 33.9518 0.0000
# 6 0.0000 0.0000 0.0000 -18.3098 0.0000 28.3418
#
#
#
# Elastic Compliance Matrix: (Units=1/GPa)
#
#
# Indices 1 2 3 4 5 6 
#
# 1 0.004699 -0.004358 -0.001928 0.000000 -0.001136 0.000000
# 2 -0.004358 0.023146 -0.000940 0.000000 0.001683 0.000000
# 3 -0.001928 -0.000940 0.013093 0.000000 0.004104 0.000000
# 4 0.000000 0.000000 0.000000 -0.005651 0.000000 -0.003651
# 5 -0.001136 0.001683 0.004104 0.000000 0.030916 0.000000
# 6 0.000000 0.000000 0.000000 -0.003651 0.000000 0.032925
#
#
# Mechanical properties :
#
#
# Convention : Reuss Voigt Hill
#
# Bulk Modulus (GPa) = 37.75812 72.22251 54.99031
# Shear Modulus (GPa) = 40.84681 0.18626 20.51654
#
# Velocity S-wave (km/s) = 3.95186 0.26686 2.80075
# Velocity P-wave (km/s) = 5.93794 5.26386 5.61103
#
# Compressibility (1/GPa) = 0.02648437
#
# Stress axis : x y z
#
# Youngs Moduli (GPa) = 212.82986 43.20422 76.37593
#
# Poissons Ratio (x) = 0.18830 0.14725
# Poissons Ratio (y) = 0.92759 0.07181
# Poissons Ratio (z) = 0.41034 0.04062
#
# Static dielectric constant tensor:
#      x y z
#    x 2.292030 0.000000 0.105060 
#    y 0.000000 2.196310 0.000000 
#    z 0.105060 0.000000 2.222730 
# 
# From -- ./inp_files/3446.got.cif
#   From: 2010.05.17/outbox.cif.g08.bks.cpg/sg3_2_cif.got.tgz:3446.got - 2010.06.03 18:33:08.
