data_PCOD9113417
_publ_section_title
;
Structure prediction by ZEFSAII (Michael W. Deem and Ramdas Pophale) SiO2 
 PCOD9113417
Probable space group: P 2
;
_chemical_formula_sum "Si O2"
_cell_formula_units_Z 15
_cell_length_a 16.138653
_cell_length_b 10.020484
_cell_length_c 8.460336
_cell_angle_alpha 90.000000
_cell_angle_beta 150.011662
_cell_angle_gamma 90.000000
_cell_volume 683.849376
_symmetry_space_group_name_H-M "P 2"
_symmetry_group_IT_number 3
_symmetry_cell_setting 'monoclinic'
loop_
_space_group_symop_operation_xyz
x,y,z
-x,y,-z
loop_
_atom_site_type_symbol
_atom_site_label
_atom_site_fract_x
_atom_site_fract_y
_atom_site_fract_z
Si Si1 0.350567 0.526560 0.630931
Si Si2 0.707191 0.930362 0.490190
Si Si3 0.957118 0.185737 0.197988
Si Si4 0.744064 0.221210 0.528051
Si Si5 0.851994 0.641027 0.436046
Si Si6 0.985278 0.893632 0.221312
Si Si7 0.482029 0.727276 0.286340
Si Si8 0.000000 0.398846 0.500000
O O1 0.329065 0.368389 0.582478
O O2 0.201022 0.604916 0.470686
O O3 0.404120 0.596617 0.557618
O O4 0.500000 0.549501 0.000000
O O5 0.827187 0.906293 0.538947
O O6 0.557463 0.835778 0.289872
O O7 0.644121 0.082685 0.371703
O O8 0.843220 0.901082 0.853399
O O9 0.898878 0.296366 0.224140
O O10 0.143600 0.214787 0.444414
O O11 0.855938 0.201877 0.869302
O O12 0.950289 0.034264 0.248852
O O13 0.001817 0.747763 0.682173
O O14 0.898904 0.498156 0.442791
O O15 0.701555 0.695857 0.079993
O O16 0.500000 0.766831 0.500000
#
# Coordination Sequence:
#
# PCOD9113417 Si02
#       8
#     2   2   2   2   2   2   2   1
#     4  10  21  41  61  86 122 163 206 250 305 374
#     4   9  19  39  67  90 119 154 215 248 311 367
#     4   9  20  37  63  89 126 147 204 256 312 353
#     4   9  18  40  64  88 111 165 201 249 303 379
#     4  11  24  40  62  93 127 164 209 248 318 365
#     4   9  19  40  66  94 113 163 206 259 301 376
#     4  11  25  42  59  90 127 163 202 266 303 365
#     4  12  24  38  58 100 124 160 206 260 304 372
#
# _framework density 21.934653999999998
#
# number of rings (size 3 to 8) (size 9 to 14) (size 15 to 20)
#    0.000    2.133    2.667    1.600    3.733    0.533 
#    7.200    0.667    0.000    0.000    0.000    0.000 
#    0.000    0.000    0.000    0.000    0.000    0.000 
#
# Total GULP energy -83601.418794 kJ/mol
# GULP energy per Si atom -5573.427920 kJ/mol
# Density = 2.188473 g / cm^3
# Si number density = 21.934654 Si / 1000 Ang^3
#
#
#
# Elastic Constant Matrix: (Units=GPa)
#
#
# Indices 1 2 3 4 5 6 
#
# 1 41.3829 12.8890 7.4207 0.0000 -6.8969 0.0000
# 2 12.8890 168.5651 17.8030 0.0000 4.6406 0.0000
# 3 7.4207 17.8030 41.7366 0.0000 -7.9075 0.0000
# 4 0.0000 0.0000 0.0000 30.3130 0.0000 -17.6934
# 5 -6.8969 4.6406 -7.9075 0.0000 23.4459 0.0000
# 6 0.0000 0.0000 0.0000 -17.6934 0.0000 55.5584
#
#
#
# Elastic Compliance Matrix: (Units=1/GPa)
#
#
# Indices 1 2 3 4 5 6 
#
# 1 0.026441 -0.001962 -0.002475 0.000000 0.007332 0.000000
# 2 -0.001962 0.006473 -0.002953 0.000000 -0.002854 0.000000
# 3 -0.002475 -0.002953 0.027382 0.000000 0.009091 0.000000
# 4 0.000000 0.000000 0.000000 0.040521 0.000000 0.012905
# 5 0.007332 -0.002854 0.009091 0.000000 0.048439 0.000000
# 6 0.000000 0.000000 0.000000 0.012905 0.000000 0.022109
#
#
# Mechanical properties :
#
#
# Convention : Reuss Voigt Hill
#
# Bulk Modulus (GPa) = 21.97048 36.43444 29.20246
# Shear Modulus (GPa) = 24.83626 36.10158 30.46892
#
# Velocity S-wave (km/s) = 3.36859 4.06133 3.73108
# Velocity P-wave (km/s) = 5.01677 6.21603 5.64832
#
# Compressibility (1/GPa) = 0.04551562
#
# Stress axis : x y z
#
# Youngs Moduli (GPa) = 37.81936 154.48970 36.52038
#
# Poissons Ratio (x) = 0.30314 0.09039
# Poissons Ratio (y) = 0.07421 0.10784
# Poissons Ratio (z) = 0.09361 0.45620
#
# Static dielectric constant tensor:
#      x y z
#    x 1.878290 0.000000 0.003890 
#    y 0.000000 1.835900 0.000000 
#    z 0.003890 0.000000 1.789580 
# 
# From -- ./inp_files/7143.got.cif
#   From: 2010.05.17/outbox.cif.g08.bks.cpg/sg3_4_cif.got.tgz:7143.got - 2010.06.03 18:33:08.
