data_PCOD9113626
_publ_section_title
;
Structure prediction by ZEFSAII (Michael W. Deem and Ramdas Pophale) SiO2 
 PCOD9113626
Probable space group: P 2
;
_chemical_formula_sum "Si O2"
_cell_formula_units_Z 16
_cell_length_a 11.490420
_cell_length_b 5.157863
_cell_length_c 10.700704
_cell_angle_alpha 90.000000
_cell_angle_beta 107.553817
_cell_angle_gamma 90.000000
_cell_volume 604.656505
_symmetry_space_group_name_H-M "P 2"
_symmetry_group_IT_number 3
_symmetry_cell_setting 'monoclinic'
loop_
_space_group_symop_operation_xyz
x,y,z
-x,y,-z
loop_
_atom_site_type_symbol
_atom_site_label
_atom_site_fract_x
_atom_site_fract_y
_atom_site_fract_z
Si Si1 0.787344 0.422120 0.255326
Si Si2 0.809219 0.582166 0.641276
Si Si3 0.511142 0.555077 0.221043
Si Si4 0.139220 0.924730 0.568136
Si Si5 0.603763 0.243742 0.603460
Si Si6 0.993716 0.336741 0.138230
Si Si7 0.206321 0.949373 0.156477
Si Si8 0.413397 0.054064 0.086871
O O1 0.645427 0.499395 0.211769
O O2 0.850624 0.668026 0.343413
O O3 0.856718 0.358909 0.147345
O O4 0.798277 0.161745 0.341745
O O5 0.814903 0.827067 0.552256
O O6 0.703540 0.400676 0.556216
O O7 0.934829 0.440315 0.714272
O O8 0.783137 0.674047 0.774723
O O9 0.480724 0.446005 0.348118
O O10 0.425666 0.360997 0.112395
O O11 0.478875 0.856381 0.205618
O O12 0.000000 0.000378 0.500000
O O13 0.500000 0.078923 0.500000
O O14 0.696453 0.113648 0.730646
O O15 0.073280 0.073819 0.135149
O O16 0.000000 0.465017 0.000000
O O17 0.271984 0.963073 0.043961
O O18 0.500000 0.994069 0.000000
#
# Coordination Sequence:
#
# PCOD9113626 Si02
#       8
#     2   2   2   2   2   2   2   2
#     4  12  27  47  70 109 144 191 244 304 373 446
#     4  11  23  44  71 102 141 191 239 302 371 441
#     4  11  24  44  66 105 140 176 237 294 358 437
#     4  12  25  44  74 102 146 187 239 302 371 444
#     4  10  22  40  66 101 138 181 230 294 361 439
#     4  11  27  47  72 105 145 198 253 308 369 446
#     4  10  24  44  69 101 140 187 243 297 368 441
#     4  11  24  45  72  99 137 189 236 296 362 429
#
# _framework density 26.461303000000001
#
# number of rings (size 3 to 8) (size 9 to 14) (size 15 to 20)
#    0.000    1.000    2.500    3.000    7.000    2.000 
#    0.000    0.000    0.000    0.000    0.000    0.000 
#    0.000    0.000    0.000    0.000    0.000    0.000 
#
# Total GULP energy -89294.204044 kJ/mol
# GULP energy per Si atom -5580.887753 kJ/mol
# Density = 2.640108 g / cm^3
# Si number density = 26.461303 Si / 1000 Ang^3
#
#
#
# Elastic Constant Matrix: (Units=GPa)
#
#
# Indices 1 2 3 4 5 6 
#
# 1 135.6800 26.1622 30.0708 0.0000 -31.0349 0.0000
# 2 26.1622 102.0105 27.9021 0.0000 4.0898 0.0000
# 3 30.0708 27.9021 82.7975 0.0000 -12.1578 0.0000
# 4 0.0000 0.0000 0.0000 26.6447 0.0000 23.8624
# 5 -31.0349 4.0898 -12.1578 0.0000 58.6556 0.0000
# 6 0.0000 0.0000 0.0000 23.8624 0.0000 -14.3901
#
#
#
# Elastic Compliance Matrix: (Units=1/GPa)
#
#
# Indices 1 2 3 4 5 6 
#
# 1 0.009261 -0.002012 -0.002006 0.000000 0.004624 0.000000
# 2 -0.002012 0.011374 -0.003481 0.000000 -0.002579 0.000000
# 3 -0.002006 -0.003481 0.014294 0.000000 0.002144 0.000000
# 4 0.000000 0.000000 0.000000 0.015102 0.000000 0.025044
# 5 0.004624 -0.002579 0.002144 0.000000 0.020120 0.000000
# 6 0.000000 0.000000 0.000000 0.025044 0.000000 -0.027964
#
#
# Mechanical properties :
#
#
# Convention : Reuss Voigt Hill
#
# Bulk Modulus (GPa) = 50.17343 54.30647 52.23995
# Shear Modulus (GPa) = 78.33352 29.93890 54.13621
#
# Velocity S-wave (km/s) = 5.44677 3.36731 4.52803
# Velocity P-wave (km/s) = 7.65236 5.97377 6.86457
#
# Compressibility (1/GPa) = 0.01993087
#
# Stress axis : x y z
#
# Youngs Moduli (GPa) = 107.98479 87.91669 69.95793
#
# Poissons Ratio (x) = 0.17685 0.14036
# Poissons Ratio (y) = 0.21722 0.24354
# Poissons Ratio (z) = 0.21666 0.30605
#
# Static dielectric constant tensor:
#      x y z
#    x 2.450580 0.000000 -0.613430 
#    y 0.000000 2.046790 0.000000 
#    z -0.613430 0.000000 3.744960 
# 
# From -- ./inp_files/11231.got.cif
#   From: 2010.05.17/outbox.cif.g08.bks.cpg/sg3_6_cif.got.tgz:11231.got - 2010.06.03 18:33:08.
