data_PCOD9113552
_publ_section_title
;
Structure prediction by ZEFSAII (Michael W. Deem and Ramdas Pophale) SiO2 
 PCOD9113552
Probable space group: P 2
;
_chemical_formula_sum "Si O2"
_cell_formula_units_Z 16
_cell_length_a 10.647584
_cell_length_b 13.298375
_cell_length_c 8.192479
_cell_angle_alpha 90.000000
_cell_angle_beta 137.246525
_cell_angle_gamma 90.000000
_cell_volume 787.473215
_symmetry_space_group_name_H-M "P 2"
_symmetry_group_IT_number 3
_symmetry_cell_setting 'monoclinic'
loop_
_space_group_symop_operation_xyz
x,y,z
-x,y,-z
loop_
_atom_site_type_symbol
_atom_site_label
_atom_site_fract_x
_atom_site_fract_y
_atom_site_fract_z
Si Si1 0.137674 0.402280 0.328221
Si Si2 0.885549 0.899274 0.658077
Si Si3 0.765790 0.804618 0.878147
Si Si4 0.298381 0.608797 0.377812
Si Si5 0.589461 0.769217 0.256112
Si Si6 0.938448 0.130501 0.630415
Si Si7 0.410745 0.267963 0.738295
Si Si8 0.802863 0.290799 0.954620
O O1 0.175389 0.513262 0.301059
O O2 0.281032 0.367153 0.602774
O O3 0.924798 0.376527 0.165011
O O4 0.184097 0.327735 0.219609
O O5 0.791796 0.876101 0.745274
O O6 0.747374 0.853167 0.393759
O O7 0.928076 0.014889 0.671102
O O8 0.072446 0.834688 0.845328
O O9 0.780615 0.690550 0.825271
O O10 0.569916 0.812162 0.777530
O O11 0.500000 0.576636 0.500000
O O12 0.330447 0.673286 0.572400
O O13 0.500000 0.742656 0.000000
O O14 0.733989 0.179791 0.443975
O O15 0.000000 0.140501 0.500000
O O16 0.085979 0.190586 0.884027
O O17 0.500000 0.251674 0.000000
O O18 0.589443 0.280399 0.795084
#
# Coordination Sequence:
#
# PCOD9113552 Si02
#       8
#     2   2   2   2   2   2   2   2
#     4  10  22  37  65  93 119 164 213 256 306 377
#     4  10  22  38  63  86 118 168 213 255 311 368
#     4   9  21  41  61  90 126 161 207 268 303 362
#     4   9  18  39  63  89 126 165 211 255 310 367
#     4  10  22  38  62  92 132 166 202 257 312 368
#     4  11  24  40  61  90 123 163 215 267 323 383
#     4  11  22  40  63  86 128 165 199 261 324 368
#     4  10  22  41  60  90 123 157 209 263 313 369
#
# _framework density 20.318151
#
# number of rings (size 3 to 8) (size 9 to 14) (size 15 to 20)
#    0.000    2.000    1.250    2.250    1.750   10.000 
#    0.000    3.750    0.000    4.500    0.000    0.000 
#    0.000    0.000    0.000    0.000    0.000    0.000 
#
# Total GULP energy -89287.540000 kJ/mol
# GULP energy per Si atom -5580.471250 kJ/mol
# Density = 2.027191 g / cm^3
# Si number density = 20.318151 Si / 1000 Ang^3
#
#
#
# Elastic Constant Matrix: (Units=GPa)
#
#
# Indices 1 2 3 4 5 6 
#
# 1 61.9911 28.5593 21.2459 0.0000 21.3445 0.0000
# 2 28.5593 134.8006 50.4742 0.0000 16.2652 0.0000
# 3 21.2459 50.4742 106.8393 0.0000 24.4182 0.0000
# 4 0.0000 0.0000 0.0000 10.3835 0.0000 2.0404
# 5 21.3445 16.2652 24.4182 0.0000 35.7627 0.0000
# 6 0.0000 0.0000 0.0000 2.0404 0.0000 11.7491
#
#
#
# Elastic Compliance Matrix: (Units=1/GPa)
#
#
# Indices 1 2 3 4 5 6 
#
# 1 0.021527 -0.003113 -0.000234 0.000000 -0.011273 0.000000
# 2 -0.003113 0.009523 -0.003928 0.000000 0.000208 0.000000
# 3 -0.000234 -0.003928 0.012823 0.000000 -0.006829 0.000000
# 4 0.000000 0.000000 0.000000 0.099710 0.000000 -0.017316
# 5 -0.011273 0.000208 -0.006829 0.000000 0.039258 0.000000
# 6 0.000000 0.000000 0.000000 -0.017316 0.000000 0.088120
#
#
# Mechanical properties :
#
#
# Convention : Reuss Voigt Hill
#
# Bulk Modulus (GPa) = 34.10169 56.02109 45.06139
# Shear Modulus (GPa) = 16.93280 25.13583 21.03432
#
# Velocity S-wave (km/s) = 2.88997 3.52108 3.22102
# Velocity P-wave (km/s) = 5.28736 6.64548 6.00494
#
# Compressibility (1/GPa) = 0.02932406
#
# Stress axis : x y z
#
# Youngs Moduli (GPa) = 46.45328 105.00388 77.98627
#
# Poissons Ratio (x) = 0.32689 0.01823
# Poissons Ratio (y) = 0.14461 0.30631
# Poissons Ratio (z) = 0.01086 0.41243
#
# Static dielectric constant tensor:
#      x y z
#    x 1.784940 0.000000 0.000930 
#    y 0.000000 1.702370 0.000000 
#    z 0.000930 0.000000 1.786430 
# 
# From -- ./inp_files/7777.got.cif
#   From: 2010.05.17/outbox.cif.g08.bks.cpg/sg3_4_cif.got.tgz:7777.got - 2010.06.03 18:33:08.
