data_PCOD9113548
_publ_section_title
;
Structure prediction by ZEFSAII (Michael W. Deem and Ramdas Pophale) SiO2 
 PCOD9113548
Probable space group: P 2
;
_chemical_formula_sum "Si O2"
_cell_formula_units_Z 10
_cell_length_a 11.722004
_cell_length_b 6.768946
_cell_length_c 16.277176
_cell_angle_alpha 90.000000
_cell_angle_beta 158.928635
_cell_angle_gamma 90.000000
_cell_volume 464.341723
_symmetry_space_group_name_H-M "P 2"
_symmetry_group_IT_number 3
_symmetry_cell_setting 'monoclinic'
loop_
_space_group_symop_operation_xyz
x,y,z
-x,y,-z
loop_
_atom_site_type_symbol
_atom_site_label
_atom_site_fract_x
_atom_site_fract_y
_atom_site_fract_z
Si Si1 0.837377 0.718710 0.224877
Si Si2 0.484128 0.908386 0.848722
Si Si3 0.673257 0.974742 0.702286
Si Si4 0.532010 0.632401 0.720388
Si Si5 0.349848 0.194546 0.159081
O O1 0.803912 0.849116 0.285132
O O2 0.164775 0.606107 0.445605
O O3 0.500000 0.599722 0.000000
O O4 0.783454 0.860075 0.109964
O O5 0.520984 0.764852 0.795343
O O6 0.470352 0.126504 0.801998
O O7 0.500000 0.973031 0.500000
O O8 0.009213 0.086130 0.920300
O O9 0.498174 0.097308 0.657029
O O10 0.692294 0.755776 0.754173
O O11 0.677776 0.424190 0.842737
#
# Coordination Sequence:
#
# PCOD9113548 Si02
#       5
#     2   2   2   2   2
#     4   8  19  37  65  88 121 168 199 244 310 362
#     4   8  19  38  59  87 128 153 207 249 307 359
#     4  10  23  40  60  89 125 161 207 255 312 363
#     4  11  20  38  64  88 126 164 201 254 311 362
#     4  10  22  37  61  95 121 160 207 254 306 370
#
# _framework density 21.535865000000001
#
# number of rings (size 3 to 8) (size 9 to 14) (size 15 to 20)
#    1.200    1.200    0.000    1.800    0.000    8.800 
#    0.000   12.000    0.000    0.000    0.000    0.000 
#    0.000    0.000    0.000    0.000    0.000    0.000 
#
# Total GULP energy -55696.594602 kJ/mol
# GULP energy per Si atom -5569.659460 kJ/mol
# Density = 2.148685 g / cm^3
# Si number density = 21.535865 Si / 1000 Ang^3
#
#
#
# Elastic Constant Matrix: (Units=GPa)
#
#
# Indices 1 2 3 4 5 6 
#
# 1 76.9135 36.0439 56.0513 0.0000 -17.4302 0.0000
# 2 36.0439 134.4570 48.7094 0.0000 -5.1350 0.0000
# 3 56.0513 48.7094 131.0681 0.0000 -14.4822 0.0000
# 4 0.0000 0.0000 0.0000 13.2838 0.0000 -2.5492
# 5 -17.4302 -5.1350 -14.4822 0.0000 52.7789 0.0000
# 6 0.0000 0.0000 0.0000 -2.5492 0.0000 12.1679
#
#
#
# Elastic Compliance Matrix: (Units=1/GPa)
#
#
# Indices 1 2 3 4 5 6 
#
# 1 0.020630 -0.002707 -0.007315 0.000000 0.004543 0.000000
# 2 -0.002707 0.008950 -0.002239 0.000000 -0.000638 0.000000
# 3 -0.007315 -0.002239 0.011652 0.000000 0.000564 0.000000
# 4 0.000000 0.000000 0.000000 0.078433 0.000000 0.016432
# 5 0.004543 -0.000638 0.000564 0.000000 0.020540 0.000000
# 6 0.000000 0.000000 0.000000 0.016432 0.000000 0.085626
#
#
# Mechanical properties :
#
#
# Convention : Reuss Voigt Hill
#
# Bulk Modulus (GPa) = 59.84030 69.33864 64.58947
# Shear Modulus (GPa) = 19.53722 29.08839 24.31280
#
# Velocity S-wave (km/s) = 3.01523 3.67917 3.36362
# Velocity P-wave (km/s) = 6.32209 7.09331 6.71878
#
# Compressibility (1/GPa) = 0.01671115
#
# Stress axis : x y z
#
# Youngs Moduli (GPa) = 48.47256 111.73579 85.82219
#
# Poissons Ratio (x) = 0.30247 0.62775
# Poissons Ratio (y) = 0.13122 0.19214
# Poissons Ratio (z) = 0.35456 0.25015
#
# Static dielectric constant tensor:
#      x y z
#    x 1.878650 0.000000 0.062330 
#    y 0.000000 1.766170 0.000000 
#    z 0.062330 0.000000 1.843680 
# 
# From -- ./inp_files/6408.got.cif
#   From: 2010.05.17/outbox.cif.g08.bks.cpg/sg3_4_cif.got.tgz:6408.got - 2010.06.03 18:33:08.
