data_PCOD9113159
_publ_section_title
;
Structure prediction by ZEFSAII (Michael W. Deem and Ramdas Pophale) SiO2 
 PCOD9113159
Probable space group: P 2
;
_chemical_formula_sum "Si O2"
_cell_formula_units_Z 16
_cell_length_a 11.873253
_cell_length_b 8.252358
_cell_length_c 16.312174
_cell_angle_alpha 90.000000
_cell_angle_beta 27.646338
_cell_angle_gamma 90.000000
_cell_volume 741.633608
_symmetry_space_group_name_H-M "P 2"
_symmetry_group_IT_number 3
_symmetry_cell_setting 'monoclinic'
loop_
_space_group_symop_operation_xyz
x,y,z
-x,y,-z
loop_
_atom_site_type_symbol
_atom_site_label
_atom_site_fract_x
_atom_site_fract_y
_atom_site_fract_z
Si Si1 0.731828 0.809580 0.812038
Si Si2 0.960735 0.111161 0.928381
Si Si3 0.221058 0.932443 0.461297
Si Si4 0.018880 0.643229 0.900436
Si Si5 0.547849 0.271852 0.719331
Si Si6 0.079392 0.852000 0.723468
Si Si7 0.546185 0.621881 0.780935
Si Si8 0.364736 0.353169 0.666255
O O1 0.929869 0.917635 0.637720
O O2 0.630418 0.674542 0.817044
O O3 0.500000 0.898644 0.000000
O O4 0.105337 0.752870 0.216296
O O5 0.728124 0.228307 0.076324
O O6 0.000000 0.071216 0.000000
O O7 0.211636 0.195337 0.741671
O O8 0.929587 0.974776 0.878859
O O9 0.344903 0.768068 0.346275
O O10 0.247509 0.930643 0.544748
O O11 0.317881 0.099160 0.361635
O O12 0.744113 0.621436 0.046076
O O13 0.177339 0.735312 0.730073
O O14 0.000000 0.730468 0.000000
O O15 0.163615 0.480145 0.824723
O O16 0.633317 0.438418 0.706487
O O17 0.539045 0.316827 0.629000
O O18 0.500000 0.414293 0.500000
#
# Coordination Sequence:
#
# PCOD9113159 Si02
#       8
#     2   2   2   2   2   2   2   2
#     4  10  23  46  72  94 141 189 236 310 346 410
#     4  10  20  42  66 103 144 189 236 290 360 440
#     4  10  25  44  72 105 135 186 245 300 352 418
#     4  12  22  40  65 107 143 190 229 289 363 436
#     4  11  23  43  73 104 142 195 231 295 369 424
#     4  10  23  40  69 100 141 184 242 288 361 407
#     4  12  22  46  75  99 147 183 240 296 364 422
#     4  11  23  39  64 101 156 180 232 298 349 439
#
# _framework density 21.573995
#
# number of rings (size 3 to 8) (size 9 to 14) (size 15 to 20)
#    0.750    0.500    3.750    2.625    1.750    1.000 
#    0.000    5.625    5.500    0.000    0.000    0.000 
#    0.000    0.000    0.000    0.000    0.000    0.000 
#
# Total GULP energy -89109.629129 kJ/mol
# GULP energy per Si atom -5569.351821 kJ/mol
# Density = 2.152489 g / cm^3
# Si number density = 21.573995 Si / 1000 Ang^3
#
#
#
# Elastic Constant Matrix: (Units=GPa)
#
#
# Indices 1 2 3 4 5 6 
#
# 1 109.9877 41.5203 13.0178 0.0000 17.2250 0.0000
# 2 41.5203 133.1957 42.8030 0.0000 5.1564 0.0000
# 3 13.0178 42.8030 89.1085 0.0000 11.4682 0.0000
# 4 0.0000 0.0000 0.0000 8.5275 0.0000 -7.0355
# 5 17.2250 5.1564 11.4682 0.0000 32.4435 0.0000
# 6 0.0000 0.0000 0.0000 -7.0355 0.0000 25.9120
#
#
#
# Elastic Compliance Matrix: (Units=1/GPa)
#
#
# Indices 1 2 3 4 5 6 
#
# 1 0.011220 -0.003531 0.000787 0.000000 -0.005674 0.000000
# 2 -0.003531 0.009990 -0.004525 0.000000 0.001887 0.000000
# 3 0.000787 -0.004525 0.013873 0.000000 -0.004603 0.000000
# 4 0.000000 0.000000 0.000000 0.151119 0.000000 0.041031
# 5 -0.005674 0.001887 -0.004603 0.000000 0.035162 0.000000
# 6 0.000000 0.000000 0.000000 0.041031 0.000000 0.049733
#
#
# Mechanical properties :
#
#
# Convention : Reuss Voigt Hill
#
# Bulk Modulus (GPa) = 48.67386 58.55270 53.61328
# Shear Modulus (GPa) = 17.09490 29.03999 23.06745
#
# Velocity S-wave (km/s) = 2.81799 3.67286 3.27345
# Velocity P-wave (km/s) = 5.76181 6.72204 6.26036
#
# Compressibility (1/GPa) = 0.02054491
#
# Stress axis : x y z
#
# Youngs Moduli (GPa) = 89.12415 100.10331 72.08019
#
# Poissons Ratio (x) = 0.35346 -0.05674
# Poissons Ratio (y) = 0.31469 0.32620
# Poissons Ratio (z) = -0.07016 0.45302
#
# Static dielectric constant tensor:
#      x y z
#    x 1.813740 0.000000 0.007760 
#    y 0.000000 1.840660 0.000000 
#    z 0.007760 0.000000 1.823690 
# 
# From -- ./inp_files/16100.got.cif
#   From: 2010.05.17/outbox.cif.g08.bks.cpg/sg3_9_cif.got.tgz:16100.got - 2010.06.03 18:33:08.
