data_PCOD9113219
_publ_section_title
;
Structure prediction by ZEFSAII (Michael W. Deem and Ramdas Pophale) SiO2 
 PCOD9113219
Probable space group: P 2
;
_chemical_formula_sum "Si O2"
_cell_formula_units_Z 14
_cell_length_a 9.553202
_cell_length_b 13.786481
_cell_length_c 5.283262
_cell_angle_alpha 90.000000
_cell_angle_beta 118.299173
_cell_angle_gamma 90.000000
_cell_volume 612.669275
_symmetry_space_group_name_H-M "P 2"
_symmetry_group_IT_number 3
_symmetry_cell_setting 'monoclinic'
loop_
_space_group_symop_operation_xyz
x,y,z
-x,y,-z
loop_
_atom_site_type_symbol
_atom_site_label
_atom_site_fract_x
_atom_site_fract_y
_atom_site_fract_z
Si Si1 0.188650 0.975680 0.646096
Si Si2 0.597671 0.813864 0.334190
Si Si3 0.091089 0.385350 0.828262
Si Si4 0.396042 0.270199 0.161910
Si Si5 0.806729 0.084028 0.847285
Si Si6 0.596931 0.580388 0.336855
Si Si7 0.045267 0.594912 0.290496
O O1 0.243423 0.873682 0.576558
O O2 0.000000 0.978758 0.500000
O O3 0.244178 0.052300 0.478707
O O4 0.237976 0.005243 0.973114
O O5 0.500000 0.842063 0.500000
O O6 0.615471 0.697868 0.356274
O O7 0.500000 0.838156 0.000000
O O8 0.000000 0.349157 0.500000
O O9 0.071139 0.501744 0.815636
O O10 0.272651 0.355216 0.989115
O O11 0.000000 0.349001 0.000000
O O12 0.500000 0.293177 0.500000
O O13 0.283696 0.180057 0.142110
O O14 0.500000 0.250796 0.000000
O O15 0.000000 0.095389 0.000000
O O16 0.500000 0.550131 0.500000
O O17 0.779373 0.550689 0.531683
O O18 0.500000 0.554558 0.000000
O O19 0.000000 0.653310 0.500000
O O20 0.000000 0.651415 0.000000
#
# Coordination Sequence:
#
# PCOD9113219 Si02
#       7
#     2   2   2   2   2   2   2
#     4  10  21  37  57  86 117 157 205 246 288 348
#     4  10  21  36  57  84 121 160 194 244 304 347
#     4  10  22  43  64  86 119 157 196 242 304 366
#     4  12  25  40  62  93 121 155 203 254 301 358
#     4  10  22  39  59  82 119 161 200 246 298 350
#     4  10  21  39  61  90 123 159 202 249 298 355
#     4  10  21  40  63  89 117 155 199 243 302 364
#
# _framework density 22.850828
#
# number of rings (size 3 to 8) (size 9 to 14) (size 15 to 20)
#    0.000    1.714    0.000    3.857    0.000    5.714 
#    0.000   19.286    0.000    0.000    0.000    0.000 
#    0.000    0.000    0.000    0.000    0.000    0.000 
#
# Total GULP energy -78223.119836 kJ/mol
# GULP energy per Si atom -5587.365703 kJ/mol
# Density = 2.279882 g / cm^3
# Si number density = 22.850828 Si / 1000 Ang^3
#
#
#
# Elastic Constant Matrix: (Units=GPa)
#
#
# Indices 1 2 3 4 5 6 
#
# 1 131.7120 31.1297 62.3573 0.0000 -37.2728 0.0000
# 2 31.1297 38.2264 14.8390 0.0000 -4.2274 0.0000
# 3 62.3573 14.8390 163.6027 0.0000 -36.0858 0.0000
# 4 0.0000 0.0000 0.0000 8.4323 0.0000 8.4515
# 5 -37.2728 -4.2274 -36.0858 0.0000 41.7190 0.0000
# 6 0.0000 0.0000 0.0000 8.4515 0.0000 13.6554
#
#
#
# Elastic Compliance Matrix: (Units=1/GPa)
#
#
# Indices 1 2 3 4 5 6 
#
# 1 0.013358 -0.008993 -0.002279 0.000000 0.009052 0.000000
# 2 -0.008993 0.033188 -0.000758 0.000000 -0.005326 0.000000
# 3 -0.002279 -0.000758 0.008136 0.000000 0.004924 0.000000
# 4 0.000000 0.000000 0.000000 0.312340 0.000000 -0.193310
# 5 0.009052 -0.005326 0.004924 0.000000 0.035777 0.000000
# 6 0.000000 0.000000 0.000000 -0.193310 0.000000 0.192872
#
#
# Mechanical properties :
#
#
# Convention : Reuss Voigt Hill
#
# Bulk Modulus (GPa) = 32.65458 61.13256 46.89357
# Shear Modulus (GPa) = 7.93729 27.77569 17.85649
#
# Velocity S-wave (km/s) = 1.86576 3.49022 2.79845
# Velocity P-wave (km/s) = 4.35463 6.56149 5.56848
#
# Compressibility (1/GPa) = 0.03062357
#
# Stress axis : x y z
#
# Youngs Moduli (GPa) = 74.85920 30.13127 122.91076
#
# Poissons Ratio (x) = 0.27096 0.28016
# Poissons Ratio (y) = 0.67318 0.09311
# Poissons Ratio (z) = 0.17063 0.02283
#
# Static dielectric constant tensor:
#      x y z
#    x 1.911560 0.000000 -0.036730 
#    y 0.000000 1.851600 0.000000 
#    z -0.036730 0.000000 1.927570 
# 
# From -- ./inp_files/1443.got.cif
#   From: 2010.05.17/outbox.cif.g08.bks.cpg/sg3_1_cif.got.tgz:1443.got - 2010.06.03 18:33:08.
