data_PCOD9113772
_publ_section_title
;
Structure prediction by ZEFSAII (Michael W. Deem and Ramdas Pophale) SiO2 
 PCOD9113772
Probable space group: P 2
;
_chemical_formula_sum "Si O2"
_cell_formula_units_Z 12
_cell_length_a 24.300381
_cell_length_b 5.697859
_cell_length_c 12.737413
_cell_angle_alpha 90.000000
_cell_angle_beta 162.534598
_cell_angle_gamma 90.000000
_cell_volume 529.316209
_symmetry_space_group_name_H-M "P 2"
_symmetry_group_IT_number 3
_symmetry_cell_setting 'monoclinic'
loop_
_space_group_symop_operation_xyz
x,y,z
-x,y,-z
loop_
_atom_site_type_symbol
_atom_site_label
_atom_site_fract_x
_atom_site_fract_y
_atom_site_fract_z
Si Si1 0.500000 0.051490 0.000000
Si Si2 0.541273 0.776592 0.865093
Si Si3 0.176196 0.065206 0.134935
Si Si4 0.000000 0.790331 0.000000
Si Si5 0.290584 0.420906 0.500012
Si Si6 0.778454 0.675111 0.099501
Si Si7 0.178953 0.166672 0.900498
O O1 0.663905 0.213974 0.339176
O O2 0.428344 0.916455 0.971778
O O3 0.473136 0.527657 0.784415
O O4 0.371339 0.920881 0.499998
O O5 0.701258 0.715798 0.075775
O O6 0.188779 0.314151 0.215680
O O7 0.125485 0.125986 0.924228
O O8 0.043433 0.925378 0.971781
O O9 0.824734 0.627836 0.660837
O O10 0.726789 0.420891 0.953579
O O11 0.000000 0.673546 0.500000
O O12 0.717585 0.920891 0.935171
O O13 0.000000 0.168235 0.500000
#
# Coordination Sequence:
#
# PCOD9113772 Si02
#       7
#     1   2   2   1   2   2   2
#     4  10  22  44  70 108 140 188 236 292 376 424
#     4  10  23  44  69 104 143 185 239 297 360 433
#     4  10  23  44  69 104 143 185 239 297 360 433
#     4  10  22  44  70 108 140 188 236 292 376 424
#     4  10  22  44  67 104 139 186 230 296 368 432
#     4  10  24  48  68 102 140 188 244 296 355 420
#     4  10  24  48  68 102 140 188 244 296 355 420
#
# _framework density 22.670756999999998
#
# number of rings (size 3 to 8) (size 9 to 14) (size 15 to 20)
#    0.000    2.000    0.000    1.000    9.333    0.667 
#   30.000    0.000    0.000    0.000    0.000    0.000 
#    0.000    0.000    0.000    0.000    0.000    0.000 
#
# Total GULP energy -66925.543563 kJ/mol
# GULP energy per Si atom -5577.128630 kJ/mol
# Density = 2.261916 g / cm^3
# Si number density = 22.670757 Si / 1000 Ang^3
#
#
#
# Elastic Constant Matrix: (Units=GPa)
#
#
# Indices 1 2 3 4 5 6 
#
# 1 246.5326 93.7232 74.3104 0.0000 8.5763 0.0000
# 2 93.7232 171.0844 17.0575 0.0000 8.1194 0.0000
# 3 74.3104 17.0575 66.5527 0.0000 10.4846 0.0000
# 4 0.0000 0.0000 0.0000 7.4181 0.0000 21.7242
# 5 8.5763 8.1194 10.4846 0.0000 45.4140 0.0000
# 6 0.0000 0.0000 0.0000 21.7242 0.0000 208.4020
#
#
#
# Elastic Compliance Matrix: (Units=1/GPa)
#
#
# Indices 1 2 3 4 5 6 
#
# 1 0.007728 -0.003494 -0.007889 0.000000 0.000986 0.000000
# 2 -0.003494 0.007602 0.002141 0.000000 -0.001194 0.000000
# 3 -0.007889 0.002141 0.023983 0.000000 -0.004430 0.000000
# 4 0.000000 0.000000 0.000000 0.194042 0.000000 -0.020227
# 5 0.000986 -0.001194 -0.004430 0.000000 0.023069 0.000000
# 6 0.000000 0.000000 0.000000 -0.020227 0.000000 0.006907
#
#
# Mechanical properties :
#
#
# Convention : Reuss Voigt Hill
#
# Bulk Modulus (GPa) = 48.00849 94.92799 71.46824
# Shear Modulus (GPa) = 17.31548 72.18541 44.75044
#
# Velocity S-wave (km/s) = 2.76666 5.64888 4.44771
# Velocity P-wave (km/s) = 5.60609 9.19292 7.61374
#
# Compressibility (1/GPa) = 0.02082965
#
# Stress axis : x y z
#
# Youngs Moduli (GPa) = 129.39894 131.53947 41.69574
#
# Poissons Ratio (x) = 0.45958 0.32893
# Poissons Ratio (y) = 0.45210 -0.08926
# Poissons Ratio (z) = 1.02080 -0.28158
#
# Static dielectric constant tensor:
#      x y z
#    x 1.949850 0.000000 0.063230 
#    y 0.000000 1.924930 0.000000 
#    z 0.063230 0.000000 1.371730 
# 
# From -- ./inp_files/6507.got.cif
#   From: 2010.05.17/outbox.cif.g08.bks.cpg/sg3_4_cif.got.tgz:6507.got - 2010.06.03 18:33:08.
