data_PCOD9113124
_publ_section_title
;
Structure prediction by ZEFSAII (Michael W. Deem and Ramdas Pophale) SiO2 
 PCOD9113124
Probable space group: P 2
;
_chemical_formula_sum "Si O2"
_cell_formula_units_Z 13
_cell_length_a 14.473984
_cell_length_b 8.478984
_cell_length_c 15.810900
_cell_angle_alpha 90.000000
_cell_angle_beta 161.309534
_cell_angle_gamma 90.000000
_cell_volume 621.807635
_symmetry_space_group_name_H-M "P 2"
_symmetry_group_IT_number 3
_symmetry_cell_setting 'monoclinic'
loop_
_space_group_symop_operation_xyz
x,y,z
-x,y,-z
loop_
_atom_site_type_symbol
_atom_site_label
_atom_site_fract_x
_atom_site_fract_y
_atom_site_fract_z
Si Si1 0.500000 0.983081 0.500000
Si Si2 0.470803 0.286468 0.234233
Si Si3 0.685428 0.368666 0.237442
Si Si4 0.115465 0.775119 0.411084
Si Si5 0.919127 0.101050 0.722616
Si Si6 0.000000 0.775577 0.000000
Si Si7 0.000000 0.684125 0.500000
Si Si8 0.246205 0.627042 0.048058
O O1 0.712523 0.877641 0.740124
O O2 0.709873 0.077143 0.620661
O O3 0.547798 0.323253 0.204994
O O4 0.763810 0.238376 0.534773
O O5 0.327762 0.447810 0.140915
O O6 0.234371 0.148134 0.028787
O O7 0.736420 0.557714 0.275534
O O8 0.000000 0.297201 0.500000
O O9 0.500000 0.311879 0.000000
O O10 0.450439 0.721610 0.696436
O O11 0.015179 0.772469 0.422808
O O12 0.075627 0.943773 0.330418
O O13 0.927498 0.653918 0.190372
O O14 0.952080 0.685861 0.046604
#
# Coordination Sequence:
#
# PCOD9113124 Si02
#       8
#     1   2   2   2   2   1   1   2
#     4  12  24  46  70  96 138 194 218 278 364 416
#     4  12  25  44  67 102 143 176 223 291 348 405
#     4  10  20  40  67  96 128 184 227 273 348 394
#     4  12  24  45  70 103 131 184 235 277 337 411
#     4  12  26  44  68 100 145 181 222 284 353 418
#     4  12  22  42  74 100 128 178 242 290 334 400
#     4  10  24  40  76  96 136 180 240 284 334 404
#     4  12  23  43  73 101 130 176 240 285 329 414
#
# _framework density 20.906787000000001
#
# number of rings (size 3 to 8) (size 9 to 14) (size 15 to 20)
#    0.462    0.000    4.615    4.615    0.000    1.231 
#    4.154    0.000    0.000    0.000    0.000    0.000 
#    0.000    0.000    0.000    0.000    0.000    0.000 
#
# Total GULP energy -72634.262505 kJ/mol
# GULP energy per Si atom -5587.250962 kJ/mol
# Density = 2.085920 g / cm^3
# Si number density = 20.906787 Si / 1000 Ang^3
#
#
#
# Elastic Constant Matrix: (Units=GPa)
#
#
# Indices 1 2 3 4 5 6 
#
# 1 114.6857 4.4832 -19.3584 0.0000 -2.7863 0.0000
# 2 4.4832 46.7234 -12.6641 0.0000 2.5747 0.0000
# 3 -19.3584 -12.6641 74.3590 0.0000 2.3212 0.0000
# 4 0.0000 0.0000 0.0000 49.5510 0.0000 -12.1482
# 5 -2.7863 2.5747 2.3212 0.0000 36.4641 0.0000
# 6 0.0000 0.0000 0.0000 -12.1482 0.0000 55.4545
#
#
#
# Elastic Compliance Matrix: (Units=1/GPa)
#
#
# Indices 1 2 3 4 5 6 
#
# 1 0.009135 -0.000281 0.002312 0.000000 0.000571 0.000000
# 2 -0.000281 0.022570 0.003829 0.000000 -0.001859 0.000000
# 3 0.002312 0.003829 0.014735 0.000000 -0.001032 0.000000
# 4 0.000000 0.000000 0.000000 0.021327 0.000000 0.004672
# 5 0.000571 -0.001859 -0.001032 0.000000 0.027665 0.000000
# 6 0.000000 0.000000 0.000000 0.004672 0.000000 0.019056
#
#
# Mechanical properties :
#
#
# Convention : Reuss Voigt Hill
#
# Bulk Modulus (GPa) = 17.19434 20.07660 18.63547
# Shear Modulus (GPa) = 40.93227 45.84774 43.39001
#
# Velocity S-wave (km/s) = 4.42956 4.68799 4.56060
# Velocity P-wave (km/s) = 5.86544 6.23913 6.05517
#
# Compressibility (1/GPa) = 0.05815868
#
# Stress axis : x y z
#
# Youngs Moduli (GPa) = 109.47313 44.30720 67.86779
#
# Poissons Ratio (x) = 0.01246 -0.15694
# Poissons Ratio (y) = 0.03078 -0.25984
# Poissons Ratio (z) = -0.25314 -0.16964
#
# Static dielectric constant tensor:
#      x y z
#    x 1.748350 0.000000 -0.014930 
#    y 0.000000 1.789400 0.000000 
#    z -0.014930 0.000000 1.729760 
# 
# From -- ./inp_files/14029.got.cif
#   From: 2010.05.17/outbox.cif.g08.bks.cpg/sg3_8_cif.got.tgz:14029.got - 2010.06.03 18:33:08.
