data_PCOD9113662
_publ_section_title
;
Structure prediction by ZEFSAII (Michael W. Deem and Ramdas Pophale) SiO2 
 PCOD9113662
Probable space group: P 2
;
_chemical_formula_sum "Si O2"
_cell_formula_units_Z 10
_cell_length_a 8.300118
_cell_length_b 5.317577
_cell_length_c 13.959449
_cell_angle_alpha 90.000000
_cell_angle_beta 131.219764
_cell_angle_gamma 90.000000
_cell_volume 463.438948
_symmetry_space_group_name_H-M "P 2"
_symmetry_group_IT_number 3
_symmetry_cell_setting 'monoclinic'
loop_
_space_group_symop_operation_xyz
x,y,z
-x,y,-z
loop_
_atom_site_type_symbol
_atom_site_label
_atom_site_fract_x
_atom_site_fract_y
_atom_site_fract_z
Si Si1 0.289512 0.317750 0.982689
Si Si2 0.221517 0.958546 0.637589
Si Si3 0.396524 0.454211 0.736333
Si Si4 0.453184 0.768369 0.370507
Si Si5 0.023313 0.809068 0.893509
O O1 0.148266 0.562502 0.906570
O O2 0.154858 0.063204 0.925050
O O3 0.500000 0.303364 0.000000
O O4 0.389830 0.365884 0.127157
O O5 0.304030 0.725945 0.734546
O O6 0.401168 0.976011 0.625188
O O7 0.000000 0.893195 0.500000
O O8 0.224373 0.233966 0.683844
O O9 0.457829 0.524433 0.651559
O O10 0.500000 0.757263 0.500000
O O11 0.208293 0.812769 0.246647
O O12 0.000000 0.790443 0.000000
#
# Coordination Sequence:
#
# PCOD9113662 Si02
#       5
#     2   2   2   2   2
#     4  12  26  44  71 103 140 182 237 291 345 420
#     4  10  22  41  66  92 136 181 220 278 350 407
#     4  10  22  43  64  97 136 174 232 279 344 404
#     4  10  25  43  69 102 136 177 236 281 347 414
#     4  12  24  46  74 100 140 188 232 290 353 411
#
# _framework density 21.577815000000001
#
# number of rings (size 3 to 8) (size 9 to 14) (size 15 to 20)
#    1.200    0.000    2.000    4.200    2.800    4.000 
#    0.000    0.000    0.000    0.000    0.000    0.000 
#    0.000    0.000    0.000    0.000    0.000    0.000 
#
# Total GULP energy -55803.454246 kJ/mol
# GULP energy per Si atom -5580.345425 kJ/mol
# Density = 2.152870 g / cm^3
# Si number density = 21.577815 Si / 1000 Ang^3
#
#
#
# Elastic Constant Matrix: (Units=GPa)
#
#
# Indices 1 2 3 4 5 6 
#
# 1 81.8874 41.3416 21.5589 0.0000 12.0761 0.0000
# 2 41.3416 178.1095 18.0168 0.0000 20.6174 0.0000
# 3 21.5589 18.0168 107.5023 0.0000 16.5343 0.0000
# 4 0.0000 0.0000 0.0000 -32.0291 0.0000 3.3520
# 5 12.0761 20.6174 16.5343 0.0000 45.0132 0.0000
# 6 0.0000 0.0000 0.0000 3.3520 0.0000 19.7474
#
#
#
# Elastic Compliance Matrix: (Units=1/GPa)
#
#
# Indices 1 2 3 4 5 6 
#
# 1 0.014526 -0.002951 -0.002148 0.000000 -0.001756 0.000000
# 2 -0.002951 0.006566 -0.000178 0.000000 -0.002151 0.000000
# 3 -0.002148 -0.000178 0.010240 0.000000 -0.003104 0.000000
# 4 0.000000 0.000000 0.000000 -0.030677 0.000000 0.005207
# 5 -0.001756 -0.002151 -0.003104 0.000000 0.024812 0.000000
# 6 0.000000 0.000000 0.000000 0.005207 0.000000 0.049756
#
#
# Mechanical properties :
#
#
# Convention : Reuss Voigt Hill
#
# Bulk Modulus (GPa) = 48.12783 58.81486 53.47134
# Shear Modulus (GPa) = 53.93454 25.65176 39.79315
#
# Velocity S-wave (km/s) = 5.00496 3.45164 4.29904
# Velocity P-wave (km/s) = 7.46674 6.57278 7.03398
#
# Compressibility (1/GPa) = 0.02077800
#
# Stress axis : x y z
#
# Youngs Moduli (GPa) = 68.83990 152.28893 97.65486
#
# Poissons Ratio (x) = 0.44943 0.20981
# Poissons Ratio (y) = 0.20316 0.01737
# Poissons Ratio (z) = 0.14790 0.02709
#
# Static dielectric constant tensor:
#      x y z
#    x 1.852990 0.000000 -0.093200 
#    y 0.000000 1.831090 0.000000 
#    z -0.093200 0.000000 1.837740 
# 
# From -- ./inp_files/8671.got.cif
#   From: 2010.05.17/outbox.cif.g08.bks.cpg/sg3_5_cif.got.tgz:8671.got - 2010.06.03 18:33:08.
