data_PCOD9113771
_publ_section_title
;
Structure prediction by ZEFSAII (Michael W. Deem and Ramdas Pophale) SiO2 
 PCOD9113771
Probable space group: P 2
;
_chemical_formula_sum "Si O2"
_cell_formula_units_Z 13
_cell_length_a 7.426048
_cell_length_b 6.760292
_cell_length_c 19.446643
_cell_angle_alpha 90.000000
_cell_angle_beta 38.731776
_cell_angle_gamma 90.000000
_cell_volume 610.825160
_symmetry_space_group_name_H-M "P 2"
_symmetry_group_IT_number 3
_symmetry_cell_setting 'monoclinic'
loop_
_space_group_symop_operation_xyz
x,y,z
-x,y,-z
loop_
_atom_site_type_symbol
_atom_site_label
_atom_site_fract_x
_atom_site_fract_y
_atom_site_fract_z
Si Si1 0.411571 0.707600 0.912328
Si Si2 0.127677 0.124814 0.533821
Si Si3 0.231066 0.376038 0.123198
Si Si4 0.172840 0.036194 0.245540
Si Si5 0.500000 0.452410 0.500000
Si Si6 0.172455 0.615912 0.841986
Si Si7 0.619364 0.797760 0.357972
O O1 0.645589 0.583088 0.884876
O O2 0.537960 0.919514 0.857192
O O3 0.351962 0.592377 0.858391
O O4 0.118674 0.720978 0.043062
O O5 0.277597 0.303337 0.530077
O O6 0.000000 0.193391 0.500000
O O7 0.351513 0.944384 0.453296
O O8 0.875422 0.053782 0.659204
O O9 0.959042 0.420939 0.155581
O O10 0.163301 0.239936 0.207463
O O11 0.500000 0.289210 0.000000
O O12 0.902790 0.912950 0.297433
O O13 0.603741 0.600569 0.409152
O O14 0.342059 0.734808 0.732858
#
# Coordination Sequence:
#
# PCOD9113771 Si02
#       7
#     2   2   2   2   1   2   2
#     4  10  23  43  65  98 133 171 215 267 318 390
#     4  12  27  45  68  99 130 172 224 269 326 387
#     4  10  23  40  66  96 131 171 214 267 325 383
#     4  12  23  43  68  97 131 171 219 267 324 389
#     4  12  24  48  64  98 128 174 216 276 326 384
#     4  10  22  44  66  95 135 172 216 264 325 382
#     4  12  24  44  70  93 134 174 214 271 329 384
#
# _framework density 21.282684
#
# number of rings (size 3 to 8) (size 9 to 14) (size 15 to 20)
#    0.000    0.923    4.615    1.846    2.154    1.846 
#    2.769    1.538    0.000    0.000    0.000    0.000 
#    0.000    0.000    0.000    0.000    0.000    0.000 
#
# Total GULP energy -72663.766097 kJ/mol
# GULP energy per Si atom -5589.520469 kJ/mol
# Density = 2.123424 g / cm^3
# Si number density = 21.282684 Si / 1000 Ang^3
#
#
#
# Elastic Constant Matrix: (Units=GPa)
#
#
# Indices 1 2 3 4 5 6 
#
# 1 104.8096 20.8867 18.4269 0.0000 29.9104 0.0000
# 2 20.8867 76.6065 44.4716 0.0000 4.0120 0.0000
# 3 18.4269 44.4716 127.2157 0.0000 35.7637 0.0000
# 4 0.0000 0.0000 0.0000 31.8175 0.0000 9.0355
# 5 29.9104 4.0120 35.7637 0.0000 32.1534 0.0000
# 6 0.0000 0.0000 0.0000 9.0355 0.0000 8.5167
#
#
#
# Elastic Compliance Matrix: (Units=1/GPa)
#
#
# Indices 1 2 3 4 5 6 
#
# 1 0.015493 -0.006419 0.005567 0.000000 -0.019803 0.000000
# 2 -0.006419 0.019961 -0.010223 0.000000 0.014851 0.000000
# 3 0.005567 -0.010223 0.017060 0.000000 -0.022878 0.000000
# 4 0.000000 0.000000 0.000000 0.044981 0.000000 -0.047721
# 5 -0.019803 0.014851 -0.022878 0.000000 0.073116 0.000000
# 6 0.000000 0.000000 0.000000 -0.047721 0.000000 0.168043
#
#
# Mechanical properties :
#
#
# Convention : Reuss Voigt Hill
#
# Bulk Modulus (GPa) = 32.93434 52.91136 42.92285
# Shear Modulus (GPa) = 13.47984 29.48731 21.48357
#
# Velocity S-wave (km/s) = 2.51942 3.72628 3.18061
# Velocity P-wave (km/s) = 4.89608 6.59005 5.80518
#
# Compressibility (1/GPa) = 0.03036344
#
# Stress axis : x y z
#
# Youngs Moduli (GPa) = 64.54578 50.09838 58.61760
#
# Poissons Ratio (x) = 0.32157 -0.32632
# Poissons Ratio (y) = 0.41430 0.59926
# Poissons Ratio (z) = -0.35932 0.51216
#
# Static dielectric constant tensor:
#      x y z
#    x 1.752230 0.000000 -0.001150 
#    y 0.000000 1.753840 0.000000 
#    z -0.001150 0.000000 1.805510 
# 
# From -- ./inp_files/15656.got.cif
#   From: 2010.05.17/outbox.cif.g08.bks.cpg/sg3_8_cif.got.tgz:15656.got - 2010.06.03 18:33:08.
