data_PCOD9113954
_publ_section_title
;
Structure prediction by ZEFSAII (Michael W. Deem and Ramdas Pophale) SiO2 
 PCOD9113954
Probable space group: P 2
;
_chemical_formula_sum "Si O2"
_cell_formula_units_Z 15
_cell_length_a 7.511712
_cell_length_b 20.230494
_cell_length_c 5.389448
_cell_angle_alpha 90.000000
_cell_angle_beta 133.498183
_cell_angle_gamma 90.000000
_cell_volume 594.107423
_symmetry_space_group_name_H-M "P 2"
_symmetry_group_IT_number 3
_symmetry_cell_setting 'monoclinic'
loop_
_space_group_symop_operation_xyz
x,y,z
-x,y,-z
loop_
_atom_site_type_symbol
_atom_site_label
_atom_site_fract_x
_atom_site_fract_y
_atom_site_fract_z
Si Si1 0.237292 0.684280 0.388677
Si Si2 0.752440 0.949045 0.631588
Si Si3 0.158114 0.206451 0.391783
Si Si4 0.661028 0.541317 0.402791
Si Si5 0.257147 0.072922 0.626686
Si Si6 0.255954 0.823447 0.622996
Si Si7 0.500000 0.302130 0.500000
Si Si8 0.242923 0.394541 0.587833
O O1 0.500000 0.683816 0.500000
O O2 0.192955 0.610361 0.442317
O O3 0.260830 0.745038 0.598904
O O4 0.000000 0.702608 0.000000
O O5 0.500000 0.974171 0.500000
O O6 0.744583 0.870027 0.617310
O O7 0.746858 0.992950 0.382924
O O8 0.000000 0.970618 0.000000
O O9 0.237146 0.130402 0.401299
O O10 0.409006 0.249979 0.624972
O O11 0.000000 0.215017 0.500000
O O12 0.000000 0.229000 0.000000
O O13 0.500000 0.537930 0.500000
O O14 0.798056 0.472123 0.511397
O O15 0.500000 0.547733 0.000000
O O16 0.000000 0.086512 0.500000
O O17 0.500000 0.092212 0.000000
O O18 0.000000 0.842374 0.500000
O O19 0.500000 0.844045 0.000000
O O20 0.292080 0.356495 0.377714
O O21 0.000000 0.370906 0.500000
O O22 0.500000 0.389463 0.000000
#
# Coordination Sequence:
#
# PCOD9113954 Si02
#       8
#     2   2   2   2   2   2   1   2
#     4  11  24  43  69 102 143 188 247 309 377 444
#     4  12  24  41  68  99 143 192 248 308 377 443
#     4  11  29  49  78 113 155 204 256 320 386 466
#     4  10  23  48  74 110 149 199 251 316 379 455
#     4  11  25  46  73 106 145 189 250 310 377 448
#     4  12  24  41  65  98 142 191 248 309 376 442
#     4  12  28  46  82 106 162 192 266 302 408 442
#     4  11  27  48  76 110 153 200 255 315 385 463
#
# _framework density 25.247957
#
# number of rings (size 3 to 8) (size 9 to 14) (size 15 to 20)
#    0.000    0.800    0.667    5.200    8.400    5.867 
#    0.000    0.000    0.000    0.000    0.000    0.000 
#    0.000    0.000    0.000    0.000    0.000    0.000 
#
# Total GULP energy -83531.310537 kJ/mol
# GULP energy per Si atom -5568.754036 kJ/mol
# Density = 2.519049 g / cm^3
# Si number density = 25.247957 Si / 1000 Ang^3
#
#
#
# Elastic Constant Matrix: (Units=GPa)
#
#
# Indices 1 2 3 4 5 6 
#
# 1 177.3563 8.5353 38.0689 0.0000 24.1107 0.0000
# 2 8.5353 138.9592 0.6952 0.0000 6.1479 0.0000
# 3 38.0689 0.6952 131.3447 0.0000 22.0336 0.0000
# 4 0.0000 0.0000 0.0000 52.1373 0.0000 104.0144
# 5 24.1107 6.1479 22.0336 0.0000 42.1528 0.0000
# 6 0.0000 0.0000 0.0000 104.0144 0.0000 -686.0864
#
#
#
# Elastic Compliance Matrix: (Units=1/GPa)
#
#
# Indices 1 2 3 4 5 6 
#
# 1 0.006332 -0.000255 -0.001351 0.000000 -0.002878 0.000000
# 2 -0.000255 0.007256 0.000207 0.000000 -0.001021 0.000000
# 3 -0.001351 0.000207 0.008637 0.000000 -0.003772 0.000000
# 4 0.000000 0.000000 0.000000 0.014726 0.000000 0.002233
# 5 -0.002878 -0.001021 -0.003772 0.000000 0.027490 0.000000
# 6 0.000000 0.000000 0.000000 0.002233 0.000000 -0.001119
#
#
# Mechanical properties :
#
#
# Convention : Reuss Voigt Hill
#
# Bulk Modulus (GPa) = 51.47621 60.25101 55.86361
# Shear Modulus (GPa) = 68.87443 -91.66854 -11.39705
#
# Velocity S-wave (km/s) = 5.22862 -6.03209 -2.12693
# Velocity P-wave (km/s) = 7.54213 4.95977 4.01774
#
# Compressibility (1/GPa) = 0.01942645
#
# Stress axis : x y z
#
# Youngs Moduli (GPa) = 157.92976 137.81459 115.78369
#
# Poissons Ratio (x) = 0.03512 0.15643
# Poissons Ratio (y) = 0.04024 -0.02393
# Poissons Ratio (z) = 0.21337 -0.02848
#
# Static dielectric constant tensor:
#      x y z
#    x 6.725340 0.000000 1.789860 
#    y 0.000000 1.959840 0.000000 
#    z 1.789860 0.000000 2.342140 
# 
# From -- ./inp_files/1767.got.cif
#   From: 2010.05.17/outbox.cif.g08.bks.cpg/sg3_1_cif.got.tgz:1767.got - 2010.06.03 18:33:08.
