data_PCOD9113491
_publ_section_title
;
Structure prediction by ZEFSAII (Michael W. Deem and Ramdas Pophale) SiO2 
 PCOD9113491
Probable space group: P 2
;
_chemical_formula_sum "Si O2"
_cell_formula_units_Z 12
_cell_length_a 8.066240
_cell_length_b 7.311947
_cell_length_c 9.141496
_cell_angle_alpha 90.000000
_cell_angle_beta 65.502456
_cell_angle_gamma 90.000000
_cell_volume 490.628577
_symmetry_space_group_name_H-M "P 2"
_symmetry_group_IT_number 3
_symmetry_cell_setting 'monoclinic'
loop_
_space_group_symop_operation_xyz
x,y,z
-x,y,-z
loop_
_atom_site_type_symbol
_atom_site_label
_atom_site_fract_x
_atom_site_fract_y
_atom_site_fract_z
Si Si1 0.123636 0.493910 0.831025
Si Si2 0.033320 0.898389 0.823904
Si Si3 0.524753 0.417488 0.164878
Si Si4 0.184799 0.969891 0.365888
Si Si5 0.189044 0.383316 0.483477
Si Si6 0.561685 0.042760 0.318483
O O1 0.022412 0.678603 0.821237
O O2 0.307750 0.542370 0.848563
O O3 0.182606 0.393934 0.661000
O O4 0.000000 0.397123 0.000000
O O5 0.243734 0.951367 0.718548
O O6 0.876034 0.979625 0.779550
O O7 0.000000 0.957062 0.000000
O O8 0.353231 0.467246 0.330070
O O9 0.576130 0.209790 0.198258
O O10 0.500000 0.423523 0.000000
O O11 0.187209 0.173832 0.431048
O O12 0.000000 0.878947 0.500000
O O13 0.393401 0.913919 0.323379
O O14 0.000000 0.467001 0.500000
O O15 0.500000 0.117138 0.500000
#
# Coordination Sequence:
#
# PCOD9113491 Si02
#       6
#     2   2   2   2   2   2
#     4  11  25  48  66 101 146 187 229 285 354 420
#     4  11  27  45  69 103 143 187 231 288 356 423
#     4  11  24  42  69 107 137 179 239 289 349 416
#     4  10  21  43  70 102 136 177 241 286 342 417
#     4  10  22  42  71 101 135 181 232 289 343 408
#     4  11  23  43  71 101 140 186 234 290 347 412
#
# _framework density 24.458421000000001
#
# number of rings (size 3 to 8) (size 9 to 14) (size 15 to 20)
#    0.000    1.333    1.667    3.500    7.000    2.667 
#    9.000    0.000    0.000    0.000    0.000    0.000 
#    0.000    0.000    0.000    0.000    0.000    0.000 
#
# Total GULP energy -67017.820780 kJ/mol
# GULP energy per Si atom -5584.818398 kJ/mol
# Density = 2.440275 g / cm^3
# Si number density = 24.458421 Si / 1000 Ang^3
#
#
#
# Elastic Constant Matrix: (Units=GPa)
#
#
# Indices 1 2 3 4 5 6 
#
# 1 167.2445 10.6010 61.1141 0.0000 11.6932 0.0000
# 2 10.6010 80.7377 26.3394 0.0000 9.1239 0.0000
# 3 61.1141 26.3394 206.8915 0.0000 24.7613 0.0000
# 4 0.0000 0.0000 0.0000 20.0625 0.0000 -0.9993
# 5 11.6932 9.1239 24.7613 0.0000 68.0118 0.0000
# 6 0.0000 0.0000 0.0000 -0.9993 0.0000 4.1584
#
#
#
# Elastic Compliance Matrix: (Units=1/GPa)
#
#
# Indices 1 2 3 4 5 6 
#
# 1 0.006719 -0.000212 -0.001906 0.000000 -0.000433 0.000000
# 2 -0.000212 0.013021 -0.001454 0.000000 -0.001181 0.000000
# 3 -0.001906 -0.001454 0.005770 0.000000 -0.001578 0.000000
# 4 0.000000 0.000000 0.000000 0.050448 0.000000 0.012123
# 5 -0.000433 -0.001181 -0.001578 0.000000 0.015511 0.000000
# 6 0.000000 0.000000 0.000000 0.012123 0.000000 0.243391
#
#
# Mechanical properties :
#
#
# Convention : Reuss Voigt Hill
#
# Bulk Modulus (GPa) = 54.44193 72.33143 63.38668
# Shear Modulus (GPa) = 14.36258 42.23448 28.29853
#
# Velocity S-wave (km/s) = 2.42590 4.15997 3.40517
# Velocity P-wave (km/s) = 5.49126 7.26025 6.43681
#
# Compressibility (1/GPa) = 0.01836820
#
# Stress axis : x y z
#
# Youngs Moduli (GPa) = 148.82097 76.79691 173.29576
#
# Poissons Ratio (x) = 0.01624 0.33033
# Poissons Ratio (y) = 0.03148 0.25196
# Poissons Ratio (z) = 0.28367 0.11166
#
# Static dielectric constant tensor:
#      x y z
#    x 2.070560 0.000000 -0.063680 
#    y 0.000000 1.996370 0.000000 
#    z -0.063680 0.000000 2.084780 
# 
# From -- ./inp_files/5086.got.cif
#   From: 2010.05.17/outbox.cif.g08.bks.cpg/sg3_3_cif.got.tgz:5086.got - 2010.06.03 18:33:08.
