data_PCOD9113988
_publ_section_title
;
Structure prediction by ZEFSAII (Michael W. Deem and Ramdas Pophale) SiO2 
 PCOD9113988
Probable space group: P 2
;
_chemical_formula_sum "Si O2"
_cell_formula_units_Z 12
_cell_length_a 9.015732
_cell_length_b 7.071467
_cell_length_c 14.236520
_cell_angle_alpha 90.000000
_cell_angle_beta 39.672208
_cell_angle_gamma 90.000000
_cell_volume 579.433388
_symmetry_space_group_name_H-M "P 2"
_symmetry_group_IT_number 3
_symmetry_cell_setting 'monoclinic'
loop_
_space_group_symop_operation_xyz
x,y,z
-x,y,-z
loop_
_atom_site_type_symbol
_atom_site_label
_atom_site_fract_x
_atom_site_fract_y
_atom_site_fract_z
Si Si1 0.258994 0.585380 0.796661
Si Si2 0.672976 0.788465 0.502290
Si Si3 0.370676 0.253139 0.861260
Si Si4 0.975438 0.472102 0.273561
Si Si5 0.000000 0.933047 0.000000
Si Si6 0.803311 0.188689 0.517567
Si Si7 0.500000 0.363090 0.000000
O O1 0.518195 0.655652 0.645322
O O2 0.257582 0.457787 0.891208
O O3 0.117105 0.782507 0.872187
O O4 0.154093 0.460114 0.763544
O O5 0.500000 0.835683 0.500000
O O6 0.885803 0.667215 0.360298
O O7 0.767653 0.973642 0.504476
O O8 0.562788 0.240252 0.686040
O O9 0.478719 0.252443 0.912146
O O10 0.196297 0.076733 0.940485
O O11 0.879132 0.310634 0.390265
O O12 0.252522 0.468386 0.128226
O O13 0.000000 0.211625 0.500000
#
# Coordination Sequence:
#
# PCOD9113988 Si02
#       7
#     2   2   2   2   1   2   1
#     4  11  24  46  73 107 134 183 232 290 346 401
#     4  10  24  42  74 106 132 179 237 287 338 406
#     4  12  26  46  74 100 143 185 228 290 344 415
#     4  11  25  46  71 104 140 177 235 285 348 414
#     4  12  24  46  72 106 140 176 242 288 340 408
#     4  12  25  46  72 103 141 185 230 280 350 421
#     4  12  26  46  68 102 142 192 220 280 362 404
#
# _framework density 20.709886999999998
#
# number of rings (size 3 to 8) (size 9 to 14) (size 15 to 20)
#    0.000    0.667    5.000    2.500    2.333    4.667 
#    3.000    1.667    0.000    0.000    0.000    0.000 
#    0.000    0.000    0.000    0.000    0.000    0.000 
#
# Total GULP energy -67036.324936 kJ/mol
# GULP energy per Si atom -5586.360411 kJ/mol
# Density = 2.066275 g / cm^3
# Si number density = 20.709887 Si / 1000 Ang^3
#
#
#
# Elastic Constant Matrix: (Units=GPa)
#
#
# Indices 1 2 3 4 5 6 
#
# 1 94.5173 53.5526 21.8196 0.0000 12.5270 0.0000
# 2 53.5526 75.5743 23.6175 0.0000 7.6546 0.0000
# 3 21.8196 23.6175 119.8229 0.0000 -6.3536 0.0000
# 4 0.0000 0.0000 0.0000 -29.8220 0.0000 70.4207
# 5 12.5270 7.6546 -6.3536 0.0000 40.3629 0.0000
# 6 0.0000 0.0000 0.0000 70.4207 0.0000 -34.8487
#
#
#
# Elastic Compliance Matrix: (Units=1/GPa)
#
#
# Indices 1 2 3 4 5 6 
#
# 1 0.018217 -0.012210 -0.001097 0.000000 -0.003511 0.000000
# 2 -0.012210 0.022690 -0.002295 0.000000 -0.000875 0.000000
# 3 -0.001097 -0.002295 0.009115 0.000000 0.002210 0.000000
# 4 0.000000 0.000000 0.000000 0.008890 0.000000 0.017965
# 5 -0.003511 -0.000875 0.002210 0.000000 0.026379 0.000000
# 6 0.000000 0.000000 0.000000 0.017965 0.000000 0.007608
#
#
# Mechanical properties :
#
#
# Convention : Reuss Voigt Hill
#
# Bulk Modulus (GPa) = 53.14195 54.21043 53.67619
# Shear Modulus (GPa) = 38.35068 7.86677 23.10873
#
# Velocity S-wave (km/s) = 4.30793 1.95110 3.34403
# Velocity P-wave (km/s) = 7.10354 5.59542 6.39410
#
# Compressibility (1/GPa) = 0.01881752
#
# Stress axis : x y z
#
# Youngs Moduli (GPa) = 54.89454 44.07201 109.70963
#
# Poissons Ratio (x) = 0.53813 0.12032
# Poissons Ratio (y) = 0.67027 0.25181
# Poissons Ratio (z) = 0.06020 0.10115
#
# Static dielectric constant tensor:
#      x y z
#    x 1.814490 0.000000 -0.009630 
#    y 0.000000 1.703620 0.000000 
#    z -0.009630 0.000000 1.819210 
# 
# From -- ./inp_files/8157.got.cif
#   From: 2010.05.17/outbox.cif.g08.bks.cpg/sg3_5_cif.got.tgz:8157.got - 2010.06.03 18:33:08.
