data_PCOD9113542
_publ_section_title
;
Structure prediction by ZEFSAII (Michael W. Deem and Ramdas Pophale) SiO2 
 PCOD9113542
Probable space group: P 2
;
_chemical_formula_sum "Si O2"
_cell_formula_units_Z 9
_cell_length_a 12.754161
_cell_length_b 5.379670
_cell_length_c 18.921440
_cell_angle_alpha 90.000000
_cell_angle_beta 163.127284
_cell_angle_gamma 90.000000
_cell_volume 376.815494
_symmetry_space_group_name_H-M "P 2"
_symmetry_group_IT_number 3
_symmetry_cell_setting 'monoclinic'
loop_
_space_group_symop_operation_xyz
x,y,z
-x,y,-z
loop_
_atom_site_type_symbol
_atom_site_label
_atom_site_fract_x
_atom_site_fract_y
_atom_site_fract_z
Si Si1 0.424226 0.199770 0.570226
Si Si2 0.753430 0.696307 0.733026
Si Si3 0.810854 0.419712 0.089647
Si Si4 0.109189 0.098914 0.647146
Si Si5 0.500000 0.726346 0.000000
O O1 0.630296 0.462147 0.700697
O O2 0.125247 0.218236 0.312055
O O3 0.215238 0.168649 0.509379
O O4 0.686599 0.962689 0.725808
O O5 0.500000 0.697694 0.500000
O O6 0.118721 0.596754 0.931662
O O7 0.410460 0.310472 0.829239
O O8 0.810173 0.573049 0.161991
O O9 0.000000 0.011132 0.500000
O O10 0.324309 0.890860 0.827390
#
# Coordination Sequence:
#
# PCOD9113542 Si02
#       5
#     2   2   2   2   1
#     4  11  21  43  67 105 137 190 234 304 355 441
#     4  10  22  36  71 102 139 182 245 287 370 429
#     4  11  23  42  73 105 144 193 247 303 369 444
#     4  12  26  43  73 107 147 189 252 304 371 433
#     4  12  22  44  72 104 144 192 248 306 358 440
#
# _framework density 23.884367000000001
#
# number of rings (size 3 to 8) (size 9 to 14) (size 15 to 20)
#    0.000    0.889    4.444    4.667    3.111    0.889 
#    0.000    1.111    0.000    0.000    0.000    0.000 
#    0.000    0.000    0.000    0.000    0.000    0.000 
#
# Total GULP energy -50300.110618 kJ/mol
# GULP energy per Si atom -5588.901180 kJ/mol
# Density = 2.383000 g / cm^3
# Si number density = 23.884367 Si / 1000 Ang^3
#
#
#
# Elastic Constant Matrix: (Units=GPa)
#
#
# Indices 1 2 3 4 5 6 
#
# 1 152.0487 69.6947 63.5778 0.0000 19.8771 0.0000
# 2 69.6947 154.0568 35.0977 0.0000 20.7291 0.0000
# 3 63.5778 35.0977 40.5944 0.0000 5.6521 0.0000
# 4 0.0000 0.0000 0.0000 26.3712 0.0000 15.0937
# 5 19.8771 20.7291 5.6521 0.0000 51.8031 0.0000
# 6 0.0000 0.0000 0.0000 15.0937 0.0000 46.8466
#
#
#
# Elastic Compliance Matrix: (Units=1/GPa)
#
#
# Indices 1 2 3 4 5 6 
#
# 1 0.020401 -0.001941 -0.029744 0.000000 -0.003806 0.000000
# 2 -0.001941 0.008603 -0.004084 0.000000 -0.002252 0.000000
# 3 -0.029744 -0.004084 0.074057 0.000000 0.004967 0.000000
# 4 0.000000 0.000000 0.000000 0.046494 0.000000 -0.014980
# 5 -0.003806 -0.002252 0.004967 0.000000 0.021124 0.000000
# 6 0.000000 0.000000 0.000000 -0.014980 0.000000 0.026173
#
#
# Mechanical properties :
#
#
# Convention : Reuss Voigt Hill
#
# Bulk Modulus (GPa) = 31.72262 75.93782 53.83022
# Shear Modulus (GPa) = 17.92773 36.89281 27.41027
#
# Velocity S-wave (km/s) = 2.74269 3.93446 3.39134
# Velocity P-wave (km/s) = 4.83119 7.24589 6.15806
#
# Compressibility (1/GPa) = 0.03152325
#
# Stress axis : x y z
#
# Youngs Moduli (GPa) = 49.01691 116.24186 13.50303
#
# Poissons Ratio (x) = 0.22562 0.40163
# Poissons Ratio (y) = 0.09514 0.05515
# Poissons Ratio (z) = 1.45794 0.47478
#
# Static dielectric constant tensor:
#      x y z
#    x 1.918630 0.000000 0.070080 
#    y 0.000000 1.996660 0.000000 
#    z 0.070080 0.000000 1.984800 
# 
# From -- ./inp_files/4753.got.cif
#   From: 2010.05.17/outbox.cif.g08.bks.cpg/sg3_3_cif.got.tgz:4753.got - 2010.06.03 18:33:08.
