data_PCOD9113410
_publ_section_title
;
Structure prediction by ZEFSAII (Michael W. Deem and Ramdas Pophale) SiO2 
 PCOD9113410
Probable space group: P 2
;
_chemical_formula_sum "Si O2"
_cell_formula_units_Z 15
_cell_length_a 18.414721
_cell_length_b 8.426112
_cell_length_c 9.493762
_cell_angle_alpha 90.000000
_cell_angle_beta 29.681749
_cell_angle_gamma 90.000000
_cell_volume 729.449979
_symmetry_space_group_name_H-M "P 2"
_symmetry_group_IT_number 3
_symmetry_cell_setting 'monoclinic'
loop_
_space_group_symop_operation_xyz
x,y,z
-x,y,-z
loop_
_atom_site_type_symbol
_atom_site_label
_atom_site_fract_x
_atom_site_fract_y
_atom_site_fract_z
Si Si1 0.003948 0.091100 0.781585
Si Si2 0.939489 0.392680 0.754334
Si Si3 0.652466 0.679162 0.659219
Si Si4 0.567273 0.335848 0.728696
Si Si5 0.245417 0.016559 0.579272
Si Si6 0.628294 0.457937 0.178279
Si Si7 0.000000 0.934161 0.500000
Si Si8 0.834307 0.665682 0.631353
O O1 0.998901 0.281282 0.777627
O O2 0.162727 0.035631 0.567718
O O3 0.884465 0.025813 0.089507
O O4 0.955408 0.033918 0.710091
O O5 0.000000 0.336558 0.500000
O O6 0.015241 0.564523 0.635391
O O7 0.764025 0.392213 0.041568
O O8 0.648399 0.509551 0.584932
O O9 0.774782 0.676349 0.574418
O O10 0.675372 0.846468 0.541396
O O11 0.500000 0.690174 0.000000
O O12 0.659144 0.174835 0.561196
O O13 0.447690 0.339269 0.805158
O O14 0.500000 0.334080 0.000000
O O15 0.500000 0.514957 0.500000
O O16 0.711528 0.579566 0.933729
O O17 0.126127 0.823844 0.352354
#
# Coordination Sequence:
#
# PCOD9113410 Si02
#       8
#     2   2   2   2   2   2   1   2
#     4  11  24  42  63  95 129 169 216 277 321 384
#     4  10  21  40  69  91 126 171 218 261 325 396
#     4  11  22  43  68  94 130 172 219 269 327 396
#     4  11  23  41  69  93 127 177 217 261 331 398
#     4  11  25  43  63  97 134 166 219 276 325 381
#     4  11  22  39  65  99 132 163 216 279 324 383
#     4  12  22  40  70  90 128 170 218 264 330 400
#     4  11  21  42  67  98 121 175 221 260 334 397
#
# _framework density 20.563438999999999
#
# number of rings (size 3 to 8) (size 9 to 14) (size 15 to 20)
#    0.000    1.067    6.667    2.000    1.867    1.067 
#    4.800    1.333    0.000    0.000    0.000    0.000 
#    0.000    0.000    0.000    0.000    0.000    0.000 
#
# Total GULP energy -83634.750582 kJ/mol
# GULP energy per Si atom -5575.650039 kJ/mol
# Density = 2.051664 g / cm^3
# Si number density = 20.563439 Si / 1000 Ang^3
#
#
#
# Elastic Constant Matrix: (Units=GPa)
#
#
# Indices 1 2 3 4 5 6 
#
# 1 90.8095 21.5612 14.7614 0.0000 -12.2069 0.0000
# 2 21.5612 111.0141 27.4189 0.0000 -10.5797 0.0000
# 3 14.7614 27.4189 64.3873 0.0000 -12.8647 0.0000
# 4 0.0000 0.0000 0.0000 -32.1475 0.0000 10.1116
# 5 -12.2069 -10.5797 -12.8647 0.0000 29.8600 0.0000
# 6 0.0000 0.0000 0.0000 10.1116 0.0000 14.5623
#
#
#
# Elastic Compliance Matrix: (Units=1/GPa)
#
#
# Indices 1 2 3 4 5 6 
#
# 1 0.012133 -0.001670 -0.001310 0.000000 0.003804 0.000000
# 2 -0.001670 0.010394 -0.003768 0.000000 0.001376 0.000000
# 3 -0.001310 -0.003768 0.018669 0.000000 0.006173 0.000000
# 4 0.000000 0.000000 0.000000 -0.025531 0.000000 0.017728
# 5 0.003804 0.001376 0.006173 0.000000 0.038192 0.000000
# 6 0.000000 0.000000 0.000000 0.017728 0.000000 0.056361
#
#
# Mechanical properties :
#
#
# Convention : Reuss Voigt Hill
#
# Bulk Modulus (GPa) = 36.10295 43.74376 39.92335
# Shear Modulus (GPa) = 37.60827 15.95293 26.78060
#
# Velocity S-wave (km/s) = 4.28119 2.78832 3.61271
# Velocity P-wave (km/s) = 6.48330 5.62895 6.07117
#
# Compressibility (1/GPa) = 0.02769857
#
# Stress axis : x y z
#
# Youngs Moduli (GPa) = 82.42020 96.20773 53.56355
#
# Poissons Ratio (x) = 0.16070 0.07018
# Poissons Ratio (y) = 0.13767 0.20185
# Poissons Ratio (z) = 0.10800 0.36254
#
# Static dielectric constant tensor:
#      x y z
#    x 1.771870 0.000000 -0.027630 
#    y 0.000000 1.776230 0.000000 
#    z -0.027630 0.000000 1.752840 
# 
# From -- ./inp_files/9141.got.cif
#   From: 2010.05.17/outbox.cif.g08.bks.cpg/sg3_5_cif.got.tgz:9141.got - 2010.06.03 18:33:08.
