data_PCOD9113622
_publ_section_title
;
Structure prediction by ZEFSAII (Michael W. Deem and Ramdas Pophale) SiO2 
 PCOD9113622
Probable space group: P 2
;
_chemical_formula_sum "Si O2"
_cell_formula_units_Z 15
_cell_length_a 21.049070
_cell_length_b 5.400463
_cell_length_c 5.088669
_cell_angle_alpha 90.000000
_cell_angle_beta 73.741705
_cell_angle_gamma 90.000000
_cell_volume 555.320319
_symmetry_space_group_name_H-M "P 2"
_symmetry_group_IT_number 3
_symmetry_cell_setting 'monoclinic'
loop_
_space_group_symop_operation_xyz
x,y,z
-x,y,-z
loop_
_atom_site_type_symbol
_atom_site_label
_atom_site_fract_x
_atom_site_fract_y
_atom_site_fract_z
Si Si1 0.546542 0.550510 0.690317
Si Si2 0.000000 0.267066 0.000000
Si Si3 0.067456 0.886016 0.329988
Si Si4 0.423216 0.045046 0.171087
Si Si5 0.738924 0.519784 0.482762
Si Si6 0.871262 0.274818 0.334258
Si Si7 0.693100 0.238737 0.013246
Si Si8 0.198728 0.908039 0.961585
O O1 0.500000 0.603927 0.500000
O O2 0.577622 0.279616 0.634597
O O3 0.594500 0.784035 0.674844
O O4 0.500000 0.528490 0.000000
O O5 0.938333 0.416921 0.183249
O O6 0.033758 0.084547 0.171414
O O7 0.133102 0.757175 0.130650
O O8 0.000000 0.746902 0.500000
O O9 0.102853 0.053723 0.511565
O O10 0.376238 0.111173 0.982028
O O11 0.500000 0.016696 0.000000
O O12 0.812478 0.443218 0.498323
O O13 0.699143 0.462994 0.795695
O O14 0.708351 0.346362 0.284565
O O15 0.756123 0.768845 0.304384
O O16 0.836949 0.142045 0.128594
O O17 0.749584 0.029019 0.894636
#
# Coordination Sequence:
#
# PCOD9113622 Si02
#       8
#     2   1   2   2   2   2   2   2
#     4  10  22  42  71 103 143 189 234 295 367 435
#     4   8  16  30  58  90 120 176 214 292 354 426
#     4   9  16  33  63  90 130 176 234 290 373 430
#     4  10  24  47  74 107 149 192 247 308 375 446
#     4  11  25  42  68  97 135 186 239 294 366 441
#     4   9  18  37  58  90 127 176 224 292 354 431
#     4  11  26  44  67 104 137 186 243 300 372 446
#     4  10  22  40  65  92 142 179 242 297 366 442
#
# _framework density 27.01144
#
# number of rings (size 3 to 8) (size 9 to 14) (size 15 to 20)
#    0.000    2.133    1.333    0.400    3.733    4.267 
#    2.400    4.000    0.000    7.200    0.000    0.000 
#    0.000    0.000    0.000    0.000    0.000    0.000 
#
# Total GULP energy -83763.908165 kJ/mol
# GULP energy per Si atom -5584.260544 kJ/mol
# Density = 2.694996 g / cm^3
# Si number density = 27.011440 Si / 1000 Ang^3
#
#
#
# Elastic Constant Matrix: (Units=GPa)
#
#
# Indices 1 2 3 4 5 6 
#
# 1 180.7068 28.2898 44.1556 0.0000 17.2443 0.0000
# 2 28.2898 122.3502 9.7306 0.0000 12.5159 0.0000
# 3 44.1556 9.7306 93.2935 0.0000 16.8381 0.0000
# 4 0.0000 0.0000 0.0000 22.7050 0.0000 31.8720
# 5 17.2443 12.5159 16.8381 0.0000 45.9173 0.0000
# 6 0.0000 0.0000 0.0000 31.8720 0.0000 31.8128
#
#
#
# Elastic Compliance Matrix: (Units=1/GPa)
#
#
# Indices 1 2 3 4 5 6 
#
# 1 0.006495 -0.001169 -0.002752 0.000000 -0.001112 0.000000
# 2 -0.001169 0.008640 -0.000002 0.000000 -0.001915 0.000000
# 3 -0.002752 -0.000002 0.012674 0.000000 -0.003614 0.000000
# 4 0.000000 0.000000 0.000000 -0.108386 0.000000 0.108588
# 5 -0.001112 -0.001915 -0.003614 0.000000 0.024043 0.000000
# 6 0.000000 0.000000 0.000000 0.108588 0.000000 -0.077356
#
#
# Mechanical properties :
#
#
# Convention : Reuss Voigt Hill
#
# Bulk Modulus (GPa) = 50.09358 62.30026 56.19692
# Shear Modulus (GPa) = -41.87956 41.03198 -0.42379
#
# Velocity S-wave (km/s) = -3.94183 3.90174 -0.39653
# Velocity P-wave (km/s) = 1.46007 6.58882 4.54317
#
# Compressibility (1/GPa) = 0.01996264
#
# Stress axis : x y z
#
# Youngs Moduli (GPa) = 153.95714 115.74483 78.90410
#
# Poissons Ratio (x) = 0.13534 0.21712
# Poissons Ratio (y) = 0.18002 0.00016
# Poissons Ratio (z) = 0.42363 0.00024
#
# Static dielectric constant tensor:
#      x y z
#    x 2.161800 0.000000 -0.218740 
#    y 0.000000 2.179560 0.000000 
#    z -0.218740 0.000000 2.307780 
# 
# From -- ./inp_files/3877.got.cif
#   From: 2010.05.17/outbox.cif.g08.bks.cpg/sg3_2_cif.got.tgz:3877.got - 2010.06.03 18:33:08.
