data_PCOD9113284
_publ_section_title
;
Structure prediction by ZEFSAII (Michael W. Deem and Ramdas Pophale) SiO2 
 PCOD9113284
Probable space group: P 2
;
_chemical_formula_sum "Si O2"
_cell_formula_units_Z 16
_cell_length_a 17.830904
_cell_length_b 9.539785
_cell_length_c 5.850211
_cell_angle_alpha 90.000000
_cell_angle_beta 47.233423
_cell_angle_gamma 90.000000
_cell_volume 730.557048
_symmetry_space_group_name_H-M "P 2"
_symmetry_group_IT_number 3
_symmetry_cell_setting 'monoclinic'
loop_
_space_group_symop_operation_xyz
x,y,z
-x,y,-z
loop_
_atom_site_type_symbol
_atom_site_label
_atom_site_fract_x
_atom_site_fract_y
_atom_site_fract_z
Si Si1 0.283501 0.125000 0.846214
Si Si2 0.752592 0.685128 0.244482
Si Si3 0.042211 0.402916 0.664637
Si Si4 0.359921 0.869123 0.905863
Si Si5 0.408756 0.609842 0.036190
Si Si6 0.736585 0.432935 0.971559
Si Si7 0.804978 0.940007 0.364577
Si Si8 0.931838 0.085746 0.448066
O O1 0.370922 0.024396 0.775555
O O2 0.252643 0.056971 0.668311
O O3 0.300466 0.290542 0.829796
O O4 0.178681 0.109030 0.206461
O O5 0.688705 0.776757 0.194723
O O6 0.681433 0.640938 0.600081
O O7 0.832264 0.799760 0.168491
O O8 0.781461 0.543211 0.060679
O O9 0.166326 0.412052 0.398209
O O10 0.018073 0.236122 0.706992
O O11 0.000000 0.454529 0.500000
O O12 0.000000 0.456478 0.000000
O O13 0.439473 0.760978 0.858325
O O14 0.275338 0.893361 0.276068
O O15 0.359703 0.505666 0.953327
O O16 0.500000 0.552042 0.000000
O O17 0.901630 0.004217 0.285812
O O18 0.000000 0.012426 0.500000
#
# Coordination Sequence:
#
# PCOD9113284 Si02
#       8
#     2   2   2   2   2   2   2   2
#     4   9  18  33  54  85 116 155 201 257 310 371
#     4   9  19  36  61  84 118 161 202 250 316 380
#     4  10  23  38  60  93 130 169 223 273 324 388
#     4   8  17  35  54  84 109 147 199 245 301 370
#     4  10  21  38  63  89 119 164 210 261 321 397
#     4  10  22  36  61  95 124 167 212 262 324 378
#     4   9  17  32  58  80 113 153 198 252 312 378
#     4   9  19  30  51  86 119 149 204 265 315 369
#
# _framework density 21.901098999999999
#
# number of rings (size 3 to 8) (size 9 to 14) (size 15 to 20)
#    0.000    2.750    0.000    0.000    7.000    4.000 
#    0.000    0.625    0.000   39.000    0.000    0.875 
#    0.000    0.000    0.000    0.000    0.000    0.000 
#
# Total GULP energy -89090.531727 kJ/mol
# GULP energy per Si atom -5568.158233 kJ/mol
# Density = 2.185125 g / cm^3
# Si number density = 21.901099 Si / 1000 Ang^3
#
#
#
# Elastic Constant Matrix: (Units=GPa)
#
#
# Indices 1 2 3 4 5 6 
#
# 1 114.8341 54.5922 13.3582 0.0000 17.4213 0.0000
# 2 54.5922 142.5064 27.2787 0.0000 19.6353 0.0000
# 3 13.3582 27.2787 50.2671 0.0000 17.3804 0.0000
# 4 0.0000 0.0000 0.0000 8.7384 0.0000 -0.9248
# 5 17.4213 19.6353 17.3804 0.0000 29.7687 0.0000
# 6 0.0000 0.0000 0.0000 -0.9248 0.0000 7.6285
#
#
#
# Elastic Compliance Matrix: (Units=1/GPa)
#
#
# Indices 1 2 3 4 5 6 
#
# 1 0.011088 -0.003762 0.000602 0.000000 -0.004359 0.000000
# 2 -0.003762 0.009386 -0.003401 0.000000 -0.002003 0.000000
# 3 0.000602 -0.003401 0.026218 0.000000 -0.013417 0.000000
# 4 0.000000 0.000000 0.000000 0.115924 0.000000 0.014053
# 5 -0.004359 -0.002003 -0.013417 0.000000 0.045298 0.000000
# 6 0.000000 0.000000 0.000000 0.014053 0.000000 0.132790
#
#
# Mechanical properties :
#
#
# Convention : Reuss Voigt Hill
#
# Bulk Modulus (GPa) = 29.78844 55.34065 42.56455
# Shear Modulus (GPa) = 13.69802 23.38570 18.54186
#
# Velocity S-wave (km/s) = 2.50361 3.27125 2.91283
# Velocity P-wave (km/s) = 4.68917 6.29217 5.54886
#
# Compressibility (1/GPa) = 0.03357007
#
# Stress axis : x y z
#
# Youngs Moduli (GPa) = 90.18684 106.54674 38.14146
#
# Poissons Ratio (x) = 0.40087 -0.02297
# Poissons Ratio (y) = 0.33932 0.12971
# Poissons Ratio (z) = -0.05432 0.36235
#
# Static dielectric constant tensor:
#      x y z
#    x 1.871300 0.000000 0.014900 
#    y 0.000000 1.855490 0.000000 
#    z 0.014900 0.000000 1.844840 
# 
# From -- ./inp_files/3932.got.cif
#   From: 2010.05.17/outbox.cif.g08.bks.cpg/sg3_2_cif.got.tgz:3932.got - 2010.06.03 18:33:08.
