data_PCOD9113169
_publ_section_title
;
Structure prediction by ZEFSAII (Michael W. Deem and Ramdas Pophale) SiO2 
 PCOD9113169
Probable space group: P 2
;
_chemical_formula_sum "Si O2"
_cell_formula_units_Z 13
_cell_length_a 5.321187
_cell_length_b 17.803809
_cell_length_c 5.394703
_cell_angle_alpha 90.000000
_cell_angle_beta 90.383364
_cell_angle_gamma 90.000000
_cell_volume 511.068680
_symmetry_space_group_name_H-M "P 2"
_symmetry_group_IT_number 3
_symmetry_cell_setting 'monoclinic'
loop_
_space_group_symop_operation_xyz
x,y,z
-x,y,-z
loop_
_atom_site_type_symbol
_atom_site_label
_atom_site_fract_x
_atom_site_fract_y
_atom_site_fract_z
Si Si1 0.361126 0.742540 0.246671
Si Si2 0.746740 0.067230 0.831940
Si Si3 0.844548 0.903462 0.742241
Si Si4 0.248553 0.394270 0.348820
Si Si5 0.138901 0.595084 0.252025
Si Si6 0.749069 0.228685 0.831186
Si Si7 0.500000 0.497270 0.000000
O O1 0.500000 0.724859 0.500000
O O2 0.332371 0.831998 0.232519
O O3 0.129356 0.685858 0.251947
O O4 0.500000 0.719539 0.000000
O O5 0.748178 0.147495 0.693999
O O6 0.741484 0.987332 0.695163
O O7 0.500000 0.066795 0.000000
O O8 0.000000 0.066915 0.000000
O O9 0.000000 0.884102 0.500000
O O10 0.000000 0.905939 0.000000
O O11 0.500000 0.415533 0.500000
O O12 0.249568 0.304234 0.324014
O O13 0.000000 0.413970 0.500000
O O14 0.287757 0.434824 0.082887
O O15 0.000000 0.570684 0.500000
O O16 0.416093 0.558426 0.213243
O O17 0.000000 0.570974 0.000000
O O18 0.500000 0.230725 0.000000
O O19 0.000000 0.230567 0.000000
#
# Coordination Sequence:
#
# PCOD9113169 Si02
#       7
#     2   2   2   2   2   2   1
#     4  12  24  44  72 106 149 194 246 305 372 449
#     4   9  20  39  67 103 144 192 243 305 365 436
#     4  11  23  42  67 103 147 193 246 304 368 438
#     4  12  28  46  75 109 148 194 253 312 385 455
#     4  12  28  49  78 108 149 196 248 311 386 456
#     4  10  20  42  71 101 146 193 245 303 373 447
#     4  12  30  48  76 102 150 188 256 312 386 460
#
# _framework density 25.436893999999999
#
# number of rings (size 3 to 8) (size 9 to 14) (size 15 to 20)
#    0.000    0.923    1.538    4.615    4.308    1.846 
#    0.000    3.846    0.000    0.000    0.000    0.000 
#    0.000    0.000    0.000    0.000    0.000    0.000 
#
# Total GULP energy -72574.206304 kJ/mol
# GULP energy per Si atom -5582.631254 kJ/mol
# Density = 2.537900 g / cm^3
# Si number density = 25.436894 Si / 1000 Ang^3
#
#
#
# Elastic Constant Matrix: (Units=GPa)
#
#
# Indices 1 2 3 4 5 6 
#
# 1 143.3788 17.5367 65.9313 0.0000 -20.1500 0.0000
# 2 17.5367 193.2102 27.0681 0.0000 -6.5002 0.0000
# 3 65.9313 27.0681 166.2414 0.0000 -28.7971 0.0000
# 4 0.0000 0.0000 0.0000 -3.7314 0.0000 -7.1664
# 5 -20.1500 -6.5002 -28.7971 0.0000 64.9783 0.0000
# 6 0.0000 0.0000 0.0000 -7.1664 0.0000 20.5491
#
#
#
# Elastic Compliance Matrix: (Units=1/GPa)
#
#
# Indices 1 2 3 4 5 6 
#
# 1 0.008641 -0.000299 -0.003162 0.000000 0.001248 0.000000
# 2 -0.000299 0.005308 -0.000725 0.000000 0.000117 0.000000
# 3 -0.003162 -0.000725 0.007804 0.000000 0.002406 0.000000
# 4 0.000000 0.000000 0.000000 -0.160497 0.000000 -0.055973
# 5 0.001248 0.000117 0.002406 0.000000 0.016855 0.000000
# 6 0.000000 0.000000 0.000000 -0.055973 0.000000 0.029144
#
#
# Mechanical properties :
#
#
# Convention : Reuss Voigt Hill
#
# Bulk Modulus (GPa) = 74.73872 80.43363 77.58617
# Shear Modulus (GPa) = -62.56840 42.51216 -10.02812
#
# Velocity S-wave (km/s) = -4.96497 4.09256 -1.98769
# Velocity P-wave (km/s) = 1.84988 7.34994 5.02989
#
# Compressibility (1/GPa) = 0.01337995
#
# Stress axis : x y z
#
# Youngs Moduli (GPa) = 115.73380 188.37953 128.13665
#
# Poissons Ratio (x) = 0.05638 0.40515
# Poissons Ratio (y) = 0.03464 0.09295
# Poissons Ratio (z) = 0.36594 0.13665
#
# Static dielectric constant tensor:
#      x y z
#    x 2.184030 0.000000 0.133770 
#    y 0.000000 2.043720 0.000000 
#    z 0.133770 0.000000 2.017110 
# 
# From -- ./inp_files/564.got.cif
#   From: 2010.05.17/outbox.cif.g08.bks.cpg/sg3_1_cif.got.tgz:564.got - 2010.06.03 18:33:08.
