data_PCOD9113065
_publ_section_title
;
Structure prediction by ZEFSAII (Michael W. Deem and Ramdas Pophale) SiO2 
 PCOD9113065
Probable space group: P 2
;
_chemical_formula_sum "Si O2"
_cell_formula_units_Z 14
_cell_length_a 13.999554
_cell_length_b 8.923671
_cell_length_c 14.478803
_cell_angle_alpha 90.000000
_cell_angle_beta 19.955370
_cell_angle_gamma 90.000000
_cell_volume 617.321671
_symmetry_space_group_name_H-M "P 2"
_symmetry_group_IT_number 3
_symmetry_cell_setting 'monoclinic'
loop_
_space_group_symop_operation_xyz
x,y,z
-x,y,-z
loop_
_atom_site_type_symbol
_atom_site_label
_atom_site_fract_x
_atom_site_fract_y
_atom_site_fract_z
Si Si1 0.920240 0.586780 0.849403
Si Si2 0.000000 0.142757 0.000000
Si Si3 0.500000 0.617627 0.500000
Si Si4 0.582708 0.089930 0.216768
Si Si5 0.124465 0.439338 0.481639
Si Si6 0.741275 0.341663 0.380188
Si Si7 0.633661 0.233301 0.975175
Si Si8 0.537131 0.759324 0.635414
O O1 0.035755 0.552713 0.642422
O O2 0.967403 0.423098 0.854147
O O3 0.148492 0.707916 0.677269
O O4 0.623282 0.659401 0.141906
O O5 0.835822 0.073583 0.061884
O O6 0.788235 0.250945 0.244935
O O7 0.569050 0.490551 0.514864
O O8 0.363085 0.733100 0.697810
O O9 0.390538 0.227873 0.427403
O O10 0.440683 0.928952 0.352572
O O11 0.652379 0.127416 0.047310
O O12 0.000000 0.501333 0.500000
O O13 0.940416 0.291610 0.670861
O O14 0.438885 0.378045 0.180826
O O15 0.500000 0.174762 0.000000
#
# Coordination Sequence:
#
# PCOD9113065 Si02
#       8
#     2   1   1   2   2   2   2   2
#     4  11  23  44  64  94 131 180 222 285 335 424
#     4  12  24  36  70  94 130 166 236 282 344 388
#     4  10  22  42  58  90 126 174 220 274 328 408
#     4  12  26  42  64 103 135 187 226 295 341 433
#     4  10  20  38  70 103 129 166 229 295 341 395
#     4  11  22  39  67  90 127 173 238 274 338 397
#     4  10  22  41  69 103 135 173 228 292 343 399
#     4  11  28  41  64  91 143 177 226 273 364 404
#
# _framework density 22.678614
#
# number of rings (size 3 to 8) (size 9 to 14) (size 15 to 20)
#    0.000    1.143    2.857    2.571    8.000    2.857 
#    0.000    1.429    0.000    0.000    0.000    0.000 
#    0.000    0.000    0.000    0.000    0.000    0.000 
#
# Total GULP energy -77940.130352 kJ/mol
# GULP energy per Si atom -5567.152168 kJ/mol
# Density = 2.262700 g / cm^3
# Si number density = 22.678614 Si / 1000 Ang^3
#
#
#
# Elastic Constant Matrix: (Units=GPa)
#
#
# Indices 1 2 3 4 5 6 
#
# 1 114.9400 23.1926 17.2428 0.0000 29.0614 0.0000
# 2 23.1926 87.7041 17.3482 0.0000 12.0120 0.0000
# 3 17.2428 17.3482 93.9433 0.0000 9.4063 0.0000
# 4 0.0000 0.0000 0.0000 23.6116 0.0000 15.7335
# 5 29.0614 12.0120 9.4063 0.0000 41.4052 0.0000
# 6 0.0000 0.0000 0.0000 15.7335 0.0000 17.1998
#
#
#
# Elastic Compliance Matrix: (Units=1/GPa)
#
#
# Indices 1 2 3 4 5 6 
#
# 1 0.010962 -0.001749 -0.000992 0.000000 -0.006961 0.000000
# 2 -0.001749 0.012490 -0.001786 0.000000 -0.001990 0.000000
# 3 -0.000992 -0.001786 0.011292 0.000000 -0.001351 0.000000
# 4 0.000000 0.000000 0.000000 0.108468 0.000000 -0.099221
# 5 -0.006961 -0.001990 -0.001351 0.000000 0.029922 0.000000
# 6 0.000000 0.000000 0.000000 -0.099221 0.000000 0.148902
#
#
# Mechanical properties :
#
#
# Convention : Reuss Voigt Hill
#
# Bulk Modulus (GPa) = 38.92643 45.79495 42.36069
# Shear Modulus (GPa) = 14.72086 32.36358 23.54222
#
# Velocity S-wave (km/s) = 2.55052 3.78173 3.22542
# Velocity P-wave (km/s) = 5.08677 6.26941 5.70880
#
# Compressibility (1/GPa) = 0.02568949
#
# Stress axis : x y z
#
# Youngs Moduli (GPa) = 91.22409 80.06134 88.55899
#
# Poissons Ratio (x) = 0.14004 0.08785
# Poissons Ratio (y) = 0.15957 0.15819
# Poissons Ratio (z) = 0.09049 0.14301
#
# Static dielectric constant tensor:
#      x y z
#    x 2.054100 0.000000 -0.130060 
#    y 0.000000 1.820360 0.000000 
#    z -0.130060 0.000000 1.685110 
# 
# From -- ./inp_files/12914.got.cif
#   From: 2010.05.17/outbox.cif.g08.bks.cpg/sg3_7_cif.got.tgz:12914.got - 2010.06.03 18:33:08.
