data_PCOD9113358
_publ_section_title
;
Structure prediction by ZEFSAII (Michael W. Deem and Ramdas Pophale) SiO2 
 PCOD9113358
Probable space group: P 2
;
_chemical_formula_sum "Si O2"
_cell_formula_units_Z 16
_cell_length_a 17.852741
_cell_length_b 8.538819
_cell_length_c 9.204296
_cell_angle_alpha 90.000000
_cell_angle_beta 30.212246
_cell_angle_gamma 90.000000
_cell_volume 706.054040
_symmetry_space_group_name_H-M "P 2"
_symmetry_group_IT_number 3
_symmetry_cell_setting 'monoclinic'
loop_
_space_group_symop_operation_xyz
x,y,z
-x,y,-z
loop_
_atom_site_type_symbol
_atom_site_label
_atom_site_fract_x
_atom_site_fract_y
_atom_site_fract_z
Si Si1 0.264119 0.782640 0.137300
Si Si2 0.932282 0.486736 0.474838
Si Si3 0.657740 0.984045 0.738424
Si Si4 0.335046 0.285368 0.077715
Si Si5 0.529549 0.557808 0.625703
Si Si6 0.125686 0.632495 0.911913
Si Si7 0.839620 0.078181 0.847571
Si Si8 0.862365 0.004098 0.130384
O O1 0.149116 0.641174 0.328663
O O2 0.241396 0.874314 0.328271
O O3 0.234845 0.909553 0.062407
O O4 0.424963 0.703494 0.848614
O O5 0.801717 0.384088 0.625189
O O6 0.000000 0.400858 0.500000
O O7 0.062859 0.538222 0.152976
O O8 0.632127 0.143803 0.869718
O O9 0.721678 0.013774 0.472999
O O10 0.500000 0.900027 0.000000
O O11 0.268638 0.204185 0.044557
O O12 0.464295 0.404296 0.816190
O O13 0.500000 0.541611 0.500000
O O14 0.699793 0.587599 0.389373
O O15 0.119118 0.820522 0.939289
O O16 0.000000 0.597128 0.000000
O O17 0.000000 0.070552 0.500000
O O18 0.855230 0.098281 0.993244
O O19 0.000000 0.054418 0.000000
#
# Coordination Sequence:
#
# PCOD9113358 Si02
#       8
#     2   2   2   2   2   2   2   2
#     4  10  21  39  67  96 127 171 220 278 339 395
#     4  11  21  40  66  94 128 169 217 268 327 399
#     4  11  24  43  63  91 131 173 216 267 331 398
#     4  10  25  43  63  92 132 179 221 271 335 400
#     4  11  23  42  68  99 134 177 231 287 340 403
#     4  11  23  40  67 103 133 167 223 284 336 395
#     4  11  21  40  69 101 134 174 228 284 337 401
#     4  11  22  39  67 100 131 168 221 279 334 397
#
# _framework density 22.661155000000001
#
# number of rings (size 3 to 8) (size 9 to 14) (size 15 to 20)
#    0.000    1.250    0.000    8.250    0.000    2.000 
#    0.000    9.375    0.000    6.000    0.000    0.000 
#    0.000    0.000    0.000    0.000    0.000    0.000 
#
# Total GULP energy -89475.635071 kJ/mol
# GULP energy per Si atom -5592.227192 kJ/mol
# Density = 2.260958 g / cm^3
# Si number density = 22.661155 Si / 1000 Ang^3
#
#
#
# Elastic Constant Matrix: (Units=GPa)
#
#
# Indices 1 2 3 4 5 6 
#
# 1 117.5676 28.6201 56.8861 0.0000 -0.9311 0.0000
# 2 28.6201 73.4165 15.0413 0.0000 -7.8964 0.0000
# 3 56.8861 15.0413 138.2483 0.0000 -9.1441 0.0000
# 4 0.0000 0.0000 0.0000 -6.4867 0.0000 -45.7355
# 5 -0.9311 -7.8964 -9.1441 0.0000 49.4926 0.0000
# 6 0.0000 0.0000 0.0000 -45.7355 0.0000 44.8138
#
#
#
# Elastic Compliance Matrix: (Units=1/GPa)
#
#
# Indices 1 2 3 4 5 6 
#
# 1 0.011543 -0.003722 -0.004424 0.000000 -0.001194 0.000000
# 2 -0.003722 0.015323 0.000022 0.000000 0.002379 0.000000
# 3 -0.004424 0.000022 0.009158 0.000000 0.001612 0.000000
# 4 0.000000 0.000000 0.000000 -0.018810 0.000000 -0.019197
# 5 -0.001194 0.002379 0.001612 0.000000 0.020860 0.000000
# 6 0.000000 0.000000 0.000000 -0.019197 0.000000 0.002723
#
#
# Mechanical properties :
#
#
# Convention : Reuss Voigt Hill
#
# Bulk Modulus (GPa) = 50.56591 58.92528 54.74560
# Shear Modulus (GPa) = 78.57174 32.80959 55.69067
#
# Velocity S-wave (km/s) = 5.89472 3.80917 4.96274
# Velocity P-wave (km/s) = 8.28810 6.73837 7.55309
#
# Compressibility (1/GPa) = 0.01977617
#
# Stress axis : x y z
#
# Youngs Moduli (GPa) = 86.63462 65.26040 109.19579
#
# Poissons Ratio (x) = 0.24289 0.48304
# Poissons Ratio (y) = 0.32244 -0.00236
# Poissons Ratio (z) = 0.38324 -0.00141
#
# Static dielectric constant tensor:
#      x y z
#    x 1.905730 0.000000 -0.022850 
#    y 0.000000 1.802130 0.000000 
#    z -0.022850 0.000000 1.839380 
# 
# From -- ./inp_files/9136.got.cif
#   From: 2010.05.17/outbox.cif.g08.bks.cpg/sg3_5_cif.got.tgz:9136.got - 2010.06.03 18:33:08.
