data_PCOD9113718
_publ_section_title
;
Structure prediction by ZEFSAII (Michael W. Deem and Ramdas Pophale) SiO2 
 PCOD9113718
Probable space group: P 2
;
_chemical_formula_sum "Si O2"
_cell_formula_units_Z 15
_cell_length_a 9.444952
_cell_length_b 11.288706
_cell_length_c 8.685457
_cell_angle_alpha 90.000000
_cell_angle_beta 132.564912
_cell_angle_gamma 90.000000
_cell_volume 682.049832
_symmetry_space_group_name_H-M "P 2"
_symmetry_group_IT_number 3
_symmetry_cell_setting 'monoclinic'
loop_
_space_group_symop_operation_xyz
x,y,z
-x,y,-z
loop_
_atom_site_type_symbol
_atom_site_label
_atom_site_fract_x
_atom_site_fract_y
_atom_site_fract_z
Si Si1 0.601239 0.078040 0.917015
Si Si2 0.000000 0.287116 0.500000
Si Si3 0.879755 0.672190 0.061028
Si Si4 0.238516 0.125602 0.441925
Si Si5 0.471548 0.810002 0.151736
Si Si6 0.108869 0.873224 0.417818
Si Si7 0.291768 0.441268 0.921721
Si Si8 0.210321 0.265751 0.113200
O O1 0.441762 0.097727 0.669969
O O2 0.782177 0.156008 0.002222
O O3 0.629793 0.938096 0.948131
O O4 0.500000 0.118537 0.000000
O O5 0.118454 0.203454 0.473106
O O6 0.152403 0.365622 0.707946
O O7 0.822442 0.560528 0.122012
O O8 0.995822 0.772148 0.241998
O O9 0.676166 0.730479 0.863960
O O10 0.000000 0.637996 0.000000
O O11 0.270591 0.205011 0.315957
O O12 0.139102 0.996713 0.348868
O O13 0.677581 0.828183 0.380216
O O14 0.500000 0.760625 0.000000
O O15 0.000000 0.898393 0.500000
O O16 0.500000 0.460644 0.000000
O O17 0.321125 0.367599 0.103138
O O18 0.000000 0.312221 0.000000
#
# Coordination Sequence:
#
# PCOD9113718 Si02
#       8
#     2   1   2   2   2   2   2   2
#     4  10  23  40  66 104 146 188 232 289 356 444
#     4  12  24  46  74 106 138 192 238 300 366 428
#     4  12  29  47  73 104 146 191 247 307 362 421
#     4  11  24  41  72 109 148 184 232 295 377 433
#     4  10  22  42  71 103 142 187 237 289 359 426
#     4  11  24  44  75 112 148 190 245 294 361 449
#     4  12  29  51  74 101 141 196 255 300 356 435
#     4  12  24  41  70 102 149 179 237 295 362 423
#
# _framework density 21.992529999999999
#
# number of rings (size 3 to 8) (size 9 to 14) (size 15 to 20)
#    0.000    0.800    3.333    3.200    4.667    0.533 
#    0.000    0.000    2.933    0.000    0.000    0.000 
#    0.000    0.000    0.000    0.000    0.000    0.000 
#
# Total GULP energy -83897.600026 kJ/mol
# GULP energy per Si atom -5593.173335 kJ/mol
# Density = 2.194247 g / cm^3
# Si number density = 21.992530 Si / 1000 Ang^3
#
#
#
# Elastic Constant Matrix: (Units=GPa)
#
#
# Indices 1 2 3 4 5 6 
#
# 1 159.5586 62.7743 25.0350 0.0000 2.3817 0.0000
# 2 62.7743 128.1115 46.6887 0.0000 2.6626 0.0000
# 3 25.0350 46.6887 78.1479 0.0000 1.6514 0.0000
# 4 0.0000 0.0000 0.0000 23.2138 0.0000 -1.4263
# 5 2.3817 2.6626 1.6514 0.0000 36.0633 0.0000
# 6 0.0000 0.0000 0.0000 -1.4263 0.0000 16.8385
#
#
#
# Elastic Compliance Matrix: (Units=1/GPa)
#
#
# Indices 1 2 3 4 5 6 
#
# 1 0.007770 -0.003704 -0.000272 0.000000 -0.000227 0.000000
# 2 -0.003704 0.011751 -0.005827 0.000000 -0.000356 0.000000
# 3 -0.000272 -0.005827 0.016371 0.000000 -0.000302 0.000000
# 4 0.000000 0.000000 0.000000 0.043303 0.000000 0.003668
# 5 -0.000227 -0.000356 -0.000302 0.000000 0.027784 0.000000
# 6 0.000000 0.000000 0.000000 0.003668 0.000000 0.059699
#
#
# Mechanical properties :
#
#
# Convention : Reuss Voigt Hill
#
# Bulk Modulus (GPa) = 61.39392 70.53489 65.96441
# Shear Modulus (GPa) = 26.08074 30.64445 28.36259
#
# Velocity S-wave (km/s) = 3.44741 3.73688 3.59506
# Velocity P-wave (km/s) = 6.61987 7.12467 6.87690
#
# Compressibility (1/GPa) = 0.01628826
#
# Stress axis : x y z
#
# Youngs Moduli (GPa) = 128.69241 85.09612 61.08439
#
# Poissons Ratio (x) = 0.31518 0.01660
# Poissons Ratio (y) = 0.47665 0.35592
# Poissons Ratio (z) = 0.03497 0.49583
#
# Static dielectric constant tensor:
#      x y z
#    x 1.818670 0.000000 0.007930 
#    y 0.000000 1.805750 0.000000 
#    z 0.007930 0.000000 1.826910 
# 
# From -- ./inp_files/6072.got.cif
#   From: 2010.05.17/outbox.cif.g08.bks.cpg/sg3_4_cif.got.tgz:6072.got - 2010.06.03 18:33:08.
