data_PCOD9113435
_publ_section_title
;
Structure prediction by ZEFSAII (Michael W. Deem and Ramdas Pophale) SiO2 
 PCOD9113435
Probable space group: P 2
;
_chemical_formula_sum "Si O2"
_cell_formula_units_Z 12
_cell_length_a 14.583682
_cell_length_b 8.630159
_cell_length_c 10.060625
_cell_angle_alpha 90.000000
_cell_angle_beta 28.768214
_cell_angle_gamma 90.000000
_cell_volume 609.392963
_symmetry_space_group_name_H-M "P 2"
_symmetry_group_IT_number 3
_symmetry_cell_setting 'monoclinic'
loop_
_space_group_symop_operation_xyz
x,y,z
-x,y,-z
loop_
_atom_site_type_symbol
_atom_site_label
_atom_site_fract_x
_atom_site_fract_y
_atom_site_fract_z
Si Si1 0.960165 0.388170 0.705784
Si Si2 0.559501 0.677344 0.776267
Si Si3 0.640331 0.308962 0.704729
Si Si4 0.649270 0.836866 0.194941
Si Si5 0.016897 0.683106 0.823657
Si Si6 0.578172 0.198979 0.256278
O O1 0.000000 0.425677 0.500000
O O2 0.143764 0.292035 0.522118
O O3 0.970474 0.539421 0.785471
O O4 0.761299 0.299849 0.979374
O O5 0.588903 0.490660 0.742318
O O6 0.407323 0.735708 0.862079
O O7 0.768474 0.739671 0.474040
O O8 0.500000 0.723945 0.000000
O O9 0.590242 0.222461 0.634497
O O10 0.500000 0.256471 0.000000
O O11 0.500000 0.792443 0.500000
O O12 0.628760 0.018287 0.192995
O O13 0.858090 0.806276 0.986222
O O14 0.000000 0.638213 0.000000
O O15 0.500000 0.246062 0.500000
#
# Coordination Sequence:
#
# PCOD9113435 Si02
#       6
#     2   2   2   2   2   2
#     4  11  24  43  67  98 127 161 212 266 317 371
#     4  10  23  41  65  96 122 165 214 268 313 368
#     4  10  21  41  67  91 126 163 208 265 315 367
#     4  11  24  44  63  90 133 171 209 259 313 380
#     4  11  24  41  69  96 124 166 214 263 316 370
#     4  11  26  42  63  93 128 174 211 255 314 378
#
# _framework density 19.691725999999999
#
# number of rings (size 3 to 8) (size 9 to 14) (size 15 to 20)
#    0.000    1.333    3.333    1.000    9.333    3.333 
#    3.000    0.000    0.000    0.000    0.000    0.000 
#    0.000    0.000    0.000    0.000    0.000    0.000 
#
# Total GULP energy -67049.983275 kJ/mol
# GULP energy per Si atom -5587.498606 kJ/mol
# Density = 1.964691 g / cm^3
# Si number density = 19.691726 Si / 1000 Ang^3
#
#
#
# Elastic Constant Matrix: (Units=GPa)
#
#
# Indices 1 2 3 4 5 6 
#
# 1 161.9733 28.9883 49.7406 0.0000 17.4666 0.0000
# 2 28.9883 18.5961 11.3307 0.0000 11.1753 0.0000
# 3 49.7406 11.3307 99.9139 0.0000 11.1178 0.0000
# 4 0.0000 0.0000 0.0000 31.6750 0.0000 31.3142
# 5 17.4666 11.1753 11.1178 0.0000 44.4874 0.0000
# 6 0.0000 0.0000 0.0000 31.3142 0.0000 65.6146
#
#
#
# Elastic Compliance Matrix: (Units=1/GPa)
#
#
# Indices 1 2 3 4 5 6 
#
# 1 0.009464 -0.012971 -0.003281 0.000000 0.000363 0.000000
# 2 -0.012971 0.084276 -0.001348 0.000000 -0.015740 0.000000
# 3 -0.003281 -0.001348 0.011946 0.000000 -0.001359 0.000000
# 4 0.000000 0.000000 0.000000 0.059771 0.000000 -0.028526
# 5 0.000363 -0.015740 -0.001359 0.000000 0.026629 0.000000
# 6 0.000000 0.000000 0.000000 -0.028526 0.000000 0.028854
#
#
# Mechanical properties :
#
#
# Convention : Reuss Voigt Hill
#
# Bulk Modulus (GPa) = 14.18748 51.17806 32.68277
# Shear Modulus (GPa) = 17.88043 41.05033 29.46538
#
# Velocity S-wave (km/s) = 3.01660 4.57075 3.87244
# Velocity P-wave (km/s) = 4.39927 7.34178 6.05208
#
# Compressibility (1/GPa) = 0.07048470
#
# Stress axis : x y z
#
# Youngs Moduli (GPa) = 105.66683 11.86584 83.71050
#
# Poissons Ratio (x) = 0.15392 0.27463
# Poissons Ratio (y) = 1.37065 0.11285
# Poissons Ratio (z) = 0.34666 0.01600
#
# Static dielectric constant tensor:
#      x y z
#    x 1.675960 0.000000 -0.006950 
#    y 0.000000 1.678720 0.000000 
#    z -0.006950 0.000000 1.677460 
# 
# From -- ./inp_files/7290.got.cif
#   From: 2010.05.17/outbox.cif.g08.bks.cpg/sg3_4_cif.got.tgz:7290.got - 2010.06.03 18:33:08.
