data_PCOD9113670
_publ_section_title
;
Structure prediction by ZEFSAII (Michael W. Deem and Ramdas Pophale) SiO2 
 PCOD9113670
Probable space group: P 2
;
_chemical_formula_sum "Si O2"
_cell_formula_units_Z 12
_cell_length_a 14.364518
_cell_length_b 5.199233
_cell_length_c 13.152037
_cell_angle_alpha 90.000000
_cell_angle_beta 29.053133
_cell_angle_gamma 90.000000
_cell_volume 477.002176
_symmetry_space_group_name_H-M "P 2"
_symmetry_group_IT_number 3
_symmetry_cell_setting 'monoclinic'
loop_
_space_group_symop_operation_xyz
x,y,z
-x,y,-z
loop_
_atom_site_type_symbol
_atom_site_label
_atom_site_fract_x
_atom_site_fract_y
_atom_site_fract_z
Si Si1 0.281857 0.899490 0.498711
Si Si2 0.753539 0.190213 0.911246
Si Si3 0.952109 0.545418 0.870113
Si Si4 0.000000 0.216996 0.500000
Si Si5 0.337927 0.398017 0.309923
Si Si6 0.000000 0.191966 0.000000
Si Si7 0.329412 0.897495 0.797550
O O1 0.079788 0.797007 0.731923
O O2 0.341536 0.674070 0.361407
O O3 0.280622 0.173116 0.444857
O O4 0.444602 0.905110 0.429661
O O5 0.890020 0.413887 0.825494
O O6 0.881628 0.063657 0.700125
O O7 0.550801 0.313152 0.071459
O O8 0.705025 0.016318 0.055613
O O9 0.058467 0.363473 0.847501
O O10 0.751099 0.610349 0.116562
O O11 0.172477 0.382856 0.383693
O O12 0.815560 0.034902 0.139527
#
# Coordination Sequence:
#
# PCOD9113670 Si02
#       7
#     2   2   2   1   2   1   2
#     4  11  24  44  75  96 140 187 234 281 364 415
#     4  10  22  41  67  97 145 183 234 288 354 410
#     4  11  21  43  70  98 135 186 232 292 351 423
#     4  12  22  42  68 106 142 184 246 286 350 416
#     4  11  24  44  66 105 137 190 232 293 345 420
#     4  10  24  42  72 104 140 180 244 292 366 416
#     4  10  22  45  69  97 142 186 225 299 350 426
#
# _framework density 25.157115000000001
#
# number of rings (size 3 to 8) (size 9 to 14) (size 15 to 20)
#    0.000    1.333    3.333    2.000    2.333    0.667 
#    3.000    6.667    0.000    0.000    0.000    0.000 
#    0.000    0.000    0.000    0.000    0.000    0.000 
#
# Total GULP energy -67137.841332 kJ/mol
# GULP energy per Si atom -5594.820111 kJ/mol
# Density = 2.509986 g / cm^3
# Si number density = 25.157115 Si / 1000 Ang^3
#
#
#
# Elastic Constant Matrix: (Units=GPa)
#
#
# Indices 1 2 3 4 5 6 
#
# 1 146.7659 22.7749 54.1447 0.0000 -39.9189 0.0000
# 2 22.7749 65.1510 12.6494 0.0000 -2.0868 0.0000
# 3 54.1447 12.6494 153.4037 0.0000 -15.4187 0.0000
# 4 0.0000 0.0000 0.0000 29.7088 0.0000 -0.2106
# 5 -39.9189 -2.0868 -15.4187 0.0000 55.8772 0.0000
# 6 0.0000 0.0000 0.0000 -0.2106 0.0000 22.6154
#
#
#
# Elastic Compliance Matrix: (Units=1/GPa)
#
#
# Indices 1 2 3 4 5 6 
#
# 1 0.009917 -0.002753 -0.002645 0.000000 0.006252 0.000000
# 2 -0.002753 0.016366 -0.000529 0.000000 -0.001501 0.000000
# 3 -0.002645 -0.000529 0.007512 0.000000 0.000164 0.000000
# 4 0.000000 0.000000 0.000000 0.033662 0.000000 0.000314
# 5 0.006252 -0.001501 0.000164 0.000000 0.022352 0.000000
# 6 0.000000 0.000000 0.000000 0.000314 0.000000 0.044221
#
#
# Mechanical properties :
#
#
# Convention : Reuss Voigt Hill
#
# Bulk Modulus (GPa) = 45.57442 60.49539 53.03490
# Shear Modulus (GPa) = 32.63768 40.02373 36.33070
#
# Velocity S-wave (km/s) = 3.60579 3.99300 3.80432
# Velocity P-wave (km/s) = 5.95742 6.73483 6.35802
#
# Compressibility (1/GPa) = 0.02194213
#
# Stress axis : x y z
#
# Youngs Moduli (GPa) = 100.83671 61.10276 133.11468
#
# Poissons Ratio (x) = 0.16821 0.35207
# Poissons Ratio (y) = 0.27760 0.07038
# Poissons Ratio (z) = 0.26670 0.03231
#
# Static dielectric constant tensor:
#      x y z
#    x 2.019410 0.000000 0.065750 
#    y 0.000000 1.970070 0.000000 
#    z 0.065750 0.000000 2.032640 
# 
# From -- ./inp_files/13834.got.cif
#   From: 2010.05.17/outbox.cif.g08.bks.cpg/sg3_7_cif.got.tgz:13834.got - 2010.06.03 18:33:08.
