data_PCOD9113000
_publ_section_title
;
Structure prediction by ZEFSAII (Michael W. Deem and Ramdas Pophale) SiO2 
 PCOD9113000
Probable space group: P 2
;
_chemical_formula_sum "Si O2"
_cell_formula_units_Z 16
_cell_length_a 20.102823
_cell_length_b 7.895888
_cell_length_c 9.419524
_cell_angle_alpha 90.000000
_cell_angle_beta 151.848447
_cell_angle_gamma 90.000000
_cell_volume 705.423452
_symmetry_space_group_name_H-M "P 2"
_symmetry_group_IT_number 3
_symmetry_cell_setting 'monoclinic'
loop_
_space_group_symop_operation_xyz
x,y,z
-x,y,-z
loop_
_atom_site_type_symbol
_atom_site_label
_atom_site_fract_x
_atom_site_fract_y
_atom_site_fract_z
Si Si1 0.102421 0.941430 0.321670
Si Si2 0.696808 0.395685 0.595362
Si Si3 0.598690 0.024404 0.085230
Si Si4 0.423992 0.214538 0.223060
Si Si5 0.121271 0.336147 0.330523
Si Si6 0.507266 0.678866 0.176326
Si Si7 0.848730 0.401359 0.164095
Si Si8 0.188744 0.636380 0.674490
O O1 0.266832 0.942868 0.587409
O O2 0.109132 0.801282 0.460138
O O3 0.079555 0.145020 0.301639
O O4 0.000000 0.891243 0.000000
O O5 0.554823 0.305694 0.388848
O O6 0.749145 0.332491 0.539777
O O7 0.643941 0.589637 0.494017
O O8 0.821917 0.383226 0.946194
O O9 0.500000 0.133906 0.000000
O O10 0.492015 0.879879 0.831693
O O11 0.649207 0.108865 0.037431
O O12 0.500000 0.125547 0.500000
O O13 0.295884 0.322869 0.044707
O O14 0.148601 0.471036 0.504882
O O15 0.000000 0.404386 0.000000
O O16 0.500000 0.614735 0.000000
O O17 0.358067 0.648015 0.972832
O O18 0.845476 0.588793 0.227997
O O19 0.000000 0.328077 0.500000
#
# Coordination Sequence:
#
# PCOD9113000 Si02
#       8
#     2   2   2   2   2   2   2   2
#     4  10  23  39  61  98 134 167 225 272 327 405
#     4  11  22  40  66  96 131 172 224 276 335 409
#     4  10  21  39  63  94 129 169 211 279 340 391
#     4  10  22  41  64  94 128 175 224 279 330 406
#     4  11  22  38  67  99 130 181 219 275 345 397
#     4  10  20  37  64  97 125 162 221 276 330 401
#     4  11  24  41  64  97 132 177 230 276 341 410
#     4  11  21  40  66  90 133 178 220 279 332 399
#
# _framework density 22.681412999999999
#
# number of rings (size 3 to 8) (size 9 to 14) (size 15 to 20)
#    0.000    1.500    2.500    2.625    0.000    1.500 
#    4.500    0.000    0.000    6.750    0.000    0.000 
#    0.000    0.000    0.000    0.000    0.000    0.000 
#
# Total GULP energy -89109.907721 kJ/mol
# GULP energy per Si atom -5569.369233 kJ/mol
# Density = 2.262979 g / cm^3
# Si number density = 22.681413 Si / 1000 Ang^3
#
#
#
# Elastic Constant Matrix: (Units=GPa)
#
#
# Indices 1 2 3 4 5 6 
#
# 1 61.8601 4.4362 3.7867 0.0000 6.4528 0.0000
# 2 4.4362 63.8390 13.5423 0.0000 -10.2699 0.0000
# 3 3.7867 13.5423 113.6181 0.0000 0.2434 0.0000
# 4 0.0000 0.0000 0.0000 36.8552 0.0000 3.4172
# 5 6.4528 -10.2699 0.2434 0.0000 29.5776 0.0000
# 6 0.0000 0.0000 0.0000 3.4172 0.0000 19.0884
#
#
#
# Elastic Compliance Matrix: (Units=1/GPa)
#
#
# Indices 1 2 3 4 5 6 
#
# 1 0.016759 -0.001780 -0.000337 0.000000 -0.004272 0.000000
# 2 -0.001780 0.017243 -0.002010 0.000000 0.006392 0.000000
# 3 -0.000337 -0.002010 0.009054 0.000000 -0.000699 0.000000
# 4 0.000000 0.000000 0.000000 0.027591 0.000000 -0.004939
# 5 -0.004272 0.006392 -0.000699 0.000000 0.036966 0.000000
# 6 0.000000 0.000000 0.000000 -0.004939 0.000000 0.053272
#
#
# Mechanical properties :
#
#
# Convention : Reuss Voigt Hill
#
# Bulk Modulus (GPa) = 28.73420 31.42749 30.08085
# Shear Modulus (GPa) = 27.66403 31.60772 29.63587
#
# Velocity S-wave (km/s) = 3.49618 3.73708 3.61863
# Velocity P-wave (km/s) = 5.38459 5.70151 5.54531
#
# Compressibility (1/GPa) = 0.03480173
#
# Stress axis : x y z
#
# Youngs Moduli (GPa) = 59.66793 57.99555 110.45241
#
# Poissons Ratio (x) = 0.10325 0.03725
# Poissons Ratio (y) = 0.10623 0.22196
# Poissons Ratio (z) = 0.02012 0.11654
#
# Static dielectric constant tensor:
#      x y z
#    x 1.913060 0.000000 -0.039240 
#    y 0.000000 1.902250 0.000000 
#    z -0.039240 0.000000 1.825530 
# 
# From -- ./inp_files/9482.got.cif
#   From: 2010.05.17/outbox.cif.g08.bks.cpg/sg3_5_cif.got.tgz:9482.got - 2010.06.03 18:33:08.
