data_PCOD9113612
_publ_section_title
;
Structure prediction by ZEFSAII (Michael W. Deem and Ramdas Pophale) SiO2 
 PCOD9113612
Probable space group: P 2
;
_chemical_formula_sum "Si O2"
_cell_formula_units_Z 11
_cell_length_a 8.443883
_cell_length_b 9.333372
_cell_length_c 11.153009
_cell_angle_alpha 90.000000
_cell_angle_beta 140.811569
_cell_angle_gamma 90.000000
_cell_volume 555.395692
_symmetry_space_group_name_H-M "P 2"
_symmetry_group_IT_number 3
_symmetry_cell_setting 'monoclinic'
loop_
_space_group_symop_operation_xyz
x,y,z
-x,y,-z
loop_
_atom_site_type_symbol
_atom_site_label
_atom_site_fract_x
_atom_site_fract_y
_atom_site_fract_z
Si Si1 0.255093 0.208400 0.717887
Si Si2 0.566467 0.560569 0.412236
Si Si3 0.737133 0.324871 0.895453
Si Si4 0.721435 0.753725 0.286345
Si Si5 0.864759 0.487629 0.216186
Si Si6 0.500000 0.990707 0.000000
O O1 0.516621 0.210897 0.797415
O O2 0.239904 0.371594 0.752490
O O3 0.000000 0.174088 0.500000
O O4 0.276893 0.104328 0.845567
O O5 0.500000 0.631260 0.500000
O O6 0.375545 0.434447 0.268170
O O7 0.586709 0.669510 0.314284
O O8 0.839421 0.492262 0.589758
O O9 0.796070 0.425184 0.046292
O O10 0.000000 0.264768 0.000000
O O11 0.768216 0.642562 0.203467
O O12 0.553338 0.884465 0.141645
O O13 0.000000 0.794403 0.500000
#
# Coordination Sequence:
#
# PCOD9113612 Si02
#       6
#     2   2   2   2   2   1
#     4  12  23  40  66  96 124 165 215 264 314 373
#     4  11  21  37  64  98 130 160 202 269 325 365
#     4  12  22  35  62 100 131 158 202 262 328 368
#     4  10  22  40  63  91 125 164 216 264 308 371
#     4  11  20  39  67  95 123 161 212 269 310 368
#     4  12  24  38  66  90 124 168 222 258 306 370
#
# _framework density 19.805698
#
# number of rings (size 3 to 8) (size 9 to 14) (size 15 to 20)
#    0.000    0.727    7.273    2.182    0.000    0.000 
#    0.000    0.000    8.000    0.000    0.000    0.000 
#    0.000    0.000    0.000    0.000    0.000    0.000 
#
# Total GULP energy -61325.306894 kJ/mol
# GULP energy per Si atom -5575.027899 kJ/mol
# Density = 1.976062 g / cm^3
# Si number density = 19.805698 Si / 1000 Ang^3
#
#
#
# Elastic Constant Matrix: (Units=GPa)
#
#
# Indices 1 2 3 4 5 6 
#
# 1 96.2714 11.1217 36.8428 0.0000 16.9261 0.0000
# 2 11.1217 72.1165 39.0374 0.0000 5.4239 0.0000
# 3 36.8428 39.0374 143.2518 0.0000 12.1649 0.0000
# 4 0.0000 0.0000 0.0000 28.2623 0.0000 -11.0273
# 5 16.9261 5.4239 12.1649 0.0000 34.7576 0.0000
# 6 0.0000 0.0000 0.0000 -11.0273 0.0000 4.7655
#
#
#
# Elastic Compliance Matrix: (Units=1/GPa)
#
#
# Indices 1 2 3 4 5 6 
#
# 1 0.012323 -0.000044 -0.002729 0.000000 -0.005039 0.000000
# 2 -0.000044 0.016301 -0.004346 0.000000 -0.001001 0.000000
# 3 -0.002729 -0.004346 0.008963 0.000000 -0.001130 0.000000
# 4 0.000000 0.000000 0.000000 0.364304 0.000000 0.843002
# 5 -0.005039 -0.001001 -0.001130 0.000000 0.031776 0.000000
# 6 0.000000 0.000000 0.000000 0.843002 0.000000 2.160555
#
#
# Mechanical properties :
#
#
# Convention : Reuss Voigt Hill
#
# Bulk Modulus (GPa) = 42.82974 53.96040 48.39507
# Shear Modulus (GPa) = 1.91114 28.53290 15.22202
#
# Velocity S-wave (km/s) = 0.98338 3.79970 2.77531
# Velocity P-wave (km/s) = 4.79179 6.82307 5.89557
#
# Compressibility (1/GPa) = 0.02334826
#
# Stress axis : x y z
#
# Youngs Moduli (GPa) = 81.15026 61.34594 111.57106
#
# Poissons Ratio (x) = 0.00270 0.30452
# Poissons Ratio (y) = 0.00357 0.48487
# Poissons Ratio (z) = 0.22149 0.26660
#
# Static dielectric constant tensor:
#      x y z
#    x 1.749000 0.000000 -0.009610 
#    y 0.000000 1.689720 0.000000 
#    z -0.009610 0.000000 1.745110 
# 
# From -- ./inp_files/6807.got.cif
#   From: 2010.05.17/outbox.cif.g08.bks.cpg/sg3_4_cif.got.tgz:6807.got - 2010.06.03 18:33:08.
