data_PCOD9113924
_publ_section_title
;
Structure prediction by ZEFSAII (Michael W. Deem and Ramdas Pophale) SiO2 
 PCOD9113924
Probable space group: P 2
;
_chemical_formula_sum "Si O2"
_cell_formula_units_Z 12
_cell_length_a 14.607294
_cell_length_b 5.795957
_cell_length_c 18.648197
_cell_angle_alpha 90.000000
_cell_angle_beta 160.227986
_cell_angle_gamma 90.000000
_cell_volume 534.079519
_symmetry_space_group_name_H-M "P 2"
_symmetry_group_IT_number 3
_symmetry_cell_setting 'monoclinic'
loop_
_space_group_symop_operation_xyz
x,y,z
-x,y,-z
loop_
_atom_site_type_symbol
_atom_site_label
_atom_site_fract_x
_atom_site_fract_y
_atom_site_fract_z
Si Si1 0.117354 0.129830 0.667119
Si Si2 0.834637 0.936798 0.938678
Si Si3 0.814954 0.289270 0.722360
Si Si4 0.171932 0.681429 0.922333
Si Si5 0.782224 0.993085 0.554497
Si Si6 0.725696 0.625199 0.250481
O O1 0.248789 0.383992 0.774132
O O2 0.000000 0.138083 0.500000
O O3 0.894753 0.103375 0.564824
O O4 0.278122 0.883871 0.786687
O O5 0.535791 0.959030 0.686895
O O6 0.000000 0.791438 0.000000
O O7 0.050178 0.142846 0.114056
O O8 0.767926 0.866031 0.971411
O O9 0.500000 0.352069 0.500000
O O10 0.822872 0.147433 0.654332
O O11 0.008381 0.500020 0.848891
O O12 0.453547 0.602529 0.096441
O O13 0.967559 0.771378 0.710220
O O14 0.000000 0.632074 0.500000
#
# Coordination Sequence:
#
# PCOD9113924 Si02
#       6
#     2   2   2   2   2   2
#     4  10  23  44  75 104 150 193 254 306 373 448
#     4  11  24  46  75 103 146 192 246 309 382 449
#     4  11  26  46  70 109 146 187 249 311 377 454
#     4  11  28  44  74 106 147 194 250 311 376 450
#     4  11  26  47  72 105 145 195 247 308 378 450
#     4  10  23  45  73 106 148 198 248 307 375 447
#
# _framework density 22.468563
#
# number of rings (size 3 to 8) (size 9 to 14) (size 15 to 20)
#    0.000    1.333    1.667    2.000   14.000    2.667 
#    0.000    0.000    0.000    0.000    0.000    0.000 
#    0.000    0.000    0.000    0.000    0.000    0.000 
#
# Total GULP energy -66874.413663 kJ/mol
# GULP energy per Si atom -5572.867805 kJ/mol
# Density = 2.241742 g / cm^3
# Si number density = 22.468563 Si / 1000 Ang^3
#
#
#
# Elastic Constant Matrix: (Units=GPa)
#
#
# Indices 1 2 3 4 5 6 
#
# 1 121.0563 -0.1277 36.1188 0.0000 15.3056 0.0000
# 2 -0.1277 84.6454 28.5468 0.0000 17.1229 0.0000
# 3 36.1188 28.5468 287.4480 0.0000 36.8734 0.0000
# 4 0.0000 0.0000 0.0000 2.4237 0.0000 22.2343
# 5 15.3056 17.1229 36.8734 0.0000 70.4432 0.0000
# 6 0.0000 0.0000 0.0000 22.2343 0.0000 -34.2103
#
#
#
# Elastic Compliance Matrix: (Units=1/GPa)
#
#
# Indices 1 2 3 4 5 6 
#
# 1 0.008746 0.000653 -0.000964 0.000000 -0.001554 0.000000
# 2 0.000653 0.012698 -0.000996 0.000000 -0.002707 0.000000
# 3 -0.000964 -0.000996 0.003903 0.000000 -0.001591 0.000000
# 4 0.000000 0.000000 0.000000 0.059261 0.000000 0.038516
# 5 -0.001554 -0.002707 -0.001591 0.000000 0.016025 0.000000
# 6 0.000000 0.000000 0.000000 0.038516 0.000000 -0.004199
#
#
# Mechanical properties :
#
#
# Convention : Reuss Voigt Hill
#
# Bulk Modulus (GPa) = 43.99032 69.13616 56.56324
# Shear Modulus (GPa) = 46.89265 36.30546 41.59906
#
# Velocity S-wave (km/s) = 4.57336 4.02410 4.30750
# Velocity P-wave (km/s) = 6.89265 7.24073 7.06883
#
# Compressibility (1/GPa) = 0.02273227
#
# Stress axis : x y z
#
# Youngs Moduli (GPa) = 114.34417 78.74961 256.20534
#
# Poissons Ratio (x) = -0.05141 0.24708
# Poissons Ratio (y) = -0.07464 0.25514
# Poissons Ratio (z) = 0.11027 0.07842
#
# Static dielectric constant tensor:
#      x y z
#    x 1.832620 0.000000 -0.066550 
#    y 0.000000 1.888640 0.000000 
#    z -0.066550 0.000000 1.929020 
# 
# From -- ./inp_files/16032.got.cif
#   From: 2010.05.17/outbox.cif.g08.bks.cpg/sg3_9_cif.got.tgz:16032.got - 2010.06.03 18:33:08.
