data_PCOD9113786
_publ_section_title
;
Structure prediction by ZEFSAII (Michael W. Deem and Ramdas Pophale) SiO2 
 PCOD9113786
Probable space group: P 2
;
_chemical_formula_sum "Si O2"
_cell_formula_units_Z 12
_cell_length_a 15.649400
_cell_length_b 5.267388
_cell_length_c 8.883456
_cell_angle_alpha 90.000000
_cell_angle_beta 39.709500
_cell_angle_gamma 90.000000
_cell_volume 467.847922
_symmetry_space_group_name_H-M "P 2"
_symmetry_group_IT_number 3
_symmetry_cell_setting 'monoclinic'
loop_
_space_group_symop_operation_xyz
x,y,z
-x,y,-z
loop_
_atom_site_type_symbol
_atom_site_label
_atom_site_fract_x
_atom_site_fract_y
_atom_site_fract_z
Si Si1 0.113326 0.359300 0.729095
Si Si2 0.377157 0.085590 0.410403
Si Si3 0.500000 0.315494 0.000000
Si Si4 0.263964 0.706504 0.325106
Si Si5 0.068103 0.068270 0.242647
Si Si6 0.236245 0.594063 0.017722
Si Si7 0.500000 0.733618 0.500000
O O1 0.252778 0.270243 0.618881
O O2 0.139961 0.591292 0.581383
O O3 0.050432 0.141221 0.710465
O O4 0.000000 0.426413 0.000000
O O5 0.321098 0.942933 0.337310
O O6 0.422807 0.905891 0.482068
O O7 0.511793 0.189196 0.148320
O O8 0.625780 0.490222 0.802754
O O9 0.248184 0.710864 0.169661
O O10 0.161906 0.322194 0.123827
O O11 0.000000 0.026917 0.500000
O O12 0.147517 0.824815 0.070319
O O13 0.381935 0.580114 0.743075
#
# Coordination Sequence:
#
# PCOD9113786 Si02
#       7
#     2   2   1   2   2   2   1
#     4  11  26  46  73 106 151 201 255 314 387 462
#     4  11  25  46  73 104 150 201 252 322 381 460
#     4  10  22  44  72 104 142 200 252 302 384 466
#     4  11  24  46  72 107 144 203 249 311 387 461
#     4  12  26  49  77 116 152 206 259 315 384 465
#     4  12  28  47  79 114 159 201 255 326 381 463
#     4  12  28  48  76 118 154 200 268 324 398 454
#
# _framework density 25.649363999999998
#
# number of rings (size 3 to 8) (size 9 to 14) (size 15 to 20)
#    0.000    0.667    1.667    5.000    9.333    1.333 
#    0.000    0.000    0.000    0.000    0.000    0.000 
#    0.000    0.000    0.000    0.000    0.000    0.000 
#
# Total GULP energy -67161.904787 kJ/mol
# GULP energy per Si atom -5596.825399 kJ/mol
# Density = 2.559098 g / cm^3
# Si number density = 25.649364 Si / 1000 Ang^3
#
#
#
# Elastic Constant Matrix: (Units=GPa)
#
#
# Indices 1 2 3 4 5 6 
#
# 1 79.5918 -8.9919 22.2688 0.0000 -0.9262 0.0000
# 2 -8.9919 78.2552 41.5391 0.0000 -16.7614 0.0000
# 3 22.2688 41.5391 208.8615 0.0000 -3.8665 0.0000
# 4 0.0000 0.0000 0.0000 20.1405 0.0000 -9.5751
# 5 -0.9262 -16.7614 -3.8665 0.0000 30.0484 0.0000
# 6 0.0000 0.0000 0.0000 -9.5751 0.0000 35.4902
#
#
#
# Elastic Compliance Matrix: (Units=1/GPa)
#
#
# Indices 1 2 3 4 5 6 
#
# 1 0.013485 0.003005 -0.002001 0.000000 0.001834 0.000000
# 2 0.003005 0.016940 -0.003521 0.000000 0.009089 0.000000
# 3 -0.002001 -0.003521 0.005678 0.000000 -0.001295 0.000000
# 4 0.000000 0.000000 0.000000 0.056957 0.000000 0.015367
# 5 0.001834 0.009089 -0.001295 0.000000 0.038239 0.000000
# 6 0.000000 0.000000 0.000000 0.015367 0.000000 0.032323
#
#
# Mechanical properties :
#
#
# Convention : Reuss Voigt Hill
#
# Bulk Modulus (GPa) = 32.18897 52.92672 42.55785
# Shear Modulus (GPa) = 27.93108 37.92865 32.92986
#
# Velocity S-wave (km/s) = 3.30352 3.84961 3.58697
# Velocity P-wave (km/s) = 5.20844 6.35915 5.81234
#
# Compressibility (1/GPa) = 0.03106654
#
# Stress axis : x y z
#
# Youngs Moduli (GPa) = 74.15718 59.03274 176.13167
#
# Poissons Ratio (x) = -0.17738 0.35251
# Poissons Ratio (y) = -0.22282 0.62019
# Poissons Ratio (z) = 0.14842 0.20786
#
# Static dielectric constant tensor:
#      x y z
#    x 2.021590 0.000000 0.149860 
#    y 0.000000 2.105440 0.000000 
#    z 0.149860 0.000000 2.014370 
# 
# From -- ./inp_files/8169.got.cif
#   From: 2010.05.17/outbox.cif.g08.bks.cpg/sg3_5_cif.got.tgz:8169.got - 2010.06.03 18:33:08.
