data_PCOD9113479
_publ_section_title
;
Structure prediction by ZEFSAII (Michael W. Deem and Ramdas Pophale) SiO2 
 PCOD9113479
Probable space group: P 2
;
_chemical_formula_sum "Si O2"
_cell_formula_units_Z 15
_cell_length_a 13.728959
_cell_length_b 5.918906
_cell_length_c 8.256216
_cell_angle_alpha 90.000000
_cell_angle_beta 109.174220
_cell_angle_gamma 90.000000
_cell_volume 633.684681
_symmetry_space_group_name_H-M "P 2"
_symmetry_group_IT_number 3
_symmetry_cell_setting 'monoclinic'
loop_
_space_group_symop_operation_xyz
x,y,z
-x,y,-z
loop_
_atom_site_type_symbol
_atom_site_label
_atom_site_fract_x
_atom_site_fract_y
_atom_site_fract_z
Si Si1 0.235247 0.943220 0.942294
Si Si2 0.930934 0.637010 0.606036
Si Si3 0.910175 0.301447 0.201046
Si Si4 0.500000 0.965213 0.500000
Si Si5 0.261399 0.585123 0.699047
Si Si6 0.515121 0.626191 0.201339
Si Si7 0.344737 0.280143 0.238876
Si Si8 0.156572 0.573429 0.136820
O O1 0.217537 0.756559 0.067759
O O2 0.304604 0.131477 0.064865
O O3 0.279340 0.812171 0.813293
O O4 0.123912 0.044676 0.831286
O O5 0.813407 0.648452 0.486985
O O6 0.919202 0.707733 0.784793
O O7 0.000000 0.740532 0.500000
O O8 0.984151 0.388513 0.662250
O O9 0.814695 0.417484 0.245692
O O10 0.901635 0.412510 0.020634
O O11 0.518498 0.817786 0.345381
O O12 0.403368 0.123405 0.399386
O O13 0.374772 0.498373 0.726163
O O14 0.423799 0.461640 0.208124
O O15 0.500000 0.687055 0.000000
O O16 0.244890 0.407454 0.256544
#
# Coordination Sequence:
#
# PCOD9113479 Si02
#       8
#     2   2   2   1   2   2   2   2
#     4  10  21  44  73 101 133 186 244 283 357 442
#     4  10  22  42  66  94 136 175 219 291 359 409
#     4   9  20  44  67 101 131 177 235 288 351 430
#     4  12  28  44  72 112 150 190 262 296 362 446
#     4  10  23  42  70 100 141 183 227 296 358 421
#     4  12  26  47  74 105 154 203 242 306 371 430
#     4  11  25  43  72 105 145 188 244 302 356 434
#     4  10  21  42  72  93 138 183 226 289 358 417
#
# _framework density 23.671077
#
# number of rings (size 3 to 8) (size 9 to 14) (size 15 to 20)
#    0.000    1.600    0.000    4.800    5.600    2.667 
#    2.400   27.333    0.000    0.000    0.000    0.000 
#    0.000    0.000    0.000    0.000    0.000    0.000 
#
# Total GULP energy -83664.053507 kJ/mol
# GULP energy per Si atom -5577.603567 kJ/mol
# Density = 2.361720 g / cm^3
# Si number density = 23.671077 Si / 1000 Ang^3
#
#
#
# Elastic Constant Matrix: (Units=GPa)
#
#
# Indices 1 2 3 4 5 6 
#
# 1 79.0062 6.5137 17.0405 0.0000 2.7487 0.0000
# 2 6.5137 66.0172 26.3286 0.0000 5.5418 0.0000
# 3 17.0405 26.3286 110.0644 0.0000 -6.2692 0.0000
# 4 0.0000 0.0000 0.0000 42.1015 0.0000 17.5299
# 5 2.7487 5.5418 -6.2692 0.0000 46.9879 0.0000
# 6 0.0000 0.0000 0.0000 17.5299 0.0000 -0.3308
#
#
#
# Elastic Compliance Matrix: (Units=1/GPa)
#
#
# Indices 1 2 3 4 5 6 
#
# 1 0.013156 -0.000421 -0.001992 0.000000 -0.000986 0.000000
# 2 -0.000421 0.017062 -0.004161 0.000000 -0.002543 0.000000
# 3 -0.001992 -0.004161 0.010504 0.000000 0.002009 0.000000
# 4 0.000000 0.000000 0.000000 0.001030 0.000000 0.054572
# 5 -0.000986 -0.002543 0.002009 0.000000 0.021908 0.000000
# 6 0.000000 0.000000 0.000000 0.054572 0.000000 -0.131066
#
#
# Mechanical properties :
#
#
# Convention : Reuss Voigt Hill
#
# Bulk Modulus (GPa) = 36.26679 39.42816 37.84747
# Shear Modulus (GPa) = -110.94678 31.43205 -39.75736
#
# Velocity S-wave (km/s) = -6.85361 3.64794 -4.10271
# Velocity P-wave (km/s) = 6.87567 5.86823 2.53364
#
# Compressibility (1/GPa) = 0.02757344
#
# Stress axis : x y z
#
# Youngs Moduli (GPa) = 76.01130 58.60952 95.20314
#
# Poissons Ratio (x) = 0.02466 0.18968
# Poissons Ratio (y) = 0.03198 0.39615
# Poissons Ratio (z) = 0.15144 0.24388
#
# Static dielectric constant tensor:
#      x y z
#    x 1.915770 0.000000 0.023780 
#    y 0.000000 1.914380 0.000000 
#    z 0.023780 0.000000 1.979460 
# 
# From -- ./inp_files/8341.got.cif
#   From: 2010.05.17/outbox.cif.g08.bks.cpg/sg3_5_cif.got.tgz:8341.got - 2010.06.03 18:33:08.
