data_PCOD9113577
_publ_section_title
;
Structure prediction by ZEFSAII (Michael W. Deem and Ramdas Pophale) SiO2 
 PCOD9113577
Probable space group: P 2
;
_chemical_formula_sum "Si O2"
_cell_formula_units_Z 15
_cell_length_a 13.230344
_cell_length_b 5.409897
_cell_length_c 9.211610
_cell_angle_alpha 90.000000
_cell_angle_beta 74.882499
_cell_angle_gamma 90.000000
_cell_volume 636.502081
_symmetry_space_group_name_H-M "P 2"
_symmetry_group_IT_number 3
_symmetry_cell_setting 'monoclinic'
loop_
_space_group_symop_operation_xyz
x,y,z
-x,y,-z
loop_
_atom_site_type_symbol
_atom_site_label
_atom_site_fract_x
_atom_site_fract_y
_atom_site_fract_z
Si Si1 0.108135 0.622840 0.373298
Si Si2 0.386293 0.598192 0.027487
Si Si3 0.500000 0.635066 0.500000
Si Si4 0.739201 0.457171 0.444820
Si Si5 0.841594 0.112830 0.818026
Si Si6 0.440936 0.987228 0.779905
Si Si7 0.345528 0.253423 0.272821
Si Si8 0.240119 0.288546 0.866674
O O1 0.193484 0.629832 0.473297
O O2 0.119354 0.364324 0.277227
O O3 0.000000 0.618230 0.500000
O O4 0.112409 0.859813 0.263915
O O5 0.342526 0.530613 0.202736
O O6 0.500000 0.468226 0.000000
O O7 0.418013 0.850762 0.938673
O O8 0.304903 0.479166 0.944299
O O9 0.615319 0.514723 0.470255
O O10 0.482751 0.791803 0.650224
O O11 0.722878 0.221889 0.556693
O O12 0.794455 0.416707 0.269822
O O13 0.717992 0.097744 0.821734
O O14 0.840770 0.158180 0.992506
O O15 0.535929 0.178303 0.747368
O O16 0.330156 0.101309 0.778225
#
# Coordination Sequence:
#
# PCOD9113577 Si02
#       8
#     2   2   1   2   2   2   2   2
#     4  11  25  51  80 106 140 185 249 308 377 449
#     4  11  22  36  52  85 125 189 242 288 347 419
#     4  12  22  36  62  94 144 186 242 292 364 440
#     4  11  23  44  66 101 143 189 239 304 366 443
#     4  10  25  43  74 107 137 182 241 312 372 446
#     4  12  23  35  60  87 140 197 241 295 352 434
#     4  10  22  39  59  91 137 187 246 288 352 436
#     4  11  24  40  61  97 144 182 245 300 371 436
#
# _framework density 23.566302
#
# number of rings (size 3 to 8) (size 9 to 14) (size 15 to 20)
#    0.000    1.067    2.667    3.600    9.333    1.067 
#    0.000    0.667    0.000    1.600    0.000    0.000 
#    0.000    0.000    0.000    0.000    0.000    0.000 
#
# Total GULP energy -83590.995292 kJ/mol
# GULP energy per Si atom -5572.733019 kJ/mol
# Density = 2.351266 g / cm^3
# Si number density = 23.566302 Si / 1000 Ang^3
#
#
#
# Elastic Constant Matrix: (Units=GPa)
#
#
# Indices 1 2 3 4 5 6 
#
# 1 40.7495 15.1460 42.7608 0.0000 -14.5817 0.0000
# 2 15.1460 103.5000 67.9736 0.0000 -10.7670 0.0000
# 3 42.7608 67.9736 206.8360 0.0000 -12.7334 0.0000
# 4 0.0000 0.0000 0.0000 39.7684 0.0000 -6.6361
# 5 -14.5817 -10.7670 -12.7334 0.0000 32.1287 0.0000
# 6 0.0000 0.0000 0.0000 -6.6361 0.0000 11.4757
#
#
#
# Elastic Compliance Matrix: (Units=1/GPa)
#
#
# Indices 1 2 3 4 5 6 
#
# 1 0.036591 0.000649 -0.006911 0.000000 0.014086 0.000000
# 2 0.000649 0.012546 -0.004080 0.000000 0.002882 0.000000
# 3 -0.006911 -0.004080 0.007510 0.000000 -0.001527 0.000000
# 4 0.000000 0.000000 0.000000 0.027831 0.000000 0.016094
# 5 0.014086 0.002882 -0.001527 0.000000 0.037878 0.000000
# 6 0.000000 0.000000 0.000000 0.016094 0.000000 0.096447
#
#
# Mechanical properties :
#
#
# Convention : Reuss Voigt Hill
#
# Bulk Modulus (GPa) = 27.80506 66.98294 47.39400
# Shear Modulus (GPa) = 19.88261 31.68823 25.78542
#
# Velocity S-wave (km/s) = 2.90778 3.67091 3.31140
# Velocity P-wave (km/s) = 4.80602 6.81560 5.89704
#
# Compressibility (1/GPa) = 0.03596468
#
# Stress axis : x y z
#
# Youngs Moduli (GPa) = 27.32885 79.70589 133.15028
#
# Poissons Ratio (x) = -0.05177 0.92021
# Poissons Ratio (y) = -0.01775 0.54324
# Poissons Ratio (z) = 0.18887 0.32519
#
# Static dielectric constant tensor:
#      x y z
#    x 1.948780 0.000000 0.049750 
#    y 0.000000 1.999670 0.000000 
#    z 0.049750 0.000000 1.994470 
# 
# From -- ./inp_files/8315.got.cif
#   From: 2010.05.17/outbox.cif.g08.bks.cpg/sg3_5_cif.got.tgz:8315.got - 2010.06.03 18:33:08.
