data_PCOD9113960
_publ_section_title
;
Structure prediction by ZEFSAII (Michael W. Deem and Ramdas Pophale) SiO2 
 PCOD9113960
Probable space group: P 2
;
_chemical_formula_sum "Si O2"
_cell_formula_units_Z 13
_cell_length_a 22.719853
_cell_length_b 5.176290
_cell_length_c 9.265279
_cell_angle_alpha 90.000000
_cell_angle_beta 28.852860
_cell_angle_gamma 90.000000
_cell_volume 525.818277
_symmetry_space_group_name_H-M "P 2"
_symmetry_group_IT_number 3
_symmetry_cell_setting 'monoclinic'
loop_
_space_group_symop_operation_xyz
x,y,z
-x,y,-z
loop_
_atom_site_type_symbol
_atom_site_label
_atom_site_fract_x
_atom_site_fract_y
_atom_site_fract_z
Si Si1 0.500000 0.314700 0.000000
Si Si2 0.747590 0.379289 0.876046
Si Si3 0.115497 0.433234 0.121490
Si Si4 0.273994 0.608895 0.535809
Si Si5 0.544730 0.914619 0.660250
Si Si6 0.500000 0.212779 0.500000
Si Si7 0.000000 0.957614 0.500000
Si Si8 0.254481 0.867327 0.294136
O O1 0.623231 0.460418 0.778898
O O2 0.547842 0.144743 0.767548
O O3 0.793173 0.360341 0.942711
O O4 0.796362 0.637967 0.696582
O O5 0.779171 0.136539 0.707262
O O6 0.599429 0.379316 0.203767
O O7 0.077201 0.728186 0.248660
O O8 0.174002 0.450111 0.837286
O O9 0.020174 0.192930 0.335034
O O10 0.361328 0.714389 0.476573
O O11 0.224411 0.816688 0.526928
O O12 0.576710 0.021846 0.436457
O O13 0.401745 0.854119 0.964725
#
# Coordination Sequence:
#
# PCOD9113960 Si02
#       8
#     1   2   2   2   2   1   1   2
#     4  12  20  40  56  96 146 188 236 270 332 422
#     4  11  25  41  65 100 143 193 217 287 346 432
#     4  11  26  46  79 101 136 181 252 304 374 409
#     4  12  24  37  69 101 140 201 237 278 343 434
#     4  11  23  36  55  89 146 196 220 277 306 416
#     4  10  24  36  56  96 148 182 234 248 334 422
#     4  10  26  52  72 106 130 174 248 344 354 400
#     4  11  23  40  59  97 152 181 225 266 343 417
#
# _framework density 24.723369000000002
#
# number of rings (size 3 to 8) (size 9 to 14) (size 15 to 20)
#    0.000    0.923    3.077    3.692   10.769    0.615 
#    0.000    0.000    0.000   13.846    0.000    0.000 
#    0.000    0.000    0.000    0.000    0.000    0.000 
#
# Total GULP energy -72428.712167 kJ/mol
# GULP energy per Si atom -5571.439397 kJ/mol
# Density = 2.466710 g / cm^3
# Si number density = 24.723369 Si / 1000 Ang^3
#
#
#
# Elastic Constant Matrix: (Units=GPa)
#
#
# Indices 1 2 3 4 5 6 
#
# 1 74.7318 14.1874 -2.2351 0.0000 3.6300 0.0000
# 2 14.1874 139.3567 31.8131 0.0000 3.6953 0.0000
# 3 -2.2351 31.8131 89.9402 0.0000 5.2308 0.0000
# 4 0.0000 0.0000 0.0000 38.7063 0.0000 18.0378
# 5 3.6300 3.6953 5.2308 0.0000 21.9579 0.0000
# 6 0.0000 0.0000 0.0000 18.0378 0.0000 20.4793
#
#
#
# Elastic Compliance Matrix: (Units=1/GPa)
#
#
# Indices 1 2 3 4 5 6 
#
# 1 0.013823 -0.001584 0.001035 0.000000 -0.002265 0.000000
# 2 -0.001584 0.007997 -0.002844 0.000000 -0.000406 0.000000
# 3 0.001035 -0.002844 0.012303 0.000000 -0.002623 0.000000
# 4 0.000000 0.000000 0.000000 0.043823 0.000000 -0.038599
# 5 -0.002265 -0.000406 -0.002623 0.000000 0.046610 0.000000
# 6 0.000000 0.000000 0.000000 -0.038599 0.000000 0.082827
#
#
# Mechanical properties :
#
#
# Convention : Reuss Voigt Hill
#
# Bulk Modulus (GPa) = 36.57954 43.50664 40.04309
# Shear Modulus (GPa) = 22.39338 33.57960 27.98649
#
# Velocity S-wave (km/s) = 3.01285 3.68939 3.36815
# Velocity P-wave (km/s) = 5.18947 5.98201 5.59978
#
# Compressibility (1/GPa) = 0.02733769
#
# Stress axis : x y z
#
# Youngs Moduli (GPa) = 72.34423 125.04437 81.28164
#
# Poissons Ratio (x) = 0.19801 -0.08416
# Poissons Ratio (y) = 0.11456 0.23120
# Poissons Ratio (z) = -0.07490 0.35568
#
# Static dielectric constant tensor:
#      x y z
#    x 2.040430 0.000000 -0.059940 
#    y 0.000000 2.054360 0.000000 
#    z -0.059940 0.000000 1.997670 
# 
# From -- ./inp_files/7835.got.cif
#   From: 2010.05.17/outbox.cif.g08.bks.cpg/sg3_4_cif.got.tgz:7835.got - 2010.06.03 18:33:08.
