data_PCOD9113528
_publ_section_title
;
Structure prediction by ZEFSAII (Michael W. Deem and Ramdas Pophale) SiO2 
 PCOD9113528
Probable space group: P 2
;
_chemical_formula_sum "Si O2"
_cell_formula_units_Z 14
_cell_length_a 10.424263
_cell_length_b 5.028574
_cell_length_c 16.485565
_cell_angle_alpha 90.000000
_cell_angle_beta 142.564289
_cell_angle_gamma 90.000000
_cell_volume 525.297539
_symmetry_space_group_name_H-M "P 2"
_symmetry_group_IT_number 3
_symmetry_cell_setting 'monoclinic'
loop_
_space_group_symop_operation_xyz
x,y,z
-x,y,-z
loop_
_atom_site_type_symbol
_atom_site_label
_atom_site_fract_x
_atom_site_fract_y
_atom_site_fract_z
Si Si1 0.242774 0.805200 0.497303
Si Si2 0.500000 0.473437 0.500000
Si Si3 0.000000 0.512279 0.500000
Si Si4 0.314454 0.266361 0.106479
Si Si5 0.058851 0.033089 0.837542
Si Si6 0.553836 0.769136 0.903338
Si Si7 0.650768 0.093367 0.695506
Si Si8 0.134361 0.476246 0.737924
O O1 0.404487 0.634792 0.525477
O O2 0.187002 0.699624 0.558864
O O3 0.025341 0.734800 0.340919
O O4 0.393470 0.060217 0.574415
O O5 0.670668 0.295291 0.630703
O O6 0.070397 0.360000 0.615818
O O7 0.365609 0.575922 0.127393
O O8 0.289017 0.178260 0.184990
O O9 0.487493 0.063110 0.152936
O O10 0.120903 0.207269 0.949426
O O11 0.834790 0.900422 0.752313
O O12 0.096932 0.245999 0.784180
O O13 0.364650 0.601712 0.845491
O O14 0.750039 0.819469 0.062394
#
# Coordination Sequence:
#
# PCOD9113528 Si02
#       8
#     2   1   1   2   2   2   2   2
#     4  10  24  46  79 116 168 218 280 357 428 509
#     4  12  26  44  72 112 168 216 274 350 422 514
#     4   8  20  42  82 118 156 226 268 370 420 506
#     4  10  26  49  81 120 161 219 278 355 422 502
#     4  10  25  50  79 121 165 226 280 356 428 515
#     4  10  25  53  80 120 161 225 279 355 420 502
#     4  12  24  48  79 122 163 226 279 350 433 517
#     4  10  21  50  80 119 170 218 286 352 436 504
#
# _framework density 26.65156
#
# number of rings (size 3 to 8) (size 9 to 14) (size 15 to 20)
#    1.714    0.000    1.429    1.714    4.000    1.714 
#   12.857    0.714    3.143    0.000    0.000    0.000 
#    0.000    0.000    0.000    0.000    0.000    0.000 
#
# Total GULP energy -78008.153660 kJ/mol
# GULP energy per Si atom -5572.010976 kJ/mol
# Density = 2.659090 g / cm^3
# Si number density = 26.651560 Si / 1000 Ang^3
#
#
#
# Elastic Constant Matrix: (Units=GPa)
#
#
# Indices 1 2 3 4 5 6 
#
# 1 165.1930 30.5927 73.6895 0.0000 0.5500 0.0000
# 2 30.5927 84.1997 38.8927 0.0000 -0.4212 0.0000
# 3 73.6895 38.8927 108.0868 0.0000 -12.7898 0.0000
# 4 0.0000 0.0000 0.0000 26.6919 0.0000 -11.8189
# 5 0.5500 -0.4212 -12.7898 0.0000 66.8602 0.0000
# 6 0.0000 0.0000 0.0000 -11.8189 0.0000 63.8801
#
#
#
# Elastic Compliance Matrix: (Units=1/GPa)
#
#
# Indices 1 2 3 4 5 6 
#
# 1 0.008813 -0.000439 -0.005995 0.000000 -0.001222 0.000000
# 2 -0.000439 0.014320 -0.004955 0.000000 -0.000854 0.000000
# 3 -0.005995 -0.004955 0.015474 0.000000 0.002978 0.000000
# 4 0.000000 0.000000 0.000000 0.040808 0.000000 0.007550
# 5 -0.001222 -0.000854 0.002978 0.000000 0.015531 0.000000
# 6 0.000000 0.000000 0.000000 0.007550 0.000000 0.017051
#
#
# Mechanical properties :
#
#
# Convention : Reuss Voigt Hill
#
# Bulk Modulus (GPa) = 63.16996 71.53656 67.35326
# Shear Modulus (GPa) = 35.70102 45.77342 40.73722
#
# Velocity S-wave (km/s) = 3.66395 4.14874 3.91386
# Velocity P-wave (km/s) = 6.45392 7.06039 6.76395
#
# Compressibility (1/GPa) = 0.01583031
#
# Stress axis : x y z
#
# Youngs Moduli (GPa) = 113.46584 69.83064 64.62324
#
# Poissons Ratio (x) = 0.03066 0.38743
# Poissons Ratio (y) = 0.04982 0.32018
# Poissons Ratio (z) = 0.68024 0.34598
#
# Static dielectric constant tensor:
#      x y z
#    x 2.354680 0.000000 0.164860 
#    y 0.000000 2.165020 0.000000 
#    z 0.164860 0.000000 1.969870 
# 
# From -- ./inp_files/13696.got.cif
#   From: 2010.05.17/outbox.cif.g08.bks.cpg/sg3_7_cif.got.tgz:13696.got - 2010.06.03 18:33:08.
