data_PCOD9113459
_publ_section_title
;
Structure prediction by ZEFSAII (Michael W. Deem and Ramdas Pophale) SiO2 
 PCOD9113459
Probable space group: P 2
;
_chemical_formula_sum "Si O2"
_cell_formula_units_Z 13
_cell_length_a 15.531910
_cell_length_b 5.509773
_cell_length_c 7.339424
_cell_angle_alpha 90.000000
_cell_angle_beta 55.173976
_cell_angle_gamma 90.000000
_cell_volume 515.591161
_symmetry_space_group_name_H-M "P 2"
_symmetry_group_IT_number 3
_symmetry_cell_setting 'monoclinic'
loop_
_space_group_symop_operation_xyz
x,y,z
-x,y,-z
loop_
_atom_site_type_symbol
_atom_site_label
_atom_site_fract_x
_atom_site_fract_y
_atom_site_fract_z
Si Si1 0.069624 0.492010 0.558380
Si Si2 0.071893 0.115353 0.088655
Si Si3 0.375195 0.649127 0.635433
Si Si4 0.609911 0.099665 0.952810
Si Si5 0.000000 0.678224 0.000000
Si Si6 0.313504 0.151753 0.731100
Si Si7 0.295946 0.597225 0.146794
O O1 0.081931 0.582825 0.750956
O O2 0.182207 0.492690 0.331652
O O3 0.000000 0.646395 0.500000
O O4 0.995793 0.254413 0.680685
O O5 0.192055 0.188262 0.932669
O O6 0.000000 0.182796 0.000000
O O7 0.070500 0.828111 0.060042
O O8 0.500000 0.672383 0.500000
O O9 0.350218 0.388481 0.579027
O O10 0.329437 0.896992 0.609584
O O11 0.321832 0.620040 0.900024
O O12 0.631870 0.377317 0.868665
O O13 0.687885 0.875788 0.808752
O O14 0.500000 0.023883 0.000000
O O15 0.618249 0.119062 0.164831
#
# Coordination Sequence:
#
# PCOD9113459 Si02
#       7
#     2   2   2   2   1   2   2
#     4  12  25  46  79 108 158 203 254 324 386 470
#     4  10  25  45  70 105 156 188 255 308 379 464
#     4  10  21  42  67 102 141 185 257 310 367 458
#     4  10  21  42  66  96 143 180 253 314 365 449
#     4  10  26  46  70 110 154 198 258 312 378 464
#     4  10  22  40  71  98 137 195 244 299 393 445
#     4  10  24  40  69 104 137 194 247 301 392 446
#
# _framework density 25.213777
#
# number of rings (size 3 to 8) (size 9 to 14) (size 15 to 20)
#    0.462    1.231    0.769    2.769    8.615    0.615 
#    0.000   18.462    0.000    0.000    0.000    0.000 
#    0.000    0.000    0.000    0.000    0.000    0.000 
#
# Total GULP energy -72378.567501 kJ/mol
# GULP energy per Si atom -5567.582115 kJ/mol
# Density = 2.515639 g / cm^3
# Si number density = 25.213777 Si / 1000 Ang^3
#
#
#
# Elastic Constant Matrix: (Units=GPa)
#
#
# Indices 1 2 3 4 5 6 
#
# 1 71.0527 -0.1767 14.3654 0.0000 0.5552 0.0000
# 2 -0.1767 156.4480 26.7812 0.0000 1.7095 0.0000
# 3 14.3654 26.7812 91.2089 0.0000 -3.2247 0.0000
# 4 0.0000 0.0000 0.0000 6.8900 0.0000 -18.0593
# 5 0.5552 1.7095 -3.2247 0.0000 50.5741 0.0000
# 6 0.0000 0.0000 0.0000 -18.0593 0.0000 2.6927
#
#
#
# Elastic Compliance Matrix: (Units=1/GPa)
#
#
# Indices 1 2 3 4 5 6 
#
# 1 0.014570 0.000437 -0.002435 0.000000 -0.000330 0.000000
# 2 0.000437 0.006750 -0.002064 0.000000 -0.000365 0.000000
# 3 -0.002435 -0.002064 0.011984 0.000000 0.000861 0.000000
# 4 0.000000 0.000000 0.000000 -0.008754 0.000000 -0.058713
# 5 -0.000330 -0.000365 0.000861 0.000000 0.019844 0.000000
# 6 0.000000 0.000000 0.000000 -0.058713 0.000000 -0.022400
#
#
# Mechanical properties :
#
#
# Convention : Reuss Voigt Hill
#
# Bulk Modulus (GPa) = 39.71338 44.51659 42.11498
# Shear Modulus (GPa) = 129.84083 30.54735 80.19409
#
# Velocity S-wave (km/s) = 7.18386 3.48449 5.64577
# Velocity P-wave (km/s) = 9.19757 5.82090 7.69669
#
# Compressibility (1/GPa) = 0.02518043
#
# Stress axis : x y z
#
# Youngs Moduli (GPa) = 68.63428 148.15650 83.44709
#
# Poissons Ratio (x) = -0.06472 0.20317
# Poissons Ratio (y) = -0.02998 0.17220
# Poissons Ratio (z) = 0.16710 0.30573
#
# Static dielectric constant tensor:
#      x y z
#    x 2.043930 0.000000 0.019160 
#    y 0.000000 2.733280 0.000000 
#    z 0.019160 0.000000 2.012380 
# 
# From -- ./inp_files/8822.got.cif
#   From: 2010.05.17/outbox.cif.g08.bks.cpg/sg3_5_cif.got.tgz:8822.got - 2010.06.03 18:33:08.
