data_PCOD9113642
_publ_section_title
;
Structure prediction by ZEFSAII (Michael W. Deem and Ramdas Pophale) SiO2 
 PCOD9113642
Probable space group: P 2
;
_chemical_formula_sum "Si O2"
_cell_formula_units_Z 15
_cell_length_a 11.125346
_cell_length_b 5.098505
_cell_length_c 20.332469
_cell_angle_alpha 90.000000
_cell_angle_beta 144.183260
_cell_angle_gamma 90.000000
_cell_volume 674.911483
_symmetry_space_group_name_H-M "P 2"
_symmetry_group_IT_number 3
_symmetry_cell_setting 'monoclinic'
loop_
_space_group_symop_operation_xyz
x,y,z
-x,y,-z
loop_
_atom_site_type_symbol
_atom_site_label
_atom_site_fract_x
_atom_site_fract_y
_atom_site_fract_z
Si Si1 0.370909 0.321330 0.509968
Si Si2 0.514387 0.826416 0.648199
Si Si3 0.553586 0.853993 0.816325
Si Si4 0.000000 0.025286 0.000000
Si Si5 0.044723 0.394432 0.745305
Si Si6 0.707243 0.728909 0.062782
Si Si7 0.041119 0.081925 0.159909
Si Si8 0.464778 0.358816 0.863824
O O1 0.500000 0.320989 0.500000
O O2 0.468973 0.536608 0.601830
O O3 0.140400 0.395115 0.387330
O O4 0.385727 0.036612 0.549189
O O5 0.466529 0.854838 0.703938
O O6 0.752334 0.909426 0.743199
O O7 0.456365 0.618302 0.814649
O O8 0.799667 0.842015 0.916052
O O9 0.521516 0.123065 0.841389
O O10 0.964864 0.192607 0.917356
O O11 0.132864 0.673408 0.808048
O O12 0.251676 0.282812 0.804421
O O13 0.970165 0.263640 0.780766
O O14 0.837440 0.904734 0.072581
O O15 0.500000 0.850438 0.000000
O O16 0.627002 0.463164 0.991141
#
# Coordination Sequence:
#
# PCOD9113642 Si02
#       8
#     2   2   2   1   2   2   2   2
#     4  12  24  46  69 105 136 183 239 300 349 411
#     4  11  26  44  72 100 141 180 236 299 353 413
#     4  11  24  47  67 102 141 186 231 289 354 424
#     4  10  22  40  72  98 144 182 228 278 356 432
#     4  11  26  41  71 100 138 189 236 294 354 419
#     4  10  23  39  65  99 139 177 223 286 346 426
#     4  11  22  42  66 105 135 186 227 288 359 423
#     4  11  25  45  70 101 143 183 234 287 354 429
#
# _framework density 22.225135999999999
#
# number of rings (size 3 to 8) (size 9 to 14) (size 15 to 20)
#    0.000    1.067    2.667    2.800    5.600    1.067 
#    2.400    4.000    0.000    0.000    0.000    0.000 
#    0.000    0.000    0.000    0.000    0.000    0.000 
#
# Total GULP energy -83856.717200 kJ/mol
# GULP energy per Si atom -5590.447813 kJ/mol
# Density = 2.217455 g / cm^3
# Si number density = 22.225136 Si / 1000 Ang^3
#
#
#
# Elastic Constant Matrix: (Units=GPa)
#
#
# Indices 1 2 3 4 5 6 
#
# 1 102.8266 18.7478 29.8014 0.0000 -10.8595 0.0000
# 2 18.7478 68.1234 -4.9751 0.0000 -1.2307 0.0000
# 3 29.8014 -4.9751 75.1241 0.0000 -3.6630 0.0000
# 4 0.0000 0.0000 0.0000 28.2452 0.0000 -8.7522
# 5 -10.8595 -1.2307 -3.6630 0.0000 31.5340 0.0000
# 6 0.0000 0.0000 0.0000 -8.7522 0.0000 31.9070
#
#
#
# Elastic Compliance Matrix: (Units=1/GPa)
#
#
# Indices 1 2 3 4 5 6 
#
# 1 0.012179 -0.003647 -0.004903 0.000000 0.003482 0.000000
# 2 -0.003647 0.015858 0.002480 0.000000 -0.000349 0.000000
# 3 -0.004903 0.002480 0.015430 0.000000 0.000201 0.000000
# 4 0.000000 0.000000 0.000000 0.038693 0.000000 0.010614
# 5 0.003482 -0.000349 0.000201 0.000000 0.032921 0.000000
# 6 0.000000 0.000000 0.000000 0.010614 0.000000 0.034252
#
#
# Mechanical properties :
#
#
# Convention : Reuss Voigt Hill
#
# Bulk Modulus (GPa) = 31.92152 37.02471 34.47311
# Shear Modulus (GPa) = 29.08411 31.83723 30.46067
#
# Velocity S-wave (km/s) = 3.62140 3.78893 3.70611
# Velocity P-wave (km/s) = 5.64624 5.98635 5.81878
#
# Compressibility (1/GPa) = 0.03132683
#
# Stress axis : x y z
#
# Youngs Moduli (GPa) = 82.11020 63.06104 64.80751
#
# Poissons Ratio (x) = 0.22997 0.31775
# Poissons Ratio (y) = 0.29944 -0.16071
# Poissons Ratio (z) = 0.40259 -0.15638
#
# Static dielectric constant tensor:
#      x y z
#    x 1.859010 0.000000 -0.018510 
#    y 0.000000 1.827280 0.000000 
#    z -0.018510 0.000000 1.844190 
# 
# From -- ./inp_files/15910.got.cif
#   From: 2010.05.17/outbox.cif.g08.bks.cpg/sg3_8_cif.got.tgz:15910.got - 2010.06.03 18:33:08.
