data_PCOD9113543
_publ_section_title
;
Structure prediction by ZEFSAII (Michael W. Deem and Ramdas Pophale) SiO2 
 PCOD9113543
Probable space group: P 2
;
_chemical_formula_sum "Si O2"
_cell_formula_units_Z 12
_cell_length_a 10.831439
_cell_length_b 6.644187
_cell_length_c 19.473441
_cell_angle_alpha 90.000000
_cell_angle_beta 21.620875
_cell_angle_gamma 90.000000
_cell_volume 516.374656
_symmetry_space_group_name_H-M "P 2"
_symmetry_group_IT_number 3
_symmetry_cell_setting 'monoclinic'
loop_
_space_group_symop_operation_xyz
x,y,z
-x,y,-z
loop_
_atom_site_type_symbol
_atom_site_label
_atom_site_fract_x
_atom_site_fract_y
_atom_site_fract_z
Si Si1 0.072553 0.637150 0.304211
Si Si2 0.324249 0.270572 0.528040
Si Si3 0.137388 0.953192 0.161110
Si Si4 0.343952 0.720100 0.360893
Si Si5 0.239888 0.745647 0.974145
Si Si6 0.764399 0.370479 0.179815
O O1 0.108526 0.735727 0.211712
O O2 0.418444 0.665077 0.166170
O O3 0.966753 0.407778 0.352901
O O4 0.768510 0.749866 0.502401
O O5 0.500000 0.389545 0.500000
O O6 0.594876 0.243625 0.327710
O O7 0.149938 0.087174 0.656942
O O8 0.500000 0.032864 0.000000
O O9 0.122463 0.916752 0.087626
O O10 0.633892 0.822265 0.165965
O O11 0.460563 0.486786 0.298465
O O12 0.000000 0.758720 0.500000
O O13 0.978062 0.561709 0.100330
O O14 0.000000 0.275759 0.000000
#
# Coordination Sequence:
#
# PCOD9113543 Si02
#       6
#     2   2   2   2   2   2
#     4   9  19  37  59  79 109 149 188 234 283 330
#     4  11  23  36  55  84 116 149 187 232 281 337
#     4  10  22  37  55  82 114 150 189 228 277 336
#     4   8  15  30  56  84 108 143 187 229 281 335
#     4   9  17  34  60  84 109 147 189 233 282 332
#     4   9  18  34  58  87 113 146 191 232 280 336
#
# _framework density 23.238941000000001
#
# number of rings (size 3 to 8) (size 9 to 14) (size 15 to 20)
#    0.000    2.667    0.000    1.000    0.000    6.667 
#    0.000    1.667    0.000   41.000    0.000    0.000 
#    0.000    0.000    0.000    0.000    0.000    0.000 
#
# Total GULP energy -66860.266392 kJ/mol
# GULP energy per Si atom -5571.688866 kJ/mol
# Density = 2.318605 g / cm^3
# Si number density = 23.238941 Si / 1000 Ang^3
#
#
#
# Elastic Constant Matrix: (Units=GPa)
#
#
# Indices 1 2 3 4 5 6 
#
# 1 50.7583 19.3862 45.9451 0.0000 28.7332 0.0000
# 2 19.3862 45.0837 52.2055 0.0000 3.9316 0.0000
# 3 45.9451 52.2055 177.8257 0.0000 36.9987 0.0000
# 4 0.0000 0.0000 0.0000 43.2872 0.0000 7.8253
# 5 28.7332 3.9316 36.9987 0.0000 61.2683 0.0000
# 6 0.0000 0.0000 0.0000 7.8253 0.0000 17.3215
#
#
#
# Elastic Compliance Matrix: (Units=1/GPa)
#
#
# Indices 1 2 3 4 5 6 
#
# 1 0.033792 -0.009810 -0.003070 0.000000 -0.013364 0.000000
# 2 -0.009810 0.037497 -0.010213 0.000000 0.008362 0.000000
# 3 -0.003070 -0.010213 0.010270 0.000000 -0.004106 0.000000
# 4 0.000000 0.000000 0.000000 0.025156 0.000000 -0.011365
# 5 -0.013364 0.008362 -0.004106 0.000000 0.024532 0.000000
# 6 0.000000 0.000000 0.000000 -0.011365 0.000000 0.062866
#
#
# Mechanical properties :
#
#
# Convention : Reuss Voigt Hill
#
# Bulk Modulus (GPa) = 28.27161 56.52681 42.39921
# Shear Modulus (GPa) = 19.83414 34.78415 27.30915
#
# Velocity S-wave (km/s) = 2.92462 3.87305 3.43176
# Velocity P-wave (km/s) = 4.85763 6.66166 5.82985
#
# Compressibility (1/GPa) = 0.03537117
#
# Stress axis : x y z
#
# Youngs Moduli (GPa) = 29.59251 26.66890 97.37488
#
# Poissons Ratio (x) = 0.26162 0.29899
# Poissons Ratio (y) = 0.29030 0.99453
# Poissons Ratio (z) = 0.09086 0.27238
#
# Static dielectric constant tensor:
#      x y z
#    x 1.939940 0.000000 -0.004900 
#    y 0.000000 1.854380 0.000000 
#    z -0.004900 0.000000 1.934990 
# 
# From -- ./inp_files/8141.got.cif
#   From: 2010.05.17/outbox.cif.g08.bks.cpg/sg3_5_cif.got.tgz:8141.got - 2010.06.03 18:33:08.
