data_PCOD9113020
_publ_section_title
;
Structure prediction by ZEFSAII (Michael W. Deem and Ramdas Pophale) SiO2 
 PCOD9113020
Probable space group: P 2
;
_chemical_formula_sum "Si O2"
_cell_formula_units_Z 16
_cell_length_a 8.200941
_cell_length_b 6.799900
_cell_length_c 18.936056
_cell_angle_alpha 90.000000
_cell_angle_beta 136.892099
_cell_angle_gamma 90.000000
_cell_volume 721.629840
_symmetry_space_group_name_H-M "P 2"
_symmetry_group_IT_number 3
_symmetry_cell_setting 'monoclinic'
loop_
_space_group_symop_operation_xyz
x,y,z
-x,y,-z
loop_
_atom_site_type_symbol
_atom_site_label
_atom_site_fract_x
_atom_site_fract_y
_atom_site_fract_z
Si Si1 0.919337 0.610320 0.658162
Si Si2 0.791765 0.878116 0.485865
Si Si3 0.427951 0.362087 0.238802
Si Si4 0.931781 0.230103 0.377830
Si Si5 0.010934 0.113979 0.167809
Si Si6 0.272180 0.935112 0.793148
Si Si7 0.693781 0.742351 0.731165
Si Si8 0.745912 0.125286 0.950763
O O1 0.799677 0.749788 0.560245
O O2 0.779006 0.629083 0.687150
O O3 0.958856 0.394509 0.639384
O O4 0.170614 0.717104 0.755408
O O5 0.541415 0.856181 0.368293
O O6 0.000000 0.800588 0.500000
O O7 0.855242 0.107053 0.519514
O O8 0.708569 0.337185 0.344747
O O9 0.246216 0.247516 0.233860
O O10 0.368069 0.589223 0.228194
O O11 0.363474 0.279775 0.140178
O O12 0.790215 0.046184 0.298619
O O13 0.879220 0.068116 0.199320
O O14 0.109476 0.896232 0.181150
O O15 0.818730 0.196978 0.051549
O O16 0.549034 0.957084 0.896042
O O17 0.000000 0.061734 0.000000
#
# Coordination Sequence:
#
# PCOD9113020 Si02
#       8
#     2   2   2   2   2   2   2   2
#     4  10  22  40  62  91 122 160 203 250 306 366
#     4  11  23  39  60  88 120 157 205 251 302 367
#     4  10  21  38  61  92 123 160 206 256 310 368
#     4  10  21  38  60  87 122 160 199 250 308 364
#     4  10  20  38  61  86 121 163 207 256 310 366
#     4   9  19  37  61  87 120 159 204 252 302 366
#     4  11  23  40  63  90 124 164 209 256 307 368
#     4   9  19  36  59  89 121 157 202 253 311 363
#
# _framework density 22.172032000000002
#
# number of rings (size 3 to 8) (size 9 to 14) (size 15 to 20)
#    0.000    2.000    0.000    3.000    0.000    6.500 
#    0.000   16.875    0.000    6.000    0.000    0.000 
#    0.000    0.000    0.000    0.000    0.000    0.000 
#
# Total GULP energy -89253.412669 kJ/mol
# GULP energy per Si atom -5578.338292 kJ/mol
# Density = 2.212157 g / cm^3
# Si number density = 22.172032 Si / 1000 Ang^3
#
#
#
# Elastic Constant Matrix: (Units=GPa)
#
#
# Indices 1 2 3 4 5 6 
#
# 1 44.0154 25.7026 15.8465 0.0000 0.4769 0.0000
# 2 25.7026 91.1962 39.5110 0.0000 4.5268 0.0000
# 3 15.8465 39.5110 74.8542 0.0000 5.5673 0.0000
# 4 0.0000 0.0000 0.0000 15.5352 0.0000 -6.6405
# 5 0.4769 4.5268 5.5673 0.0000 33.1723 0.0000
# 6 0.0000 0.0000 0.0000 -6.6405 0.0000 39.0990
#
#
#
# Elastic Compliance Matrix: (Units=1/GPa)
#
#
# Indices 1 2 3 4 5 6 
#
# 1 0.027510 -0.006802 -0.002302 0.000000 0.000919 0.000000
# 2 -0.006802 0.015914 -0.006892 0.000000 -0.000917 0.000000
# 3 -0.002302 -0.006892 0.017632 0.000000 -0.001986 0.000000
# 4 0.000000 0.000000 0.000000 0.069409 0.000000 0.011788
# 5 0.000919 -0.000917 -0.001986 0.000000 0.030591 0.000000
# 6 0.000000 0.000000 0.000000 0.011788 0.000000 0.027578
#
#
# Mechanical properties :
#
#
# Convention : Reuss Voigt Hill
#
# Bulk Modulus (GPa) = 34.40575 41.35400 37.87987
# Shear Modulus (GPa) = 21.70962 26.16168 23.93565
#
# Velocity S-wave (km/s) = 3.13252 3.43875 3.28920
# Velocity P-wave (km/s) = 5.35116 5.87015 5.61665
#
# Compressibility (1/GPa) = 0.02906491
#
# Stress axis : x y z
#
# Youngs Moduli (GPa) = 36.35054 62.83883 56.71486
#
# Poissons Ratio (x) = 0.42741 0.13056
# Poissons Ratio (y) = 0.24724 0.39087
# Poissons Ratio (z) = 0.08368 0.43307
#
# Static dielectric constant tensor:
#      x y z
#    x 1.887170 0.000000 -0.044760 
#    y 0.000000 1.798130 0.000000 
#    z -0.044760 0.000000 1.870630 
# 
# From -- ./inp_files/15756.got.cif
#   From: 2010.05.17/outbox.cif.g08.bks.cpg/sg3_8_cif.got.tgz:15756.got - 2010.06.03 18:33:08.
