data_PCOD9113590
_publ_section_title
;
Structure prediction by ZEFSAII (Michael W. Deem and Ramdas Pophale) SiO2 
 PCOD9113590
Probable space group: P 2
;
_chemical_formula_sum "Si O2"
_cell_formula_units_Z 7
_cell_length_a 4.939826
_cell_length_b 8.197406
_cell_length_c 8.832401
_cell_angle_alpha 90.000000
_cell_angle_beta 82.018819
_cell_angle_gamma 90.000000
_cell_volume 354.192756
_symmetry_space_group_name_H-M "P 2"
_symmetry_group_IT_number 3
_symmetry_cell_setting 'monoclinic'
loop_
_space_group_symop_operation_xyz
x,y,z
-x,y,-z
loop_
_atom_site_type_symbol
_atom_site_label
_atom_site_fract_x
_atom_site_fract_y
_atom_site_fract_z
Si Si1 0.288337 0.214560 0.895390
Si Si2 0.419337 0.928902 0.680297
Si Si3 0.902841 0.797207 0.848288
Si Si4 0.500000 0.524603 0.000000
O O1 0.297295 0.102006 0.747726
O O2 0.500000 0.138114 0.000000
O O3 0.398360 0.400387 0.876886
O O4 0.000000 0.228401 0.000000
O O5 0.500000 0.932890 0.500000
O O6 0.683108 0.888886 0.761828
O O7 0.184860 0.794488 0.733317
O O8 0.742974 0.636434 0.917303
O O9 0.000000 0.877627 0.000000
#
# Coordination Sequence:
#
# PCOD9113590 Si02
#       4
#     2   2   2   1
#     4  10  22  39  66  96 122 170 220 264 314 377
#     4  12  25  41  67 101 134 169 212 270 331 385
#     4  12  22  42  70  97 126 172 224 267 312 382
#     4  10  24  38  72  98 122 168 228 274 304 380
#
# _framework density 19.763251
#
# number of rings (size 3 to 8) (size 9 to 14) (size 15 to 20)
#    0.857    0.000    2.857    6.000    0.000    0.000 
#    0.000    1.429    6.286    0.000    0.000    0.000 
#    0.000    0.000    0.000    0.000    0.000    0.000 
#
# Total GULP energy -39016.347582 kJ/mol
# GULP energy per Si atom -5573.763940 kJ/mol
# Density = 1.971827 g / cm^3
# Si number density = 19.763251 Si / 1000 Ang^3
#
#
#
# Elastic Constant Matrix: (Units=GPa)
#
#
# Indices 1 2 3 4 5 6 
#
# 1 156.3350 30.1447 61.3185 0.0000 -4.7569 0.0000
# 2 30.1447 91.8445 63.1870 0.0000 1.7038 0.0000
# 3 61.3185 63.1870 148.9979 0.0000 -20.3075 0.0000
# 4 0.0000 0.0000 0.0000 8.1615 0.0000 4.8146
# 5 -4.7569 1.7038 -20.3075 0.0000 30.3303 0.0000
# 6 0.0000 0.0000 0.0000 4.8146 0.0000 19.3264
#
#
#
# Elastic Compliance Matrix: (Units=1/GPa)
#
#
# Indices 1 2 3 4 5 6 
#
# 1 0.007663 -0.000350 -0.003124 0.000000 -0.000870 0.000000
# 2 -0.000350 0.016359 -0.007622 0.000000 -0.006077 0.000000
# 3 -0.003124 -0.007622 0.012348 0.000000 0.008206 0.000000
# 4 0.000000 0.000000 0.000000 0.143635 0.000000 -0.035782
# 5 -0.000870 -0.006077 0.008206 0.000000 0.038669 0.000000
# 6 0.000000 0.000000 0.000000 -0.035782 0.000000 0.060657
#
#
# Mechanical properties :
#
#
# Convention : Reuss Voigt Hill
#
# Bulk Modulus (GPa) = 70.52827 78.49755 74.51291
# Shear Modulus (GPa) = 16.32664 27.73213 22.02939
#
# Velocity S-wave (km/s) = 2.87733 3.75002 3.34228
# Velocity P-wave (km/s) = 6.84126 7.65215 7.25803
#
# Compressibility (1/GPa) = 0.01417871
#
# Stress axis : x y z
#
# Youngs Moduli (GPa) = 130.50218 61.12754 80.98657
#
# Poissons Ratio (x) = 0.02138 0.25298
# Poissons Ratio (y) = 0.04565 0.61727
# Poissons Ratio (z) = 0.40766 0.46591
#
# Static dielectric constant tensor:
#      x y z
#    x 1.808790 0.000000 -0.020820 
#    y 0.000000 1.748010 0.000000 
#    z -0.020820 0.000000 1.667310 
# 
# From -- ./inp_files/4088.got.cif
#   From: 2010.05.17/outbox.cif.g08.bks.cpg/sg3_3_cif.got.tgz:4088.got - 2010.06.03 18:33:08.
