data_PCOD9113705
_publ_section_title
;
Structure prediction by ZEFSAII (Michael W. Deem and Ramdas Pophale) SiO2 
 PCOD9113705
Probable space group: P 2
;
_chemical_formula_sum "Si O2"
_cell_formula_units_Z 12
_cell_length_a 17.908387
_cell_length_b 5.369653
_cell_length_c 4.931885
_cell_angle_alpha 90.000000
_cell_angle_beta 67.497703
_cell_angle_gamma 90.000000
_cell_volume 438.150960
_symmetry_space_group_name_H-M "P 2"
_symmetry_group_IT_number 3
_symmetry_cell_setting 'monoclinic'
loop_
_space_group_symop_operation_xyz
x,y,z
-x,y,-z
loop_
_atom_site_type_symbol
_atom_site_label
_atom_site_fract_x
_atom_site_fract_y
_atom_site_fract_z
Si Si1 0.834523 0.045390 0.295298
Si Si2 0.500000 0.693216 0.500000
Si Si3 0.080184 0.439898 0.475625
Si Si4 0.000000 0.822009 0.000000
Si Si5 0.214499 0.746826 0.108763
Si Si6 0.360833 0.368105 0.848195
Si Si7 0.586988 0.089321 0.748188
O O1 0.853947 0.295054 0.433882
O O2 0.802495 0.858166 0.571486
O O3 0.780098 0.973949 0.113125
O O4 0.923077 0.991654 0.049313
O O5 0.562351 0.852427 0.597885
O O6 0.442522 0.531928 0.772811
O O7 0.035130 0.648317 0.715841
O O8 0.134869 0.570971 0.169975
O O9 0.000000 0.283719 0.500000
O O10 0.288368 0.558809 0.986377
O O11 0.374231 0.274340 0.524260
O O12 0.358267 0.136261 0.061946
O O13 0.500000 0.140645 0.000000
#
# Coordination Sequence:
#
# PCOD9113705 Si02
#       7
#     2   1   2   1   2   2   2
#     4  11  25  42  71 104 142 192 252 298 371 438
#     4  12  26  44  80 108 150 192 252 298 374 436
#     4  11  24  43  76 100 147 200 249 312 367 426
#     4  10  22  42  68 104 138 188 252 304 362 434
#     4  11  27  48  67 109 150 188 244 308 368 442
#     4  12  27  47  76 105 154 193 238 309 372 432
#     4  12  24  46  73 112 137 191 252 294 355 457
#
# _framework density 27.387817999999999
#
# number of rings (size 3 to 8) (size 9 to 14) (size 15 to 20)
#    0.000    0.667    5.000    1.500    7.000    2.667 
#    0.000    0.000    0.000    0.000    0.000    0.000 
#    0.000    0.000    0.000    0.000    0.000    0.000 
#
# Total GULP energy -67103.194155 kJ/mol
# GULP energy per Si atom -5591.932846 kJ/mol
# Density = 2.732548 g / cm^3
# Si number density = 27.387818 Si / 1000 Ang^3
#
#
#
# Elastic Constant Matrix: (Units=GPa)
#
#
# Indices 1 2 3 4 5 6 
#
# 1 94.8028 17.6452 22.0212 0.0000 -1.8638 0.0000
# 2 17.6452 73.8127 41.9224 0.0000 -8.3254 0.0000
# 3 22.0212 41.9224 127.2714 0.0000 9.6287 0.0000
# 4 0.0000 0.0000 0.0000 69.0069 0.0000 -12.4947
# 5 -1.8638 -8.3254 9.6287 0.0000 63.1272 0.0000
# 6 0.0000 0.0000 0.0000 -12.4947 0.0000 54.1645
#
#
#
# Elastic Compliance Matrix: (Units=1/GPa)
#
#
# Indices 1 2 3 4 5 6 
#
# 1 0.011217 -0.001888 -0.001341 0.000000 0.000287 0.000000
# 2 -0.001888 0.017593 -0.005706 0.000000 0.003135 0.000000
# 3 -0.001341 -0.005706 0.010146 0.000000 -0.002340 0.000000
# 4 0.000000 0.000000 0.000000 0.015123 0.000000 0.003489
# 5 0.000287 0.003135 -0.002340 0.000000 0.016620 0.000000
# 6 0.000000 0.000000 0.000000 0.003489 0.000000 0.019267
#
#
# Mechanical properties :
#
#
# Convention : Reuss Voigt Hill
#
# Bulk Modulus (GPa) = 47.42135 51.00717 49.21426
# Shear Modulus (GPa) = 43.53044 51.54625 47.53834
#
# Velocity S-wave (km/s) = 3.99106 4.34301 4.17075
# Velocity P-wave (km/s) = 6.21212 6.61917 6.41887
#
# Compressibility (1/GPa) = 0.02108755
#
# Stress axis : x y z
#
# Youngs Moduli (GPa) = 89.15360 56.84023 98.56485
#
# Poissons Ratio (x) = 0.10729 0.13215
# Poissons Ratio (y) = 0.16828 0.56238
# Poissons Ratio (z) = 0.11953 0.32431
#
# Static dielectric constant tensor:
#      x y z
#    x 2.380650 0.000000 0.108140 
#    y 0.000000 2.189780 0.000000 
#    z 0.108140 0.000000 1.991200 
# 
# From -- ./inp_files/3789.got.cif
#   From: 2010.05.17/outbox.cif.g08.bks.cpg/sg3_2_cif.got.tgz:3789.got - 2010.06.03 18:33:08.
