data_PCOD9113761
_publ_section_title
;
Structure prediction by ZEFSAII (Michael W. Deem and Ramdas Pophale) SiO2 
 PCOD9113761
Probable space group: P 2
;
_chemical_formula_sum "Si O2"
_cell_formula_units_Z 9
_cell_length_a 13.062498
_cell_length_b 5.486562
_cell_length_c 11.959242
_cell_angle_alpha 90.000000
_cell_angle_beta 22.319957
_cell_angle_gamma 90.000000
_cell_volume 325.507084
_symmetry_space_group_name_H-M "P 2"
_symmetry_group_IT_number 3
_symmetry_cell_setting 'monoclinic'
loop_
_space_group_symop_operation_xyz
x,y,z
-x,y,-z
loop_
_atom_site_type_symbol
_atom_site_label
_atom_site_fract_x
_atom_site_fract_y
_atom_site_fract_z
Si Si1 0.179515 0.875000 0.135528
Si Si2 0.904220 0.141741 0.224087
Si Si3 0.647865 0.579099 0.732262
Si Si4 0.263553 0.639427 0.656059
Si Si5 0.000000 0.191935 0.500000
O O1 0.136134 0.042185 0.070784
O O2 0.887198 0.763874 0.460466
O O3 0.394976 0.656525 0.908201
O O4 0.215533 0.050232 0.205274
O O5 0.700013 0.912817 0.426939
O O6 0.792186 0.409241 0.368947
O O7 0.000000 0.176129 0.000000
O O8 0.820791 0.339790 0.590623
O O9 0.500000 0.623326 0.000000
O O10 0.500000 0.568090 0.500000
O O11 0.000000 0.669260 0.000000
#
# Coordination Sequence:
#
# PCOD9113761 Si02
#       5
#     2   2   2   2   1
#     4  12  28  46  77 113 150 205 259 320 395 474
#     4  10  25  49  74 113 155 201 253 319 384 469
#     4  12  25  47  71 109 153 190 263 319 390 464
#     4  10  22  43  73  98 147 196 247 304 370 446
#     4  12  26  48  80 106 160 204 260 332 400 466
#
# _framework density 27.649166999999998
#
# number of rings (size 3 to 8) (size 9 to 14) (size 15 to 20)
#    0.000    0.889    4.444    0.667    6.222    7.111 
#    0.000    2.222    0.000    0.000    0.000    0.000 
#    0.000    0.000    0.000    0.000    0.000    0.000 
#
# Total GULP energy -50302.848342 kJ/mol
# GULP energy per Si atom -5589.205371 kJ/mol
# Density = 2.758624 g / cm^3
# Si number density = 27.649167 Si / 1000 Ang^3
#
#
#
# Elastic Constant Matrix: (Units=GPa)
#
#
# Indices 1 2 3 4 5 6 
#
# 1 93.9243 25.9418 3.2416 0.0000 -11.3737 0.0000
# 2 25.9418 183.8167 27.7709 0.0000 -9.5833 0.0000
# 3 3.2416 27.7709 151.2529 0.0000 -15.7553 0.0000
# 4 0.0000 0.0000 0.0000 51.8648 0.0000 -10.8579
# 5 -11.3737 -9.5833 -15.7553 0.0000 43.6287 0.0000
# 6 0.0000 0.0000 0.0000 -10.8579 0.0000 43.5859
#
#
#
# Elastic Compliance Matrix: (Units=1/GPa)
#
#
# Indices 1 2 3 4 5 6 
#
# 1 0.011387 -0.001512 0.000320 0.000000 0.002752 0.000000
# 2 -0.001512 0.005830 -0.000983 0.000000 0.000532 0.000000
# 3 0.000320 -0.000983 0.007036 0.000000 0.002408 0.000000
# 4 0.000000 0.000000 0.000000 0.020342 0.000000 0.005067
# 5 0.002752 0.000532 0.002408 0.000000 0.024625 0.000000
# 6 0.000000 0.000000 0.000000 0.005067 0.000000 0.024206
#
#
# Mechanical properties :
#
#
# Convention : Reuss Voigt Hill
#
# Bulk Modulus (GPa) = 50.24192 60.32252 55.28222
# Shear Modulus (GPa) = 47.88935 52.61851 50.25393
#
# Velocity S-wave (km/s) = 4.16629 4.36716 4.26791
# Velocity P-wave (km/s) = 6.43076 6.87706 6.65765
#
# Compressibility (1/GPa) = 0.01990370
#
# Stress axis : x y z
#
# Youngs Moduli (GPa) = 87.82214 171.53438 142.12883
#
# Poissons Ratio (x) = 0.25934 -0.04551
# Poissons Ratio (y) = 0.13278 0.13966
# Poissons Ratio (z) = -0.02812 0.16855
#
# Static dielectric constant tensor:
#      x y z
#    x 2.250720 0.000000 0.028270 
#    y 0.000000 2.225030 0.000000 
#    z 0.028270 0.000000 2.068690 
# 
# From -- ./inp_files/1860.got.cif
#   From: 2010.05.17/outbox.cif.g08.bks.cpg/sg3_1_cif.got.tgz:1860.got - 2010.06.03 18:33:08.
