data_PCOD9113947
_publ_section_title
;
Structure prediction by ZEFSAII (Michael W. Deem and Ramdas Pophale) SiO2 
 PCOD9113947
Probable space group: P 2
;
_chemical_formula_sum "Si O2"
_cell_formula_units_Z 11
_cell_length_a 14.521225
_cell_length_b 5.182800
_cell_length_c 7.612484
_cell_angle_alpha 90.000000
_cell_angle_beta 131.261639
_cell_angle_gamma 90.000000
_cell_volume 430.667431
_symmetry_space_group_name_H-M "P 2"
_symmetry_group_IT_number 3
_symmetry_cell_setting 'monoclinic'
loop_
_space_group_symop_operation_xyz
x,y,z
-x,y,-z
loop_
_atom_site_type_symbol
_atom_site_label
_atom_site_fract_x
_atom_site_fract_y
_atom_site_fract_z
Si Si1 0.075583 0.487340 0.272491
Si Si2 0.259901 0.072134 0.754938
Si Si3 0.398482 0.563747 0.014479
Si Si4 0.500000 0.698767 0.500000
Si Si5 0.747562 0.876971 0.643431
Si Si6 0.937316 0.989431 0.198569
O O1 0.207168 0.595259 0.371540
O O2 0.017338 0.732475 0.295677
O O3 0.028857 0.232888 0.311648
O O4 0.000000 0.462675 0.000000
O O5 0.256718 0.042151 0.540064
O O6 0.150369 0.993742 0.745924
O O7 0.288655 0.366847 0.841679
O O8 0.362716 0.862056 0.941228
O O9 0.447771 0.534541 0.272786
O O10 0.500000 0.493796 0.000000
O O11 0.615745 0.856321 0.568638
O O12 0.848876 0.975421 0.912242
#
# Coordination Sequence:
#
# PCOD9113947 Si02
#       6
#     2   2   2   1   2   2
#     4  10  23  46  75 108 150 199 258 312 382 458
#     4  12  27  47  77 116 154 199 265 324 390 465
#     4  12  27  48  73 112 160 206 260 322 387 466
#     4  12  26  52  82 116 160 216 258 318 408 462
#     4  11  26  48  81 116 155 207 262 320 395 465
#     4  11  24  48  77 106 154 202 250 325 382 456
#
# _framework density 25.541748999999999
#
# number of rings (size 3 to 8) (size 9 to 14) (size 15 to 20)
#    0.000    0.727    3.636    3.273    2.545    7.273 
#    0.000    5.455    0.000    0.000    0.000    0.000 
#    0.000    0.000    0.000    0.000    0.000    0.000 
#
# Total GULP energy -61616.665511 kJ/mol
# GULP energy per Si atom -5601.515046 kJ/mol
# Density = 2.548362 g / cm^3
# Si number density = 25.541749 Si / 1000 Ang^3
#
#
#
# Elastic Constant Matrix: (Units=GPa)
#
#
# Indices 1 2 3 4 5 6 
#
# 1 219.5678 42.7901 52.4432 0.0000 1.6102 0.0000
# 2 42.7901 133.1393 33.8918 0.0000 -2.4024 0.0000
# 3 52.4432 33.8918 146.8227 0.0000 -47.5634 0.0000
# 4 0.0000 0.0000 0.0000 34.7061 0.0000 10.5854
# 5 1.6102 -2.4024 -47.5634 0.0000 62.1822 0.0000
# 6 0.0000 0.0000 0.0000 10.5854 0.0000 15.8936
#
#
#
# Elastic Compliance Matrix: (Units=1/GPa)
#
#
# Indices 1 2 3 4 5 6 
#
# 1 0.005335 -0.001176 -0.002252 0.000000 -0.001906 0.000000
# 2 -0.001176 0.008340 -0.001849 0.000000 -0.001062 0.000000
# 3 -0.002252 -0.001849 0.010686 0.000000 0.008160 0.000000
# 4 0.000000 0.000000 0.000000 0.036158 0.000000 -0.024082
# 5 -0.001906 -0.001062 0.008160 0.000000 0.022332 0.000000
# 6 0.000000 0.000000 0.000000 -0.024082 0.000000 0.078958
#
#
# Mechanical properties :
#
#
# Convention : Reuss Voigt Hill
#
# Bulk Modulus (GPa) = 72.42314 84.19779 78.31047
# Shear Modulus (GPa) = 28.25404 47.25003 37.75203
#
# Velocity S-wave (km/s) = 3.32955 4.30573 3.84872
# Velocity P-wave (km/s) = 6.57249 7.59970 7.10468
#
# Compressibility (1/GPa) = 0.01380774
#
# Stress axis : x y z
#
# Youngs Moduli (GPa) = 187.42855 119.89774 93.58365
#
# Poissons Ratio (x) = 0.14099 0.21072
# Poissons Ratio (y) = 0.22041 0.17305
# Poissons Ratio (z) = 0.42203 0.22171
#
# Static dielectric constant tensor:
#      x y z
#    x 1.942070 0.000000 -0.021220 
#    y 0.000000 2.048810 0.000000 
#    z -0.021220 0.000000 2.326090 
# 
# From -- ./inp_files/7873.got.cif
#   From: 2010.05.17/outbox.cif.g08.bks.cpg/sg3_4_cif.got.tgz:7873.got - 2010.06.03 18:33:08.
