data_PCOD9113136
_publ_section_title
;
Structure prediction by ZEFSAII (Michael W. Deem and Ramdas Pophale) SiO2 
 PCOD9113136
Probable space group: P 2
;
_chemical_formula_sum "Si O2"
_cell_formula_units_Z 15
_cell_length_a 21.952752
_cell_length_b 5.640920
_cell_length_c 9.772450
_cell_angle_alpha 90.000000
_cell_angle_beta 38.447931
_cell_angle_gamma 90.000000
_cell_volume 752.480581
_symmetry_space_group_name_H-M "P 2"
_symmetry_group_IT_number 3
_symmetry_cell_setting 'monoclinic'
loop_
_space_group_symop_operation_xyz
x,y,z
-x,y,-z
loop_
_atom_site_type_symbol
_atom_site_label
_atom_site_fract_x
_atom_site_fract_y
_atom_site_fract_z
Si Si1 0.320461 0.758730 0.751139
Si Si2 0.359158 0.147296 0.910611
Si Si3 0.912733 0.325467 0.042985
Si Si4 0.202789 0.827817 0.704149
Si Si5 0.500000 0.422320 0.500000
Si Si6 0.958646 0.202152 0.441084
Si Si7 0.806158 0.535797 0.823579
Si Si8 0.229573 0.919132 0.341664
O O1 0.295653 0.833126 0.642176
O O2 0.407282 0.569456 0.608775
O O3 0.354355 0.952170 0.800691
O O4 0.215474 0.676046 0.999770
O O5 0.460165 0.276728 0.700803
O O6 0.270296 0.322390 0.032709
O O7 0.327181 0.053443 0.115596
O O8 0.853901 0.575407 0.167172
O O9 0.854728 0.076714 0.167965
O O10 0.000000 0.333912 0.000000
O O11 0.961488 0.289502 0.807839
O O12 0.229999 0.840643 0.496745
O O13 0.907761 0.423310 0.605558
O O14 0.000000 0.056690 0.500000
O O15 0.870112 0.067974 0.517186
O O16 0.776082 0.697342 0.749534
#
# Coordination Sequence:
#
# PCOD9113136 Si02
#       8
#     2   2   2   2   1   2   2   2
#     4  10  22  40  68 101 130 173 217 280 342 407
#     4   9  20  39  68  95 128 163 217 270 340 406
#     4  12  26  44  62  96 137 187 234 283 326 388
#     4  12  27  42  68  96 140 181 231 274 340 396
#     4  10  20  40  72 102 130 164 218 284 338 418
#     4  11  23  36  58  88 130 175 232 282 324 380
#     4   9  20  38  60  86 126 171 221 272 337 386
#     4  10  22  41  60  91 129 180 217 274 336 396
#
# _framework density 19.934068
#
# number of rings (size 3 to 8) (size 9 to 14) (size 15 to 20)
#    0.000    1.600    1.333    2.400   13.067    0.533 
#    0.000    0.000    0.000   19.200    0.000    0.000 
#    0.000    0.000    0.000    0.000    0.000    0.000 
#
# Total GULP energy -83567.897177 kJ/mol
# GULP energy per Si atom -5571.193145 kJ/mol
# Density = 1.988870 g / cm^3
# Si number density = 19.934068 Si / 1000 Ang^3
#
#
#
# Elastic Constant Matrix: (Units=GPa)
#
#
# Indices 1 2 3 4 5 6 
#
# 1 97.4635 22.0110 60.5604 0.0000 30.7973 0.0000
# 2 22.0110 98.0628 59.3338 0.0000 -0.4556 0.0000
# 3 60.5604 59.3338 151.5013 0.0000 23.8124 0.0000
# 4 0.0000 0.0000 0.0000 29.1778 0.0000 -9.1205
# 5 30.7973 -0.4556 23.8124 0.0000 34.4385 0.0000
# 6 0.0000 0.0000 0.0000 -9.1205 0.0000 -16.4420
#
#
#
# Elastic Compliance Matrix: (Units=1/GPa)
#
#
# Indices 1 2 3 4 5 6 
#
# 1 0.017198 -0.001217 -0.004463 0.000000 -0.012310 0.000000
# 2 -0.001217 0.014031 -0.005844 0.000000 0.005315 0.000000
# 3 -0.004463 -0.005844 0.011285 0.000000 -0.003889 0.000000
# 4 0.000000 0.000000 0.000000 0.029208 0.000000 -0.016202
# 5 -0.012310 0.005315 -0.003889 0.000000 0.042805 0.000000
# 6 0.000000 0.000000 0.000000 -0.016202 0.000000 -0.051832
#
#
# Mechanical properties :
#
#
# Convention : Reuss Voigt Hill
#
# Bulk Modulus (GPa) = 51.37272 70.09309 60.73291
# Shear Modulus (GPa) = 54.21117 23.10970 38.66043
#
# Velocity S-wave (km/s) = 5.22056 3.40855 4.40866
# Velocity P-wave (km/s) = 7.88456 7.12248 7.51319
#
# Compressibility (1/GPa) = 0.01946558
#
# Stress axis : x y z
#
# Youngs Moduli (GPa) = 58.14585 71.26839 88.61490
#
# Poissons Ratio (x) = 0.08672 0.39552
# Poissons Ratio (y) = 0.07076 0.51788
# Poissons Ratio (z) = 0.25952 0.41651
#
# Static dielectric constant tensor:
#      x y z
#    x 1.789530 0.000000 -0.031610 
#    y 0.000000 1.794140 0.000000 
#    z -0.031610 0.000000 1.727280 
# 
# From -- ./inp_files/8295.got.cif
#   From: 2010.05.17/outbox.cif.g08.bks.cpg/sg3_5_cif.got.tgz:8295.got - 2010.06.03 18:33:08.
