data_PCOD9113209
_publ_section_title
;
Structure prediction by ZEFSAII (Michael W. Deem and Ramdas Pophale) SiO2 
 PCOD9113209
Probable space group: P 2
;
_chemical_formula_sum "Si O2"
_cell_formula_units_Z 16
_cell_length_a 12.102934
_cell_length_b 5.734623
_cell_length_c 8.845145
_cell_angle_alpha 90.000000
_cell_angle_beta 75.642866
_cell_angle_gamma 90.000000
_cell_volume 594.731175
_symmetry_space_group_name_H-M "P 2"
_symmetry_group_IT_number 3
_symmetry_cell_setting 'monoclinic'
loop_
_space_group_symop_operation_xyz
x,y,z
-x,y,-z
loop_
_atom_site_type_symbol
_atom_site_label
_atom_site_fract_x
_atom_site_fract_y
_atom_site_fract_z
Si Si1 0.290509 0.679260 0.940918
Si Si2 0.528141 0.698826 0.671850
Si Si3 0.472537 0.199358 0.330825
Si Si4 0.959313 0.198929 0.658096
Si Si5 0.824219 0.884075 0.395724
Si Si6 0.991365 0.594535 0.174417
Si Si7 0.729373 0.173183 0.164961
Si Si8 0.787476 0.818816 0.736135
O O1 0.406279 0.691365 0.801848
O O2 0.235947 0.424676 0.917452
O O3 0.232418 0.935962 0.931965
O O4 0.305110 0.713238 0.116181
O O5 0.500000 0.704985 0.500000
O O6 0.416373 0.446756 0.318250
O O7 0.581852 0.951910 0.690519
O O8 0.500000 0.198308 0.500000
O O9 0.592813 0.193489 0.203735
O O10 0.993227 0.321913 0.802207
O O11 0.000000 0.358018 0.500000
O O12 0.058156 0.008469 0.604278
O O13 0.833136 0.090366 0.713612
O O14 0.868845 0.676995 0.275955
O O15 0.776396 0.766497 0.562045
O O16 0.755131 0.085294 0.329414
O O17 0.098854 0.694977 0.231728
O O18 0.000000 0.667270 0.000000
#
# Coordination Sequence:
#
# PCOD9113209 Si02
#       8
#     2   2   2   2   2   2   2   2
#     4  10  21  35  55  86 115 146 190 247 289 342
#     4   8  14  27  48  76 110 142 175 222 286 338
#     4   8  14  27  48  76 109 142 175 223 286 338
#     4   9  20  37  54  72 103 152 199 237 295 361
#     4  10  22  38  54  76 114 153 197 241 302 359
#     4  11  22  35  57  79 105 147 200 252 296 345
#     4  10  21  35  55  85 116 145 191 245 292 340
#     4  10  22  38  53  78 112 155 195 243 300 361
#
# _framework density 26.902913000000002
#
# number of rings (size 3 to 8) (size 9 to 14) (size 15 to 20)
#    0.000    2.500    0.000    2.625    5.250    2.000 
#    0.000    0.000    0.000    0.000    0.000   14.000 
#    0.000   40.000    0.000    0.000    0.000    0.000 
#
# Total GULP energy -89133.231559 kJ/mol
# GULP energy per Si atom -5570.826972 kJ/mol
# Density = 2.684168 g / cm^3
# Si number density = 26.902913 Si / 1000 Ang^3
#
#
#
# Elastic Constant Matrix: (Units=GPa)
#
#
# Indices 1 2 3 4 5 6 
#
# 1 40.3399 35.3328 28.8889 0.0000 -7.9647 0.0000
# 2 35.3328 226.5641 63.3252 0.0000 10.6761 0.0000
# 3 28.8889 63.3252 199.8155 0.0000 -4.4516 0.0000
# 4 0.0000 0.0000 0.0000 31.8433 0.0000 3.7782
# 5 -7.9647 10.6761 -4.4516 0.0000 43.0767 0.0000
# 6 0.0000 0.0000 0.0000 3.7782 0.0000 49.4137
#
#
#
# Elastic Compliance Matrix: (Units=1/GPa)
#
#
# Indices 1 2 3 4 5 6 
#
# 1 0.032268 -0.004486 -0.003093 0.000000 0.006758 0.000000
# 2 -0.004486 0.005548 -0.001161 0.000000 -0.002324 0.000000
# 3 -0.003093 -0.001161 0.005827 0.000000 0.000318 0.000000
# 4 0.000000 0.000000 0.000000 0.031691 0.000000 -0.002423
# 5 0.006758 -0.002324 0.000318 0.000000 0.025073 0.000000
# 6 0.000000 0.000000 0.000000 -0.002423 0.000000 0.020423
#
#
# Mechanical properties :
#
#
# Convention : Reuss Voigt Hill
#
# Bulk Modulus (GPa) = 38.22386 80.20148 59.21267
# Shear Modulus (GPa) = 34.00649 47.47823 40.74236
#
# Velocity S-wave (km/s) = 3.55920 4.20551 3.89578
# Velocity P-wave (km/s) = 5.57938 7.31149 6.50336
#
# Compressibility (1/GPa) = 0.02616167
#
# Stress axis : x y z
#
# Youngs Moduli (GPa) = 30.99035 180.26131 171.61783
#
# Poissons Ratio (x) = 0.80869 0.53080
# Poissons Ratio (y) = 0.13903 0.19930
# Poissons Ratio (z) = 0.09585 0.20933
#
# Static dielectric constant tensor:
#      x y z
#    x 2.202720 0.000000 0.089080 
#    y 0.000000 2.290680 0.000000 
#    z 0.089080 0.000000 2.501190 
# 
# From -- ./inp_files/8893.got.cif
#   From: 2010.05.17/outbox.cif.g08.bks.cpg/sg3_5_cif.got.tgz:8893.got - 2010.06.03 18:33:08.
