data_PCOD9113476
_publ_section_title
;
Structure prediction by ZEFSAII (Michael W. Deem and Ramdas Pophale) SiO2 
 PCOD9113476
Probable space group: P 2
;
_chemical_formula_sum "Si O2"
_cell_formula_units_Z 15
_cell_length_a 19.931694
_cell_length_b 5.309872
_cell_length_c 5.399662
_cell_angle_alpha 90.000000
_cell_angle_beta 80.912532
_cell_angle_gamma 90.000000
_cell_volume 564.298945
_symmetry_space_group_name_H-M "P 2"
_symmetry_group_IT_number 3
_symmetry_cell_setting 'monoclinic'
loop_
_space_group_symop_operation_xyz
x,y,z
-x,y,-z
loop_
_atom_site_type_symbol
_atom_site_label
_atom_site_fract_x
_atom_site_fract_y
_atom_site_fract_z
Si Si1 0.701544 0.945060 0.757849
Si Si2 0.380413 0.627449 0.562791
Si Si3 0.921336 0.216296 0.622269
Si Si4 0.428844 0.014285 0.897496
Si Si5 0.810990 0.067320 0.313938
Si Si6 0.044670 0.717487 0.220761
Si Si7 0.500000 0.378595 0.500000
Si Si8 0.242600 0.551706 0.880541
O O1 0.651218 0.851575 0.574689
O O2 0.760574 0.090955 0.582501
O O3 0.733278 0.704021 0.887008
O O4 0.645690 0.087524 0.955384
O O5 0.444195 0.525228 0.370971
O O6 0.311955 0.495614 0.687698
O O7 0.415950 0.742644 0.784138
O O8 0.881759 0.139499 0.399242
O O9 0.905197 0.485867 0.752524
O O10 0.000000 0.246545 0.500000
O O11 0.917408 0.984301 0.814965
O O12 0.447134 0.210673 0.675977
O O13 0.500000 0.009996 0.000000
O O14 0.792363 0.277891 0.119863
O O15 0.800065 0.777484 0.232591
O O16 0.000000 0.742662 0.500000
O O17 0.000000 0.673900 0.000000
#
# Coordination Sequence:
#
# PCOD9113476 Si02
#       8
#     2   2   2   2   2   2   1   2
#     4  10  24  48  69  99 142 192 246 301 377 444
#     4  10  24  44  64  90 139 178 230 304 356 446
#     4  10  22  44  73 107 147 192 240 313 373 448
#     4  11  24  41  66  99 131 178 237 301 375 432
#     4  11  24  49  71 107 147 191 252 305 373 451
#     4  10  21  42  71 107 151 196 242 303 376 447
#     4  12  24  38  68  98 130 172 228 304 362 440
#     4  10  25  43  74  99 143 191 245 307 365 450
#
# _framework density 26.581654
#
# number of rings (size 3 to 8) (size 9 to 14) (size 15 to 20)
#    0.000    1.600    0.000    3.200    7.467    4.800 
#   16.800    0.000    0.000    0.000    0.000    0.000 
#    0.000    0.000    0.000    0.000    0.000    0.000 
#
# Total GULP energy -83810.713104 kJ/mol
# GULP energy per Si atom -5587.380874 kJ/mol
# Density = 2.652115 g / cm^3
# Si number density = 26.581654 Si / 1000 Ang^3
#
#
#
# Elastic Constant Matrix: (Units=GPa)
#
#
# Indices 1 2 3 4 5 6 
#
# 1 112.1067 21.9977 18.5264 0.0000 4.7560 0.0000
# 2 21.9977 119.4222 1.6240 0.0000 7.4567 0.0000
# 3 18.5264 1.6240 82.8459 0.0000 6.4307 0.0000
# 4 0.0000 0.0000 0.0000 21.2549 0.0000 10.7268
# 5 4.7560 7.4567 6.4307 0.0000 58.7918 0.0000
# 6 0.0000 0.0000 0.0000 10.7268 0.0000 36.4178
#
#
#
# Elastic Compliance Matrix: (Units=1/GPa)
#
#
# Indices 1 2 3 4 5 6 
#
# 1 0.009618 -0.001722 -0.002091 0.000000 -0.000331 0.000000
# 2 -0.001722 0.008750 0.000291 0.000000 -0.001002 0.000000
# 3 -0.002091 0.000291 0.012630 0.000000 -0.001249 0.000000
# 4 0.000000 0.000000 0.000000 0.055263 0.000000 -0.016278
# 5 -0.000331 -0.001002 -0.001249 0.000000 0.017300 0.000000
# 6 0.000000 0.000000 0.000000 -0.016278 0.000000 0.032254
#
#
# Mechanical properties :
#
#
# Convention : Reuss Voigt Hill
#
# Bulk Modulus (GPa) = 41.74995 44.29677 43.02336
# Shear Modulus (GPa) = 33.14733 41.44133 37.29433
#
# Velocity S-wave (km/s) = 3.53512 3.95273 3.74974
# Velocity P-wave (km/s) = 5.69238 6.12639 5.91337
#
# Compressibility (1/GPa) = 0.02395212
#
# Stress axis : x y z
#
# Youngs Moduli (GPa) = 103.97492 114.29148 79.17950
#
# Poissons Ratio (x) = 0.19687 0.16559
# Poissons Ratio (y) = 0.17910 -0.02308
# Poissons Ratio (z) = 0.21744 -0.03331
#
# Static dielectric constant tensor:
#      x y z
#    x 2.201420 0.000000 0.142540 
#    y 0.000000 2.220270 0.000000 
#    z 0.142540 0.000000 1.812670 
# 
# From -- ./inp_files/3905.got.cif
#   From: 2010.05.17/outbox.cif.g08.bks.cpg/sg3_2_cif.got.tgz:3905.got - 2010.06.03 18:33:08.
