data_PCOD9113596
_publ_section_title
;
Structure prediction by ZEFSAII (Michael W. Deem and Ramdas Pophale) SiO2 
 PCOD9113596
Probable space group: P 2
;
_chemical_formula_sum "Si O2"
_cell_formula_units_Z 16
_cell_length_a 25.169675
_cell_length_b 4.922100
_cell_length_c 16.912475
_cell_angle_alpha 90.000000
_cell_angle_beta 17.589427
_cell_angle_gamma 90.000000
_cell_volume 633.171023
_symmetry_space_group_name_H-M "P 2"
_symmetry_group_IT_number 3
_symmetry_cell_setting 'monoclinic'
loop_
_space_group_symop_operation_xyz
x,y,z
-x,y,-z
loop_
_atom_site_type_symbol
_atom_site_label
_atom_site_fract_x
_atom_site_fract_y
_atom_site_fract_z
Si Si1 0.772917 0.459100 0.004126
Si Si2 0.912578 0.124687 0.357255
Si Si3 0.801191 0.708403 0.115323
Si Si4 0.749686 0.256622 0.741019
Si Si5 0.316120 0.842354 0.550832
Si Si6 0.928618 0.389546 0.178009
Si Si7 0.037555 0.755961 0.532233
Si Si8 0.531263 0.336586 0.207244
O O1 0.690029 0.597943 0.199245
O O2 0.933848 0.287350 0.813416
O O3 0.864343 0.704105 0.827181
O O4 0.659779 0.295577 0.100639
O O5 0.752431 0.126700 0.648358
O O6 0.839655 0.261170 0.381303
O O7 0.026650 0.867165 0.164078
O O8 0.885858 0.460702 0.043016
O O9 0.704155 0.853387 0.325376
O O10 0.810425 0.568258 0.646515
O O11 0.899842 0.061030 0.564076
O O12 0.606882 0.267335 0.013574
O O13 0.162914 0.667179 0.724112
O O14 0.479397 0.651896 0.292043
O O15 0.361364 0.146965 0.461007
O O16 0.000000 0.226632 0.000000
O O17 0.000000 0.638673 0.500000
#
# Coordination Sequence:
#
# PCOD9113596 Si02
#       8
#     2   2   2   2   2   2   2   2
#     4  10  23  40  63 105 137 178 230 280 355 405
#     4  10  22  39  75 101 131 167 237 313 339 383
#     4  10  22  44  71 104 127 175 240 313 343 393
#     4  11  23  39  65  99 136 177 231 278 345 409
#     4  11  28  46  69  99 140 191 236 273 362 437
#     4   9  22  44  73 100 125 172 240 309 339 396
#     4  11  20  35  65  94 128 178 231 283 321 393
#     4  12  27  45  65  99 153 199 216 269 354 472
#
# _framework density 25.269634
#
# number of rings (size 3 to 8) (size 9 to 14) (size 15 to 20)
#    0.000    1.500    2.500    1.125   10.500    1.000 
#    0.000    0.625    0.000    0.000    0.000    0.000 
#    0.000    0.000    0.000    0.000    0.000    0.000 
#
# Total GULP energy -89174.998106 kJ/mol
# GULP energy per Si atom -5573.437382 kJ/mol
# Density = 2.521212 g / cm^3
# Si number density = 25.269634 Si / 1000 Ang^3
#
#
#
# Elastic Constant Matrix: (Units=GPa)
#
#
# Indices 1 2 3 4 5 6 
#
# 1 138.7228 22.1499 76.1852 0.0000 49.6005 0.0000
# 2 22.1499 81.8281 7.5643 0.0000 16.6077 0.0000
# 3 76.1852 7.5643 119.2006 0.0000 48.5505 0.0000
# 4 0.0000 0.0000 0.0000 34.4373 0.0000 8.8010
# 5 49.6005 16.6077 48.5505 0.0000 58.1164 0.0000
# 6 0.0000 0.0000 0.0000 8.8010 0.0000 28.8724
#
#
#
# Elastic Compliance Matrix: (Units=1/GPa)
#
#
# Indices 1 2 3 4 5 6 
#
# 1 0.012575 -0.001768 -0.005698 0.000000 -0.005467 0.000000
# 2 -0.001768 0.013307 0.001849 0.000000 -0.003839 0.000000
# 3 -0.005698 0.001849 0.015382 0.000000 -0.008515 0.000000
# 4 0.000000 0.000000 0.000000 0.031492 0.000000 -0.009599
# 5 -0.005467 -0.003839 -0.008515 0.000000 0.030083 0.000000
# 6 0.000000 0.000000 0.000000 -0.009599 0.000000 0.037561
#
#
# Mechanical properties :
#
#
# Convention : Reuss Voigt Hill
#
# Bulk Modulus (GPa) = 33.29969 61.28337 47.29153
# Shear Modulus (GPa) = 30.93199 39.87534 35.40367
#
# Velocity S-wave (km/s) = 3.50248 3.97671 3.74710
# Velocity P-wave (km/s) = 5.43717 6.73721 6.12180
#
# Compressibility (1/GPa) = 0.03003031
#
# Stress axis : x y z
#
# Youngs Moduli (GPa) = 79.52298 75.14616 65.01054
#
# Poissons Ratio (x) = 0.13283 0.37045
# Poissons Ratio (y) = 0.14056 -0.12019
# Poissons Ratio (z) = 0.45314 -0.13893
#
# Static dielectric constant tensor:
#      x y z
#    x 2.081540 0.000000 -0.000580 
#    y 0.000000 2.015730 0.000000 
#    z -0.000580 0.000000 2.138970 
# 
# From -- ./inp_files/14402.got.cif
#   From: 2010.05.17/outbox.cif.g08.bks.cpg/sg3_8_cif.got.tgz:14402.got - 2010.06.03 18:33:08.
