data_PCOD9113841
_publ_section_title
;
Structure prediction by ZEFSAII (Michael W. Deem and Ramdas Pophale) SiO2 
 PCOD9113841
Probable space group: P 2
;
_chemical_formula_sum "Si O2"
_cell_formula_units_Z 11
_cell_length_a 15.068900
_cell_length_b 5.049623
_cell_length_c 8.385332
_cell_angle_alpha 90.000000
_cell_angle_beta 141.168895
_cell_angle_gamma 90.000000
_cell_volume 400.080034
_symmetry_space_group_name_H-M "P 2"
_symmetry_group_IT_number 3
_symmetry_cell_setting 'monoclinic'
loop_
_space_group_symop_operation_xyz
x,y,z
-x,y,-z
loop_
_atom_site_type_symbol
_atom_site_label
_atom_site_fract_x
_atom_site_fract_y
_atom_site_fract_z
Si Si1 0.500000 0.788430 0.500000
Si Si2 0.834985 0.928696 0.172920
Si Si3 0.685336 0.405629 0.975157
Si Si4 0.295622 0.861859 0.488360
Si Si5 0.084998 0.161435 0.380574
Si Si6 0.000000 0.564485 0.000000
Si Si7 0.500000 0.524390 0.000000
O O1 0.410319 0.921660 0.515176
O O2 0.607889 0.587697 0.737309
O O3 0.717220 0.123664 0.939132
O O4 0.862681 0.132135 0.362786
O O5 0.965494 0.933688 0.234600
O O6 0.802027 0.636162 0.184935
O O7 0.580979 0.365158 0.977483
O O8 0.152542 0.713322 0.225669
O O9 0.223717 0.111248 0.471829
O O10 0.381359 0.699829 0.743370
O O11 0.003548 0.384353 0.166779
#
# Coordination Sequence:
#
# PCOD9113841 Si02
#       7
#     1   2   2   2   2   1   1
#     4  10  26  46  74 108 154 206 256 324 386 464
#     4  11  26  45  76 106 154 195 256 314 384 461
#     4  11  24  47  71 110 149 202 255 314 382 461
#     4  11  24  49  72 109 152 200 262 314 393 459
#     4  11  26  43  72 111 143 200 245 323 384 457
#     4  12  26  44  76 108 156 196 258 326 394 456
#     4  10  22  48  76 104 154 212 252 316 376 474
#
# _framework density 27.494502000000001
#
# number of rings (size 3 to 8) (size 9 to 14) (size 15 to 20)
#    0.000    1.091    1.818    2.727    7.636    2.909 
#   13.091    0.000    0.000    0.000    0.000    0.000 
#    0.000    0.000    0.000    0.000    0.000    0.000 
#
# Total GULP energy -61427.007410 kJ/mol
# GULP energy per Si atom -5584.273401 kJ/mol
# Density = 2.743192 g / cm^3
# Si number density = 27.494502 Si / 1000 Ang^3
#
#
#
# Elastic Constant Matrix: (Units=GPa)
#
#
# Indices 1 2 3 4 5 6 
#
# 1 154.9854 22.7383 -3.7661 0.0000 34.6490 0.0000
# 2 22.7383 143.4711 24.4205 0.0000 10.6940 0.0000
# 3 -3.7661 24.4205 114.0563 0.0000 -7.2727 0.0000
# 4 0.0000 0.0000 0.0000 55.9247 0.0000 -12.3470
# 5 34.6490 10.6940 -7.2727 0.0000 58.4204 0.0000
# 6 0.0000 0.0000 0.0000 -12.3470 0.0000 39.0680
#
#
#
# Elastic Compliance Matrix: (Units=1/GPa)
#
#
# Indices 1 2 3 4 5 6 
#
# 1 0.007548 -0.000905 0.000170 0.000000 -0.004290 0.000000
# 2 -0.000905 0.007480 -0.001698 0.000000 -0.001044 0.000000
# 3 0.000170 -0.001698 0.009223 0.000000 0.001358 0.000000
# 4 0.000000 0.000000 0.000000 0.019222 0.000000 0.006075
# 5 -0.004290 -0.001044 0.001358 0.000000 0.020022 0.000000
# 6 0.000000 0.000000 0.000000 0.006075 0.000000 0.027516
#
#
# Mechanical properties :
#
#
# Convention : Reuss Voigt Hill
#
# Bulk Modulus (GPa) = 51.58842 55.47759 53.53301
# Shear Modulus (GPa) = 48.85584 55.29062 52.07323
#
# Velocity S-wave (km/s) = 4.21994 4.48925 4.35668
# Velocity P-wave (km/s) = 6.52286 6.86241 6.69479
#
# Compressibility (1/GPa) = 0.01938419
#
# Stress axis : x y z
#
# Youngs Moduli (GPa) = 132.48086 133.68336 108.41999
#
# Poissons Ratio (x) = 0.12104 -0.01838
# Poissons Ratio (y) = 0.11995 0.18410
# Poissons Ratio (z) = -0.02246 0.22700
#
# Static dielectric constant tensor:
#      x y z
#    x 2.058980 0.000000 0.041230 
#    y 0.000000 2.181030 0.000000 
#    z 0.041230 0.000000 2.556150 
# 
# From -- ./inp_files/4884.got.cif
#   From: 2010.05.17/outbox.cif.g08.bks.cpg/sg3_3_cif.got.tgz:4884.got - 2010.06.03 18:33:08.
