data_PCOD9113869
_publ_section_title
;
Structure prediction by ZEFSAII (Michael W. Deem and Ramdas Pophale) SiO2 
 PCOD9113869
Probable space group: P 2
;
_chemical_formula_sum "Si O2"
_cell_formula_units_Z 12
_cell_length_a 21.541393
_cell_length_b 4.937038
_cell_length_c 5.195646
_cell_angle_alpha 90.000000
_cell_angle_beta 52.937938
_cell_angle_gamma 90.000000
_cell_volume 440.933947
_symmetry_space_group_name_H-M "P 2"
_symmetry_group_IT_number 3
_symmetry_cell_setting 'monoclinic'
loop_
_space_group_symop_operation_xyz
x,y,z
-x,y,-z
loop_
_atom_site_type_symbol
_atom_site_label
_atom_site_fract_x
_atom_site_fract_y
_atom_site_fract_z
Si Si1 0.159918 0.311820 0.350938
Si Si2 0.415354 0.305758 0.596590
Si Si3 0.414910 0.832705 0.228978
Si Si4 0.275649 0.964448 0.785536
Si Si5 0.949173 0.810054 0.376920
Si Si6 0.701756 0.594085 0.785121
O O1 0.104921 0.558333 0.410290
O O2 0.217007 0.405095 0.434184
O O3 0.105057 0.062169 0.562296
O O4 0.215268 0.196495 0.982265
O O5 0.500000 0.248127 0.500000
O O6 0.420167 0.561232 0.390641
O O7 0.351023 0.330177 0.975699
O O8 0.393087 0.754660 0.000150
O O9 0.284852 0.772557 0.518589
O O10 0.370757 0.068527 0.522643
O O11 0.500000 0.963169 0.000000
O O12 0.270994 0.771138 0.035816
O O13 0.000000 0.883678 0.500000
O O14 0.000000 0.736988 0.000000
#
# Coordination Sequence:
#
# PCOD9113869 Si02
#       6
#     2   2   2   2   2   2
#     4  11  24  51  79 115 165 204 258 340 405 513
#     4   9  21  39  62  97 149 202 275 347 385 466
#     4  10  23  41  67 103 152 222 278 336 402 454
#     4   9  22  44  63 105 153 198 270 324 398 461
#     4  12  28  55  86 127 159 208 259 332 425 522
#     4  11  22  45  68 104 155 208 270 327 409 471
#
# _framework density 27.214957999999999
#
# number of rings (size 3 to 8) (size 9 to 14) (size 15 to 20)
#    1.000    0.667    1.667    2.000    2.333    1.333 
#   15.000    0.000    0.000    0.000    0.000    0.000 
#    0.000    0.000    0.000    0.000    0.000    0.000 
#
# Total GULP energy -67002.271665 kJ/mol
# GULP energy per Si atom -5583.522639 kJ/mol
# Density = 2.715302 g / cm^3
# Si number density = 27.214958 Si / 1000 Ang^3
#
#
#
# Elastic Constant Matrix: (Units=GPa)
#
#
# Indices 1 2 3 4 5 6 
#
# 1 108.9215 60.3059 98.2534 0.0000 -5.3334 0.0000
# 2 60.3059 178.7760 64.6262 0.0000 -7.3045 0.0000
# 3 98.2534 64.6262 133.5983 0.0000 -3.1537 0.0000
# 4 0.0000 0.0000 0.0000 48.5702 0.0000 14.9803
# 5 -5.3334 -7.3045 -3.1537 0.0000 58.8760 0.0000
# 6 0.0000 0.0000 0.0000 14.9803 0.0000 177.3831
#
#
#
# Elastic Compliance Matrix: (Units=1/GPa)
#
#
# Indices 1 2 3 4 5 6 
#
# 1 0.028211 -0.002396 -0.019560 0.000000 0.001211 0.000000
# 2 -0.002396 0.007009 -0.001615 0.000000 0.000566 0.000000
# 3 -0.019560 -0.001615 0.022633 0.000000 -0.000760 0.000000
# 4 0.000000 0.000000 0.000000 0.021139 0.000000 -0.001785
# 5 0.001211 0.000566 -0.000760 0.000000 0.017124 0.000000
# 6 0.000000 0.000000 0.000000 -0.001785 0.000000 0.005788
#
#
# Mechanical properties :
#
#
# Convention : Reuss Voigt Hill
#
# Bulk Modulus (GPa) = 93.35660 96.40741 94.88201
# Shear Modulus (GPa) = 32.76198 70.17320 51.46759
#
# Velocity S-wave (km/s) = 3.47338 5.08338 4.35345
# Velocity P-wave (km/s) = 7.10378 8.36395 7.75949
#
# Compressibility (1/GPa) = 0.01071162
#
# Stress axis : x y z
#
# Youngs Moduli (GPa) = 35.44754 142.67915 44.18286
#
# Poissons Ratio (x) = 0.34188 0.86420
# Poissons Ratio (y) = 0.08494 0.07135
# Poissons Ratio (z) = 0.69334 0.23040
#
# Static dielectric constant tensor:
#      x y z
#    x -2.752660 0.000000 1.806660 
#    y 0.000000 2.474530 0.000000 
#    z 1.806660 0.000000 1.490370 
# 
# From -- ./inp_files/3810.got.cif
#   From: 2010.05.17/outbox.cif.g08.bks.cpg/sg3_2_cif.got.tgz:3810.got - 2010.06.03 18:33:08.
