data_PCOD9113811
_publ_section_title
;
Structure prediction by ZEFSAII (Michael W. Deem and Ramdas Pophale) SiO2 
 PCOD9113811
Probable space group: P 2
;
_chemical_formula_sum "Si O2"
_cell_formula_units_Z 10
_cell_length_a 15.571858
_cell_length_b 5.239630
_cell_length_c 8.819001
_cell_angle_alpha 90.000000
_cell_angle_beta 34.192306
_cell_angle_gamma 90.000000
_cell_volume 404.366680
_symmetry_space_group_name_H-M "P 2"
_symmetry_group_IT_number 3
_symmetry_cell_setting 'monoclinic'
loop_
_space_group_symop_operation_xyz
x,y,z
-x,y,-z
loop_
_atom_site_type_symbol
_atom_site_label
_atom_site_fract_x
_atom_site_fract_y
_atom_site_fract_z
Si Si1 0.703710 0.246910 0.875775
Si Si2 0.726543 0.040775 0.150777
Si Si3 0.082014 0.051510 0.673673
Si Si4 0.739868 0.540001 0.535475
Si Si5 0.502414 0.855383 0.721977
O O1 0.855827 0.110198 0.587154
O O2 0.689151 0.484076 0.783796
O O3 0.715568 0.263992 0.039850
O O4 0.565854 0.046348 0.053315
O O5 0.618147 0.030844 0.454011
O O6 0.646179 0.815789 0.167543
O O7 0.901592 0.022081 0.939140
O O8 0.156262 0.293659 0.652941
O O9 0.157283 0.790962 0.617559
O O10 0.596482 0.613113 0.640587
#
# Coordination Sequence:
#
# PCOD9113811 Si02
#       5
#     2   2   2   2   2
#     4   8  20  43  75 104 148 194 261 314 381 462
#     4   9  19  45  76 114 153 206 264 323 397 470
#     4  10  22  45  74 103 151 200 261 314 386 472
#     4  10  23  45  72 109 149 201 256 319 391 464
#     4   9  20  44  75 112 156 198 259 326 396 463
#
# _framework density 24.730031
#
# number of rings (size 3 to 8) (size 9 to 14) (size 15 to 20)
#    2.400    0.400    0.000    0.600    0.000    1.600 
#   14.400    6.000    0.000    7.200    0.000    0.000 
#    6.000    0.000    0.000    0.000    0.000    0.000 
#
# Total GULP energy -55717.812460 kJ/mol
# GULP energy per Si atom -5571.781246 kJ/mol
# Density = 2.467374 g / cm^3
# Si number density = 24.730031 Si / 1000 Ang^3
#
#
#
# Elastic Constant Matrix: (Units=GPa)
#
#
# Indices 1 2 3 4 5 6 
#
# 1 100.4290 60.0308 37.1227 0.0000 -45.4571 0.0000
# 2 60.0308 170.1750 44.9829 0.0000 -33.3967 0.0000
# 3 37.1227 44.9829 146.2047 0.0000 -29.9947 0.0000
# 4 0.0000 0.0000 0.0000 8.9351 0.0000 -1.8904
# 5 -45.4571 -33.3967 -29.9947 0.0000 41.9592 0.0000
# 6 0.0000 0.0000 0.0000 -1.8904 0.0000 29.9970
#
#
#
# Elastic Compliance Matrix: (Units=1/GPa)
#
#
# Indices 1 2 3 4 5 6 
#
# 1 0.021182 -0.003489 -0.000195 0.000000 0.020031 0.000000
# 2 -0.003489 0.007717 -0.001176 0.000000 0.001521 0.000000
# 3 -0.000195 -0.001176 0.008221 0.000000 0.004729 0.000000
# 4 0.000000 0.000000 0.000000 0.113431 0.000000 0.007148
# 5 0.020031 0.001521 0.004729 0.000000 0.050124 0.000000
# 6 0.000000 0.000000 0.000000 0.007148 0.000000 0.033787
#
#
# Mechanical properties :
#
#
# Convention : Reuss Voigt Hill
#
# Bulk Modulus (GPa) = 36.49901 77.89796 57.19848
# Shear Modulus (GPa) = 19.73816 34.48975 27.11395
#
# Velocity S-wave (km/s) = 2.82821 3.73855 3.31478
# Velocity P-wave (km/s) = 5.04540 7.08544 6.15059
#
# Compressibility (1/GPa) = 0.02739800
#
# Stress axis : x y z
#
# Youngs Moduli (GPa) = 47.21066 129.59108 121.63305
#
# Poissons Ratio (x) = 0.45220 0.02375
# Poissons Ratio (y) = 0.16474 0.14306
# Poissons Ratio (z) = 0.00922 0.15242
#
# Static dielectric constant tensor:
#      x y z
#    x 2.036640 0.000000 0.058380 
#    y 0.000000 1.959130 0.000000 
#    z 0.058380 0.000000 1.990140 
# 
# From -- ./inp_files/7888.got.cif
#   From: 2010.05.17/outbox.cif.g08.bks.cpg/sg3_4_cif.got.tgz:7888.got - 2010.06.03 18:33:08.
