data_PCOD9113370
_publ_section_title
;
Structure prediction by ZEFSAII (Michael W. Deem and Ramdas Pophale) SiO2 
 PCOD9113370
Probable space group: P 2
;
_chemical_formula_sum "Si O2"
_cell_formula_units_Z 15
_cell_length_a 7.787625
_cell_length_b 12.328496
_cell_length_c 8.647767
_cell_angle_alpha 90.000000
_cell_angle_beta 130.443523
_cell_angle_gamma 90.000000
_cell_volume 631.873121
_symmetry_space_group_name_H-M "P 2"
_symmetry_group_IT_number 3
_symmetry_cell_setting 'monoclinic'
loop_
_space_group_symop_operation_xyz
x,y,z
-x,y,-z
loop_
_atom_site_type_symbol
_atom_site_label
_atom_site_fract_x
_atom_site_fract_y
_atom_site_fract_z
Si Si1 0.000303 0.697280 0.670387
Si Si2 0.598892 0.175729 0.716408
Si Si3 0.802155 0.117791 0.284907
Si Si4 0.739888 0.311238 0.061923
Si Si5 0.229750 0.542994 0.047920
Si Si6 0.699662 0.932018 0.733679
Si Si7 0.500000 0.633454 0.500000
Si Si8 0.811320 0.901042 0.118503
O O1 0.738661 0.691238 0.583399
O O2 0.000000 0.643497 0.500000
O O3 0.147669 0.808463 0.732170
O O4 0.156689 0.640676 0.892550
O O5 0.500000 0.220053 0.500000
O O6 0.393554 0.142742 0.708614
O O7 0.720806 0.062535 0.757089
O O8 0.742014 0.263006 0.891458
O O9 0.888910 0.228531 0.252004
O O10 0.000000 0.067919 0.500000
O O11 0.748489 0.021228 0.136448
O O12 0.500000 0.284876 0.000000
O O13 0.738179 0.439369 0.044648
O O14 0.412281 0.570048 0.290889
O O15 0.000000 0.514038 0.000000
O O16 0.500000 0.909379 0.500000
O O17 0.937934 0.898015 0.806506
O O18 0.657364 0.880957 0.877641
#
# Coordination Sequence:
#
# PCOD9113370 Si02
#       8
#     2   2   2   2   2   2   1   2
#     4  11  27  48  73 107 139 188 239 294 360 426
#     4  10  21  40  62  95 134 178 224 267 342 411
#     4  11  22  41  62  98 141 177 225 284 337 416
#     4  10  23  41  67  96 136 176 225 285 346 415
#     4  10  25  47  72 103 136 181 238 292 358 427
#     4  10  22  38  65  96 133 184 215 275 338 406
#     4  10  26  50  74 102 148 178 238 308 358 414
#     4  11  24  41  66  99 139 176 233 278 337 431
#
# _framework density 23.738942000000002
#
# number of rings (size 3 to 8) (size 9 to 14) (size 15 to 20)
#    0.000    1.600    1.333    2.000    9.333    2.667 
#    4.800    1.333    0.000    0.000    0.000    0.000 
#    0.000    0.000    0.000    0.000    0.000    0.000 
#
# Total GULP energy -83592.602637 kJ/mol
# GULP energy per Si atom -5572.840176 kJ/mol
# Density = 2.368491 g / cm^3
# Si number density = 23.738942 Si / 1000 Ang^3
#
#
#
# Elastic Constant Matrix: (Units=GPa)
#
#
# Indices 1 2 3 4 5 6 
#
# 1 63.0326 13.1014 30.4511 0.0000 -4.2753 0.0000
# 2 13.1014 62.4547 26.2979 0.0000 8.3275 0.0000
# 3 30.4511 26.2979 155.4247 0.0000 -1.7697 0.0000
# 4 0.0000 0.0000 0.0000 19.1061 0.0000 1.7254
# 5 -4.2753 8.3275 -1.7697 0.0000 30.4566 0.0000
# 6 0.0000 0.0000 0.0000 1.7254 0.0000 1.6955
#
#
#
# Elastic Compliance Matrix: (Units=1/GPa)
#
#
# Indices 1 2 3 4 5 6 
#
# 1 0.018155 -0.002961 -0.003020 0.000000 0.003183 0.000000
# 2 -0.002961 0.018482 -0.002611 0.000000 -0.005621 0.000000
# 3 -0.003020 -0.002611 0.007476 0.000000 0.000724 0.000000
# 4 0.000000 0.000000 0.000000 0.057636 0.000000 -0.058653
# 5 0.003183 -0.005621 0.000724 0.000000 0.034859 0.000000
# 6 0.000000 0.000000 0.000000 -0.058653 0.000000 0.649475
#
#
# Mechanical properties :
#
#
# Convention : Reuss Voigt Hill
#
# Bulk Modulus (GPa) = 37.13545 46.73476 41.93511
# Shear Modulus (GPa) = 6.15580 24.32242 15.23911
#
# Velocity S-wave (km/s) = 1.61206 3.20438 2.53641
# Velocity P-wave (km/s) = 4.37518 5.78104 5.12653
#
# Compressibility (1/GPa) = 0.02692845
#
# Stress axis : x y z
#
# Youngs Moduli (GPa) = 55.08125 54.10779 133.76828
#
# Poissons Ratio (x) = 0.16023 0.40394
# Poissons Ratio (y) = 0.16311 0.34926
# Poissons Ratio (z) = 0.16633 0.14127
#
# Static dielectric constant tensor:
#      x y z
#    x 1.912250 0.000000 -0.015770 
#    y 0.000000 1.987060 0.000000 
#    z -0.015770 0.000000 1.991610 
# 
# From -- ./inp_files/6091.got.cif
#   From: 2010.05.17/outbox.cif.g08.bks.cpg/sg3_4_cif.got.tgz:6091.got - 2010.06.03 18:33:08.
