data_PCOD9113312
_publ_section_title
;
Structure prediction by ZEFSAII (Michael W. Deem and Ramdas Pophale) SiO2 
 PCOD9113312
Probable space group: P 2
;
_chemical_formula_sum "Si O2"
_cell_formula_units_Z 14
_cell_length_a 15.197149
_cell_length_b 11.538080
_cell_length_c 13.153087
_cell_angle_alpha 90.000000
_cell_angle_beta 160.965270
_cell_angle_gamma 90.000000
_cell_volume 752.192599
_symmetry_space_group_name_H-M "P 2"
_symmetry_group_IT_number 3
_symmetry_cell_setting 'monoclinic'
loop_
_space_group_symop_operation_xyz
x,y,z
-x,y,-z
loop_
_atom_site_type_symbol
_atom_site_label
_atom_site_fract_x
_atom_site_fract_y
_atom_site_fract_z
Si Si1 0.932052 0.168470 0.806620
Si Si2 0.854933 0.630272 0.735118
Si Si3 0.182229 0.427361 0.789025
Si Si4 0.324582 0.764866 0.127757
Si Si5 0.429730 0.022738 0.304085
Si Si6 0.716323 0.696646 0.149124
Si Si7 0.755799 0.400050 0.502107
O O1 0.698714 0.071363 0.545471
O O2 0.836508 0.288398 0.654947
O O3 0.000000 0.184823 0.000000
O O4 0.199665 0.120049 0.046063
O O5 0.598843 0.712501 0.474151
O O6 0.744218 0.514251 0.560168
O O7 0.000000 0.603062 0.000000
O O8 0.069346 0.696795 0.896615
O O9 0.254754 0.557946 0.833532
O O10 0.000000 0.373582 0.500000
O O11 0.988244 0.427378 0.674368
O O12 0.471462 0.376449 0.135656
O O13 0.320812 0.900910 0.145755
O O14 0.344222 0.744527 0.028380
O O15 0.500000 0.007573 0.500000
O O16 0.000000 0.742020 0.500000
O O17 0.500000 0.719706 0.000000
#
# Coordination Sequence:
#
# PCOD9113312 Si02
#       7
#     2   2   2   2   2   2   2
#     4  10  22  39  61  86 116 161 206 239 283 353
#     4  12  23  36  56  91 127 156 185 242 314 369
#     4  11  22  37  60  87 121 153 200 241 295 362
#     4  12  23  39  60  89 122 158 198 249 302 355
#     4  10  21  39  60  84 116 161 208 241 280 351
#     4  11  21  37  59  86 118 154 197 243 293 358
#     4  12  21  39  59  89 122 154 193 246 300 357
#
# _framework density 18.612254
#
# number of rings (size 3 to 8) (size 9 to 14) (size 15 to 20)
#    0.000    0.857    2.857    6.429    0.000    1.143 
#    0.000    4.286    0.000    8.571    0.000    0.000 
#    0.000    0.000    0.000    0.000    0.000    0.000 
#
# Total GULP energy -78235.936808 kJ/mol
# GULP energy per Si atom -5588.281201 kJ/mol
# Density = 1.856989 g / cm^3
# Si number density = 18.612254 Si / 1000 Ang^3
#
#
#
# Elastic Constant Matrix: (Units=GPa)
#
#
# Indices 1 2 3 4 5 6 
#
# 1 65.5670 11.7001 22.2217 0.0000 9.4312 0.0000
# 2 11.7001 78.3501 34.4251 0.0000 -11.3315 0.0000
# 3 22.2217 34.4251 116.9492 0.0000 9.6929 0.0000
# 4 0.0000 0.0000 0.0000 17.1122 0.0000 -4.0897
# 5 9.4312 -11.3315 9.6929 0.0000 28.6355 0.0000
# 6 0.0000 0.0000 0.0000 -4.0897 0.0000 16.7709
#
#
#
# Elastic Compliance Matrix: (Units=1/GPa)
#
#
# Indices 1 2 3 4 5 6 
#
# 1 0.017260 -0.002555 -0.002030 0.000000 -0.006008 0.000000
# 2 -0.002555 0.016775 -0.005219 0.000000 0.009246 0.000000
# 3 -0.002030 -0.005219 0.010894 0.000000 -0.005084 0.000000
# 4 0.000000 0.000000 0.000000 0.062054 0.000000 0.015132
# 5 -0.006008 0.009246 -0.005084 0.000000 0.042280 0.000000
# 6 0.000000 0.000000 0.000000 0.015132 0.000000 0.063317
#
#
# Mechanical properties :
#
#
# Convention : Reuss Voigt Hill
#
# Bulk Modulus (GPa) = 39.49053 44.17332 41.83192
# Shear Modulus (GPa) = 20.77909 25.33838 23.05873
#
# Velocity S-wave (km/s) = 3.34491 3.69369 3.52362
# Velocity P-wave (km/s) = 6.01510 6.47890 6.25130
#
# Compressibility (1/GPa) = 0.02532253
#
# Stress axis : x y z
#
# Youngs Moduli (GPa) = 57.93900 59.61283 91.79415
#
# Poissons Ratio (x) = 0.15229 0.18630
# Poissons Ratio (y) = 0.14801 0.47905
# Poissons Ratio (z) = 0.11759 0.31111
#
# Static dielectric constant tensor:
#      x y z
#    x 1.620170 0.000000 -0.005430 
#    y 0.000000 1.601230 0.000000 
#    z -0.005430 0.000000 1.669030 
# 
# From -- ./inp_files/3297.got.cif
#   From: 2010.05.17/outbox.cif.g08.bks.cpg/sg3_2_cif.got.tgz:3297.got - 2010.06.03 18:33:08.
