data_PCOD9113137
_publ_section_title
;
Structure prediction by ZEFSAII (Michael W. Deem and Ramdas Pophale) SiO2 
 PCOD9113137
Probable space group: P 2
;
_chemical_formula_sum "Si O2"
_cell_formula_units_Z 14
_cell_length_a 8.585192
_cell_length_b 7.173374
_cell_length_c 11.552252
_cell_angle_alpha 90.000000
_cell_angle_beta 87.337931
_cell_angle_gamma 90.000000
_cell_volume 710.675289
_symmetry_space_group_name_H-M "P 2"
_symmetry_group_IT_number 3
_symmetry_cell_setting 'monoclinic'
loop_
_space_group_symop_operation_xyz
x,y,z
-x,y,-z
loop_
_atom_site_type_symbol
_atom_site_label
_atom_site_fract_x
_atom_site_fract_y
_atom_site_fract_z
Si Si1 0.354082 0.122590 0.707577
Si Si2 0.500000 0.310479 0.500000
Si Si3 0.169043 0.509044 0.454286
Si Si4 0.157397 0.728712 0.228657
Si Si5 0.501570 0.816239 0.864712
Si Si6 0.000000 0.589695 0.000000
Si Si7 0.258319 0.510282 0.819714
Si Si8 0.869185 0.816976 0.360051
O O1 0.485949 0.184800 0.613960
O O2 0.289120 0.312291 0.762702
O O3 0.411224 0.980202 0.802683
O O4 0.227741 0.004228 0.641663
O O5 0.334810 0.421648 0.489561
O O6 0.167067 0.549324 0.315965
O O7 0.159140 0.709411 0.519644
O O8 0.000000 0.420540 0.500000
O O9 0.329325 0.800546 0.198155
O O10 0.041415 0.859397 0.305938
O O11 0.082177 0.697146 0.104045
O O12 0.413974 0.618071 0.852928
O O13 0.500000 0.858317 0.000000
O O14 0.139662 0.485203 0.930130
O O15 0.187028 0.656765 0.729578
#
# Coordination Sequence:
#
# PCOD9113137 Si02
#       8
#     2   1   2   2   2   1   2   2
#     4  11  25  41  64 103 130 171 220 275 339 396
#     4  12  24  44  70 100 140 176 220 284 346 402
#     4  10  22  43  71 100 131 179 224 272 341 409
#     4  10  21  40  70  96 123 181 219 267 341 392
#     4  11  23  43  64  94 133 169 225 275 319 402
#     4  10  20  40  72  90 126 178 218 270 332 390
#     4  10  20  43  64  92 129 173 214 269 330 389
#     4   9  21  42  67  91 134 165 217 273 332 401
#
# _framework density 19.699572
#
# number of rings (size 3 to 8) (size 9 to 14) (size 15 to 20)
#    0.000    1.714    2.857    0.857    4.000    0.571 
#    7.714    1.429    0.000    0.000    0.000    0.000 
#    0.000    0.000    0.000    0.000    0.000    0.000 
#
# Total GULP energy -77967.366789 kJ/mol
# GULP energy per Si atom -5569.097628 kJ/mol
# Density = 1.965473 g / cm^3
# Si number density = 19.699572 Si / 1000 Ang^3
#
#
#
# Elastic Constant Matrix: (Units=GPa)
#
#
# Indices 1 2 3 4 5 6 
#
# 1 114.5888 38.6374 22.6210 0.0000 -18.2020 0.0000
# 2 38.6374 93.1656 29.3980 0.0000 -14.8646 0.0000
# 3 22.6210 29.3980 106.1528 0.0000 -7.8476 0.0000
# 4 0.0000 0.0000 0.0000 7.7251 0.0000 8.9382
# 5 -18.2020 -14.8646 -7.8476 0.0000 41.0898 0.0000
# 6 0.0000 0.0000 0.0000 8.9382 0.0000 4.7770
#
#
#
# Elastic Compliance Matrix: (Units=1/GPa)
#
#
# Indices 1 2 3 4 5 6 
#
# 1 0.010650 -0.003573 -0.001041 0.000000 0.003226 0.000000
# 2 -0.003573 0.013537 -0.002782 0.000000 0.002783 0.000000
# 3 -0.001041 -0.002782 0.010452 0.000000 0.000528 0.000000
# 4 0.000000 0.000000 0.000000 -0.111123 0.000000 0.207921
# 5 0.003226 0.002783 0.000528 0.000000 0.026874 0.000000
# 6 0.000000 0.000000 0.000000 0.207921 0.000000 -0.179702
#
#
# Mechanical properties :
#
#
# Convention : Reuss Voigt Hill
#
# Bulk Modulus (GPa) = 50.38839 55.02445 52.70642
# Shear Modulus (GPa) = -24.04960 25.60175 0.77608
#
# Velocity S-wave (km/s) = -3.49781 3.60892 0.62834
# Velocity P-wave (km/s) = 3.05304 6.73485 5.22873
#
# Compressibility (1/GPa) = 0.01984584
#
# Stress axis : x y z
#
# Youngs Moduli (GPa) = 93.89892 73.86978 95.67761
#
# Poissons Ratio (x) = 0.26396 0.09963
# Poissons Ratio (y) = 0.33553 0.26616
# Poissons Ratio (z) = 0.09778 0.20549
#
# Static dielectric constant tensor:
#      x y z
#    x 1.771120 0.000000 0.037830 
#    y 0.000000 1.648720 0.000000 
#    z 0.037830 0.000000 1.735040 
# 
# From -- ./inp_files/6734.got.cif
#   From: 2010.05.17/outbox.cif.g08.bks.cpg/sg3_4_cif.got.tgz:6734.got - 2010.06.03 18:33:08.
