data_PCOD9113908
_publ_section_title
;
Structure prediction by ZEFSAII (Michael W. Deem and Ramdas Pophale) SiO2 
 PCOD9113908
Probable space group: P 2
;
_chemical_formula_sum "Si O2"
_cell_formula_units_Z 16
_cell_length_a 9.582424
_cell_length_b 5.203589
_cell_length_c 27.587735
_cell_angle_alpha 90.000000
_cell_angle_beta 31.034874
_cell_angle_gamma 90.000000
_cell_volume 709.207607
_symmetry_space_group_name_H-M "P 2"
_symmetry_group_IT_number 3
_symmetry_cell_setting 'monoclinic'
loop_
_space_group_symop_operation_xyz
x,y,z
-x,y,-z
loop_
_atom_site_type_symbol
_atom_site_label
_atom_site_fract_x
_atom_site_fract_y
_atom_site_fract_z
Si Si1 0.343081 0.865540 0.782948
Si Si2 0.323468 0.118854 0.405974
Si Si3 0.223770 0.488190 0.749996
Si Si4 0.373676 0.113574 0.587105
Si Si5 0.503039 0.879293 0.845282
Si Si6 0.928017 0.636924 0.300881
Si Si7 0.742917 0.379309 0.044678
Si Si8 0.198296 0.166162 0.076273
O O1 0.296103 0.570591 0.782882
O O2 0.463985 0.905618 0.799369
O O3 0.536256 0.971052 0.681646
O O4 0.038093 0.973512 0.870132
O O5 0.487382 0.385817 0.353794
O O6 0.413652 0.046204 0.433549
O O7 0.000000 0.126033 0.500000
O O8 0.132895 0.697826 0.737797
O O9 0.960503 0.307977 0.832806
O O10 0.500000 0.211041 0.500000
O O11 0.165494 0.341453 0.664803
O O12 0.237141 0.839638 0.618164
O O13 0.292477 0.675855 0.930310
O O14 0.771503 0.719588 0.777135
O O15 0.480774 0.163449 0.874216
O O16 0.763624 0.353657 0.980888
O O17 0.000000 0.287550 0.000000
O O18 0.500000 0.069334 0.000000
#
# Coordination Sequence:
#
# PCOD9113908 Si02
#       8
#     2   2   2   2   2   2   2   2
#     4  11  24  44  66 101 138 181 232 295 341 425
#     4  10  24  44  70 102 138 185 230 292 351 420
#     4  10  23  44  68  98 142 177 240 290 345 417
#     4  11  24  45  70 103 140 173 233 289 348 423
#     4  12  27  42  72  96 141 186 234 286 356 414
#     4  11  24  46  68 100 136 184 225 290 352 414
#     4  12  25  46  64 103 139 181 234 292 344 417
#     4  11  25  42  70 100 138 191 235 290 355 415
#
# _framework density 22.560390999999999
#
# number of rings (size 3 to 8) (size 9 to 14) (size 15 to 20)
#    0.000    1.000    2.500    3.000    7.000    2.000 
#    0.000    0.000    0.000    0.000    0.000    0.000 
#    0.000    0.000    0.000    0.000    0.000    0.000 
#
# Total GULP energy -89167.479308 kJ/mol
# GULP energy per Si atom -5572.967457 kJ/mol
# Density = 2.250904 g / cm^3
# Si number density = 22.560391 Si / 1000 Ang^3
#
#
#
# Elastic Constant Matrix: (Units=GPa)
#
#
# Indices 1 2 3 4 5 6 
#
# 1 84.8388 6.1998 50.3279 0.0000 -3.9332 0.0000
# 2 6.1998 58.8628 18.8387 0.0000 -2.3231 0.0000
# 3 50.3279 18.8387 120.0909 0.0000 -22.0104 -0.0001
# 4 0.0000 0.0000 0.0000 42.1949 0.0000 26.4725
# 5 -3.9332 -2.3231 -22.0104 0.0000 49.0024 0.0000
# 6 0.0000 0.0000 -0.0001 26.4725 0.0000 55.8466
#
#
#
# Elastic Compliance Matrix: (Units=1/GPa)
#
#
# Indices 1 2 3 4 5 6 
#
# 1 0.015857 0.000519 -0.007071 0.000000 -0.001879 0.000000
# 2 0.000519 0.017913 -0.003121 0.000000 -0.000511 0.000000
# 3 -0.007071 -0.003121 0.012694 0.000000 0.004986 0.000000
# 4 0.000000 0.000000 0.000000 0.033731 0.000000 -0.015989
# 5 -0.001879 -0.000511 0.004986 0.000000 0.022472 0.000000
# 6 0.000000 0.000000 0.000000 -0.015989 0.000000 0.025485
#
#
# Mechanical properties :
#
#
# Convention : Reuss Voigt Hill
#
# Bulk Modulus (GPa) = 36.87760 46.05835 41.46797
# Shear Modulus (GPa) = 31.94138 41.97052 36.95595
#
# Velocity S-wave (km/s) = 3.76682 4.31787 4.05172
# Velocity P-wave (km/s) = 5.94140 6.73191 6.34897
#
# Compressibility (1/GPa) = 0.02711673
#
# Stress axis : x y z
#
# Youngs Moduli (GPa) = 63.06497 55.82619 78.77863
#
# Poissons Ratio (x) = -0.02896 0.55704
# Poissons Ratio (y) = -0.03272 0.24587
# Poissons Ratio (z) = 0.44593 0.17424
#
# Static dielectric constant tensor:
#      x y z
#    x 1.817460 0.000000 0.025870 
#    y 0.000000 1.904510 0.000000 
#    z 0.025870 0.000000 1.853970 
# 
# From -- ./inp_files/16476.got.cif
#   From: 2010.05.17/outbox.cif.g08.bks.cpg/sg3_9_cif.got.tgz:16476.got - 2010.06.03 18:33:08.
