data_PCOD9113796
_publ_section_title
;
Structure prediction by ZEFSAII (Michael W. Deem and Ramdas Pophale) SiO2 
 PCOD9113796
Probable space group: P 2
;
_chemical_formula_sum "Si O2"
_cell_formula_units_Z 13
_cell_length_a 5.056190
_cell_length_b 8.482419
_cell_length_c 12.891095
_cell_angle_alpha 90.000000
_cell_angle_beta 84.571037
_cell_angle_gamma 90.000000
_cell_volume 550.402507
_symmetry_space_group_name_H-M "P 2"
_symmetry_group_IT_number 3
_symmetry_cell_setting 'monoclinic'
loop_
_space_group_symop_operation_xyz
x,y,z
-x,y,-z
loop_
_atom_site_type_symbol
_atom_site_label
_atom_site_fract_x
_atom_site_fract_y
_atom_site_fract_z
Si Si1 0.222656 0.065840 0.207328
Si Si2 0.405687 0.327264 0.898087
Si Si3 0.000000 0.833907 0.500000
Si Si4 0.122121 0.241116 0.612037
Si Si5 0.672138 0.737835 0.706533
Si Si6 0.500000 0.060938 0.500000
Si Si7 0.139005 0.547083 0.740806
Si Si8 0.000000 0.072319 0.000000
O O1 0.372906 0.228291 0.172477
O O2 0.010716 0.123974 0.299978
O O3 0.112368 0.996666 0.101400
O O4 0.367882 0.917335 0.254491
O O5 0.243069 0.444904 0.833445
O O6 0.500000 0.409714 0.000000
O O7 0.224547 0.185622 0.946421
O O8 0.134342 0.739074 0.401536
O O9 0.751307 0.946625 0.482693
O O10 0.429558 0.184234 0.593819
O O11 0.096515 0.417061 0.653622
O O12 0.000000 0.233275 0.500000
O O13 0.864025 0.636765 0.774560
O O14 0.385990 0.660268 0.702355
#
# Coordination Sequence:
#
# PCOD9113796 Si02
#       8
#     2   2   1   2   2   1   2   1
#     4  11  24  49  77 110 143 196 265 307 377 445
#     4  10  24  48  81 107 144 196 258 317 381 446
#     4  12  26  46  70 106 152 208 244 314 374 442
#     4  12  27  45  80 111 148 201 266 311 361 452
#     4  12  29  47  71 108 158 199 242 309 386 448
#     4  12  24  44  76 110 136 202 268 310 350 422
#     4  12  29  48  71 111 154 195 240 317 381 456
#     4  10  22  44  84 106 140 192 258 332 354 446
#
# _framework density 23.61908
#
# number of rings (size 3 to 8) (size 9 to 14) (size 15 to 20)
#    0.000    0.615    3.846    1.846   11.846    0.000 
#    2.769    0.000    0.000    0.000    0.000    0.000 
#    0.000    0.000    0.000    0.000    0.000    0.000 
#
# Total GULP energy -72618.627662 kJ/mol
# GULP energy per Si atom -5586.048282 kJ/mol
# Density = 2.356532 g / cm^3
# Si number density = 23.619080 Si / 1000 Ang^3
#
#
#
# Elastic Constant Matrix: (Units=GPa)
#
#
# Indices 1 2 3 4 5 6 
#
# 1 88.7585 14.9382 15.8991 0.0000 -12.0366 0.0000
# 2 14.9382 99.5991 20.4092 0.0000 11.3919 0.0000
# 3 15.8991 20.4092 124.6760 0.0000 6.0911 0.0000
# 4 0.0000 0.0000 0.0000 44.7659 0.0000 -19.9914
# 5 -12.0366 11.3919 6.0911 0.0000 41.6980 0.0000
# 6 0.0000 0.0000 0.0000 -19.9914 0.0000 85.8213
#
#
#
# Elastic Compliance Matrix: (Units=1/GPa)
#
#
# Indices 1 2 3 4 5 6 
#
# 1 0.012472 -0.002071 -0.001465 0.000000 0.004380 0.000000
# 2 -0.002071 0.011022 -0.001374 0.000000 -0.003408 0.000000
# 3 -0.001465 -0.001374 0.008495 0.000000 -0.001289 0.000000
# 4 0.000000 0.000000 0.000000 0.024932 0.000000 0.005808
# 5 0.004380 -0.003408 -0.001289 0.000000 0.026366 0.000000
# 6 0.000000 0.000000 0.000000 0.005808 0.000000 0.013005
#
#
# Mechanical properties :
#
#
# Convention : Reuss Voigt Hill
#
# Bulk Modulus (GPa) = 45.10840 46.16962 45.63901
# Shear Modulus (GPa) = 44.05204 51.90950 47.98077
#
# Velocity S-wave (km/s) = 4.32337 4.69313 4.51204
# Velocity P-wave (km/s) = 6.63791 6.99695 6.81979
#
# Compressibility (1/GPa) = 0.02216882
#
# Stress axis : x y z
#
# Youngs Moduli (GPa) = 80.18231 90.72565 117.70961
#
# Poissons Ratio (x) = 0.18791 0.17249
# Poissons Ratio (y) = 0.16608 0.16169
# Poissons Ratio (z) = 0.11750 0.12463
#
# Static dielectric constant tensor:
#      x y z
#    x 1.563710 0.000000 0.532880 
#    y 0.000000 1.889480 0.000000 
#    z 0.532880 0.000000 1.542490 
# 
# From -- ./inp_files/9853.got.cif
#   From: 2010.05.17/outbox.cif.g08.bks.cpg/sg3_5_cif.got.tgz:9853.got - 2010.06.03 18:33:08.
