data_PCOD9113677
_publ_section_title
;
Structure prediction by ZEFSAII (Michael W. Deem and Ramdas Pophale) SiO2 
 PCOD9113677
Probable space group: P 2
;
_chemical_formula_sum "Si O2"
_cell_formula_units_Z 14
_cell_length_a 7.907554
_cell_length_b 7.830654
_cell_length_c 8.964437
_cell_angle_alpha 90.000000
_cell_angle_beta 111.640030
_cell_angle_gamma 90.000000
_cell_volume 515.966522
_symmetry_space_group_name_H-M "P 2"
_symmetry_group_IT_number 3
_symmetry_cell_setting 'monoclinic'
loop_
_space_group_symop_operation_xyz
x,y,z
-x,y,-z
loop_
_atom_site_type_symbol
_atom_site_label
_atom_site_fract_x
_atom_site_fract_y
_atom_site_fract_z
Si Si1 0.363568 0.122300 0.164245
Si Si2 0.771834 0.897978 0.149495
Si Si3 0.896956 0.099893 0.660725
Si Si4 0.969461 0.551359 0.155464
Si Si5 0.598427 0.455137 0.170127
Si Si6 0.380580 0.874279 0.588506
Si Si7 0.184141 0.467146 0.481757
O O1 0.178743 0.137805 0.198123
O O2 0.497066 0.038227 0.329076
O O3 0.535868 0.292469 0.857228
O O4 0.330419 0.989361 0.019387
O O5 0.896382 0.744885 0.129874
O O6 0.668468 0.817581 0.258782
O O7 0.894492 0.048803 0.258464
O O8 0.843573 0.265491 0.549122
O O9 0.800071 0.937365 0.553371
O O10 0.807099 0.440058 0.177698
O O11 0.157104 0.540685 0.308017
O O12 0.000000 0.490523 0.000000
O O13 0.643697 0.499758 0.358212
O O14 0.500000 0.555956 0.000000
O O15 0.500000 0.781880 0.500000
O O16 0.000000 0.539342 0.500000
#
# Coordination Sequence:
#
# PCOD9113677 Si02
#       7
#     2   2   2   2   2   2   2
#     4  11  24  42  71 110 149 190 247 313 382 440
#     4  12  25  47  76 106 152 196 249 316 373 449
#     4  11  23  40  74 112 141 192 251 310 369 444
#     4  11  28  51  73 107 151 207 260 305 379 461
#     4  11  25  45  73 106 154 201 245 316 385 444
#     4  10  22  41  69 108 148 188 244 312 377 443
#     4  10  23  44  72 105 150 197 251 313 372 448
#
# _framework density 27.133545000000002
#
# number of rings (size 3 to 8) (size 9 to 14) (size 15 to 20)
#    0.000    1.143    1.429    3.857    8.000    4.571 
#    0.000    0.000    6.286    0.000    0.000    0.000 
#    0.000    0.000    0.000    0.000    0.000    0.000 
#
# Total GULP energy -78287.418878 kJ/mol
# GULP energy per Si atom -5591.958491 kJ/mol
# Density = 2.707179 g / cm^3
# Si number density = 27.133545 Si / 1000 Ang^3
#
#
#
# Elastic Constant Matrix: (Units=GPa)
#
#
# Indices 1 2 3 4 5 6 
#
# 1 79.8876 28.8382 67.1742 0.0000 -20.4589 0.0000
# 2 28.8382 103.2310 51.9874 0.0000 7.8980 0.0000
# 3 67.1742 51.9874 256.0611 0.0000 9.2939 0.0000
# 4 0.0000 0.0000 0.0000 31.6121 0.0000 -4.5290
# 5 -20.4589 7.8980 9.2939 0.0000 68.1412 0.0000
# 6 0.0000 0.0000 0.0000 -4.5290 0.0000 28.6235
#
#
#
# Elastic Compliance Matrix: (Units=1/GPa)
#
#
# Indices 1 2 3 4 5 6 
#
# 1 0.019489 -0.003644 -0.004623 0.000000 0.006904 0.000000
# 2 -0.003644 0.011534 -0.001304 0.000000 -0.002253 0.000000
# 3 -0.004623 -0.001304 0.005455 0.000000 -0.001981 0.000000
# 4 0.000000 0.000000 0.000000 0.032367 0.000000 0.005121
# 5 0.006904 -0.002253 -0.001981 0.000000 0.017280 0.000000
# 6 0.000000 0.000000 0.000000 0.005121 0.000000 0.035747
#
#
# Mechanical properties :
#
#
# Convention : Reuss Voigt Hill
#
# Bulk Modulus (GPa) = 57.68769 81.68660 69.68715
# Shear Modulus (GPa) = 34.06164 45.08736 39.57450
#
# Velocity S-wave (km/s) = 3.54691 4.08080 3.82319
# Velocity P-wave (km/s) = 6.17097 7.23703 6.72516
#
# Compressibility (1/GPa) = 0.01733472
#
# Stress axis : x y z
#
# Youngs Moduli (GPa) = 51.31133 86.69937 183.32379
#
# Poissons Ratio (x) = 0.31595 0.84757
# Poissons Ratio (y) = 0.18699 0.23904
# Poissons Ratio (z) = 0.23723 0.11305
#
# Static dielectric constant tensor:
#      x y z
#    x 2.190420 0.000000 -0.067050 
#    y 0.000000 2.151290 0.000000 
#    z -0.067050 0.000000 2.146400 
# 
# From -- ./inp_files/5191.got.cif
#   From: 2010.05.17/outbox.cif.g08.bks.cpg/sg3_3_cif.got.tgz:5191.got - 2010.06.03 18:33:08.
