data_PCOD9113251
_publ_section_title
;
Structure prediction by ZEFSAII (Michael W. Deem and Ramdas Pophale) SiO2 
 PCOD9113251
Probable space group: P 2
;
_chemical_formula_sum "Si O2"
_cell_formula_units_Z 16
_cell_length_a 20.779031
_cell_length_b 8.577077
_cell_length_c 6.551938
_cell_angle_alpha 90.000000
_cell_angle_beta 134.461863
_cell_angle_gamma 90.000000
_cell_volume 833.413086
_symmetry_space_group_name_H-M "P 2"
_symmetry_group_IT_number 3
_symmetry_cell_setting 'monoclinic'
loop_
_space_group_symop_operation_xyz
x,y,z
-x,y,-z
loop_
_atom_site_type_symbol
_atom_site_label
_atom_site_fract_x
_atom_site_fract_y
_atom_site_fract_z
Si Si1 0.784914 0.970140 0.324810
Si Si2 0.908872 0.041204 0.216984
Si Si3 0.584577 0.987330 0.296640
Si Si4 0.636703 0.765291 0.757632
Si Si5 0.755386 0.190750 0.620970
Si Si6 0.743247 0.554525 0.661050
Si Si7 0.413466 0.673679 0.941089
Si Si8 0.906508 0.764079 0.905436
O O1 0.840988 0.860701 0.605957
O O2 0.849490 0.014029 0.283570
O O3 0.756535 0.124829 0.390002
O O4 0.705913 0.872889 0.039355
O O5 0.000000 0.117042 0.500000
O O6 0.849318 0.137167 0.926895
O O7 0.929701 0.880026 0.144133
O O8 0.577433 0.882143 0.485001
O O9 0.600948 0.851571 0.166689
O O10 0.670192 0.095349 0.519618
O O11 0.500000 0.072296 0.000000
O O12 0.694061 0.649264 0.737145
O O13 0.581929 0.670738 0.806401
O O14 0.745762 0.368808 0.665643
O O15 0.677091 0.588936 0.325259
O O16 0.842356 0.626267 0.844834
O O17 0.500000 0.618372 0.000000
O O18 0.000000 0.720931 0.000000
#
# Coordination Sequence:
#
# PCOD9113251 Si02
#       8
#     2   2   2   2   2   2   2   2
#     4  11  19  39  67  86 118 163 212 266 310 371
#     4  11  21  39  65  90 116 165 221 261 313 384
#     4  10  21  37  63  92 122 162 216 268 315 377
#     4  11  19  41  69  91 121 165 224 268 315 382
#     4  11  24  40  57  95 136 164 204 268 332 386
#     4  11  24  39  59  93 135 169 205 263 338 386
#     4  10  21  39  66  93 119 163 217 272 315 382
#     4  11  21  37  62  92 121 160 216 271 313 375
#
# _framework density 19.198162
#
# number of rings (size 3 to 8) (size 9 to 14) (size 15 to 20)
#    0.000    1.250    6.250    1.500    0.000    6.000 
#    2.250    0.625    0.000    4.500    0.000    0.000 
#    0.000    0.000    0.000    0.000    0.000    0.000 
#
# Total GULP energy -89133.017668 kJ/mol
# GULP energy per Si atom -5570.813604 kJ/mol
# Density = 1.915447 g / cm^3
# Si number density = 19.198162 Si / 1000 Ang^3
#
#
#
# Elastic Constant Matrix: (Units=GPa)
#
#
# Indices 1 2 3 4 5 6 
#
# 1 114.8813 25.7010 34.0452 0.0000 -12.7669 0.0000
# 2 25.7010 64.3376 25.8655 0.0000 3.5696 0.0000
# 3 34.0452 25.8655 127.6433 0.0000 3.1477 0.0000
# 4 0.0000 0.0000 0.0000 4.3035 0.0000 -9.3847
# 5 -12.7669 3.5696 3.1477 0.0000 44.5252 0.0000
# 6 0.0000 0.0000 0.0000 -9.3847 0.0000 1.5315
#
#
#
# Elastic Compliance Matrix: (Units=1/GPa)
#
#
# Indices 1 2 3 4 5 6 
#
# 1 0.010521 -0.003519 -0.002178 0.000000 0.003453 0.000000
# 2 -0.003519 0.018154 -0.002684 0.000000 -0.002275 0.000000
# 3 -0.002178 -0.002684 0.008985 0.000000 -0.001045 0.000000
# 4 0.000000 0.000000 0.000000 -0.018795 0.000000 -0.115175
# 5 0.003453 -0.002275 -0.001045 0.000000 0.023705 0.000000
# 6 0.000000 0.000000 0.000000 -0.115175 0.000000 -0.052816
#
#
# Mechanical properties :
#
#
# Convention : Reuss Voigt Hill
#
# Bulk Modulus (GPa) = 47.85193 53.12060 50.48627
# Shear Modulus (GPa) = 370.84384 24.82207 197.83295
#
# Velocity S-wave (km/s) = 13.91351 3.59965 10.16226
# Velocity P-wave (km/s) = 16.82539 6.70868 12.80820
#
# Compressibility (1/GPa) = 0.02089780
#
# Stress axis : x y z
#
# Youngs Moduli (GPa) = 95.04706 55.08458 111.29669
#
# Poissons Ratio (x) = 0.19383 0.24244
# Poissons Ratio (y) = 0.33444 0.29873
# Poissons Ratio (z) = 0.20704 0.14785
#
# Static dielectric constant tensor:
#      x y z
#    x 1.757400 0.000000 0.036320 
#    y 0.000000 1.662550 0.000000 
#    z 0.036320 0.000000 1.721400 
# 
# From -- ./inp_files/3934.got.cif
#   From: 2010.05.17/outbox.cif.g08.bks.cpg/sg3_2_cif.got.tgz:3934.got - 2010.06.03 18:33:08.
