data_PCOD9113926
_publ_section_title
;
Structure prediction by ZEFSAII (Michael W. Deem and Ramdas Pophale) SiO2 
 PCOD9113926
Probable space group: P 2
;
_chemical_formula_sum "Si O2"
_cell_formula_units_Z 16
_cell_length_a 24.834864
_cell_length_b 4.899813
_cell_length_c 5.222368
_cell_angle_alpha 90.000000
_cell_angle_beta 120.980157
_cell_angle_gamma 90.000000
_cell_volume 544.834621
_symmetry_space_group_name_H-M "P 2"
_symmetry_group_IT_number 3
_symmetry_cell_setting 'monoclinic'
loop_
_space_group_symop_operation_xyz
x,y,z
-x,y,-z
loop_
_atom_site_type_symbol
_atom_site_label
_atom_site_fract_x
_atom_site_fract_y
_atom_site_fract_z
Si Si1 0.930244 0.958030 0.427784
Si Si2 0.199115 0.518897 0.424008
Si Si3 0.571220 0.358942 0.614013
Si Si4 0.438079 0.738487 0.892533
Si Si5 0.933033 0.471088 0.727579
Si Si6 0.334934 0.087656 0.466182
Si Si7 0.794924 0.175163 0.050640
Si Si8 0.670151 0.600662 0.155637
O O1 0.929921 0.632158 0.452813
O O2 0.000000 0.033583 0.500000
O O3 0.928957 0.147662 0.681930
O O4 0.861745 0.034664 0.150754
O O5 0.126847 0.597731 0.278520
O O6 0.205114 0.282573 0.658624
O O7 0.257759 0.707559 0.644443
O O8 0.206872 0.423039 0.154572
O O9 0.500000 0.230061 0.500000
O O10 0.556911 0.533748 0.324474
O O11 0.607558 0.083044 0.592848
O O12 0.657827 0.491590 0.844147
O O13 0.427748 0.560952 0.123197
O O14 0.364729 0.850203 0.742368
O O15 0.500000 0.913830 0.000000
O O16 0.000000 0.546857 0.000000
O O17 0.330694 0.336123 0.656292
O O18 0.268968 0.019533 0.180338
#
# Coordination Sequence:
#
# PCOD9113926 Si02
#       8
#     2   2   2   2   2   2   2   2
#     4  11  25  46  77 116 160 212 265 327 398 476
#     4  11  25  47  78 110 157 201 255 323 394 472
#     4  12  22  45  72  98 145 199 245 323 405 471
#     4  10  23  45  63 103 142 186 252 318 385 470
#     4  11  25  46  77 117 161 210 266 328 396 476
#     4  10  25  43  69 109 138 194 259 315 390 476
#     4  11  25  48  76 113 153 203 258 318 395 475
#     4  10  24  44  69 103 147 193 251 325 388 474
#
# _framework density 29.366710999999999
#
# number of rings (size 3 to 8) (size 9 to 14) (size 15 to 20)
#    0.750    0.500    2.500    2.250    0.000   10.000 
#    4.500    0.000    0.000    0.000    0.000    0.000 
#    0.000    0.000    0.000    0.000    0.000    0.000 
#
# Total GULP energy -89176.206986 kJ/mol
# GULP energy per Si atom -5573.512937 kJ/mol
# Density = 2.929987 g / cm^3
# Si number density = 29.366711 Si / 1000 Ang^3
#
#
#
# Elastic Constant Matrix: (Units=GPa)
#
#
# Indices 1 2 3 4 5 6 
#
# 1 217.1997 47.9026 42.9962 0.0000 31.8028 0.0000
# 2 47.9026 107.9635 33.2341 0.0000 9.2162 0.0000
# 3 42.9962 33.2341 105.3974 0.0000 -7.5070 0.0000
# 4 0.0000 0.0000 0.0000 -109.6572 0.0000 -29.7152
# 5 31.8028 9.2162 -7.5070 0.0000 46.6968 0.0000
# 6 0.0000 0.0000 0.0000 -29.7152 0.0000 29.9784
#
#
#
# Elastic Compliance Matrix: (Units=1/GPa)
#
#
# Indices 1 2 3 4 5 6 
#
# 1 0.006010 -0.001626 -0.002233 0.000000 -0.004131 0.000000
# 2 -0.001626 0.011014 -0.002919 0.000000 -0.001535 0.000000
# 3 -0.002233 -0.002919 0.011601 0.000000 0.003962 0.000000
# 4 0.000000 0.000000 0.000000 -0.007188 0.000000 -0.007125
# 5 -0.004131 -0.001535 0.003962 0.000000 0.025168 0.000000
# 6 0.000000 0.000000 0.000000 -0.007125 0.000000 0.026295
#
#
# Mechanical properties :
#
#
# Convention : Reuss Voigt Hill
#
# Bulk Modulus (GPa) = 66.36418 75.42516 70.89467
# Shear Modulus (GPa) = 54.65831 13.83210 34.24520
#
# Velocity S-wave (km/s) = 4.31888 2.17264 3.41856
# Velocity P-wave (km/s) = 6.89332 5.65981 6.30679
#
# Compressibility (1/GPa) = 0.01506837
#
# Stress axis : x y z
#
# Youngs Moduli (GPa) = 166.39924 90.79748 86.19709
#
# Poissons Ratio (x) = 0.14768 0.19248
# Poissons Ratio (y) = 0.27064 0.25158
# Poissons Ratio (z) = 0.37156 0.26501
#
# Static dielectric constant tensor:
#      x y z
#    x 3.313090 0.000000 0.671610 
#    y 0.000000 2.882440 0.000000 
#    z 0.671610 0.000000 2.685910 
# 
# From -- ./inp_files/3996.got.cif
#   From: 2010.05.17/outbox.cif.g08.bks.cpg/sg3_2_cif.got.tgz:3996.got - 2010.06.03 18:33:08.
