data_PCOD9113652
_publ_section_title
;
Structure prediction by ZEFSAII (Michael W. Deem and Ramdas Pophale) SiO2 
 PCOD9113652
Probable space group: P 2
;
_chemical_formula_sum "Si O2"
_cell_formula_units_Z 13
_cell_length_a 18.448627
_cell_length_b 5.268586
_cell_length_c 5.913338
_cell_angle_alpha 90.000000
_cell_angle_beta 66.432981
_cell_angle_gamma 90.000000
_cell_volume 526.826215
_symmetry_space_group_name_H-M "P 2"
_symmetry_group_IT_number 3
_symmetry_cell_setting 'monoclinic'
loop_
_space_group_symop_operation_xyz
x,y,z
-x,y,-z
loop_
_atom_site_type_symbol
_atom_site_label
_atom_site_fract_x
_atom_site_fract_y
_atom_site_fract_z
Si Si1 0.000000 0.020440 0.000000
Si Si2 0.209826 0.923830 0.207635
Si Si3 0.844420 0.303537 0.100087
Si Si4 0.579299 0.388561 0.043510
Si Si5 0.627721 0.878097 0.236189
Si Si6 0.065273 0.666520 0.285418
Si Si7 0.692037 0.194430 0.545192
O O1 0.083765 0.164608 0.862069
O O2 0.986559 0.876017 0.778991
O O3 0.138577 0.738132 0.351786
O O4 0.253877 0.013953 0.372470
O O5 0.169751 0.152306 0.117314
O O6 0.281367 0.835796 0.955872
O O7 0.757290 0.329701 0.309457
O O8 0.885597 0.563010 0.986934
O O9 0.648275 0.387960 0.767177
O O10 0.500000 0.418274 0.000000
O O11 0.588643 0.107434 0.139374
O O12 0.587516 0.610227 0.221616
O O13 0.633679 0.011290 0.474757
O O14 0.000000 0.504304 0.500000
#
# Coordination Sequence:
#
# PCOD9113652 Si02
#       7
#     1   2   2   2   2   2   2
#     4  10  22  42  58  94 134 174 234 288 350 432
#     4   9  22  41  63  95 132 182 234 291 356 429
#     4  10  22  41  63  97 134 179 243 287 359 440
#     4  11  25  49  76 112 150 191 241 304 368 445
#     4  10  24  45  74 110 145 189 250 289 369 452
#     4  11  23  38  65  93 130 179 230 297 354 416
#     4  10  23  46  73 100 144 195 232 308 360 434
#
# _framework density 24.676071
#
# number of rings (size 3 to 8) (size 9 to 14) (size 15 to 20)
#    0.000    1.846    0.000    1.846    6.462    8.000 
#   11.077    1.538    0.000    0.000    0.000    0.000 
#    0.000    0.000    0.000    0.000    0.000    0.000 
#
# Total GULP energy -72563.699272 kJ/mol
# GULP energy per Si atom -5581.823021 kJ/mol
# Density = 2.461991 g / cm^3
# Si number density = 24.676071 Si / 1000 Ang^3
#
#
#
# Elastic Constant Matrix: (Units=GPa)
#
#
# Indices 1 2 3 4 5 6 
#
# 1 118.6244 40.3017 10.2611 0.0000 30.5894 0.0000
# 2 40.3017 74.6897 7.0946 0.0000 3.8214 0.0000
# 3 10.2611 7.0946 44.0038 0.0000 11.7555 0.0000
# 4 0.0000 0.0000 0.0000 9.9685 0.0000 2.6205
# 5 30.5894 3.8214 11.7555 0.0000 35.0740 0.0000
# 6 0.0000 0.0000 0.0000 2.6205 0.0000 19.7244
#
#
#
# Elastic Compliance Matrix: (Units=1/GPa)
#
#
# Indices 1 2 3 4 5 6 
#
# 1 0.013636 -0.006865 0.000993 0.000000 -0.011477 0.000000
# 2 -0.006865 0.017075 -0.002476 0.000000 0.004957 0.000000
# 3 0.000993 -0.002476 0.025319 0.000000 -0.009083 0.000000
# 4 0.000000 0.000000 0.000000 0.103946 0.000000 -0.013810
# 5 -0.011477 0.004957 -0.009083 0.000000 0.041025 0.000000
# 6 0.000000 0.000000 0.000000 -0.013810 0.000000 0.052534
#
#
# Mechanical properties :
#
#
# Convention : Reuss Voigt Hill
#
# Bulk Modulus (GPa) = 25.42332 39.18140 32.30236
# Shear Modulus (GPa) = 17.64653 24.93075 21.28864
#
# Velocity S-wave (km/s) = 2.67709 3.18200 2.94040
# Velocity P-wave (km/s) = 4.45880 5.42337 4.96457
#
# Compressibility (1/GPa) = 0.03933396
#
# Stress axis : x y z
#
# Youngs Moduli (GPa) = 73.33518 58.56657 39.49554
#
# Poissons Ratio (x) = 0.40206 -0.03923
# Poissons Ratio (y) = 0.50344 0.09780
# Poissons Ratio (z) = -0.07284 0.14503
#
# Static dielectric constant tensor:
#      x y z
#    x 1.946340 0.000000 0.013970 
#    y 0.000000 2.060580 0.000000 
#    z 0.013970 0.000000 2.099860 
# 
# From -- ./inp_files/3440.got.cif
#   From: 2010.05.17/outbox.cif.g08.bks.cpg/sg3_2_cif.got.tgz:3440.got - 2010.06.03 18:33:08.
