data_PCOD9113569
_publ_section_title
;
Structure prediction by ZEFSAII (Michael W. Deem and Ramdas Pophale) SiO2 
 PCOD9113569
Probable space group: P 2
;
_chemical_formula_sum "Si O2"
_cell_formula_units_Z 15
_cell_length_a 7.894928
_cell_length_b 7.920559
_cell_length_c 9.921671
_cell_angle_alpha 90.000000
_cell_angle_beta 88.206976
_cell_angle_gamma 90.000000
_cell_volume 620.120568
_symmetry_space_group_name_H-M "P 2"
_symmetry_group_IT_number 3
_symmetry_cell_setting 'monoclinic'
loop_
_space_group_symop_operation_xyz
x,y,z
-x,y,-z
loop_
_atom_site_type_symbol
_atom_site_label
_atom_site_fract_x
_atom_site_fract_y
_atom_site_fract_z
Si Si1 0.586895 0.543630 0.147984
Si Si2 0.087097 0.728305 0.288629
Si Si3 0.000000 0.780762 0.000000
Si Si4 0.336617 0.992949 0.929226
Si Si5 0.706820 0.847304 0.330199
Si Si6 0.184683 0.322852 0.017014
Si Si7 0.282517 0.400423 0.309311
Si Si8 0.190077 0.044804 0.429470
O O1 0.608170 0.707716 0.242362
O O2 0.763854 0.463252 0.094672
O O3 0.472799 0.429504 0.249829
O O4 0.500000 0.560279 0.000000
O O5 0.195991 0.579414 0.356670
O O6 0.169526 0.915579 0.303723
O O7 0.893850 0.760670 0.339968
O O8 0.066425 0.689324 0.131314
O O9 0.165287 0.887653 0.957226
O O10 0.316995 0.175342 0.992024
O O11 0.330900 0.004731 0.768363
O O12 0.500000 0.917427 0.000000
O O13 0.691378 0.933467 0.475428
O O14 0.188459 0.366074 0.172192
O O15 0.000000 0.252499 0.000000
O O16 0.256626 0.232703 0.398031
O O17 0.000000 0.062083 0.500000
#
# Coordination Sequence:
#
# PCOD9113569 Si02
#       8
#     2   2   1   2   2   2   2   2
#     4  10  23  43  70 113 147 187 252 314 394 443
#     4  10  23  41  70 103 142 192 247 314 367 453
#     4  10  22  38  66 108 142 186 248 292 398 440
#     4  11  22  38  69 107 146 189 240 320 372 444
#     4  10  23  44  69 104 146 201 248 299 383 456
#     4  11  23  40  70 112 143 187 244 314 393 451
#     4  11  24  43  76 106 150 191 246 320 375 451
#     4  10  24  47  72 106 148 202 263 299 367 461
#
# _framework density 24.188848
#
# number of rings (size 3 to 8) (size 9 to 14) (size 15 to 20)
#    0.000    1.600    0.667    3.200   14.000    1.600 
#    2.400    0.667    2.933    0.000    0.000    0.000 
#    0.000    0.000    0.000    0.000    0.000    0.000 
#
# Total GULP energy -83583.443486 kJ/mol
# GULP energy per Si atom -5572.229566 kJ/mol
# Density = 2.413379 g / cm^3
# Si number density = 24.188848 Si / 1000 Ang^3
#
#
#
# Elastic Constant Matrix: (Units=GPa)
#
#
# Indices 1 2 3 4 5 6 
#
# 1 93.2015 15.8501 28.7274 0.0000 5.1869 0.0000
# 2 15.8501 127.0770 44.4643 0.0000 -3.9709 0.0000
# 3 28.7274 44.4643 89.8925 0.0000 4.2004 0.0000
# 4 0.0000 0.0000 0.0000 24.4736 0.0000 -6.8442
# 5 5.1869 -3.9709 4.2004 0.0000 16.7656 0.0000
# 6 0.0000 0.0000 0.0000 -6.8442 0.0000 -2.8712
#
#
#
# Elastic Compliance Matrix: (Units=1/GPa)
#
#
# Indices 1 2 3 4 5 6 
#
# 1 0.012043 -0.000356 -0.003536 0.000000 -0.002924 0.000000
# 2 -0.000356 0.009731 -0.004869 0.000000 0.003635 0.000000
# 3 -0.003536 -0.004869 0.014839 0.000000 -0.003777 0.000000
# 4 0.000000 0.000000 0.000000 0.024517 0.000000 -0.058442
# 5 -0.002924 0.003635 -0.003777 0.000000 0.062358 0.000000
# 6 0.000000 0.000000 0.000000 -0.058442 0.000000 -0.208976
#
#
# Mechanical properties :
#
#
# Convention : Reuss Voigt Hill
#
# Bulk Modulus (GPa) = 52.38225 54.25053 53.31639
# Shear Modulus (GPa) = -81.16533 22.41554 -29.37490
#
# Velocity S-wave (km/s) = -5.79894 3.04746 -3.48860
# Velocity P-wave (km/s) = 4.80982 5.90417 2.42125
#
# Compressibility (1/GPa) = 0.01909044
#
# Stress axis : x y z
#
# Youngs Moduli (GPa) = 83.03876 102.76378 67.38840
#
# Poissons Ratio (x) = 0.03662 0.23826
# Poissons Ratio (y) = 0.02959 0.32814
# Poissons Ratio (z) = 0.29359 0.50039
#
# Static dielectric constant tensor:
#      x y z
#    x 1.945260 0.000000 -0.044240 
#    y 0.000000 2.021860 0.000000 
#    z -0.044240 0.000000 1.940170 
# 
# From -- ./inp_files/10438.got.cif
#   From: 2010.05.17/outbox.cif.g08.bks.cpg/sg3_6_cif.got.tgz:10438.got - 2010.06.03 18:33:08.
