data_PCOD9113348
_publ_section_title
;
Structure prediction by ZEFSAII (Michael W. Deem and Ramdas Pophale) SiO2 
 PCOD9113348
Probable space group: P 2
;
_chemical_formula_sum "Si O2"
_cell_formula_units_Z 10
_cell_length_a 9.084395
_cell_length_b 11.326012
_cell_length_c 8.039017
_cell_angle_alpha 90.000000
_cell_angle_beta 146.649775
_cell_angle_gamma 90.000000
_cell_volume 454.721380
_symmetry_space_group_name_H-M "P 2"
_symmetry_group_IT_number 3
_symmetry_cell_setting 'monoclinic'
loop_
_space_group_symop_operation_xyz
x,y,z
-x,y,-z
loop_
_atom_site_type_symbol
_atom_site_label
_atom_site_fract_x
_atom_site_fract_y
_atom_site_fract_z
Si Si1 0.615162 0.890500 0.792918
Si Si2 0.119799 0.016720 0.432465
Si Si3 0.974344 0.487826 0.674565
Si Si4 0.527202 0.635050 0.825440
Si Si5 0.770751 0.250553 0.653625
O O1 0.500000 0.916726 0.500000
O O2 0.641697 0.750948 0.846064
O O3 0.369146 0.928451 0.677752
O O4 0.884772 0.960192 0.095578
O O5 0.000000 0.035933 0.500000
O O6 0.239104 0.139084 0.477383
O O7 0.000000 0.472285 0.500000
O O8 0.763606 0.593119 0.508490
O O9 0.863281 0.369061 0.649128
O O10 0.265388 0.528392 0.009215
O O11 0.500000 0.653984 0.000000
O O12 0.500000 0.267315 0.500000
O O13 0.000000 0.219437 0.000000
#
# Coordination Sequence:
#
# PCOD9113348 Si02
#       5
#     2   2   2   2   2
#     4  12  25  42  66  98 133 166 210 267 323 375
#     4  12  25  44  68  93 127 172 218 259 315 386
#     4  10  22  41  64  91 125 167 214 258 308 376
#     4  10  21  39  64  93 127 168 213 257 307 376
#     4  12  25  42  65  93 128 163 208 267 322 373
#
# _framework density 21.991489000000001
#
# number of rings (size 3 to 8) (size 9 to 14) (size 15 to 20)
#    0.000    0.800    0.000    8.400    0.000    4.000 
#    0.000    6.000    0.000    0.000    0.000    0.000 
#    0.000    0.000    0.000    0.000    0.000    0.000 
#
# Total GULP energy -55983.564023 kJ/mol
# GULP energy per Si atom -5598.356402 kJ/mol
# Density = 2.194144 g / cm^3
# Si number density = 21.991489 Si / 1000 Ang^3
#
#
#
# Elastic Constant Matrix: (Units=GPa)
#
#
# Indices 1 2 3 4 5 6 
#
# 1 98.5501 47.2025 19.5791 0.0000 23.1072 0.0000
# 2 47.2025 105.0462 -1.1362 0.0000 4.2884 0.0000
# 3 19.5791 -1.1362 73.8576 0.0000 19.8847 0.0000
# 4 0.0000 0.0000 0.0000 11.9812 0.0000 -1.3588
# 5 23.1072 4.2884 19.8847 0.0000 34.1048 0.0000
# 6 0.0000 0.0000 0.0000 -1.3588 0.0000 29.4713
#
#
#
# Elastic Compliance Matrix: (Units=1/GPa)
#
#
# Indices 1 2 3 4 5 6 
#
# 1 0.015829 -0.006777 -0.001948 0.000000 -0.008736 0.000000
# 2 -0.006777 0.012490 0.001394 0.000000 0.002208 0.000000
# 3 -0.001948 0.001394 0.016333 0.000000 -0.008378 0.000000
# 4 0.000000 0.000000 0.000000 0.083903 0.000000 0.003869
# 5 -0.008736 0.002208 -0.008378 0.000000 0.039848 0.000000
# 6 0.000000 0.000000 0.000000 0.003869 0.000000 0.034110
#
#
# Mechanical properties :
#
#
# Convention : Reuss Voigt Hill
#
# Bulk Modulus (GPa) = 33.34514 45.41609 39.38061
# Shear Modulus (GPa) = 22.00987 29.23200 25.62094
#
# Velocity S-wave (km/s) = 3.16703 3.64983 3.41697
# Velocity P-wave (km/s) = 5.34501 6.20147 5.78910
#
# Compressibility (1/GPa) = 0.02998938
#
# Stress axis : x y z
#
# Youngs Moduli (GPa) = 63.17689 80.06539 61.22515
#
# Poissons Ratio (x) = 0.54260 0.11928
# Poissons Ratio (y) = 0.42815 -0.08536
# Poissons Ratio (z) = 0.12308 -0.11162
#
# Static dielectric constant tensor:
#      x y z
#    x 1.795350 0.000000 -0.027200 
#    y 0.000000 1.767090 0.000000 
#    z -0.027200 0.000000 1.760990 
# 
# From -- ./inp_files/4166.got.cif
#   From: 2010.05.17/outbox.cif.g08.bks.cpg/sg3_3_cif.got.tgz:4166.got - 2010.06.03 18:33:08.
