data_PCOD9113087
_publ_section_title
;
Structure prediction by ZEFSAII (Michael W. Deem and Ramdas Pophale) SiO2 
 PCOD9113087
Probable space group: P 2
;
_chemical_formula_sum "Si O2"
_cell_formula_units_Z 13
_cell_length_a 13.549369
_cell_length_b 8.589895
_cell_length_c 13.861332
_cell_angle_alpha 90.000000
_cell_angle_beta 20.952065
_cell_angle_gamma 90.000000
_cell_volume 576.890427
_symmetry_space_group_name_H-M "P 2"
_symmetry_group_IT_number 3
_symmetry_cell_setting 'monoclinic'
loop_
_space_group_symop_operation_xyz
x,y,z
-x,y,-z
loop_
_atom_site_type_symbol
_atom_site_label
_atom_site_fract_x
_atom_site_fract_y
_atom_site_fract_z
Si Si1 0.606171 0.753630 0.081261
Si Si2 0.968026 0.876472 0.922194
Si Si3 0.521304 0.099393 0.587916
Si Si4 0.500000 0.252615 0.000000
Si Si5 0.288228 0.247355 0.399608
Si Si6 0.038396 0.937448 0.577976
Si Si7 0.081422 0.508660 0.326557
O O1 0.792823 0.771418 0.007407
O O2 0.700367 0.594550 0.941918
O O3 0.750241 0.872942 0.877286
O O4 0.288258 0.814534 0.377099
O O5 0.253599 0.955623 0.624155
O O6 0.000000 0.803216 0.000000
O O7 0.767568 0.021764 0.122550
O O8 0.500000 0.166104 0.500000
O O9 0.572616 0.224032 0.624371
O O10 0.454048 0.194252 0.151407
O O11 0.238974 0.362300 0.226027
O O12 0.169769 0.422518 0.498319
O O13 0.075630 0.103386 0.594552
O O14 0.000000 0.962857 0.500000
O O15 0.000000 0.600531 0.500000
#
# Coordination Sequence:
#
# PCOD9113087 Si02
#       7
#     2   2   2   1   2   2   2
#     4  12  24  42  63  96 128 172 219 271 328 394
#     4  10  20  39  65  96 129 165 214 278 343 388
#     4  10  21  39  67  97 127 166 218 279 338 392
#     4  10  24  40  62  84 134 174 208 256 342 398
#     4  11  23  42  64  94 129 176 221 272 338 397
#     4  12  26  37  64  97 129 162 223 280 321 388
#     4  10  25  42  61  88 134 183 215 258 336 413
#
# _framework density 22.534610000000001
#
# number of rings (size 3 to 8) (size 9 to 14) (size 15 to 20)
#    0.000    1.231    3.077    2.308   12.923    0.000 
#    0.000    0.000    3.385    0.000    0.000    0.000 
#    0.000    0.000    0.000    0.000    0.000    0.000 
#
# Total GULP energy -72431.262569 kJ/mol
# GULP energy per Si atom -5571.635582 kJ/mol
# Density = 2.248332 g / cm^3
# Si number density = 22.534610 Si / 1000 Ang^3
#
#
#
# Elastic Constant Matrix: (Units=GPa)
#
#
# Indices 1 2 3 4 5 6 
#
# 1 173.9634 25.5627 6.7026 0.0000 12.2784 0.0000
# 2 25.5627 63.6128 10.7721 0.0000 -2.6856 0.0000
# 3 6.7026 10.7721 80.2967 0.0000 -6.9003 0.0000
# 4 0.0000 0.0000 0.0000 15.4082 0.0000 -3.9673
# 5 12.2784 -2.6856 -6.9003 0.0000 31.9030 0.0000
# 6 0.0000 0.0000 0.0000 -3.9673 0.0000 17.5631
#
#
#
# Elastic Compliance Matrix: (Units=1/GPa)
#
#
# Indices 1 2 3 4 5 6 
#
# 1 0.006339 -0.002593 -0.000418 0.000000 -0.002748 0.000000
# 2 -0.002593 0.017172 -0.001913 0.000000 0.002030 0.000000
# 3 -0.000418 -0.001913 0.012987 0.000000 0.002809 0.000000
# 4 0.000000 0.000000 0.000000 0.068908 0.000000 0.015565
# 5 -0.002748 0.002030 0.002809 0.000000 0.033181 0.000000
# 6 0.000000 0.000000 0.000000 0.015565 0.000000 0.060454
#
#
# Mechanical properties :
#
#
# Convention : Reuss Voigt Hill
#
# Bulk Modulus (GPa) = 37.52146 44.88310 41.20228
# Shear Modulus (GPa) = 22.95996 31.29723 27.12859
#
# Velocity S-wave (km/s) = 3.19545 3.73077 3.47344
# Velocity P-wave (km/s) = 5.50466 6.20636 5.86601
#
# Compressibility (1/GPa) = 0.02665141
#
# Stress axis : x y z
#
# Youngs Moduli (GPa) = 157.74359 58.23558 77.00232
#
# Poissons Ratio (x) = 0.15099 0.03215
# Poissons Ratio (y) = 0.40900 0.14729
# Poissons Ratio (z) = 0.06586 0.11139
#
# Static dielectric constant tensor:
#      x y z
#    x 2.161040 0.000000 -0.006910 
#    y 0.000000 1.907620 0.000000 
#    z -0.006910 0.000000 1.961500 
# 
# From -- ./inp_files/12916.got.cif
#   From: 2010.05.17/outbox.cif.g08.bks.cpg/sg3_7_cif.got.tgz:12916.got - 2010.06.03 18:33:08.
