data_PCOD9113252
_publ_section_title
;
Structure prediction by ZEFSAII (Michael W. Deem and Ramdas Pophale) SiO2 
 PCOD9113252
Probable space group: P 2
;
_chemical_formula_sum "Si O2"
_cell_formula_units_Z 14
_cell_length_a 8.191673
_cell_length_b 9.623026
_cell_length_c 17.578256
_cell_angle_alpha 90.000000
_cell_angle_beta 150.868301
_cell_angle_gamma 90.000000
_cell_volume 674.570467
_symmetry_space_group_name_H-M "P 2"
_symmetry_group_IT_number 3
_symmetry_cell_setting 'monoclinic'
loop_
_space_group_symop_operation_xyz
x,y,z
-x,y,-z
loop_
_atom_site_type_symbol
_atom_site_label
_atom_site_fract_x
_atom_site_fract_y
_atom_site_fract_z
Si Si1 0.631409 0.398240 0.633165
Si Si2 0.793933 0.658706 0.805690
Si Si3 0.137184 0.150806 0.470276
Si Si4 0.447915 0.859280 0.567467
Si Si5 0.144640 0.649562 0.633702
Si Si6 0.709865 0.232595 0.154882
Si Si7 0.482065 0.525761 0.083285
O O1 0.500000 0.456977 0.500000
O O2 0.685447 0.523888 0.712238
O O3 0.354437 0.289743 0.548677
O O4 0.970067 0.311767 0.752721
O O5 0.764245 0.792268 0.739351
O O6 0.513441 0.689853 0.754439
O O7 0.159287 0.610876 0.978978
O O8 0.000000 0.144405 0.500000
O O9 0.859079 0.151345 0.288550
O O10 0.378201 0.019264 0.556009
O O11 0.500000 0.840241 0.500000
O O12 0.116899 0.773498 0.458971
O O13 0.206017 0.571674 0.737690
O O14 0.000000 0.570108 0.500000
O O15 0.474069 0.359080 0.088700
O O16 0.500000 0.162713 0.000000
O O17 0.500000 0.553407 0.000000
#
# Coordination Sequence:
#
# PCOD9113252 Si02
#       7
#     2   2   2   2   2   2   2
#     4  10  21  37  63  94 125 171 217 262 318 385
#     4  11  21  37  64  96 133 163 213 277 324 379
#     4  11  25  42  66  95 130 171 222 272 327 388
#     4  11  23  43  67  91 127 174 221 267 323 401
#     4  10  24  37  62  95 132 162 218 265 330 378
#     4  10  21  40  63  94 137 167 223 263 325 389
#     4  11  21  38  61  97 131 172 210 267 324 388
#
# _framework density 20.753947
#
# number of rings (size 3 to 8) (size 9 to 14) (size 15 to 20)
#    0.000    1.429    2.857    4.286   10.000    0.000 
#    0.000    4.286    0.000    3.429    0.000    0.000 
#    0.000    0.000    0.000    0.000    0.000    0.000 
#
# Total GULP energy -78085.410263 kJ/mol
# GULP energy per Si atom -5577.529304 kJ/mol
# Density = 2.070671 g / cm^3
# Si number density = 20.753947 Si / 1000 Ang^3
#
#
#
# Elastic Constant Matrix: (Units=GPa)
#
#
# Indices 1 2 3 4 5 6 
#
# 1 91.5837 10.7330 20.3425 0.0000 -3.6806 0.0000
# 2 10.7330 71.4134 30.3024 0.0000 -12.9400 0.0000
# 3 20.3425 30.3024 114.5341 0.0000 -22.0922 0.0000
# 4 0.0000 0.0000 0.0000 69.9067 0.0000 -42.1031
# 5 -3.6806 -12.9400 -22.0922 0.0000 42.6714 0.0000
# 6 0.0000 0.0000 0.0000 -42.1031 0.0000 43.1128
#
#
#
# Elastic Compliance Matrix: (Units=1/GPa)
#
#
# Indices 1 2 3 4 5 6 
#
# 1 0.011429 -0.000993 -0.001816 0.000000 -0.000256 0.000000
# 2 -0.000993 0.016193 -0.003530 0.000000 0.002997 0.000000
# 3 -0.001816 -0.003530 0.010833 0.000000 0.004381 0.000000
# 4 0.000000 0.000000 0.000000 0.034735 0.000000 0.033921
# 5 -0.000256 0.002997 0.004381 0.000000 0.026590 0.000000
# 6 0.000000 0.000000 0.000000 0.033921 0.000000 0.056322
#
#
# Mechanical properties :
#
#
# Convention : Reuss Voigt Hill
#
# Bulk Modulus (GPa) = 38.79635 44.47635 41.63635
# Shear Modulus (GPa) = 28.18949 45.54840 36.86895
#
# Velocity S-wave (km/s) = 3.68947 4.68983 4.21940
# Velocity P-wave (km/s) = 6.07319 7.12761 6.62142
#
# Compressibility (1/GPa) = 0.02577562
#
# Stress axis : x y z
#
# Youngs Moduli (GPa) = 87.50016 61.75476 92.31417
#
# Poissons Ratio (x) = 0.06134 0.16768
# Poissons Ratio (y) = 0.08691 0.32583
# Poissons Ratio (z) = 0.15894 0.21797
#
# Static dielectric constant tensor:
#      x y z
#    x 1.615790 0.000000 -0.030190 
#    y 0.000000 1.721420 0.000000 
#    z -0.030190 0.000000 1.829910 
# 
# From -- ./inp_files/7492.got.cif
#   From: 2010.05.17/outbox.cif.g08.bks.cpg/sg3_4_cif.got.tgz:7492.got - 2010.06.03 18:33:08.
