data_PCOD9113821
_publ_section_title
;
Structure prediction by ZEFSAII (Michael W. Deem and Ramdas Pophale) SiO2 
 PCOD9113821
Probable space group: P 2
;
_chemical_formula_sum "Si O2"
_cell_formula_units_Z 12
_cell_length_a 19.663246
_cell_length_b 5.284115
_cell_length_c 7.763718
_cell_angle_alpha 90.000000
_cell_angle_beta 38.011344
_cell_angle_gamma 90.000000
_cell_volume 496.762997
_symmetry_space_group_name_H-M "P 2"
_symmetry_group_IT_number 3
_symmetry_cell_setting 'monoclinic'
loop_
_space_group_symop_operation_xyz
x,y,z
-x,y,-z
loop_
_atom_site_type_symbol
_atom_site_label
_atom_site_fract_x
_atom_site_fract_y
_atom_site_fract_z
Si Si1 0.888842 0.735050 0.177690
Si Si2 0.495693 0.679069 0.304973
Si Si3 0.134966 0.057119 0.086050
Si Si4 0.632637 0.175439 0.553094
Si Si5 0.099010 0.142713 0.536501
Si Si6 0.292883 0.453711 0.284047
O O1 0.772808 0.609206 0.441796
O O2 0.894785 0.969981 0.303464
O O3 0.891357 0.813637 0.976038
O O4 0.000000 0.581642 0.000000
O O5 0.500000 0.720774 0.500000
O O6 0.429972 0.421444 0.393951
O O7 0.436558 0.921236 0.340229
O O8 0.617538 0.621780 0.989557
O O9 0.133516 0.002096 0.290901
O O10 0.027188 0.224397 0.250445
O O11 0.250790 0.153298 0.780576
O O12 0.651912 0.227072 0.717732
O O13 0.192589 0.354860 0.367669
#
# Coordination Sequence:
#
# PCOD9113821 Si02
#       6
#     2   2   2   2   2   2
#     4  10  23  42  71 107 150 197 248 313 384 453
#     4  12  30  52  78 110 151 205 264 318 381 458
#     4  10  22  46  72 107 153 197 256 309 386 452
#     4  12  27  47  78 111 154 200 257 317 387 455
#     4  10  23  45  72 109 148 201 252 314 381 461
#     4  12  27  45  77 107 152 198 259 317 386 458
#
# _framework density 24.156386999999999
#
# number of rings (size 3 to 8) (size 9 to 14) (size 15 to 20)
#    0.000    1.000    1.667    3.000    7.000    2.667 
#    3.000    1.667    0.000    0.000    0.000    0.000 
#    0.000    0.000    0.000    0.000    0.000    0.000 
#
# Total GULP energy -67155.725823 kJ/mol
# GULP energy per Si atom -5596.310485 kJ/mol
# Density = 2.410141 g / cm^3
# Si number density = 24.156387 Si / 1000 Ang^3
#
#
#
# Elastic Constant Matrix: (Units=GPa)
#
#
# Indices 1 2 3 4 5 6 
#
# 1 93.1178 37.8464 60.3610 0.0000 3.3525 0.0000
# 2 37.8464 107.1190 55.8442 0.0000 -16.5378 0.0000
# 3 60.3610 55.8442 185.1707 0.0000 -12.6617 0.0000
# 4 0.0000 0.0000 0.0000 18.4711 0.0000 -6.2705
# 5 3.3525 -16.5378 -12.6617 0.0000 52.5905 0.0000
# 6 0.0000 0.0000 0.0000 -6.2705 0.0000 34.5665
#
#
#
# Elastic Compliance Matrix: (Units=1/GPa)
#
#
# Indices 1 2 3 4 5 6 
#
# 1 0.014911 -0.003675 -0.003961 0.000000 -0.003060 0.000000
# 2 -0.003675 0.012381 -0.002291 0.000000 0.003576 0.000000
# 3 -0.003961 -0.002291 0.007474 0.000000 0.001331 0.000000
# 4 0.000000 0.000000 0.000000 0.057691 0.000000 0.010465
# 5 -0.003060 0.003576 0.001331 0.000000 0.020655 0.000000
# 6 0.000000 0.000000 0.000000 0.010465 0.000000 0.030828
#
#
# Mechanical properties :
#
#
# Convention : Reuss Voigt Hill
#
# Bulk Modulus (GPa) = 67.07243 77.05673 72.06458
# Shear Modulus (GPa) = 29.62694 36.54935 33.08814
#
# Velocity S-wave (km/s) = 3.50589 3.89399 3.70502
# Velocity P-wave (km/s) = 6.64940 7.22398 6.94264
#
# Compressibility (1/GPa) = 0.01490925
#
# Stress axis : x y z
#
# Youngs Moduli (GPa) = 67.06477 80.77218 133.80203
#
# Poissons Ratio (x) = 0.29688 0.53004
# Poissons Ratio (y) = 0.24650 0.30655
# Poissons Ratio (z) = 0.26567 0.18506
#
# Static dielectric constant tensor:
#      x y z
#    x 1.937580 0.000000 -0.033060 
#    y 0.000000 1.991220 0.000000 
#    z -0.033060 0.000000 1.935050 
# 
# From -- ./inp_files/9218.got.cif
#   From: 2010.05.17/outbox.cif.g08.bks.cpg/sg3_5_cif.got.tgz:9218.got - 2010.06.03 18:33:08.
