data_PCOD9113051
_publ_section_title
;
Structure prediction by ZEFSAII (Michael W. Deem and Ramdas Pophale) SiO2 
 PCOD9113051
Probable space group: P 2
;
_chemical_formula_sum "Si O2"
_cell_formula_units_Z 12
_cell_length_a 12.592683
_cell_length_b 8.470091
_cell_length_c 8.881502
_cell_angle_alpha 90.000000
_cell_angle_beta 144.789082
_cell_angle_gamma 90.000000
_cell_volume 546.208403
_symmetry_space_group_name_H-M "P 2"
_symmetry_group_IT_number 3
_symmetry_cell_setting 'monoclinic'
loop_
_space_group_symop_operation_xyz
x,y,z
-x,y,-z
loop_
_atom_site_type_symbol
_atom_site_label
_atom_site_fract_x
_atom_site_fract_y
_atom_site_fract_z
Si Si1 0.319897 0.492170 0.158835
Si Si2 0.123452 0.964290 0.792491
Si Si3 0.881355 0.736956 0.710212
Si Si4 0.004150 0.297773 0.684790
Si Si5 0.685464 0.414313 0.492139
Si Si6 0.512877 0.848634 0.680300
O O1 0.466699 0.402092 0.221830
O O2 0.306324 0.430878 0.315819
O O3 0.398685 0.671265 0.244768
O O4 0.120608 0.451393 0.866939
O O5 0.000000 0.971286 0.500000
O O6 0.024364 0.826886 0.771607
O O7 0.106575 0.136220 0.848162
O O8 0.340187 0.925752 0.037248
O O9 0.775984 0.577737 0.539584
O O10 0.699338 0.844574 0.518284
O O11 0.000000 0.706258 0.000000
O O12 0.000000 0.303310 0.500000
O O13 0.810450 0.291649 0.548627
O O14 0.500000 0.925682 0.500000
#
# Coordination Sequence:
#
# PCOD9113051 Si02
#       6
#     2   2   2   2   2   2
#     4  10  20  40  65  94 120 153 204 264 312 360
#     4  11  26  43  58  89 134 172 206 250 307 372
#     4  11  20  37  69  94 120 159 207 263 313 365
#     4  11  25  41  58  87 131 172 203 246 307 374
#     4  10  20  38  65  93 119 155 205 262 308 364
#     4  11  20  41  68  95 122 155 207 264 314 364
#
# _framework density 21.969636999999999
#
# number of rings (size 3 to 8) (size 9 to 14) (size 15 to 20)
#    0.000    1.333    5.000    2.500    0.000    6.667 
#    3.000    6.667    0.000    0.000    0.000    0.000 
#    0.000    0.000    0.000    0.000    0.000    0.000 
#
# Total GULP energy -66825.165875 kJ/mol
# GULP energy per Si atom -5568.763823 kJ/mol
# Density = 2.191963 g / cm^3
# Si number density = 21.969637 Si / 1000 Ang^3
#
#
#
# Elastic Constant Matrix: (Units=GPa)
#
#
# Indices 1 2 3 4 5 6 
#
# 1 84.2603 5.9081 22.1575 0.0000 39.2353 0.0000
# 2 5.9081 33.0154 -9.8222 0.0000 0.6384 0.0000
# 3 22.1575 -9.8222 80.5851 0.0000 32.7966 0.0000
# 4 0.0000 0.0000 0.0000 17.3803 0.0000 0.1594
# 5 39.2353 0.6384 32.7966 0.0000 45.2539 0.0000
# 6 0.0000 0.0000 0.0000 0.1594 0.0000 16.2237
#
#
#
# Elastic Compliance Matrix: (Units=1/GPa)
#
#
# Indices 1 2 3 4 5 6 
#
# 1 0.020417 -0.002765 0.001755 0.000000 -0.018935 0.000000
# 2 -0.002765 0.032483 0.005574 0.000000 -0.002101 0.000000
# 3 0.001755 0.005574 0.018803 0.000000 -0.015228 0.000000
# 4 0.000000 0.000000 0.000000 0.057541 0.000000 -0.000565
# 5 -0.018935 -0.002101 -0.015228 0.000000 0.049580 0.000000
# 6 0.000000 0.000000 0.000000 -0.000565 0.000000 0.061644
#
#
# Mechanical properties :
#
#
# Convention : Reuss Voigt Hill
#
# Bulk Modulus (GPa) = 12.37131 26.03862 19.20496
# Shear Modulus (GPa) = 19.35856 27.74610 23.55233
#
# Velocity S-wave (km/s) = 2.97164 3.55763 3.27775
# Velocity P-wave (km/s) = 4.17343 5.36222 4.80473
#
# Compressibility (1/GPa) = 0.08083220
#
# Stress axis : x y z
#
# Youngs Moduli (GPa) = 48.97827 30.78547 53.18163
#
# Poissons Ratio (x) = 0.08513 -0.09334
# Poissons Ratio (y) = 0.13544 -0.29646
# Poissons Ratio (z) = -0.08597 -0.17161
#
# Static dielectric constant tensor:
#      x y z
#    x 1.799980 0.000000 -0.003550 
#    y 0.000000 1.909700 0.000000 
#    z -0.003550 0.000000 1.893050 
# 
# From -- ./inp_files/7292.got.cif
#   From: 2010.05.17/outbox.cif.g08.bks.cpg/sg3_4_cif.got.tgz:7292.got - 2010.06.03 18:33:08.
