data_PCOD9113863
_publ_section_title
;
Structure prediction by ZEFSAII (Michael W. Deem and Ramdas Pophale) SiO2 
 PCOD9113863
Probable space group: P 2
;
_chemical_formula_sum "Si O2"
_cell_formula_units_Z 13
_cell_length_a 5.001209
_cell_length_b 5.003676
_cell_length_c 19.999443
_cell_angle_alpha 90.000000
_cell_angle_beta 67.954653
_cell_angle_gamma 90.000000
_cell_volume 463.883487
_symmetry_space_group_name_H-M "P 2"
_symmetry_group_IT_number 3
_symmetry_cell_setting 'monoclinic'
loop_
_space_group_symop_operation_xyz
x,y,z
-x,y,-z
loop_
_atom_site_type_symbol
_atom_site_label
_atom_site_fract_x
_atom_site_fract_y
_atom_site_fract_z
Si Si1 0.409076 0.801780 0.775617
Si Si2 0.999167 0.159265 0.377460
Si Si3 0.090712 0.176856 0.225657
Si Si4 0.500000 0.461075 0.500000
Si Si5 0.544216 0.183141 0.924677
Si Si6 0.957095 0.804741 0.074865
Si Si7 0.494817 0.802842 0.624474
O O1 0.701442 0.923384 0.776909
O O2 0.222901 0.659709 0.850285
O O3 0.462932 0.663824 0.699543
O O4 0.206331 0.056619 0.774093
O O5 0.774972 0.301162 0.446944
O O6 0.816006 0.901833 0.370578
O O7 0.050701 0.308842 0.301856
O O8 0.292102 0.053317 0.382617
O O9 0.272460 0.323853 0.150884
O O10 0.609385 0.631866 0.552736
O O11 0.250101 0.057421 0.924812
O O12 0.749681 0.930345 0.925156
O O13 0.500000 0.326147 0.000000
O O14 0.000000 0.661168 0.000000
#
# Coordination Sequence:
#
# PCOD9113863 Si02
#       7
#     2   2   2   1   2   2   2
#     4   8  14  27  45  66 101 142 178 228 286 337
#     4  10  23  41  60  86 119 155 199 251 303 362
#     4   8  14  27  45  66 101 142 178 228 286 337
#     4  12  26  42  68  92 120 166 210 254 316 368
#     4   8  12  18  33  60  93 130 173 219 268 329
#     4   8  12  18  33  60  93 130 173 219 268 329
#     4  10  23  41  60  86 119 155 199 251 303 362
#
# _framework density 28.024273000000001
#
# number of rings (size 3 to 8) (size 9 to 14) (size 15 to 20)
#    0.000    3.077    0.000    0.462    0.000    4.923 
#    0.000    0.000    0.000    0.000    0.000    0.000 
#    0.000   51.692    0.000    7.077    0.000   84.000 
#
# Total GULP energy -72824.672834 kJ/mol
# GULP energy per Si atom -5601.897910 kJ/mol
# Density = 2.796049 g / cm^3
# Si number density = 28.024273 Si / 1000 Ang^3
#
#
#
# Elastic Constant Matrix: (Units=GPa)
#
#
# Indices 1 2 3 4 5 6 
#
# 1 141.8435 40.9094 12.7563 0.0000 -4.6174 0.0000
# 2 40.9094 67.1633 40.6779 0.0000 2.9010 0.0000
# 3 12.7563 40.6779 309.9694 0.0000 -13.9398 0.0000
# 4 0.0000 0.0000 0.0000 -92.1566 0.0000 5.9086
# 5 -4.6174 2.9010 -13.9398 0.0000 36.3433 0.0000
# 6 0.0000 0.0000 0.0000 5.9086 0.0000 54.5303
#
#
#
# Elastic Compliance Matrix: (Units=1/GPa)
#
#
# Indices 1 2 3 4 5 6 
#
# 1 0.008695 -0.005650 0.000462 0.000000 0.001733 0.000000
# 2 -0.005650 0.020012 -0.002542 0.000000 -0.003290 0.000000
# 3 0.000462 -0.002542 0.003615 0.000000 0.001648 0.000000
# 4 0.000000 0.000000 0.000000 -0.010776 0.000000 0.001168
# 5 0.001733 -0.003290 0.001648 0.000000 0.028630 0.000000
# 6 0.000000 0.000000 0.000000 0.001168 0.000000 0.018212
#
#
# Mechanical properties :
#
#
# Convention : Reuss Voigt Hill
#
# Bulk Modulus (GPa) = 59.30915 78.62928 68.96921
# Shear Modulus (GPa) = 55.88562 28.05224 41.96893
#
# Velocity S-wave (km/s) = 4.47048 3.16729 3.87407
# Velocity P-wave (km/s) = 6.91783 6.44159 6.68395
#
# Compressibility (1/GPa) = 0.01686080
#
# Stress axis : x y z
#
# Youngs Moduli (GPa) = 115.01488 49.96952 276.64110
#
# Poissons Ratio (x) = 0.28234 -0.12770
# Poissons Ratio (y) = 0.64987 0.70313
# Poissons Ratio (z) = -0.05309 0.12701
#
# Static dielectric constant tensor:
#      x y z
#    x 2.058270 0.000000 -0.010080 
#    y 0.000000 2.232850 0.000000 
#    z -0.010080 0.000000 2.301960 
# 
# From -- ./inp_files/15543.got.cif
#   From: 2010.05.17/outbox.cif.g08.bks.cpg/sg3_8_cif.got.tgz:15543.got - 2010.06.03 18:33:08.
