data_PCOD9113217
_publ_section_title
;
Structure prediction by ZEFSAII (Michael W. Deem and Ramdas Pophale) SiO2 
 PCOD9113217
Probable space group: P 2
;
_chemical_formula_sum "Si O2"
_cell_formula_units_Z 10
_cell_length_a 16.008105
_cell_length_b 5.267339
_cell_length_c 7.189702
_cell_angle_alpha 90.000000
_cell_angle_beta 37.357846
_cell_angle_gamma 90.000000
_cell_volume 367.858979
_symmetry_space_group_name_H-M "P 2"
_symmetry_group_IT_number 3
_symmetry_cell_setting 'monoclinic'
loop_
_space_group_symop_operation_xyz
x,y,z
-x,y,-z
loop_
_atom_site_type_symbol
_atom_site_label
_atom_site_fract_x
_atom_site_fract_y
_atom_site_fract_z
Si Si1 0.373907 0.437370 0.872398
Si Si2 0.244388 0.273919 0.737070
Si Si3 0.140544 0.623151 0.632567
Si Si4 0.509310 0.946104 0.260101
Si Si5 0.952658 0.123165 0.374596
O O1 0.500000 0.423787 0.500000
O O2 0.257543 0.399234 0.920555
O O3 0.412673 0.683825 0.925894
O O4 0.392337 0.182497 0.956994
O O5 0.250410 0.507012 0.582279
O O6 0.357591 0.059260 0.486321
O O7 0.094907 0.144135 0.005012
O O8 0.139723 0.892587 0.534817
O O9 0.120257 0.396323 0.519058
O O10 0.000000 0.626082 0.000000
O O11 0.500000 0.919210 0.500000
O O12 0.000000 0.069537 0.500000
#
# Coordination Sequence:
#
# PCOD9113217 Si02
#       5
#     2   2   2   2   2
#     4   8  15  26  45  78 105 129 171 226 278 321
#     4   9  19  35  58  81 116 149 185 244 283 319
#     4  10  21  36  56  81 109 151 200 237 276 329
#     4   8  15  26  45  78 105 129 171 226 278 321
#     4  11  23  37  53  82 120 156 191 227 282 354
#
# _framework density 27.184331
#
# number of rings (size 3 to 8) (size 9 to 14) (size 15 to 20)
#    0.000    3.200    0.000    2.400    0.000   19.200 
#    0.000    0.000    0.000    0.000    0.000   49.000 
#    0.000    0.000    0.000    0.000    0.000    0.000 
#
# Total GULP energy -55825.719164 kJ/mol
# GULP energy per Si atom -5582.571916 kJ/mol
# Density = 2.712246 g / cm^3
# Si number density = 27.184331 Si / 1000 Ang^3
#
#
#
# Elastic Constant Matrix: (Units=GPa)
#
#
# Indices 1 2 3 4 5 6 
#
# 1 121.1674 74.3979 40.9433 0.0000 -8.8914 0.0000
# 2 74.3979 296.7767 42.2869 0.0000 -10.3460 0.0000
# 3 40.9433 42.2869 77.7910 0.0000 1.3354 0.0000
# 4 0.0000 0.0000 0.0000 -13.8161 0.0000 91.4841
# 5 -8.8914 -10.3460 1.3354 0.0000 35.6049 0.0000
# 6 0.0000 0.0000 0.0000 91.4841 0.0000 -191.0293
#
#
#
# Elastic Compliance Matrix: (Units=1/GPa)
#
#
# Indices 1 2 3 4 5 6 
#
# 1 0.011352 -0.002064 -0.004894 0.000000 0.002419 0.000000
# 2 -0.002064 0.004074 -0.001141 0.000000 0.000711 0.000000
# 3 -0.004894 -0.001141 0.016088 0.000000 -0.002157 0.000000
# 4 0.000000 0.000000 0.000000 0.033338 0.000000 0.015966
# 5 0.002419 0.000711 -0.002157 0.000000 0.028978 0.000000
# 6 0.000000 0.000000 0.000000 0.015966 0.000000 0.002411
#
#
# Mechanical properties :
#
#
# Convention : Reuss Voigt Hill
#
# Bulk Modulus (GPa) = 65.29023 90.11014 77.70019
# Shear Modulus (GPa) = 42.53742 -11.30763 15.61490
#
# Velocity S-wave (km/s) = 3.96002 -2.04173 2.39928
# Velocity P-wave (km/s) = 6.70662 5.25943 6.02662
#
# Compressibility (1/GPa) = 0.01531623
#
# Stress axis : x y z
#
# Youngs Moduli (GPa) = 88.09316 245.44212 62.15832
#
# Poissons Ratio (x) = 0.50660 0.30421
# Poissons Ratio (y) = 0.18183 0.07090
# Poissons Ratio (z) = 0.43114 0.27996
#
# Static dielectric constant tensor:
#      x y z
#    x 3.646160 0.000000 0.257530 
#    y 0.000000 2.217750 0.000000 
#    z 0.257530 0.000000 2.310720 
# 
# From -- ./inp_files/7800.got.cif
#   From: 2010.05.17/outbox.cif.g08.bks.cpg/sg3_4_cif.got.tgz:7800.got - 2010.06.03 18:33:08.
