data_PCOD9113379
_publ_section_title
;
Structure prediction by ZEFSAII (Michael W. Deem and Ramdas Pophale) SiO2 
 PCOD9113379
Probable space group: P 2
;
_chemical_formula_sum "Si O2"
_cell_formula_units_Z 16
_cell_length_a 8.224584
_cell_length_b 6.533592
_cell_length_c 18.884138
_cell_angle_alpha 90.000000
_cell_angle_beta 45.238649
_cell_angle_gamma 90.000000
_cell_volume 720.525795
_symmetry_space_group_name_H-M "P 2"
_symmetry_group_IT_number 3
_symmetry_cell_setting 'monoclinic'
loop_
_space_group_symop_operation_xyz
x,y,z
-x,y,-z
loop_
_atom_site_type_symbol
_atom_site_label
_atom_site_fract_x
_atom_site_fract_y
_atom_site_fract_z
Si Si1 0.879943 0.728880 0.869843
Si Si2 0.324187 0.931116 0.206348
Si Si3 0.562046 0.707801 0.563041
Si Si4 0.947741 0.604300 0.620670
Si Si5 0.841386 0.405792 0.305060
Si Si6 0.718666 0.027700 0.261969
Si Si7 0.548156 0.323840 0.761985
Si Si8 0.267067 0.659610 0.934557
O O1 0.751241 0.852680 0.847550
O O2 0.000887 0.531346 0.798234
O O3 0.727649 0.658735 0.981931
O O4 0.083927 0.883179 0.830433
O O5 0.165814 0.804988 0.309332
O O6 0.585211 0.853959 0.135029
O O7 0.323381 0.168460 0.224291
O O8 0.500000 0.767668 0.500000
O O9 0.411942 0.504384 0.621766
O O10 0.831106 0.672140 0.491045
O O11 0.465578 0.879290 0.645167
O O12 0.735163 0.461955 0.663534
O O13 0.065447 0.470812 0.647322
O O14 0.829666 0.169429 0.289186
O O15 0.601681 0.185542 0.244338
O O16 0.389972 0.472019 0.857466
O O17 0.000000 0.662528 0.000000
#
# Coordination Sequence:
#
# PCOD9113379 Si02
#       8
#     2   2   2   2   2   2   2   2
#     4  10  21  40  64  90 123 161 205 261 314 367
#     4  10  22  41  63  89 122 163 208 258 310 370
#     4   9  20  38  63  92 123 164 214 262 307 364
#     4   9  20  40  62  86 125 165 204 259 311 363
#     4   9  19  37  62  91 120 159 209 258 308 367
#     4  11  22  38  65  96 126 164 208 257 318 378
#     4  11  24  40  61  92 127 166 206 254 320 380
#     4  11  23  40  62  88 123 162 205 257 315 375
#
# _framework density 22.206005000000001
#
# number of rings (size 3 to 8) (size 9 to 14) (size 15 to 20)
#    0.000    2.000    0.000    3.375    0.000    8.000 
#    0.000    8.750    0.000    0.000    0.000    0.000 
#    0.000    0.000    0.000    0.000    0.000    0.000 
#
# Total GULP energy -89456.833105 kJ/mol
# GULP energy per Si atom -5591.052069 kJ/mol
# Density = 2.215546 g / cm^3
# Si number density = 22.206005 Si / 1000 Ang^3
#
#
#
# Elastic Constant Matrix: (Units=GPa)
#
#
# Indices 1 2 3 4 5 6 
#
# 1 79.5569 29.7895 35.7696 0.0000 -21.5533 0.0000
# 2 29.7895 87.9855 53.4772 0.0000 -7.3307 0.0000
# 3 35.7696 53.4772 115.1584 0.0000 -19.4089 0.0000
# 4 0.0000 0.0000 0.0000 9.8071 0.0000 3.5917
# 5 -21.5533 -7.3307 -19.4089 0.0000 35.1217 0.0000
# 6 0.0000 0.0000 0.0000 3.5917 0.0000 35.5608
#
#
#
# Elastic Compliance Matrix: (Units=1/GPa)
#
#
# Indices 1 2 3 4 5 6 
#
# 1 0.017309 -0.003842 -0.002136 0.000000 0.008640 0.000000
# 2 -0.003842 0.016710 -0.007031 0.000000 -0.002756 0.000000
# 3 -0.002136 -0.007031 0.013391 0.000000 0.004622 0.000000
# 4 0.000000 0.000000 0.000000 0.105883 0.000000 -0.010694
# 5 0.008640 -0.002756 0.004622 0.000000 0.035754 0.000000
# 6 0.000000 0.000000 0.000000 -0.010694 0.000000 0.029201
#
#
# Mechanical properties :
#
#
# Convention : Reuss Voigt Hill
#
# Bulk Modulus (GPa) = 46.74575 57.86371 52.30473
# Shear Modulus (GPa) = 19.88883 27.00888 23.44885
#
# Velocity S-wave (km/s) = 2.99599 3.49131 3.25309
# Velocity P-wave (km/s) = 5.75018 6.50897 6.14130
#
# Compressibility (1/GPa) = 0.02139232
#
# Stress axis : x y z
#
# Youngs Moduli (GPa) = 57.77193 59.84387 74.67654
#
# Poissons Ratio (x) = 0.22994 0.15951
# Poissons Ratio (y) = 0.22198 0.52503
# Poissons Ratio (z) = 0.12340 0.42075
#
# Static dielectric constant tensor:
#      x y z
#    x 1.963690 0.000000 0.021050 
#    y 0.000000 1.743640 0.000000 
#    z 0.021050 0.000000 1.799640 
# 
# From -- ./inp_files/8310.got.cif
#   From: 2010.05.17/outbox.cif.g08.bks.cpg/sg3_5_cif.got.tgz:8310.got - 2010.06.03 18:33:08.
