data_PCOD9113486
_publ_section_title
;
Structure prediction by ZEFSAII (Michael W. Deem and Ramdas Pophale) SiO2 
 PCOD9113486
Probable space group: P 2
;
_chemical_formula_sum "Si O2"
_cell_formula_units_Z 15
_cell_length_a 14.959144
_cell_length_b 5.114232
_cell_length_c 24.355603
_cell_angle_alpha 90.000000
_cell_angle_beta 20.695236
_cell_angle_gamma 90.000000
_cell_volume 658.489706
_symmetry_space_group_name_H-M "P 2"
_symmetry_group_IT_number 3
_symmetry_cell_setting 'monoclinic'
loop_
_space_group_symop_operation_xyz
x,y,z
-x,y,-z
loop_
_atom_site_type_symbol
_atom_site_label
_atom_site_fract_x
_atom_site_fract_y
_atom_site_fract_z
Si Si1 0.792378 0.023330 0.434341
Si Si2 0.593381 0.197629 0.661910
Si Si3 0.090919 0.370005 0.722217
Si Si4 0.292859 0.670017 0.820481
Si Si5 0.000000 0.914598 0.500000
Si Si6 0.549633 0.598572 0.391544
Si Si7 0.521072 0.256433 0.053067
Si Si8 0.778820 0.757130 0.739699
O O1 0.729340 0.205939 0.523799
O O2 0.913386 0.088132 0.305523
O O3 0.994054 0.837461 0.349575
O O4 0.520840 0.906548 0.570573
O O5 0.467039 0.466834 0.753370
O O6 0.389386 0.964042 0.772733
O O7 0.789961 0.096753 0.593258
O O8 0.274088 0.492155 0.569155
O O9 0.250380 0.470463 0.682287
O O10 0.795363 0.390302 0.905279
O O11 0.343385 0.564719 0.730254
O O12 0.000000 0.650198 0.000000
O O13 0.115519 0.755218 0.382754
O O14 0.436260 0.984424 0.130231
O O15 0.321990 0.476610 0.184898
O O16 0.500000 0.210946 0.000000
#
# Coordination Sequence:
#
# PCOD9113486 Si02
#       8
#     2   2   2   2   1   2   2   2
#     4  10  21  43  67  93 135 181 225 275 344 410
#     4  10  23  42  70  97 133 178 230 277 341 409
#     4  11  23  41  65  95 138 175 225 285 333 414
#     4  11  23  44  69  96 134 182 224 283 343 407
#     4  10  26  46  74 106 138 182 240 290 342 412
#     4  10  24  41  64  98 129 179 231 276 337 406
#     4  12  25  44  70 106 141 186 229 283 359 415
#     4  11  26  44  74 103 141 184 232 289 348 421
#
# _framework density 22.779399000000002
#
# number of rings (size 3 to 8) (size 9 to 14) (size 15 to 20)
#    0.000    1.333    2.667    1.600    1.867    9.600 
#    0.000    0.000    0.000    0.000    0.000    0.000 
#    0.000    0.000    0.000    0.000    0.000    0.000 
#
# Total GULP energy -83571.268590 kJ/mol
# GULP energy per Si atom -5571.417906 kJ/mol
# Density = 2.272755 g / cm^3
# Si number density = 22.779399 Si / 1000 Ang^3
#
#
#
# Elastic Constant Matrix: (Units=GPa)
#
#
# Indices 1 2 3 4 5 6 
#
# 1 96.5141 -4.1624 31.0965 0.0000 0.9264 0.0000
# 2 -4.1624 35.7425 16.7809 0.0000 10.6589 0.0000
# 3 31.0965 16.7809 114.2866 0.0000 0.9460 0.0000
# 4 0.0000 0.0000 0.0000 15.6554 0.0000 -3.7279
# 5 0.9264 10.6589 0.9460 0.0000 33.3955 0.0000
# 6 0.0000 0.0000 0.0000 -3.7279 0.0000 -0.4169
#
#
#
# Elastic Compliance Matrix: (Units=1/GPa)
#
#
# Indices 1 2 3 4 5 6 
#
# 1 0.011713 0.003494 -0.003689 0.000000 -0.001336 0.000000
# 2 0.003494 0.034416 -0.005914 0.000000 -0.010914 0.000000
# 3 -0.003689 -0.005914 0.010608 0.000000 0.001689 0.000000
# 4 0.000000 0.000000 0.000000 0.020413 0.000000 -0.182524
# 5 -0.001336 -0.010914 0.001689 0.000000 0.033417 0.000000
# 6 0.000000 0.000000 0.000000 -0.182524 0.000000 -0.766517
#
#
# Mechanical properties :
#
#
# Convention : Reuss Voigt Hill
#
# Bulk Modulus (GPa) = 22.46158 37.10813 29.78486
# Shear Modulus (GPa) = -7.95048 23.24868 7.64910
#
# Velocity S-wave (km/s) = -1.87024 3.19815 1.83445
# Velocity P-wave (km/s) = 2.28433 5.47386 4.19412
#
# Compressibility (1/GPa) = 0.04452047
#
# Stress axis : x y z
#
# Youngs Moduli (GPa) = 85.37267 29.05616 94.26771
#
# Poissons Ratio (x) = -0.10154 0.34777
# Poissons Ratio (y) = -0.29833 0.55749
# Poissons Ratio (z) = 0.31495 0.17183
#
# Static dielectric constant tensor:
#      x y z
#    x 1.894250 0.000000 0.006800 
#    y 0.000000 2.349570 0.000000 
#    z 0.006800 0.000000 1.887710 
# 
# From -- ./inp_files/16325.got.cif
#   From: 2010.05.17/outbox.cif.g08.bks.cpg/sg3_9_cif.got.tgz:16325.got - 2010.06.03 18:33:08.
