data_PCOD9113151
_publ_section_title
;
Structure prediction by ZEFSAII (Michael W. Deem and Ramdas Pophale) SiO2 
 PCOD9113151
Probable space group: P 2
;
_chemical_formula_sum "Si O2"
_cell_formula_units_Z 14
_cell_length_a 11.897315
_cell_length_b 6.583892
_cell_length_c 10.075084
_cell_angle_alpha 90.000000
_cell_angle_beta 51.737421
_cell_angle_gamma 90.000000
_cell_volume 619.655220
_symmetry_space_group_name_H-M "P 2"
_symmetry_group_IT_number 3
_symmetry_cell_setting 'monoclinic'
loop_
_space_group_symop_operation_xyz
x,y,z
-x,y,-z
loop_
_atom_site_type_symbol
_atom_site_label
_atom_site_fract_x
_atom_site_fract_y
_atom_site_fract_z
Si Si1 0.243475 0.184440 0.490097
Si Si2 0.608758 0.522109 0.021444
Si Si3 0.153266 0.103919 0.845973
Si Si4 0.044084 0.539289 0.609934
Si Si5 0.191597 0.184967 0.233078
Si Si6 0.457894 0.312680 0.673683
Si Si7 0.132518 0.807978 0.088535
O O1 0.166063 0.098939 0.677586
O O2 0.202922 0.103495 0.374910
O O3 0.412644 0.156855 0.391572
O O4 0.195978 0.424447 0.512545
O O5 0.534082 0.467077 0.212541
O O6 0.741640 0.657655 0.963230
O O7 0.500000 0.624668 0.000000
O O8 0.668259 0.315764 0.908678
O O9 0.297295 0.221580 0.786022
O O10 0.147473 0.889591 0.927955
O O11 0.159089 0.007681 0.156028
O O12 0.935740 0.347412 0.687471
O O13 0.000000 0.639318 0.500000
O O14 0.007077 0.688154 0.757480
O O15 0.500000 0.400315 0.500000
O O16 0.000000 0.203182 0.000000
#
# Coordination Sequence:
#
# PCOD9113151 Si02
#       7
#     2   2   2   2   2   2   2
#     4  10  21  41  73  94 131 190 229 278 350 407
#     4  11  22  41  70  99 136 184 232 282 357 408
#     4  11  24  43  66 100 135 183 231 279 346 412
#     4   9  21  40  68 100 134 177 232 289 344 408
#     4  10  20  41  69 100 135 177 226 293 342 407
#     4  10  22  43  69  93 135 181 232 280 341 413
#     4  11  24  40  66 104 139 176 235 288 342 420
#
# _framework density 22.593208000000001
#
# number of rings (size 3 to 8) (size 9 to 14) (size 15 to 20)
#    0.000    1.714    2.857    0.857    2.000    4.571 
#    5.143    3.571    3.143    0.000    0.000    0.000 
#    0.000    0.000    0.000    0.000    0.000    0.000 
#
# Total GULP energy -78152.858658 kJ/mol
# GULP energy per Si atom -5582.347047 kJ/mol
# Density = 2.254179 g / cm^3
# Si number density = 22.593208 Si / 1000 Ang^3
#
#
#
# Elastic Constant Matrix: (Units=GPa)
#
#
# Indices 1 2 3 4 5 6 
#
# 1 123.8935 15.5123 63.0785 0.0000 -1.8404 0.0000
# 2 15.5123 39.4967 39.9529 0.0000 8.9598 0.0000
# 3 63.0785 39.9529 117.4132 0.0000 8.7913 0.0000
# 4 0.0000 0.0000 0.0000 1132.9321 0.0000 478.6329
# 5 -1.8404 8.9598 8.7913 0.0000 52.2150 0.0000
# 6 0.0000 0.0000 0.0000 478.6329 0.0000 220.8993
#
#
#
# Elastic Compliance Matrix: (Units=1/GPa)
#
#
# Indices 1 2 3 4 5 6 
#
# 1 0.011351 0.002338 -0.006981 0.000000 0.001174 0.000000
# 2 0.002338 0.040147 -0.014591 0.000000 -0.004350 0.000000
# 3 -0.006981 -0.014591 0.017281 0.000000 -0.000652 0.000000
# 4 0.000000 0.000000 0.000000 0.010432 0.000000 -0.022604
# 5 0.001174 -0.004350 -0.000652 0.000000 0.020049 0.000000
# 6 0.000000 0.000000 0.000000 -0.022604 0.000000 0.053505
#
#
# Mechanical properties :
#
#
# Convention : Reuss Voigt Hill
#
# Bulk Modulus (GPa) = 32.99331 57.54343 45.26837
# Shear Modulus (GPa) = 24.83386 292.02661 158.43023
#
# Velocity S-wave (km/s) = 3.31898 11.38133 8.38303
# Velocity P-wave (km/s) = 5.41501 14.07969 10.66677
#
# Compressibility (1/GPa) = 0.03030918
#
# Stress axis : x y z
#
# Youngs Moduli (GPa) = 88.10070 24.90846 57.86566
#
# Poissons Ratio (x) = -0.05823 0.40398
# Poissons Ratio (y) = -0.20595 0.84433
# Poissons Ratio (z) = 0.61506 0.36344
#
# Static dielectric constant tensor:
#      x y z
#    x 0.634490 0.000000 0.765210 
#    y 0.000000 1.813360 0.000000 
#    z 0.765210 0.000000 1.399710 
# 
# From -- ./inp_files/7105.got.cif
#   From: 2010.05.17/outbox.cif.g08.bks.cpg/sg3_4_cif.got.tgz:7105.got - 2010.06.03 18:33:08.
