data_PCOD9113101
_publ_section_title
;
Structure prediction by ZEFSAII (Michael W. Deem and Ramdas Pophale) SiO2 
 PCOD9113101
Probable space group: P 2
;
_chemical_formula_sum "Si O2"
_cell_formula_units_Z 14
_cell_length_a 6.764056
_cell_length_b 4.787505
_cell_length_c 16.917780
_cell_angle_alpha 90.000000
_cell_angle_beta 111.711089
_cell_angle_gamma 90.000000
_cell_volume 508.983888
_symmetry_space_group_name_H-M "P 2"
_symmetry_group_IT_number 3
_symmetry_cell_setting 'monoclinic'
loop_
_space_group_symop_operation_xyz
x,y,z
-x,y,-z
loop_
_atom_site_type_symbol
_atom_site_label
_atom_site_fract_x
_atom_site_fract_y
_atom_site_fract_z
Si Si1 0.282353 0.783990 0.721484
Si Si2 0.554744 0.694644 0.425314
Si Si3 0.000000 0.360458 0.500000
Si Si4 0.094491 0.098976 0.186544
Si Si5 0.500000 0.971676 0.000000
Si Si6 0.886819 0.361941 0.645629
Si Si7 0.912586 0.589643 0.075559
Si Si8 0.475430 0.274390 0.833511
O O1 0.407476 0.820462 0.656406
O O2 0.410901 0.587207 0.802407
O O3 0.060103 0.615385 0.678489
O O4 0.086917 0.294472 0.880231
O O5 0.500000 0.858028 0.500000
O O6 0.782911 0.539440 0.467806
O O7 0.351439 0.489199 0.391767
O O8 0.968562 0.203618 0.578078
O O9 0.118241 0.157044 0.281641
O O10 0.308287 0.210540 0.179643
O O11 0.057429 0.785482 0.153045
O O12 0.702890 0.079805 0.233635
O O13 0.697920 0.762608 0.036679
O O14 0.476608 0.171264 0.071871
O O15 0.000000 0.555676 0.000000
#
# Coordination Sequence:
#
# PCOD9113101 Si02
#       8
#     2   2   1   2   1   2   2   2
#     4  11  24  45  68 103 143 183 240 291 350 424
#     4   9  18  38  71 104 142 186 231 289 352 419
#     4   8  18  36  68 110 142 186 232 292 348 426
#     4  12  25  46  72 103 141 188 237 296 354 424
#     4  12  28  46  74 100 146 190 242 298 366 420
#     4  10  20  39  71 101 145 186 238 288 357 419
#     4  12  27  47  70 103 143 185 242 297 356 423
#     4  12  26  46  71 103 141 187 238 296 354 423
#
# _framework density 27.505786000000001
#
# number of rings (size 3 to 8) (size 9 to 14) (size 15 to 20)
#    0.000    1.143    2.857    3.000    0.000    1.143 
#    0.000    0.714    0.000   13.714    0.000    0.000 
#    0.000    0.000    0.000    0.000    0.000    0.000 
#
# Total GULP energy -78553.834632 kJ/mol
# GULP energy per Si atom -5610.988188 kJ/mol
# Density = 2.744318 g / cm^3
# Si number density = 27.505786 Si / 1000 Ang^3
#
#
#
# Elastic Constant Matrix: (Units=GPa)
#
#
# Indices 1 2 3 4 5 6 
#
# 1 172.2397 22.7605 52.6146 0.0000 -5.0967 0.0000
# 2 22.7605 110.3171 36.9841 0.0000 -17.3312 0.0000
# 3 52.6146 36.9841 215.8085 0.0000 -69.8905 0.0000
# 4 0.0000 0.0000 0.0000 22.6621 0.0000 -4.6045
# 5 -5.0967 -17.3312 -69.8905 0.0000 67.8262 0.0000
# 6 0.0000 0.0000 0.0000 -4.6045 0.0000 35.6397
#
#
#
# Elastic Compliance Matrix: (Units=1/GPa)
#
#
# Indices 1 2 3 4 5 6 
#
# 1 0.006492 -0.000952 -0.002012 0.000000 -0.001828 0.000000
# 2 -0.000952 0.009816 -0.000992 0.000000 0.001415 0.000000
# 3 -0.002012 -0.000992 0.007749 0.000000 0.007580 0.000000
# 4 0.000000 0.000000 0.000000 0.045316 0.000000 0.005855
# 5 -0.001828 0.001415 0.007580 0.000000 0.022779 0.000000
# 6 0.000000 0.000000 0.000000 0.005855 0.000000 0.028815
#
#
# Mechanical properties :
#
#
# Convention : Reuss Voigt Hill
#
# Bulk Modulus (GPa) = 61.93734 80.34263 71.13999
# Shear Modulus (GPa) = 37.24096 50.95934 44.10015
#
# Velocity S-wave (km/s) = 3.68357 4.30894 4.00847
# Velocity P-wave (km/s) = 6.37640 7.35043 6.88067
#
# Compressibility (1/GPa) = 0.01614535
#
# Stress axis : x y z
#
# Youngs Moduli (GPa) = 154.03255 101.87415 129.04665
#
# Poissons Ratio (x) = 0.09701 0.25961
# Poissons Ratio (y) = 0.14668 0.12801
# Poissons Ratio (z) = 0.30988 0.10105
#
# Static dielectric constant tensor:
#      x y z
#    x 2.215940 0.000000 0.026830 
#    y 0.000000 2.047120 0.000000 
#    z 0.026830 0.000000 2.220670 
# 
# From -- ./inp_files/2988.got.cif
#   From: 2010.05.17/outbox.cif.g08.bks.cpg/sg3_2_cif.got.tgz:2988.got - 2010.06.03 18:33:08.
