data_PCOD9113731
_publ_section_title
;
Structure prediction by ZEFSAII (Michael W. Deem and Ramdas Pophale) SiO2 
 PCOD9113731
Probable space group: P 2
;
_chemical_formula_sum "Si O2"
_cell_formula_units_Z 9
_cell_length_a 14.078443
_cell_length_b 5.949717
_cell_length_c 14.068343
_cell_angle_alpha 90.000000
_cell_angle_beta 19.274886
_cell_angle_gamma 90.000000
_cell_volume 388.991662
_symmetry_space_group_name_H-M "P 2"
_symmetry_group_IT_number 3
_symmetry_cell_setting 'monoclinic'
loop_
_space_group_symop_operation_xyz
x,y,z
-x,y,-z
loop_
_atom_site_type_symbol
_atom_site_label
_atom_site_fract_x
_atom_site_fract_y
_atom_site_fract_z
Si Si1 0.795986 0.521200 0.770984
Si Si2 0.448759 0.528970 0.417119
Si Si3 0.000000 0.498138 0.000000
Si Si4 0.665575 0.868678 0.061809
Si Si5 0.845598 0.182764 0.448273
O O1 0.000000 0.636188 0.500000
O O2 0.969798 0.309044 0.646773
O O3 0.500000 0.459041 0.000000
O O4 0.733084 0.682734 0.918811
O O5 0.206376 0.602379 0.722828
O O6 0.572888 0.743410 0.245119
O O7 0.297020 0.368998 0.484333
O O8 0.728579 0.398902 0.196542
O O9 0.404319 0.025867 0.275498
O O10 0.941348 0.025131 0.812289
#
# Coordination Sequence:
#
# PCOD9113731 Si02
#       5
#     2   2   1   2   2
#     4  12  26  46  69 101 140 177 229 286 330 394
#     4  11  23  46  69 101 140 175 225 280 337 403
#     4  10  22  42  74 100 136 178 216 286 340 390
#     4  12  25  45  73  99 135 185 226 273 342 405
#     4  12  25  45  73  99 135 185 226 273 342 405
#
# _framework density 23.136744
#
# number of rings (size 3 to 8) (size 9 to 14) (size 15 to 20)
#    0.000    0.444    0.000   10.667    0.000    3.556 
#    0.000   21.111    0.000    0.000    0.000    0.000 
#    0.000    0.000    0.000    0.000    0.000    0.000 
#
# Total GULP energy -50317.694194 kJ/mol
# GULP energy per Si atom -5590.854910 kJ/mol
# Density = 2.308408 g / cm^3
# Si number density = 23.136744 Si / 1000 Ang^3
#
#
#
# Elastic Constant Matrix: (Units=GPa)
#
#
# Indices 1 2 3 4 5 6 
#
# 1 79.9903 -4.2671 34.5252 0.0000 -21.3696 0.0000
# 2 -4.2671 44.6358 21.3613 0.0000 -7.5591 0.0000
# 3 34.5252 21.3613 176.1934 0.0000 -1.3231 0.0000
# 4 0.0000 0.0000 0.0000 56.4687 0.0000 -15.5732
# 5 -21.3696 -7.5591 -1.3231 0.0000 72.1879 0.0000
# 6 0.0000 0.0000 0.0000 -15.5732 0.0000 -6.7405
#
#
#
# Elastic Compliance Matrix: (Units=1/GPa)
#
#
# Indices 1 2 3 4 5 6 
#
# 1 0.015547 0.003998 -0.003494 0.000000 0.004957 0.000000
# 2 0.003998 0.025248 -0.003816 0.000000 0.003757 0.000000
# 3 -0.003494 -0.003816 0.006813 0.000000 -0.001309 0.000000
# 4 0.000000 0.000000 0.000000 0.010817 0.000000 -0.024991
# 5 0.004957 0.003757 -0.001309 0.000000 0.015690 0.000000
# 6 0.000000 0.000000 0.000000 -0.024991 0.000000 -0.090618
#
#
# Mechanical properties :
#
#
# Convention : Reuss Voigt Hill
#
# Bulk Modulus (GPa) = 24.39988 44.89539 34.64763
# Shear Modulus (GPa) = 1321.62528 40.99654 681.31091
#
# Velocity S-wave (km/s) = 23.92621 4.21399 17.17879
# Velocity P-wave (km/s) = 27.81823 6.56684 20.21110
#
# Compressibility (1/GPa) = 0.04098381
#
# Stress axis : x y z
#
# Youngs Moduli (GPa) = 64.32081 39.60655 146.77706
#
# Poissons Ratio (x) = -0.15834 0.51283
# Poissons Ratio (y) = -0.25714 0.56013
# Poissons Ratio (z) = 0.22473 0.15115
#
# Static dielectric constant tensor:
#      x y z
#    x 1.905810 0.000000 0.008740 
#    y 0.000000 1.838050 0.000000 
#    z 0.008740 0.000000 1.898260 
# 
# From -- ./inp_files/13813.got.cif
#   From: 2010.05.17/outbox.cif.g08.bks.cpg/sg3_7_cif.got.tgz:13813.got - 2010.06.03 18:33:08.
