data_PCOD9113196
_publ_section_title
;
Structure prediction by ZEFSAII (Michael W. Deem and Ramdas Pophale) SiO2 
 PCOD9113196
Probable space group: P 2
;
_chemical_formula_sum "Si O2"
_cell_formula_units_Z 13
_cell_length_a 9.740227
_cell_length_b 5.153288
_cell_length_c 17.710895
_cell_angle_alpha 90.000000
_cell_angle_beta 33.096343
_cell_angle_gamma 90.000000
_cell_volume 485.428435
_symmetry_space_group_name_H-M "P 2"
_symmetry_group_IT_number 3
_symmetry_cell_setting 'monoclinic'
loop_
_space_group_symop_operation_xyz
x,y,z
-x,y,-z
loop_
_atom_site_type_symbol
_atom_site_label
_atom_site_fract_x
_atom_site_fract_y
_atom_site_fract_z
Si Si1 0.500000 0.485481 0.500000
Si Si2 0.628338 0.849463 0.645726
Si Si3 0.751198 0.111943 0.261095
Si Si4 0.123913 0.053808 0.334778
Si Si5 0.951769 0.589791 0.721718
Si Si6 0.271419 0.252048 0.052055
Si Si7 0.721686 0.440605 0.122639
O O1 0.593479 0.295276 0.389492
O O2 0.751853 0.639818 0.404115
O O3 0.415436 0.866471 0.680229
O O4 0.884667 0.900381 0.481805
O O5 0.677077 0.061614 0.689302
O O6 0.522385 0.609070 0.741881
O O7 0.765741 0.239593 0.171088
O O8 0.029410 0.065663 0.161932
O O9 0.064437 0.331335 0.325363
O O10 0.196857 0.835550 0.241013
O O11 0.836039 0.499389 0.853665
O O12 0.500000 0.169314 0.000000
O O13 0.319046 0.333188 0.943591
O O14 0.000000 0.586106 0.000000
#
# Coordination Sequence:
#
# PCOD9113196 Si02
#       7
#     1   2   2   2   2   2   2
#     4  10  20  44  72 102 148 190 252 298 382 434
#     4  11  24  41  73 103 142 193 242 313 368 448
#     4  10  22  43  69 101 141 193 244 311 368 446
#     4  11  26  43  75 108 150 186 251 305 384 425
#     4  11  24  47  69 111 146 197 239 314 363 448
#     4  10  23  45  72 103 148 196 252 304 372 445
#     4  10  23  45  68 101 144 195 250 302 371 451
#
# _framework density 26.780466000000001
#
# number of rings (size 3 to 8) (size 9 to 14) (size 15 to 20)
#    0.000    1.538    1.538    1.846    4.308    3.692 
#   19.385    0.769    0.000    0.000    0.000    0.000 
#    0.000    0.000    0.000    0.000    0.000    0.000 
#
# Total GULP energy -72655.668807 kJ/mol
# GULP energy per Si atom -5588.897601 kJ/mol
# Density = 2.671951 g / cm^3
# Si number density = 26.780466 Si / 1000 Ang^3
#
#
#
# Elastic Constant Matrix: (Units=GPa)
#
#
# Indices 1 2 3 4 5 6 
#
# 1 201.8367 31.3241 59.2210 0.0000 -5.7563 0.0000
# 2 31.3241 73.9273 32.5820 0.0000 3.0733 0.0000
# 3 59.2210 32.5820 151.2737 0.0000 12.1958 0.0000
# 4 0.0000 0.0000 0.0000 28.2225 0.0000 -0.9488
# 5 -5.7563 3.0733 12.1958 0.0000 62.2069 0.0000
# 6 0.0000 0.0000 0.0000 -0.9488 0.0000 -2.3097
#
#
#
# Elastic Compliance Matrix: (Units=1/GPa)
#
#
# Indices 1 2 3 4 5 6 
#
# 1 0.005826 -0.001624 -0.002013 0.000000 0.001014 0.000000
# 2 -0.001624 0.015399 -0.002649 0.000000 -0.000392 0.000000
# 3 -0.002013 -0.002649 0.008102 0.000000 -0.001644 0.000000
# 4 0.000000 0.000000 0.000000 0.034950 0.000000 -0.014357
# 5 0.001014 -0.000392 -0.001644 0.000000 0.016511 0.000000
# 6 0.000000 0.000000 0.000000 -0.014357 0.000000 -0.427067
#
#
# Mechanical properties :
#
#
# Convention : Reuss Voigt Hill
#
# Bulk Modulus (GPa) = 59.68499 74.81020 67.24759
# Shear Modulus (GPa) = -15.23816 37.88466 11.32325
#
# Velocity S-wave (km/s) = -2.38797 3.76525 2.05848
# Velocity P-wave (km/s) = 3.83822 6.84821 5.55113
#
# Compressibility (1/GPa) = 0.01675463
#
# Stress axis : x y z
#
# Youngs Moduli (GPa) = 171.64516 64.94048 123.43112
#
# Poissons Ratio (x) = 0.10544 0.24844
# Poissons Ratio (y) = 0.27868 0.32703
# Poissons Ratio (z) = 0.34549 0.17206
#
# Static dielectric constant tensor:
#      x y z
#    x 2.116000 0.000000 0.014010 
#    y 0.000000 2.064990 0.000000 
#    z 0.014010 0.000000 2.296650 
# 
# From -- ./inp_files/14807.got.cif
#   From: 2010.05.17/outbox.cif.g08.bks.cpg/sg3_8_cif.got.tgz:14807.got - 2010.06.03 18:33:08.
