data_PCOD9113671
_publ_section_title
;
Structure prediction by ZEFSAII (Michael W. Deem and Ramdas Pophale) SiO2 
 PCOD9113671
Probable space group: P 2
;
_chemical_formula_sum "Si O2"
_cell_formula_units_Z 11
_cell_length_a 10.581890
_cell_length_b 5.070326
_cell_length_c 14.996649
_cell_angle_alpha 90.000000
_cell_angle_beta 35.812125
_cell_angle_gamma 90.000000
_cell_volume 470.809480
_symmetry_space_group_name_H-M "P 2"
_symmetry_group_IT_number 3
_symmetry_cell_setting 'monoclinic'
loop_
_space_group_symop_operation_xyz
x,y,z
-x,y,-z
loop_
_atom_site_type_symbol
_atom_site_label
_atom_site_fract_x
_atom_site_fract_y
_atom_site_fract_z
Si Si1 0.048584 0.938690 0.746675
Si Si2 0.323003 0.724488 0.946753
Si Si3 0.972496 0.454735 0.678003
Si Si4 0.454724 0.219400 0.162032
Si Si5 0.500000 0.641757 0.500000
Si Si6 0.560084 0.461504 0.655713
O O1 0.289656 0.826272 0.614488
O O2 0.930843 0.738818 0.744974
O O3 0.041899 0.233254 0.711917
O O4 0.909063 0.864868 0.914231
O O5 0.361798 0.435572 0.967628
O O6 0.415160 0.665759 0.795172
O O7 0.480382 0.932150 0.904457
O O8 0.770167 0.333462 0.742508
O O9 0.183115 0.508398 0.496537
O O10 0.457407 0.213301 0.268675
O O11 0.483975 0.465453 0.597972
#
# Coordination Sequence:
#
# PCOD9113671 Si02
#       6
#     2   2   2   2   1   2
#     4  11  25  42  67 101 130 184 219 283 332 406
#     4  10  23  41  65 100 137 171 229 265 356 390
#     4  11  23  41  68  99 139 171 227 266 343 401
#     4  10  22  41  67  99 137 174 215 281 333 413
#     4  10  24  48  70  90 138 170 240 280 330 398
#     4   9  24  43  66  97 127 180 224 273 333 391
#
# _framework density 23.364017
#
# number of rings (size 3 to 8) (size 9 to 14) (size 15 to 20)
#    1.091    0.727    0.000    2.727    5.091    8.000 
#    3.273    0.000    4.000    0.000    0.000    0.000 
#    0.000    0.000    0.000    0.000    0.000    0.000 
#
# Total GULP energy -61303.991292 kJ/mol
# GULP energy per Si atom -5573.090117 kJ/mol
# Density = 2.331084 g / cm^3
# Si number density = 23.364017 Si / 1000 Ang^3
#
#
#
# Elastic Constant Matrix: (Units=GPa)
#
#
# Indices 1 2 3 4 5 6 
#
# 1 99.2515 18.0919 34.0780 0.0000 -1.9047 0.0000
# 2 18.0919 67.7649 9.4641 0.0000 16.1216 0.0000
# 3 34.0780 9.4641 138.4547 0.0000 9.8880 0.0000
# 4 0.0000 0.0000 0.0000 21.8954 0.0000 -7.1066
# 5 -1.9047 16.1216 9.8880 0.0000 31.7064 0.0000
# 6 0.0000 0.0000 0.0000 -7.1066 0.0000 21.7179
#
#
#
# Elastic Compliance Matrix: (Units=1/GPa)
#
#
# Indices 1 2 3 4 5 6 
#
# 1 0.011785 -0.003555 -0.002902 0.000000 0.003421 0.000000
# 2 -0.003555 0.017901 0.000324 0.000000 -0.009417 0.000000
# 3 -0.002902 0.000324 0.008120 0.000000 -0.002871 0.000000
# 4 0.000000 0.000000 0.000000 0.051099 0.000000 0.016721
# 5 0.003421 -0.009417 -0.002871 0.000000 0.037428 0.000000
# 6 0.000000 0.000000 0.000000 0.016721 0.000000 0.051516
#
#
# Mechanical properties :
#
#
# Convention : Reuss Voigt Hill
#
# Bulk Modulus (GPa) = 39.15433 47.63769 43.39601
# Shear Modulus (GPa) = 25.17251 31.31974 28.24612
#
# Velocity S-wave (km/s) = 3.28595 3.66527 3.48078
# Velocity P-wave (km/s) = 5.58492 6.19241 5.89649
#
# Compressibility (1/GPa) = 0.02553996
#
# Stress axis : x y z
#
# Youngs Moduli (GPa) = 84.85005 55.86272 123.15599
#
# Poissons Ratio (x) = 0.19859 0.35741
# Poissons Ratio (y) = 0.30164 -0.03988
# Poissons Ratio (z) = 0.24624 -0.01809
#
# Static dielectric constant tensor:
#      x y z
#    x 1.919390 0.000000 0.087920 
#    y 0.000000 1.828730 0.000000 
#    z 0.087920 0.000000 2.062020 
# 
# From -- ./inp_files/12289.got.cif
#   From: 2010.05.17/outbox.cif.g08.bks.cpg/sg3_7_cif.got.tgz:12289.got - 2010.06.03 18:33:08.
