data_PCOD9113717
_publ_section_title
;
Structure prediction by ZEFSAII (Michael W. Deem and Ramdas Pophale) SiO2 
 PCOD9113717
Probable space group: P 2
;
_chemical_formula_sum "Si O2"
_cell_formula_units_Z 14
_cell_length_a 5.431204
_cell_length_b 7.016944
_cell_length_c 16.949374
_cell_angle_alpha 90.000000
_cell_angle_beta 83.588546
_cell_angle_gamma 90.000000
_cell_volume 641.908334
_symmetry_space_group_name_H-M "P 2"
_symmetry_group_IT_number 3
_symmetry_cell_setting 'monoclinic'
loop_
_space_group_symop_operation_xyz
x,y,z
-x,y,-z
loop_
_atom_site_type_symbol
_atom_site_label
_atom_site_fract_x
_atom_site_fract_y
_atom_site_fract_z
Si Si1 0.106997 0.560090 0.344014
Si Si2 0.000000 0.782087 0.500000
Si Si3 0.500000 0.023457 0.500000
Si Si4 0.016821 0.556543 0.910734
Si Si5 0.785936 0.940023 0.752767
Si Si6 0.870634 0.269793 0.229246
Si Si7 0.483313 0.803252 0.091209
Si Si8 0.442443 0.234357 0.348789
O O1 0.172929 0.726344 0.279814
O O2 0.330642 0.438838 0.373038
O O3 0.972282 0.656404 0.422029
O O4 0.974238 0.395897 0.298531
O O5 0.745857 0.903517 0.512040
O O6 0.572037 0.151899 0.421622
O O7 0.060710 0.384694 0.850133
O O8 0.256419 0.697288 0.899794
O O9 0.756460 0.662373 0.903343
O O10 0.000000 0.482541 0.000000
O O11 0.590249 0.935503 0.832006
O O12 0.723570 0.059201 0.676218
O O13 0.023311 0.056563 0.775381
O O14 0.586516 0.268920 0.261985
O O15 0.500000 0.882479 0.000000
#
# Coordination Sequence:
#
# PCOD9113717 Si02
#       8
#     2   1   1   2   2   2   2   2
#     4  11  25  45  72  97 138 181 232 272 349 403
#     4  12  28  46  74 104 136 188 224 288 340 404
#     4  12  28  48  70 104 146 172 234 284 342 404
#     4  10  22  43  69 101 139 181 227 280 341 406
#     4  11  23  46  67 102 136 179 231 280 338 410
#     4  11  25  42  71 101 135 184 225 286 338 408
#     4  10  22  42  71 100 137 184 228 279 339 407
#     4  11  27  43  70 101 138 181 226 287 338 408
#
# _framework density 21.809968999999999
#
# number of rings (size 3 to 8) (size 9 to 14) (size 15 to 20)
#    0.000    1.143    2.857    1.714   10.000    2.286 
#    2.571    0.000    0.000    0.000    0.000    0.000 
#    0.000    0.000    0.000    0.000    0.000    0.000 
#
# Total GULP energy -78061.952376 kJ/mol
# GULP energy per Si atom -5575.853741 kJ/mol
# Density = 2.176033 g / cm^3
# Si number density = 21.809969 Si / 1000 Ang^3
#
#
#
# Elastic Constant Matrix: (Units=GPa)
#
#
# Indices 1 2 3 4 5 6 
#
# 1 62.2820 17.8546 5.7515 0.0000 -8.6237 0.0000
# 2 17.8546 94.8302 37.9464 0.0000 -2.0624 0.0000
# 3 5.7515 37.9464 145.7149 0.0000 -9.3048 0.0000
# 4 0.0000 0.0000 0.0000 32.7397 0.0000 -13.8019
# 5 -8.6237 -2.0624 -9.3048 0.0000 31.0930 0.0000
# 6 0.0000 0.0000 0.0000 -13.8019 0.0000 21.1100
#
#
#
# Elastic Compliance Matrix: (Units=1/GPa)
#
#
# Indices 1 2 3 4 5 6 
#
# 1 0.017658 -0.003420 0.000502 0.000000 0.004821 0.000000
# 2 -0.003420 0.012435 -0.003172 0.000000 -0.001073 0.000000
# 3 0.000502 -0.003172 0.007814 0.000000 0.002267 0.000000
# 4 0.000000 0.000000 0.000000 0.042166 0.000000 0.027568
# 5 0.004821 -0.001073 0.002267 0.000000 0.034106 0.000000
# 6 0.000000 0.000000 0.000000 0.027568 0.000000 0.065395
#
#
# Mechanical properties :
#
#
# Convention : Reuss Voigt Hill
#
# Bulk Modulus (GPa) = 38.87252 47.32578 43.09915
# Shear Modulus (GPa) = 24.95883 33.07351 29.01617
#
# Velocity S-wave (km/s) = 3.38653 3.89837 3.65143
# Velocity P-wave (km/s) = 5.75790 6.48146 6.13037
#
# Compressibility (1/GPa) = 0.02572511
#
# Stress axis : x y z
#
# Youngs Moduli (GPa) = 56.63248 80.41809 127.98104
#
# Poissons Ratio (x) = 0.27507 -0.06420
# Poissons Ratio (y) = 0.19371 0.40593
# Poissons Ratio (z) = -0.02841 0.25507
#
# Static dielectric constant tensor:
#      x y z
#    x 2.036740 0.000000 0.033970 
#    y 0.000000 1.782300 0.000000 
#    z 0.033970 0.000000 1.779180 
# 
# From -- ./inp_files/3467.got.cif
#   From: 2010.05.17/outbox.cif.g08.bks.cpg/sg3_2_cif.got.tgz:3467.got - 2010.06.03 18:33:08.
