data_PCOD9113181
_publ_section_title
;
Structure prediction by ZEFSAII (Michael W. Deem and Ramdas Pophale) SiO2 
 PCOD9113181
Probable space group: P 2
;
_chemical_formula_sum "Si O2"
_cell_formula_units_Z 12
_cell_length_a 20.873864
_cell_length_b 5.125491
_cell_length_c 5.223004
_cell_angle_alpha 90.000000
_cell_angle_beta 52.634542
_cell_angle_gamma 90.000000
_cell_volume 444.125762
_symmetry_space_group_name_H-M "P 2"
_symmetry_group_IT_number 3
_symmetry_cell_setting 'monoclinic'
loop_
_space_group_symop_operation_xyz
x,y,z
-x,y,-z
loop_
_atom_site_type_symbol
_atom_site_label
_atom_site_fract_x
_atom_site_fract_y
_atom_site_fract_z
Si Si1 0.227256 0.200590 0.236388
Si Si2 0.946644 0.873166 0.888729
Si Si3 0.091617 0.372806 0.192640
Si Si4 0.388983 0.060130 0.720556
Si Si5 0.428951 0.568106 0.365080
Si Si6 0.704633 0.730594 0.675414
O O1 0.146123 0.258489 0.282473
O O2 0.260944 0.476004 0.260345
O O3 0.230911 0.964133 0.433320
O O4 0.294436 0.093074 0.869644
O O5 0.881775 0.653119 0.974684
O O6 0.000000 0.916117 0.500000
O O7 0.913560 0.161040 0.017351
O O8 0.000000 0.786568 0.000000
O O9 0.000000 0.424292 0.500000
O O10 0.441412 0.861980 0.430759
O O11 0.421071 0.350985 0.606282
O O12 0.371699 0.899676 0.022209
O O13 0.339642 0.597293 0.457083
O O14 0.500000 0.489280 0.000000
#
# Coordination Sequence:
#
# PCOD9113181 Si02
#       6
#     2   2   2   2   2   2
#     4  10  20  43  64  88 136 177 223 274 338 417
#     4  10  21  39  61  91 135 167 219 288 351 409
#     4  10  21  39  66  95 131 168 230 284 336 403
#     4  10  22  43  60  92 134 168 221 267 340 404
#     4  12  24  42  66 101 132 169 229 279 337 415
#     4  10  22  42  65  91 131 178 221 267 348 405
#
# _framework density 27.019378
#
# number of rings (size 3 to 8) (size 9 to 14) (size 15 to 20)
#    1.000    0.667    1.667    3.000    0.000    0.667 
#    3.000   20.000    0.000    0.000    0.000    0.000 
#    0.000    0.000    0.000    0.000    0.000    0.000 
#
# Total GULP energy -66907.022756 kJ/mol
# GULP energy per Si atom -5575.585230 kJ/mol
# Density = 2.695788 g / cm^3
# Si number density = 27.019378 Si / 1000 Ang^3
#
#
#
# Elastic Constant Matrix: (Units=GPa)
#
#
# Indices 1 2 3 4 5 6 
#
# 1 166.4466 32.4165 1.8400 0.0000 5.5013 0.0000
# 2 32.4165 222.6081 21.8409 0.0000 2.7716 0.0000
# 3 1.8400 21.8409 82.5460 0.0000 -9.9114 0.0000
# 4 0.0000 0.0000 0.0000 -208.1306 0.0000 -87.5153
# 5 5.5013 2.7716 -9.9114 0.0000 37.5889 0.0000
# 6 0.0000 0.0000 0.0000 -87.5153 0.0000 -36.7717
#
#
#
# Elastic Compliance Matrix: (Units=1/GPa)
#
#
# Indices 1 2 3 4 5 6 
#
# 1 0.006210 -0.000893 -0.000003 0.000000 -0.000844 0.000000
# 2 -0.000893 0.004758 -0.001307 0.000000 -0.000565 0.000000
# 3 -0.000003 -0.001307 0.012880 0.000000 0.003493 0.000000
# 4 0.000000 0.000000 0.000000 6.553392 0.000000-15.596825
# 5 -0.000844 -0.000565 0.003493 0.000000 0.027690 0.000000
# 6 0.000000 0.000000 0.000000-15.596825 0.000000 37.092659
#
#
# Mechanical properties :
#
#
# Convention : Reuss Voigt Hill
#
# Bulk Modulus (GPa) = 51.44000 64.86615 58.15308
# Shear Modulus (GPa) = 0.11439 -13.76247 -6.82404
#
# Velocity S-wave (km/s) = 0.20598 -2.25934 -1.59094
# Velocity P-wave (km/s) = 4.37448 4.15370 4.26552
#
# Compressibility (1/GPa) = 0.01944013
#
# Stress axis : x y z
#
# Youngs Moduli (GPa) = 161.03410 210.19274 77.64179
#
# Poissons Ratio (x) = 0.18780 0.00026
# Poissons Ratio (y) = 0.14388 0.10145
# Poissons Ratio (z) = 0.00054 0.27465
#
# Static dielectric constant tensor:
#      x y z
#    x 2.304040 0.000000 -0.367420 
#    y 0.000000 2.135720 0.000000 
#    z -0.367420 0.000000 2.918970 
# 
# From -- ./inp_files/3786.got.cif
#   From: 2010.05.17/outbox.cif.g08.bks.cpg/sg3_2_cif.got.tgz:3786.got - 2010.06.03 18:33:08.
