data_PCOD9113006
_publ_section_title
;
Structure prediction by ZEFSAII (Michael W. Deem and Ramdas Pophale) SiO2 
 PCOD9113006
Probable space group: P 2
;
_chemical_formula_sum "Si O2"
_cell_formula_units_Z 12
_cell_length_a 8.465467
_cell_length_b 9.014653
_cell_length_c 7.863562
_cell_angle_alpha 90.000000
_cell_angle_beta 57.691841
_cell_angle_gamma 90.000000
_cell_volume 507.190847
_symmetry_space_group_name_H-M "P 2"
_symmetry_group_IT_number 3
_symmetry_cell_setting 'monoclinic'
loop_
_space_group_symop_operation_xyz
x,y,z
-x,y,-z
loop_
_atom_site_type_symbol
_atom_site_label
_atom_site_fract_x
_atom_site_fract_y
_atom_site_fract_z
Si Si1 0.070559 0.883510 0.731297
Si Si2 0.202791 0.445332 0.923922
Si Si3 0.701412 0.150599 0.296269
Si Si4 0.705117 0.195863 0.913684
Si Si5 0.723702 0.891780 0.735910
Si Si6 0.606536 0.737001 0.254308
O O1 0.169347 0.849652 0.496590
O O2 0.195173 0.807359 0.802940
O O3 0.857151 0.840908 0.814241
O O4 0.123361 0.058784 0.729827
O O5 0.262107 0.326258 0.742921
O O6 0.352990 0.574337 0.842280
O O7 0.179028 0.341806 0.105685
O O8 0.000000 0.507221 0.000000
O O9 0.500000 0.117322 0.500000
O O10 0.695200 0.110555 0.100136
O O11 0.733867 0.071039 0.755608
O O12 0.500000 0.258962 0.000000
O O13 0.520021 0.828853 0.806886
O O14 0.500000 0.728449 0.500000
#
# Coordination Sequence:
#
# PCOD9113006 Si02
#       6
#     2   2   2   2   2   2
#     4  10  20  38  69  95 128 168 225 270 327 390
#     4  10  23  41  62  95 133 176 219 269 328 394
#     4  10  20  37  68  97 127 177 222 270 332 392
#     4  10  21  38  62  95 132 164 221 273 324 383
#     4  10  21  39  65 100 130 168 220 282 322 388
#     4  10  21  43  67  95 133 178 220 263 333 399
#
# _framework density 23.659735000000001
#
# number of rings (size 3 to 8) (size 9 to 14) (size 15 to 20)
#    1.000    1.000    0.000    5.000    0.000    0.000 
#    9.000    0.000    0.000    2.000    0.000    0.000 
#    0.000    0.000    0.000    0.000    0.000    0.000 
#
# Total GULP energy -66826.525868 kJ/mol
# GULP energy per Si atom -5568.877156 kJ/mol
# Density = 2.360588 g / cm^3
# Si number density = 23.659735 Si / 1000 Ang^3
#
#
#
# Elastic Constant Matrix: (Units=GPa)
#
#
# Indices 1 2 3 4 5 6 
#
# 1 205.4982 69.3570 43.6824 0.0000 7.5352 0.0000
# 2 69.3570 131.0545 9.6959 0.0000 3.8589 0.0000
# 3 43.6824 9.6959 83.2719 0.0000 13.5405 0.0000
# 4 0.0000 0.0000 0.0000 22.0719 0.0000 -5.0967
# 5 7.5352 3.8589 13.5405 0.0000 36.7820 0.0000
# 6 0.0000 0.0000 0.0000 -5.0967 0.0000 30.9356
#
#
#
# Elastic Compliance Matrix: (Units=1/GPa)
#
#
# Indices 1 2 3 4 5 6 
#
# 1 0.006632 -0.003283 -0.003119 0.000000 0.000134 0.000000
# 2 -0.003283 0.009331 0.000729 0.000000 -0.000575 0.000000
# 3 -0.003119 0.000729 0.014326 0.000000 -0.004711 0.000000
# 4 0.000000 0.000000 0.000000 0.047098 0.000000 0.007759
# 5 0.000134 -0.000575 -0.004711 0.000000 0.028955 0.000000
# 6 0.000000 0.000000 0.000000 0.007759 0.000000 0.033604
#
#
# Mechanical properties :
#
#
# Convention : Reuss Voigt Hill
#
# Bulk Modulus (GPa) = 52.78663 73.92166 63.35414
# Shear Modulus (GPa) = 31.72483 37.76388 34.74435
#
# Velocity S-wave (km/s) = 3.66577 3.99949 3.83626
# Velocity P-wave (km/s) = 6.34637 7.25530 6.81600
#
# Compressibility (1/GPa) = 0.01894419
#
# Stress axis : x y z
#
# Youngs Moduli (GPa) = 150.77642 107.17055 69.80316
#
# Poissons Ratio (x) = 0.35186 0.21769
# Poissons Ratio (y) = 0.49503 -0.05091
# Poissons Ratio (z) = 0.47022 -0.07816
#
# Static dielectric constant tensor:
#      x y z
#    x 1.968250 0.000000 -0.055830 
#    y 0.000000 1.917700 0.000000 
#    z -0.055830 0.000000 1.977930 
# 
# From -- ./inp_files/5072.got.cif
#   From: 2010.05.17/outbox.cif.g08.bks.cpg/sg3_3_cif.got.tgz:5072.got - 2010.06.03 18:33:08.
