data_PCOD9113287
_publ_section_title
;
Structure prediction by ZEFSAII (Michael W. Deem and Ramdas Pophale) SiO2 
 PCOD9113287
Probable space group: P 2
;
_chemical_formula_sum "Si O2"
_cell_formula_units_Z 11
_cell_length_a 4.971402
_cell_length_b 9.105119
_cell_length_c 11.552108
_cell_angle_alpha 90.000000
_cell_angle_beta 89.843552
_cell_angle_gamma 90.000000
_cell_volume 522.906608
_symmetry_space_group_name_H-M "P 2"
_symmetry_group_IT_number 3
_symmetry_cell_setting 'monoclinic'
loop_
_space_group_symop_operation_xyz
x,y,z
-x,y,-z
loop_
_atom_site_type_symbol
_atom_site_label
_atom_site_fract_x
_atom_site_fract_y
_atom_site_fract_z
Si Si1 0.934015 0.827320 0.376475
Si Si2 0.687309 0.200257 0.840102
Si Si3 0.151887 0.726944 0.875055
Si Si4 0.829076 0.386516 0.118851
Si Si5 0.570647 0.026326 0.619346
Si Si6 0.500000 0.958208 0.000000
O O1 0.987305 0.763034 0.248020
O O2 0.628903 0.885914 0.376399
O O3 0.000000 0.746667 0.500000
O O4 0.127998 0.967049 0.383071
O O5 0.458916 0.311838 0.881822
O O6 0.961399 0.285792 0.808471
O O7 0.552451 0.126098 0.729671
O O8 0.708630 0.068654 0.935284
O O9 0.228421 0.557097 0.856631
O O10 0.376113 0.850644 0.902690
O O11 0.000000 0.730136 0.000000
O O12 0.000000 0.383178 0.000000
O O13 0.500000 0.105292 0.500000
#
# Coordination Sequence:
#
# PCOD9113287 Si02
#       6
#     2   2   2   2   2   1
#     4  10  21  40  64  93 127 164 211 269 319 370
#     4  12  23  41  63  94 125 167 212 263 317 388
#     4  11  26  40  64  98 129 171 214 272 317 389
#     4  11  25  41  59  89 138 167 197 258 343 374
#     4  10  21  38  63  92 124 161 213 270 315 365
#     4  12  24  36  72  92 124 158 232 262 308 378
#
# _framework density 21.036261
#
# number of rings (size 3 to 8) (size 9 to 14) (size 15 to 20)
#    0.000    1.091    3.636    2.182    7.636    0.000 
#    0.000    1.818    0.000    0.000    0.000    0.000 
#    0.000    0.000    0.000    0.000    0.000    0.000 
#
# Total GULP energy -61267.508742 kJ/mol
# GULP energy per Si atom -5569.773522 kJ/mol
# Density = 2.098838 g / cm^3
# Si number density = 21.036261 Si / 1000 Ang^3
#
#
#
# Elastic Constant Matrix: (Units=GPa)
#
#
# Indices 1 2 3 4 5 6 
#
# 1 86.3282 38.1021 9.0114 0.0000 1.5839 0.0000
# 2 38.1021 119.0559 40.6087 0.0000 12.8677 0.0000
# 3 9.0114 40.6087 161.1254 0.0000 23.2904 0.0000
# 4 0.0000 0.0000 0.0000 8.0591 0.0000 -0.4787
# 5 1.5839 12.8677 23.2904 0.0000 29.6209 0.0000
# 6 0.0000 0.0000 0.0000 -0.4787 0.0000 14.9799
#
#
#
# Elastic Compliance Matrix: (Units=1/GPa)
#
#
# Indices 1 2 3 4 5 6 
#
# 1 0.013538 -0.004526 0.000230 0.000000 0.001061 0.000000
# 2 -0.004526 0.010863 -0.002073 0.000000 -0.002847 0.000000
# 3 0.000230 -0.002073 0.007432 0.000000 -0.004956 0.000000
# 4 0.000000 0.000000 0.000000 0.124319 0.000000 0.003973
# 5 0.001061 -0.002847 -0.004956 0.000000 0.038836 0.000000
# 6 0.000000 0.000000 0.000000 0.003973 0.000000 0.066883
#
#
# Mechanical properties :
#
#
# Convention : Reuss Voigt Hill
#
# Bulk Modulus (GPa) = 52.36940 60.21711 56.29326
# Shear Modulus (GPa) = 17.79526 29.11781 23.45654
#
# Velocity S-wave (km/s) = 2.91165 3.72448 3.34286
# Velocity P-wave (km/s) = 6.02100 6.86901 6.45894
#
# Compressibility (1/GPa) = 0.01909512
#
# Stress axis : x y z
#
# Youngs Moduli (GPa) = 73.86783 92.05896 134.54806
#
# Poissons Ratio (x) = 0.41663 -0.03096
# Poissons Ratio (y) = 0.33431 0.27893
# Poissons Ratio (z) = -0.01700 0.19085
#
# Static dielectric constant tensor:
#      x y z
#    x 1.789670 0.000000 0.001540 
#    y 0.000000 1.748250 0.000000 
#    z 0.001540 0.000000 1.881700 
# 
# From -- ./inp_files/1979.got.cif
#   From: 2010.05.17/outbox.cif.g08.bks.cpg/sg3_1_cif.got.tgz:1979.got - 2010.06.03 18:33:08.
