data_PCOD9113579
_publ_section_title
;
Structure prediction by ZEFSAII (Michael W. Deem and Ramdas Pophale) SiO2 
 PCOD9113579
Probable space group: P 2
;
_chemical_formula_sum "Si O2"
_cell_formula_units_Z 10
_cell_length_a 5.136648
_cell_length_b 5.350048
_cell_length_c 18.863522
_cell_angle_alpha 90.000000
_cell_angle_beta 127.438424
_cell_angle_gamma 90.000000
_cell_volume 411.608812
_symmetry_space_group_name_H-M "P 2"
_symmetry_group_IT_number 3
_symmetry_cell_setting 'monoclinic'
loop_
_space_group_symop_operation_xyz
x,y,z
-x,y,-z
loop_
_atom_site_type_symbol
_atom_site_label
_atom_site_fract_x
_atom_site_fract_y
_atom_site_fract_z
Si Si1 0.307562 0.909220 0.103638
Si Si2 0.962186 0.538593 0.650763
Si Si3 0.395820 0.405280 0.062913
Si Si4 0.025075 0.035634 0.586809
Si Si5 0.633140 0.753987 0.735082
O O1 0.510876 0.674627 0.108180
O O2 0.198793 0.849839 0.165328
O O3 0.495799 0.170605 0.127497
O O4 0.000000 0.935565 0.000000
O O5 0.356503 0.558544 0.715242
O O6 0.880980 0.264777 0.608312
O O7 0.825852 0.623891 0.703782
O O8 0.868540 0.767056 0.581820
O O9 0.500000 0.357561 0.000000
O O10 0.000000 0.427311 0.000000
O O11 0.000000 0.090614 0.500000
O O12 0.407515 0.981375 0.668669
#
# Coordination Sequence:
#
# PCOD9113579 Si02
#       5
#     2   2   2   2   2
#     4  10  23  42  66  95 131 176 220 272 327 396
#     4  10  25  42  69 100 138 176 225 280 343 403
#     4  10  22  39  60  90 121 165 219 263 318 381
#     4  10  24  47  69 103 135 181 223 285 342 418
#     4  10  26  44  67 102 138 177 227 281 339 404
#
# _framework density 24.294913000000001
#
# number of rings (size 3 to 8) (size 9 to 14) (size 15 to 20)
#    1.200    0.800    0.000    1.200    5.600    7.200 
#    0.000    0.000    0.000    0.000    0.000    0.000 
#    0.000    0.000    0.000    0.000    0.000    0.000 
#
# Total GULP energy -55835.495880 kJ/mol
# GULP energy per Si atom -5583.549588 kJ/mol
# Density = 2.423962 g / cm^3
# Si number density = 24.294913 Si / 1000 Ang^3
#
#
#
# Elastic Constant Matrix: (Units=GPa)
#
#
# Indices 1 2 3 4 5 6 
#
# 1 123.0791 25.0311 44.3622 0.0000 -38.2198 0.0000
# 2 25.0311 204.5912 29.8540 0.0000 -19.0453 0.0000
# 3 44.3622 29.8540 148.3679 0.0000 -24.7833 0.0000
# 4 0.0000 0.0000 0.0000 19.2835 0.0000 -16.4884
# 5 -38.2198 -19.0453 -24.7833 0.0000 43.0199 0.0000
# 6 0.0000 0.0000 0.0000 -16.4884 0.0000 16.9999
#
#
#
# Elastic Compliance Matrix: (Units=1/GPa)
#
#
# Indices 1 2 3 4 5 6 
#
# 1 0.011727 -0.000301 -0.001912 0.000000 0.009184 0.000000
# 2 -0.000301 0.005176 -0.000679 0.000000 0.001633 0.000000
# 3 -0.001912 -0.000679 0.007872 0.000000 0.002536 0.000000
# 4 0.000000 0.000000 0.000000 0.303846 0.000000 0.294705
# 5 0.009184 0.001633 0.002536 0.000000 0.033588 0.000000
# 6 0.000000 0.000000 0.000000 0.294705 0.000000 0.344662
#
#
# Mechanical properties :
#
#
# Convention : Reuss Voigt Hill
#
# Bulk Modulus (GPa) = 52.65423 74.94808 63.80115
# Shear Modulus (GPa) = 6.95425 40.98005 23.96715
#
# Velocity S-wave (km/s) = 1.69371 4.11149 3.14428
# Velocity P-wave (km/s) = 5.05419 7.31132 6.28491
#
# Compressibility (1/GPa) = 0.01899183
#
# Stress axis : x y z
#
# Youngs Moduli (GPa) = 85.27315 193.21218 127.03598
#
# Poissons Ratio (x) = 0.05813 0.24286
# Poissons Ratio (y) = 0.02566 0.08622
# Poissons Ratio (z) = 0.16302 0.13113
#
# Static dielectric constant tensor:
#      x y z
#    x 1.932500 0.000000 0.067820 
#    y 0.000000 2.017760 0.000000 
#    z 0.067820 0.000000 1.935870 
# 
# From -- ./inp_files/2862.got.cif
#   From: 2010.05.17/outbox.cif.g08.bks.cpg/sg3_2_cif.got.tgz:2862.got - 2010.06.03 18:33:08.
