data_PCOD9113079
_publ_section_title
;
Structure prediction by ZEFSAII (Michael W. Deem and Ramdas Pophale) SiO2 
 PCOD9113079
Probable space group: P 2
;
_chemical_formula_sum "Si O2"
_cell_formula_units_Z 16
_cell_length_a 9.366149
_cell_length_b 10.700174
_cell_length_c 9.109500
_cell_angle_alpha 90.000000
_cell_angle_beta 130.248611
_cell_angle_gamma 90.000000
_cell_volume 696.806500
_symmetry_space_group_name_H-M "P 2"
_symmetry_group_IT_number 3
_symmetry_cell_setting 'monoclinic'
loop_
_space_group_symop_operation_xyz
x,y,z
-x,y,-z
loop_
_atom_site_type_symbol
_atom_site_label
_atom_site_fract_x
_atom_site_fract_y
_atom_site_fract_z
Si Si1 0.450864 0.542780 0.811617
Si Si2 0.349151 0.392216 0.280599
Si Si3 0.378512 0.747859 0.556415
Si Si4 0.051885 0.211841 0.202483
Si Si5 0.186925 0.308572 0.698560
Si Si6 0.494769 0.175955 0.819199
Si Si7 0.951244 0.923357 0.792121
Si Si8 0.626360 0.906488 0.941434
O O1 0.632846 0.497911 0.835950
O O2 0.327209 0.631214 0.625725
O O3 0.334907 0.420147 0.783605
O O4 0.500000 0.605301 0.000000
O O5 0.500000 0.430125 0.500000
O O6 0.182259 0.335686 0.269342
O O7 0.418519 0.271387 0.237081
O O8 0.500000 0.704218 0.500000
O O9 0.208091 0.833081 0.382136
O O10 0.532677 0.819947 0.757671
O O11 0.879455 0.255278 0.189577
O O12 0.105070 0.068162 0.278092
O O13 0.000000 0.192995 0.000000
O O14 0.271152 0.195385 0.655698
O O15 0.000000 0.355676 0.500000
O O16 0.593048 0.045934 0.858064
O O17 0.500000 0.200567 0.000000
O O18 0.000000 0.907850 0.000000
O O19 0.158537 0.892739 0.868993
O O20 0.500000 0.898965 0.000000
#
# Coordination Sequence:
#
# PCOD9113079 Si02
#       8
#     2   2   2   2   2   2   2   2
#     4  11  25  51  72  96 141 198 252 309 364 440
#     4  11  22  36  69 103 142 182 235 293 372 437
#     4  12  27  47  79 102 145 200 259 304 369 428
#     4  11  21  37  67 110 144 178 226 294 376 444
#     4  11  23  40  66 106 145 184 235 302 367 439
#     4  10  20  39  63  96 146 191 228 286 370 441
#     4  11  24  45  73 114 155 190 243 307 375 450
#     4  11  24  45  70 109 147 197 243 305 367 441
#
# _framework density 22.961898000000001
#
# number of rings (size 3 to 8) (size 9 to 14) (size 15 to 20)
#    0.000    1.000    1.250    8.250    3.500    0.500 
#    4.500    0.000    5.500    0.000    0.000    0.000 
#    0.000    0.000    0.000    0.000    0.000    0.000 
#
# Total GULP energy -89167.169676 kJ/mol
# GULP energy per Si atom -5572.948105 kJ/mol
# Density = 2.290964 g / cm^3
# Si number density = 22.961898 Si / 1000 Ang^3
#
#
#
# Elastic Constant Matrix: (Units=GPa)
#
#
# Indices 1 2 3 4 5 6 
#
# 1 127.1814 29.0020 28.6503 0.0000 3.6296 0.0000
# 2 29.0020 114.7142 50.5753 0.0000 -1.3381 0.0000
# 3 28.6503 50.5753 87.9797 0.0000 -7.3081 0.0000
# 4 0.0000 0.0000 0.0000 35.8538 0.0000 -5.1234
# 5 3.6296 -1.3381 -7.3081 0.0000 44.7919 0.0000
# 6 0.0000 0.0000 0.0000 -5.1234 0.0000 8.1008
#
#
#
# Elastic Compliance Matrix: (Units=1/GPa)
#
#
# Indices 1 2 3 4 5 6 
#
# 1 0.008672 -0.001232 -0.002207 0.000000 -0.001100 0.000000
# 2 -0.001232 0.011877 -0.006476 0.000000 -0.000602 0.000000
# 3 -0.002207 -0.006476 0.016024 0.000000 0.002600 0.000000
# 4 0.000000 0.000000 0.000000 0.030662 0.000000 0.019392
# 5 -0.001100 -0.000602 0.002600 0.000000 0.022821 0.000000
# 6 0.000000 0.000000 0.000000 0.019392 0.000000 0.135710
#
#
# Mechanical properties :
#
#
# Convention : Reuss Voigt Hill
#
# Bulk Modulus (GPa) = 59.73011 60.70339 60.21675
# Shear Modulus (GPa) = 19.90620 32.52581 26.21600
#
# Velocity S-wave (km/s) = 2.94755 3.76774 3.38260
# Velocity P-wave (km/s) = 6.13622 6.73957 6.44496
#
# Compressibility (1/GPa) = 0.01674198
#
# Stress axis : x y z
#
# Youngs Moduli (GPa) = 115.30878 84.19543 62.40702
#
# Poissons Ratio (x) = 0.10376 0.13774
# Poissons Ratio (y) = 0.14210 0.40417
# Poissons Ratio (z) = 0.25449 0.54527
#
# Static dielectric constant tensor:
#      x y z
#    x 1.974150 0.000000 0.008880 
#    y 0.000000 1.920640 0.000000 
#    z 0.008880 0.000000 2.038210 
# 
# From -- ./inp_files/6042.got.cif
#   From: 2010.05.17/outbox.cif.g08.bks.cpg/sg3_4_cif.got.tgz:6042.got - 2010.06.03 18:33:08.
