data_PCOD9113221
_publ_section_title
;
Structure prediction by ZEFSAII (Michael W. Deem and Ramdas Pophale) SiO2 
 PCOD9113221
Probable space group: P 2
;
_chemical_formula_sum "Si O2"
_cell_formula_units_Z 14
_cell_length_a 8.707035
_cell_length_b 17.066789
_cell_length_c 7.417499
_cell_angle_alpha 90.000000
_cell_angle_beta 144.124712
_cell_angle_gamma 90.000000
_cell_volume 645.943025
_symmetry_space_group_name_H-M "P 2"
_symmetry_group_IT_number 3
_symmetry_cell_setting 'monoclinic'
loop_
_space_group_symop_operation_xyz
x,y,z
-x,y,-z
loop_
_atom_site_type_symbol
_atom_site_label
_atom_site_fract_x
_atom_site_fract_y
_atom_site_fract_z
Si Si1 0.614919 0.043780 0.910516
Si Si2 0.549896 0.868585 0.828879
Si Si3 0.947148 0.782541 0.667366
Si Si4 0.238397 0.302524 0.363511
Si Si5 0.880657 0.136379 0.685349
Si Si6 0.266205 0.452716 0.637325
Si Si7 0.262837 0.626035 0.632905
O O1 0.392916 0.090908 0.590313
O O2 0.645599 0.955177 0.869991
O O3 0.500000 0.036465 0.000000
O O4 0.887784 0.089034 0.189273
O O5 0.266190 0.847272 0.482944
O O6 0.500000 0.865514 0.000000
O O7 0.769831 0.804647 0.987297
O O8 0.808367 0.698588 0.563595
O O9 0.000000 0.785604 0.500000
O O10 0.500000 0.283097 0.500000
O O11 0.169287 0.226287 0.417962
O O12 0.276190 0.381783 0.508813
O O13 0.000000 0.314882 0.000000
O O14 0.000000 0.140790 0.000000
O O15 0.302558 0.539885 0.587664
O O16 0.000000 0.448699 0.500000
O O17 0.500000 0.443838 0.000000
O O18 0.000000 0.617176 0.500000
O O19 0.500000 0.643812 0.000000
#
# Coordination Sequence:
#
# PCOD9113221 Si02
#       7
#     2   2   2   2   2   2   2
#     4  11  22  37  57  85 114 141 182 237 284 322
#     4   9  17  27  44  72 106 137 172 217 266 314
#     4   9  14  24  42  68 105 144 170 205 263 318
#     4  11  23  41  60  81 110 147 189 226 271 338
#     4  11  23  40  58  79 109 148 188 227 275 338
#     4  10  21  36  57  87 117 142 179 232 281 323
#     4   9  16  27  45  74 109 141 174 216 266 319
#
# _framework density 21.673736999999999
#
# number of rings (size 3 to 8) (size 9 to 14) (size 15 to 20)
#    0.000    2.000    0.000    6.429    0.000    4.000 
#    0.000    0.000    0.000    0.000    0.000   10.000 
#    0.000    0.000    0.000    0.000    0.000    0.000 
#
# Total GULP energy -78142.003068 kJ/mol
# GULP energy per Si atom -5581.571648 kJ/mol
# Density = 2.162441 g / cm^3
# Si number density = 21.673737 Si / 1000 Ang^3
#
#
#
# Elastic Constant Matrix: (Units=GPa)
#
#
# Indices 1 2 3 4 5 6 
#
# 1 27.3775 26.0314 19.0146 0.0000 12.3903 0.0000
# 2 26.0314 189.7031 51.6234 0.0000 12.8493 0.0000
# 3 19.0146 51.6234 133.0077 0.0000 30.8753 0.0000
# 4 0.0000 0.0000 0.0000 34.0653 0.0000 11.3938
# 5 12.3903 12.8493 30.8753 0.0000 30.5219 0.0000
# 6 0.0000 0.0000 0.0000 11.3938 0.0000 22.0428
#
#
#
# Elastic Compliance Matrix: (Units=1/GPa)
#
#
# Indices 1 2 3 4 5 6 
#
# 1 0.050128 -0.005424 -0.001133 0.000000 -0.016919 0.000000
# 2 -0.005424 0.006482 -0.002115 0.000000 0.001612 0.000000
# 3 -0.001133 -0.002115 0.010700 0.000000 -0.009474 0.000000
# 4 0.000000 0.000000 0.000000 0.035491 0.000000 -0.018345
# 5 -0.016919 0.001612 -0.009474 0.000000 0.048537 0.000000
# 6 0.000000 0.000000 0.000000 -0.018345 0.000000 0.054849
#
#
# Mechanical properties :
#
#
# Convention : Reuss Voigt Hill
#
# Bulk Modulus (GPa) = 20.01361 60.38078 40.19719
# Shear Modulus (GPa) = 20.81707 34.22058 27.51883
#
# Velocity S-wave (km/s) = 3.10251 3.97784 3.56713
# Velocity P-wave (km/s) = 4.69981 7.00122 5.96260
#
# Compressibility (1/GPa) = 0.04996600
#
# Stress axis : x y z
#
# Youngs Moduli (GPa) = 19.94878 154.27429 93.45519
#
# Poissons Ratio (x) = 0.83682 0.10593
# Poissons Ratio (y) = 0.10821 0.19762
# Poissons Ratio (z) = 0.02261 0.32623
#
# Static dielectric constant tensor:
#      x y z
#    x 1.805510 0.000000 -0.014550 
#    y 0.000000 1.849430 0.000000 
#    z -0.014550 0.000000 1.743700 
# 
# From -- ./inp_files/6251.got.cif
#   From: 2010.05.17/outbox.cif.g08.bks.cpg/sg3_4_cif.got.tgz:6251.got - 2010.06.03 18:33:08.
