data_PCOD9113166
_publ_section_title
;
Structure prediction by ZEFSAII (Michael W. Deem and Ramdas Pophale) SiO2 
 PCOD9113166
Probable space group: P 2
;
_chemical_formula_sum "Si O2"
_cell_formula_units_Z 13
_cell_length_a 5.365304
_cell_length_b 18.178388
_cell_length_c 5.249416
_cell_angle_alpha 90.000000
_cell_angle_beta 92.318644
_cell_angle_gamma 90.000000
_cell_volume 511.569901
_symmetry_space_group_name_H-M "P 2"
_symmetry_group_IT_number 3
_symmetry_cell_setting 'monoclinic'
loop_
_space_group_symop_operation_xyz
x,y,z
-x,y,-z
loop_
_atom_site_type_symbol
_atom_site_label
_atom_site_fract_x
_atom_site_fract_y
_atom_site_fract_z
Si Si1 0.325468 0.714320 0.743146
Si Si2 0.262286 0.193466 0.651186
Si Si3 0.241566 0.031185 0.847199
Si Si4 0.162033 0.344746 0.769073
Si Si5 0.672515 0.872948 0.259130
Si Si6 0.500000 0.460311 0.500000
Si Si7 0.851284 0.554919 0.246431
O O1 0.500000 0.711155 0.500000
O O2 0.190645 0.794135 0.738721
O O3 0.154085 0.642961 0.741690
O O4 0.500000 0.709922 0.000000
O O5 0.500000 0.216348 0.500000
O O6 0.298054 0.107686 0.711954
O O7 0.238625 0.261049 0.846266
O O8 0.000000 0.192997 0.500000
O O9 0.184884 0.950784 0.727989
O O10 0.500000 0.017977 0.000000
O O11 0.000000 0.049592 0.000000
O O12 0.383811 0.397436 0.689923
O O13 0.000000 0.342536 0.500000
O O14 0.000000 0.372994 0.000000
O O15 0.500000 0.874005 0.500000
O O16 0.500000 0.870519 0.000000
O O17 0.575517 0.524765 0.290743
O O18 0.000000 0.522981 0.500000
O O19 0.000000 0.533787 0.000000
#
# Coordination Sequence:
#
# PCOD9113166 Si02
#       7
#     2   2   2   2   2   1   2
#     4  10  20  42  69  96 138 184 229 284 353 425
#     4  11  23  44  70 106 145 191 243 300 362 435
#     4  11  23  41  67 104 143 189 241 298 357 428
#     4  11  26  48  72 105 138 186 240 293 360 438
#     4   9  20  39  66  99 137 181 232 288 348 420
#     4  12  26  50  72 100 142 188 226 308 354 444
#     4  12  27  43  70 105 139 180 239 293 362 431
#
# _framework density 25.411971999999999
#
# number of rings (size 3 to 8) (size 9 to 14) (size 15 to 20)
#    0.000    1.231    1.538    3.692    0.000    4.923 
#    0.000    3.846    0.000    0.000    0.000    0.000 
#    0.000    0.000    0.000    0.000    0.000    0.000 
#
# Total GULP energy -72404.113187 kJ/mol
# GULP energy per Si atom -5569.547168 kJ/mol
# Density = 2.535413 g / cm^3
# Si number density = 25.411972 Si / 1000 Ang^3
#
#
#
# Elastic Constant Matrix: (Units=GPa)
#
#
# Indices 1 2 3 4 5 6 
#
# 1 79.0667 -2.3741 47.5034 0.0000 -12.9163 0.0000
# 2 -2.3741 238.0845 27.1072 0.0000 -20.5477 0.0000
# 3 47.5034 27.1072 189.3705 0.0000 -34.3862 0.0000
# 4 0.0000 0.0000 0.0000 43.1411 0.0000 -20.9702
# 5 -12.9163 -20.5477 -34.3862 0.0000 66.5128 0.0000
# 6 0.0000 0.0000 0.0000 -20.9702 0.0000 72.0632
#
#
#
# Elastic Compliance Matrix: (Units=1/GPa)
#
#
# Indices 1 2 3 4 5 6 
#
# 1 0.015064 0.000673 -0.003649 0.000000 0.001247 0.000000
# 2 0.000673 0.004375 -0.000580 0.000000 0.001182 0.000000
# 3 -0.003649 -0.000580 0.006752 0.000000 0.002603 0.000000
# 4 0.000000 0.000000 0.000000 0.026999 0.000000 0.007857
# 5 0.001247 0.001182 0.002603 0.000000 0.016988 0.000000
# 6 0.000000 0.000000 0.000000 0.007857 0.000000 0.016163
#
#
# Mechanical properties :
#
#
# Convention : Reuss Voigt Hill
#
# Bulk Modulus (GPa) = 52.41512 72.33274 62.37393
# Shear Modulus (GPa) = 50.09487 65.29575 57.69531
#
# Velocity S-wave (km/s) = 4.44476 5.07451 4.77004
# Velocity P-wave (km/s) = 6.85654 7.92843 7.41189
#
# Compressibility (1/GPa) = 0.01907846
#
# Stress axis : x y z
#
# Youngs Moduli (GPa) = 66.38531 228.57018 148.11339
#
# Poissons Ratio (x) = -0.15388 0.54041
# Poissons Ratio (y) = -0.04469 0.08598
# Poissons Ratio (z) = 0.24222 0.13268
#
# Static dielectric constant tensor:
#      x y z
#    x 2.044570 0.000000 0.034180 
#    y 0.000000 2.096810 0.000000 
#    z 0.034180 0.000000 2.023660 
# 
# From -- ./inp_files/558.got.cif
#   From: 2010.05.17/outbox.cif.g08.bks.cpg/sg3_1_cif.got.tgz:558.got - 2010.06.03 18:33:08.
