data_PCOD9113510
_publ_section_title
;
Structure prediction by ZEFSAII (Michael W. Deem and Ramdas Pophale) SiO2 
 PCOD9113510
Probable space group: P 2
;
_chemical_formula_sum "Si O2"
_cell_formula_units_Z 11
_cell_length_a 15.844648
_cell_length_b 5.263326
_cell_length_c 5.388227
_cell_angle_alpha 90.000000
_cell_angle_beta 68.528305
_cell_angle_gamma 90.000000
_cell_volume 418.168296
_symmetry_space_group_name_H-M "P 2"
_symmetry_group_IT_number 3
_symmetry_cell_setting 'monoclinic'
loop_
_space_group_symop_operation_xyz
x,y,z
-x,y,-z
loop_
_atom_site_type_symbol
_atom_site_label
_atom_site_fract_x
_atom_site_fract_y
_atom_site_fract_z
Si Si1 0.757289 0.013280 0.010801
Si Si2 0.176281 0.504230 0.811762
Si Si3 0.557892 0.390343 0.680700
Si Si4 0.603052 0.891301 0.798416
Si Si5 0.906636 0.860977 0.474063
Si Si6 0.000000 0.252048 0.000000
O O1 0.766955 0.253673 0.181575
O O2 0.774560 0.745508 0.123519
O O3 0.666109 0.992091 0.948932
O O4 0.839645 0.014938 0.724441
O O5 0.146856 0.617268 0.575829
O O6 0.076634 0.435240 0.031696
O O7 0.500000 0.461009 0.500000
O O8 0.628150 0.615373 0.665194
O O9 0.598615 0.111199 0.599088
O O10 0.500000 0.359028 0.000000
O O11 0.500000 0.851965 0.000000
O O12 0.000000 0.784312 0.500000
O O13 0.940352 0.061458 0.230582
#
# Coordination Sequence:
#
# PCOD9113510 Si02
#       6
#     2   2   2   2   2   1
#     4  12  27  49  73 109 156 197 260 312 386 461
#     4  12  26  48  69 113 144 200 255 313 380 464
#     4  10  21  44  74 108 143 196 253 313 382 461
#     4  10  23  48  73 107 149 199 248 317 381 457
#     4  12  25  49  75 108 153 201 251 319 392 467
#     4  12  24  48  70 110 142 196 250 306 390 460
#
# _framework density 26.305199000000002
#
# number of rings (size 3 to 8) (size 9 to 14) (size 15 to 20)
#    0.000    0.727    3.636    3.273    2.545    0.727 
#   22.909    0.000    0.000    0.000    0.000    0.000 
#    0.000    0.000    0.000    0.000    0.000    0.000 
#
# Total GULP energy -61571.269157 kJ/mol
# GULP energy per Si atom -5597.388105 kJ/mol
# Density = 2.624533 g / cm^3
# Si number density = 26.305199 Si / 1000 Ang^3
#
#
#
# Elastic Constant Matrix: (Units=GPa)
#
#
# Indices 1 2 3 4 5 6 
#
# 1 132.3836 16.0600 5.9961 0.0000 31.2770 0.0000
# 2 16.0600 197.1202 15.6264 0.0000 14.0252 0.0000
# 3 5.9961 15.6264 94.5278 0.0000 -4.9989 0.0000
# 4 0.0000 0.0000 0.0000 40.4267 0.0000 27.3805
# 5 31.2770 14.0252 -4.9989 0.0000 54.2398 0.0000
# 6 0.0000 0.0000 0.0000 27.3805 0.0000 26.8992
#
#
#
# Elastic Compliance Matrix: (Units=1/GPa)
#
#
# Indices 1 2 3 4 5 6 
#
# 1 0.008826 -0.000295 -0.000780 0.000000 -0.005085 0.000000
# 2 -0.000295 0.005261 -0.000918 0.000000 -0.001275 0.000000
# 3 -0.000780 -0.000918 0.010869 0.000000 0.001689 0.000000
# 4 0.000000 0.000000 0.000000 0.079641 0.000000 -0.081066
# 5 -0.005085 -0.001275 0.001689 0.000000 0.021854 0.000000
# 6 0.000000 0.000000 0.000000 -0.081066 0.000000 0.119693
#
#
# Mechanical properties :
#
#
# Convention : Reuss Voigt Hill
#
# Bulk Modulus (GPa) = 47.68929 55.48850 51.58889
# Shear Modulus (GPa) = 19.44603 50.06975 34.75789
#
# Velocity S-wave (km/s) = 2.72186 4.36755 3.63896
# Velocity P-wave (km/s) = 5.29590 6.82451 6.10821
#
# Compressibility (1/GPa) = 0.02096907
#
# Stress axis : x y z
#
# Youngs Moduli (GPa) = 113.29651 190.09246 92.00060
#
# Poissons Ratio (x) = 0.05617 0.07176
# Poissons Ratio (y) = 0.03348 0.08448
# Poissons Ratio (z) = 0.08837 0.17456
#
# Static dielectric constant tensor:
#      x y z
#    x 1.719810 0.000000 0.453250 
#    y 0.000000 2.104930 0.000000 
#    z 0.453250 0.000000 1.479530 
# 
# From -- ./inp_files/2694.got.cif
#   From: 2010.05.17/outbox.cif.g08.bks.cpg/sg3_2_cif.got.tgz:2694.got - 2010.06.03 18:33:08.
