data_PCOD9113480
_publ_section_title
;
Structure prediction by ZEFSAII (Michael W. Deem and Ramdas Pophale) SiO2 
 PCOD9113480
Probable space group: P 2
;
_chemical_formula_sum "Si O2"
_cell_formula_units_Z 14
_cell_length_a 14.622419
_cell_length_b 6.058045
_cell_length_c 20.651956
_cell_angle_alpha 90.000000
_cell_angle_beta 21.671501
_cell_angle_gamma 90.000000
_cell_volume 675.575762
_symmetry_space_group_name_H-M "P 2"
_symmetry_group_IT_number 3
_symmetry_cell_setting 'monoclinic'
loop_
_space_group_symop_operation_xyz
x,y,z
-x,y,-z
loop_
_atom_site_type_symbol
_atom_site_label
_atom_site_fract_x
_atom_site_fract_y
_atom_site_fract_z
Si Si1 0.698938 0.516520 0.977868
Si Si2 0.403513 0.626002 0.432261
Si Si3 0.809137 0.247274 0.346421
Si Si4 0.223989 0.942250 0.755976
Si Si5 0.762797 0.604428 0.072799
Si Si6 0.000000 0.236217 0.000000
Si Si7 0.918363 0.882597 0.748555
Si Si8 0.500000 0.186464 0.000000
O O1 0.604556 0.560885 0.112175
O O2 0.738773 0.743179 0.913491
O O3 0.567268 0.343357 0.016697
O O4 0.973052 0.421408 0.811671
O O5 0.377508 0.394575 0.487707
O O6 0.539464 0.785080 0.394368
O O7 0.582432 0.637472 0.252643
O O8 0.131632 0.709147 0.588031
O O9 0.755278 0.112873 0.316534
O O10 0.926463 0.064381 0.315409
O O11 0.206880 0.079438 0.833783
O O12 0.969223 0.795344 0.922898
O O13 0.910871 0.389977 0.000381
O O14 0.731851 0.029241 0.828820
#
# Coordination Sequence:
#
# PCOD9113480 Si02
#       8
#     2   2   2   2   2   1   2   1
#     4  10  21  42  72  97 124 176 244 287 351 436
#     4  11  25  41  62 106 144 184 236 300 343 430
#     4  10  23  42  62  95 136 183 235 285 346 405
#     4  12  23  43  66  98 148 202 233 278 350 428
#     4  12  23  42  66 101 144 192 239 282 348 436
#     4  12  22  40  64  96 142 196 236 274 332 432
#     4  10  22  43  67  96 130 171 228 299 362 407
#     4  10  22  44  74 100 122 178 236 310 356 430
#
# _framework density 20.723064999999998
#
# number of rings (size 3 to 8) (size 9 to 14) (size 15 to 20)
#    0.000    1.143    5.714    0.429    2.000    0.571 
#    7.714    0.000    0.000   20.571    0.000    0.000 
#    0.000    0.000    0.000    0.000    0.000    0.000 
#
# Total GULP energy -78082.197482 kJ/mol
# GULP energy per Si atom -5577.299820 kJ/mol
# Density = 2.067590 g / cm^3
# Si number density = 20.723065 Si / 1000 Ang^3
#
#
#
# Elastic Constant Matrix: (Units=GPa)
#
#
# Indices 1 2 3 4 5 6 
#
# 1 111.5670 55.1247 50.0093 0.0000 1.4132 0.0000
# 2 55.1247 129.4342 49.4395 0.0000 3.0481 0.0000
# 3 50.0093 49.4395 90.0589 0.0000 2.2678 0.0000
# 4 0.0000 0.0000 0.0000 48.5964 0.0000 -11.6669
# 5 1.4132 3.0481 2.2678 0.0000 23.1958 0.0000
# 6 0.0000 0.0000 0.0000 -11.6669 0.0000 35.5800
#
#
#
# Elastic Compliance Matrix: (Units=1/GPa)
#
#
# Indices 1 2 3 4 5 6 
#
# 1 0.013105 -0.003548 -0.005334 0.000000 0.000189 0.000000
# 2 -0.003548 0.010750 -0.003911 0.000000 -0.000814 0.000000
# 3 -0.005334 -0.003911 0.016231 0.000000 -0.000748 0.000000
# 4 0.000000 0.000000 0.000000 0.022336 0.000000 0.007324
# 5 0.000189 -0.000814 -0.000748 0.000000 0.043280 0.000000
# 6 0.000000 0.000000 0.000000 0.007324 0.000000 0.030507
#
#
# Mechanical properties :
#
#
# Convention : Reuss Voigt Hill
#
# Bulk Modulus (GPa) = 68.96244 71.13414 70.04829
# Shear Modulus (GPa) = 30.00685 33.24023 31.62354
#
# Velocity S-wave (km/s) = 3.80938 4.00937 3.91065
# Velocity P-wave (km/s) = 7.25940 7.47221 7.36657
#
# Compressibility (1/GPa) = 0.01450065
#
# Stress axis : x y z
#
# Youngs Moduli (GPa) = 76.30700 93.02326 61.60907
#
# Poissons Ratio (x) = 0.33008 0.32862
# Poissons Ratio (y) = 0.27076 0.24092
# Poissons Ratio (z) = 0.40702 0.36377
#
# Static dielectric constant tensor:
#      x y z
#    x 1.751200 0.000000 -0.021220 
#    y 0.000000 1.776420 0.000000 
#    z -0.021220 0.000000 1.802830 
# 
# From -- ./inp_files/8057.got.cif
#   From: 2010.05.17/outbox.cif.g08.bks.cpg/sg3_5_cif.got.tgz:8057.got - 2010.06.03 18:33:08.
