data_PCOD9113412
_publ_section_title
;
Structure prediction by ZEFSAII (Michael W. Deem and Ramdas Pophale) SiO2 
 PCOD9113412
Probable space group: P 2
;
_chemical_formula_sum "Si O2"
_cell_formula_units_Z 12
_cell_length_a 13.118248
_cell_length_b 8.963749
_cell_length_c 8.857356
_cell_angle_alpha 90.000000
_cell_angle_beta 150.965437
_cell_angle_gamma 90.000000
_cell_volume 505.490674
_symmetry_space_group_name_H-M "P 2"
_symmetry_group_IT_number 3
_symmetry_cell_setting 'monoclinic'
loop_
_space_group_symop_operation_xyz
x,y,z
-x,y,-z
loop_
_atom_site_type_symbol
_atom_site_label
_atom_site_fract_x
_atom_site_fract_y
_atom_site_fract_z
Si Si1 0.079131 0.870600 0.433212
Si Si2 0.893788 0.337065 0.139654
Si Si3 0.725553 0.133312 0.426817
Si Si4 0.263860 0.047450 0.213445
Si Si5 0.530679 0.422444 0.868104
Si Si6 0.137953 0.599451 0.304924
O O1 0.000000 0.856332 0.500000
O O2 0.151477 0.714747 0.458537
O O3 0.271224 0.987148 0.670214
O O4 0.893476 0.945641 0.089743
O O5 0.101032 0.236899 0.433901
O O6 0.985218 0.463577 0.150890
O O7 0.747474 0.215579 0.868670
O O8 0.762012 0.418116 0.098964
O O9 0.782017 0.072199 0.668014
O O10 0.539752 0.248533 0.216830
O O11 0.500000 0.988620 0.500000
O O12 0.362712 0.523930 0.559376
O O13 0.500000 0.474965 0.000000
O O14 0.000000 0.681986 0.000000
#
# Coordination Sequence:
#
# PCOD9113412 Si02
#       6
#     2   2   2   2   2   2
#     4  11  26  45  66  94 138 185 221 277 345 395
#     4  10  21  40  71  99 133 168 222 271 345 388
#     4  10  22  41  71 100 137 171 220 281 337 396
#     4  11  21  43  72 104 131 172 233 281 331 406
#     4  11  25  41  71 107 134 170 227 285 336 401
#     4  11  25  46  68  95 139 180 223 273 340 409
#
# _framework density 23.739308999999999
#
# number of rings (size 3 to 8) (size 9 to 14) (size 15 to 20)
#    0.000    1.333    1.667    5.000    7.000    1.333 
#    6.000    0.833    0.000    0.000    0.000    0.000 
#    0.000    0.000    0.000    0.000    0.000    0.000 
#
# Total GULP energy -66996.711170 kJ/mol
# GULP energy per Si atom -5583.059264 kJ/mol
# Density = 2.368528 g / cm^3
# Si number density = 23.739309 Si / 1000 Ang^3
#
#
#
# Elastic Constant Matrix: (Units=GPa)
#
#
# Indices 1 2 3 4 5 6 
#
# 1 140.5202 28.0953 33.8710 0.0000 14.3950 0.0000
# 2 28.0953 95.2269 17.6167 0.0000 -3.6111 0.0000
# 3 33.8710 17.6167 83.0105 0.0000 20.8071 0.0000
# 4 0.0000 0.0000 0.0000 16.0573 0.0000 -2.2939
# 5 14.3950 -3.6111 20.8071 0.0000 36.8076 0.0000
# 6 0.0000 0.0000 0.0000 -2.2939 0.0000 9.7401
#
#
#
# Elastic Compliance Matrix: (Units=1/GPa)
#
#
# Indices 1 2 3 4 5 6 
#
# 1 0.008335 -0.002088 -0.002434 0.000000 -0.002088 0.000000
# 2 -0.002088 0.011703 -0.002475 0.000000 0.003364 0.000000
# 3 -0.002434 -0.002475 0.015597 0.000000 -0.008108 0.000000
# 4 0.000000 0.000000 0.000000 0.064445 0.000000 0.015178
# 5 -0.002088 0.003364 -0.008108 0.000000 0.032898 0.000000
# 6 0.000000 0.000000 0.000000 0.015178 0.000000 0.106243
#
#
# Mechanical properties :
#
#
# Convention : Reuss Voigt Hill
#
# Bulk Modulus (GPa) = 46.20881 53.10260 49.65571
# Shear Modulus (GPa) = 19.19913 28.46597 23.83255
#
# Velocity S-wave (km/s) = 2.84694 3.46657 3.17192
# Velocity P-wave (km/s) = 5.50582 6.20003 5.86321
#
# Compressibility (1/GPa) = 0.02164089
#
# Stress axis : x y z
#
# Youngs Moduli (GPa) = 119.98278 85.45105 64.11321
#
# Poissons Ratio (x) = 0.17841 0.15607
# Poissons Ratio (y) = 0.25051 0.15866
# Poissons Ratio (z) = 0.29206 0.21147
#
# Static dielectric constant tensor:
#      x y z
#    x 1.924850 0.000000 -0.045360 
#    y 0.000000 1.876650 0.000000 
#    z -0.045360 0.000000 2.084180 
# 
# From -- ./inp_files/7541.got.cif
#   From: 2010.05.17/outbox.cif.g08.bks.cpg/sg3_4_cif.got.tgz:7541.got - 2010.06.03 18:33:08.
