data_PCOD9113433
_publ_section_title
;
Structure prediction by ZEFSAII (Michael W. Deem and Ramdas Pophale) SiO2 
 PCOD9113433
Probable space group: P 2
;
_chemical_formula_sum "Si O2"
_cell_formula_units_Z 14
_cell_length_a 17.610827
_cell_length_b 4.579431
_cell_length_c 6.082507
_cell_angle_alpha 90.000000
_cell_angle_beta 95.248862
_cell_angle_gamma 90.000000
_cell_volume 488.482435
_symmetry_space_group_name_H-M "P 2"
_symmetry_group_IT_number 3
_symmetry_cell_setting 'monoclinic'
loop_
_space_group_symop_operation_xyz
x,y,z
-x,y,-z
loop_
_atom_site_type_symbol
_atom_site_label
_atom_site_fract_x
_atom_site_fract_y
_atom_site_fract_z
Si Si1 0.928825 0.550850 0.096859
Si Si2 0.000000 0.951100 0.500000
Si Si3 0.500000 0.756444 0.000000
Si Si4 0.371367 0.320728 0.772769
Si Si5 0.141134 0.951155 0.307801
Si Si6 0.715841 0.964523 0.887115
Si Si7 0.786336 0.565358 0.288266
Si Si8 0.425474 0.894476 0.398178
O O1 0.964221 0.749947 0.299378
O O2 0.856632 0.391109 0.191213
O O3 0.894633 0.755879 0.896117
O O4 0.000000 0.387414 0.000000
O O5 0.929402 0.116412 0.595510
O O6 0.568610 0.561570 0.121570
O O7 0.463446 0.964595 0.173038
O O8 0.290658 0.419715 0.648264
O O9 0.407257 0.124910 0.585778
O O10 0.335707 0.177245 0.982027
O O11 0.214356 0.110975 0.225883
O O12 0.177246 0.749597 0.506324
O O13 0.657950 0.798558 0.705911
O O14 0.753405 0.762040 0.081572
O O15 0.500000 0.708188 0.500000
#
# Coordination Sequence:
#
# PCOD9113433 Si02
#       8
#     2   1   1   2   2   2   2   2
#     4   8  15  30  59  97 135 183 236 280 352 434
#     4   8  14  30  56 100 140 188 234 282 364 422
#     4  12  28  54  78 104 152 192 246 316 382 440
#     4  12  27  47  74 102 140 191 240 304 382 440
#     4   9  18  33  64  99 142 186 238 294 354 432
#     4  11  23  44  67 103 141 180 246 303 360 449
#     4  10  21  41  66  98 142 186 232 301 366 426
#     4  12  27  48  76 104 140 186 248 305 365 460
#
# _framework density 28.660191000000001
#
# number of rings (size 3 to 8) (size 9 to 14) (size 15 to 20)
#    0.000    1.714    1.429    2.571    2.000    4.000 
#    0.000    0.000    0.000   10.286    0.000   44.000 
#    0.000    0.000    0.000    0.000    0.000    0.000 
#
# Total GULP energy -78165.860528 kJ/mol
# GULP energy per Si atom -5583.275752 kJ/mol
# Density = 2.859496 g / cm^3
# Si number density = 28.660191 Si / 1000 Ang^3
#
#
#
# Elastic Constant Matrix: (Units=GPa)
#
#
# Indices 1 2 3 4 5 6 
#
# 1 275.1026 67.4278 125.2935 0.0000 -39.9136 0.0000
# 2 67.4278 58.0583 58.6215 0.0000 -5.3541 0.0000
# 3 125.2935 58.6215 189.5216 0.0000 15.8257 0.0000
# 4 0.0000 0.0000 0.0000 4.0132 0.0000 84.9042
# 5 -39.9136 -5.3541 15.8257 0.0000 100.6593 0.0000
# 6 0.0000 0.0000 0.0000 84.9042 0.0000 -39.5448
#
#
#
# Elastic Compliance Matrix: (Units=1/GPa)
#
#
# Indices 1 2 3 4 5 6 
#
# 1 0.006555 -0.003959 -0.003353 0.000000 0.002916 0.000000
# 2 -0.003959 0.028119 -0.006155 0.000000 0.000893 0.000000
# 3 -0.003353 -0.006155 0.009662 0.000000 -0.003176 0.000000
# 4 0.000000 0.000000 0.000000 0.005368 0.000000 0.011524
# 5 0.002916 0.000893 -0.003176 0.000000 0.011638 0.000000
# 6 0.000000 0.000000 0.000000 0.011524 0.000000 -0.000545
#
#
# Mechanical properties :
#
#
# Convention : Reuss Voigt Hill
#
# Bulk Modulus (GPa) = 57.46112 113.92978 85.69545
# Shear Modulus (GPa) = 53.45825 31.11484 42.28655
#
# Velocity S-wave (km/s) = 4.32353 3.29849 3.84532
# Velocity P-wave (km/s) = 6.70944 7.37190 7.04846
#
# Compressibility (1/GPa) = 0.01740307
#
# Stress axis : x y z
#
# Youngs Moduli (GPa) = 152.54563 35.56303 103.50024
#
# Poissons Ratio (x) = 0.14080 0.34700
# Poissons Ratio (y) = 0.60397 0.63701
# Poissons Ratio (z) = 0.51143 0.21888
#
# Static dielectric constant tensor:
#      x y z
#    x 2.283650 0.000000 0.011990 
#    y 0.000000 2.298370 0.000000 
#    z 0.011990 0.000000 2.232910 
# 
# From -- ./inp_files/3547.got.cif
#   From: 2010.05.17/outbox.cif.g08.bks.cpg/sg3_2_cif.got.tgz:3547.got - 2010.06.03 18:33:08.
