data_PCOD9113241
_publ_section_title
;
Structure prediction by ZEFSAII (Michael W. Deem and Ramdas Pophale) SiO2 
 PCOD9113241
Probable space group: P 2
;
_chemical_formula_sum "Si O2"
_cell_formula_units_Z 14
_cell_length_a 9.081566
_cell_length_b 15.247610
_cell_length_c 9.594622
_cell_angle_alpha 90.000000
_cell_angle_beta 149.241175
_cell_angle_gamma 90.000000
_cell_volume 679.473814
_symmetry_space_group_name_H-M "P 2"
_symmetry_group_IT_number 3
_symmetry_cell_setting 'monoclinic'
loop_
_space_group_symop_operation_xyz
x,y,z
-x,y,-z
loop_
_atom_site_type_symbol
_atom_site_label
_atom_site_fract_x
_atom_site_fract_y
_atom_site_fract_z
Si Si1 0.405815 0.022870 0.584214
Si Si2 0.357731 0.868208 0.031670
Si Si3 0.847581 0.751620 0.522942
Si Si4 0.808223 0.282425 0.204828
Si Si5 0.101509 0.128570 0.921118
Si Si6 0.704603 0.479503 0.035818
Si Si7 0.314889 0.568998 0.489614
O O1 0.500000 0.015301 0.500000
O O2 0.071119 0.049314 0.297349
O O3 0.543463 0.940778 0.776801
O O4 0.565898 0.103527 0.789991
O O5 0.532105 0.783382 0.224086
O O6 0.500000 0.895523 0.000000
O O7 0.034885 0.832060 0.741695
O O8 0.802105 0.667381 0.580364
O O9 0.000000 0.728190 0.500000
O O10 0.946077 0.215157 0.207628
O O11 0.000000 0.296963 0.500000
O O12 0.500000 0.244078 0.000000
O O13 0.733125 0.374184 0.068371
O O14 0.000000 0.136741 0.000000
O O15 0.539214 0.528218 0.779634
O O16 0.500000 0.503467 0.000000
O O17 0.030255 0.511769 0.285420
O O18 0.500000 0.566065 0.500000
#
# Coordination Sequence:
#
# PCOD9113241 Si02
#       7
#     2   2   2   2   2   2   2
#     4  10  21  38  58  86 122 162 203 250 314 379
#     4  10  21  37  60  87 115 154 208 258 305 369
#     4  10  21  39  61  87 120 160 204 255 318 381
#     4  11  23  41  64  94 123 160 216 265 312 378
#     4  10  22  39  60  87 124 164 202 250 316 380
#     4  11  23  43  66  90 127 172 212 259 324 392
#     4  12  25  41  64  97 128 162 214 269 322 383
#
# _framework density 20.604178999999998
#
# number of rings (size 3 to 8) (size 9 to 14) (size 15 to 20)
#    0.000    1.429    0.000    6.000    0.000    4.571 
#    0.000    2.857    0.000    0.000    0.000    0.000 
#    0.000    0.000    0.000    0.000    0.000    0.000 
#
# Total GULP energy -78014.218738 kJ/mol
# GULP energy per Si atom -5572.444196 kJ/mol
# Density = 2.055728 g / cm^3
# Si number density = 20.604179 Si / 1000 Ang^3
#
#
#
# Elastic Constant Matrix: (Units=GPa)
#
#
# Indices 1 2 3 4 5 6 
#
# 1 94.2286 67.0141 55.9950 0.0000 -7.8734 0.0000
# 2 67.0141 82.3680 42.4924 0.0000 -20.2997 0.0000
# 3 55.9950 42.4924 154.2489 0.0000 7.1588 0.0000
# 4 0.0000 0.0000 0.0000 52.9064 0.0000 -29.3375
# 5 -7.8734 -20.2997 7.1588 0.0000 36.8591 0.0000
# 6 0.0000 0.0000 0.0000 -29.3375 0.0000 43.1602
#
#
#
# Elastic Compliance Matrix: (Units=1/GPa)
#
#
# Indices 1 2 3 4 5 6 
#
# 1 0.028488 -0.022560 -0.003868 0.000000 -0.005588 0.000000
# 2 -0.022560 0.035383 -0.002259 0.000000 0.015107 0.000000
# 3 -0.003868 -0.002259 0.008684 0.000000 -0.003757 0.000000
# 4 0.000000 0.000000 0.000000 0.030336 0.000000 0.020620
# 5 -0.005588 0.015107 -0.003757 0.000000 0.034986 0.000000
# 6 0.000000 0.000000 0.000000 0.020620 0.000000 0.037186
#
#
# Mechanical properties :
#
#
# Convention : Reuss Voigt Hill
#
# Bulk Modulus (GPa) = 65.86413 73.53872 69.70142
# Shear Modulus (GPa) = 21.05301 37.60807 29.33054
#
# Velocity S-wave (km/s) = 3.20000 4.27695 3.77705
# Velocity P-wave (km/s) = 6.75937 7.75618 7.27487
#
# Compressibility (1/GPa) = 0.01518277
#
# Stress axis : x y z
#
# Youngs Moduli (GPa) = 35.10265 28.26182 115.15835
#
# Poissons Ratio (x) = 0.63757 0.44538
# Poissons Ratio (y) = 0.79190 0.26015
# Poissons Ratio (z) = 0.13576 0.06384
#
# Static dielectric constant tensor:
#      x y z
#    x 1.672970 0.000000 -0.028090 
#    y 0.000000 1.744110 0.000000 
#    z -0.028090 0.000000 1.680290 
# 
# From -- ./inp_files/6250.got.cif
#   From: 2010.05.17/outbox.cif.g08.bks.cpg/sg3_4_cif.got.tgz:6250.got - 2010.06.03 18:33:08.
