data_PCOD9113985
_publ_section_title
;
Structure prediction by ZEFSAII (Michael W. Deem and Ramdas Pophale) SiO2 
 PCOD9113985
Probable space group: P 2
;
_chemical_formula_sum "Si O2"
_cell_formula_units_Z 14
_cell_length_a 15.244301
_cell_length_b 4.780658
_cell_length_c 8.664045
_cell_angle_alpha 90.000000
_cell_angle_beta 122.622509
_cell_angle_gamma 90.000000
_cell_volume 531.804614
_symmetry_space_group_name_H-M "P 2"
_symmetry_group_IT_number 3
_symmetry_cell_setting 'monoclinic'
loop_
_space_group_symop_operation_xyz
x,y,z
-x,y,-z
loop_
_atom_site_type_symbol
_atom_site_label
_atom_site_fract_x
_atom_site_fract_y
_atom_site_fract_z
Si Si1 0.223353 0.211160 0.563842
Si Si2 0.328112 0.890224 0.941766
Si Si3 0.500000 0.628558 0.500000
Si Si4 0.117128 0.877650 0.880295
Si Si5 0.000000 0.173371 0.500000
Si Si6 0.553538 0.382305 0.886289
Si Si7 0.723823 0.708915 0.590374
Si Si8 0.110026 0.389181 0.043984
O O1 0.293796 0.031119 0.749294
O O2 0.109325 0.292813 0.526822
O O3 0.281701 0.487771 0.558058
O O4 0.219998 0.987316 0.419736
O O5 0.234078 0.971789 0.960626
O O6 0.430834 0.049629 0.095241
O O7 0.342522 0.563219 0.982602
O O8 0.518306 0.462384 0.679778
O O9 0.611766 0.773078 0.563530
O O10 0.042423 0.979474 0.676676
O O11 0.098409 0.061413 0.013355
O O12 0.113257 0.545257 0.882700
O O13 0.500000 0.454314 0.000000
O O14 0.796018 0.529108 0.774785
O O15 0.000000 0.494122 0.000000
#
# Coordination Sequence:
#
# PCOD9113985 Si02
#       8
#     2   2   1   2   1   2   2   2
#     4  11  24  44  70 102 139 184 238 296 358 426
#     4  11  23  43  67  94 133 175 225 286 346 413
#     4  12  28  46  74 104 146 198 240 294 358 418
#     4  11  23  40  63  93 126 171 218 274 350 424
#     4  10  24  42  70 100 136 178 234 298 366 434
#     4  12  26  46  70 100 136 183 241 296 350 417
#     4  12  26  44  67 103 142 185 240 292 351 431
#     4  12  24  42  66  94 133 174 223 287 353 416
#
# _framework density 26.325458000000001
#
# number of rings (size 3 to 8) (size 9 to 14) (size 15 to 20)
#    0.000    0.571    0.000    8.571    0.000    8.000 
#    0.000    0.000    0.000    0.000    0.000    0.000 
#    0.000    0.000    0.000    0.000    0.000    0.000 
#
# Total GULP energy -78121.654387 kJ/mol
# GULP energy per Si atom -5580.118171 kJ/mol
# Density = 2.626554 g / cm^3
# Si number density = 26.325458 Si / 1000 Ang^3
#
#
#
# Elastic Constant Matrix: (Units=GPa)
#
#
# Indices 1 2 3 4 5 6 
#
# 1 159.1510 19.5571 31.9994 0.0000 -0.4809 0.0000
# 2 19.5571 122.1775 14.5436 0.0000 -13.1096 0.0000
# 3 31.9994 14.5436 113.1758 0.0000 -13.0413 0.0000
# 4 0.0000 0.0000 0.0000 -23.2415 0.0000 -27.4002
# 5 -0.4809 -13.1096 -13.0413 0.0000 33.1373 0.0000
# 6 0.0000 0.0000 0.0000 -27.4002 0.0000 10.0001
#
#
#
# Elastic Compliance Matrix: (Units=1/GPa)
#
#
# Indices 1 2 3 4 5 6 
#
# 1 0.006784 -0.000970 -0.001913 0.000000 -0.001038 0.000000
# 2 -0.000970 0.008746 -0.000474 0.000000 0.003259 0.000000
# 3 -0.001913 -0.000474 0.009860 0.000000 0.003665 0.000000
# 4 0.000000 0.000000 0.000000 -0.010171 0.000000 -0.027869
# 5 -0.001038 0.003259 0.003665 0.000000 0.032894 0.000000
# 6 0.000000 0.000000 0.000000 -0.027869 0.000000 0.023639
#
#
# Mechanical properties :
#
#
# Convention : Reuss Voigt Hill
#
# Bulk Modulus (GPa) = 53.54358 58.52274 56.03316
# Shear Modulus (GPa) = 59.03777 25.87279 42.45528
#
# Velocity S-wave (km/s) = 4.74076 3.13837 4.02021
# Velocity P-wave (km/s) = 7.09575 5.95074 6.54832
#
# Compressibility (1/GPa) = 0.01867637
#
# Stress axis : x y z
#
# Youngs Moduli (GPa) = 147.40548 114.33537 101.41991
#
# Poissons Ratio (x) = 0.11086 0.19403
# Poissons Ratio (y) = 0.14292 0.04809
# Poissons Ratio (z) = 0.28201 0.05422
#
# Static dielectric constant tensor:
#      x y z
#    x 3.564480 0.000000 0.732100 
#    y 0.000000 1.950280 0.000000 
#    z 0.732100 0.000000 2.716610 
# 
# From -- ./inp_files/8106.got.cif
#   From: 2010.05.17/outbox.cif.g08.bks.cpg/sg3_5_cif.got.tgz:8106.got - 2010.06.03 18:33:08.
