data_PCOD9113714
_publ_section_title
;
Structure prediction by ZEFSAII (Michael W. Deem and Ramdas Pophale) SiO2 
 PCOD9113714
Probable space group: P 2
;
_chemical_formula_sum "Si O2"
_cell_formula_units_Z 12
_cell_length_a 8.673578
_cell_length_b 5.144075
_cell_length_c 10.877832
_cell_angle_alpha 90.000000
_cell_angle_beta 101.567609
_cell_angle_gamma 90.000000
_cell_volume 475.484163
_symmetry_space_group_name_H-M "P 2"
_symmetry_group_IT_number 3
_symmetry_cell_setting 'monoclinic'
loop_
_space_group_symop_operation_xyz
x,y,z
-x,y,-z
loop_
_atom_site_type_symbol
_atom_site_label
_atom_site_fract_x
_atom_site_fract_y
_atom_site_fract_z
Si Si1 0.302935 0.824840 0.863441
Si Si2 0.051066 0.412671 0.647731
Si Si3 0.815004 0.325277 0.007502
Si Si4 0.140829 0.898327 0.328338
Si Si5 0.692987 0.028579 0.388057
Si Si6 0.396814 0.045865 0.202786
O O1 0.251045 0.562146 0.921283
O O2 0.214259 0.060356 0.918553
O O3 0.268354 0.816739 0.711019
O O4 0.487286 0.905585 0.874695
O O5 0.977135 0.660171 0.701825
O O6 0.000000 0.464320 0.500000
O O7 0.219435 0.282050 0.650055
O O8 0.952650 0.168732 0.686988
O O9 0.306917 0.284053 0.125024
O O10 0.000000 0.350418 0.000000
O O11 0.238590 0.925053 0.472922
O O12 0.258146 0.873695 0.233897
O O13 0.509761 0.095546 0.338663
#
# Coordination Sequence:
#
# PCOD9113714 Si02
#       6
#     2   2   2   2   2   2
#     4  10  27  49  81 103 156 202 268 318 404 456
#     4  10  22  42  70 107 157 202 249 310 377 466
#     4  12  27  53  76 113 148 204 276 330 388 463
#     4  11  23  45  74 119 156 196 259 313 397 471
#     4   9  23  50  77 114 160 211 255 319 402 478
#     4  10  26  49  79 114 158 212 252 338 387 484
#
# _framework density 25.237431000000001
#
# number of rings (size 3 to 8) (size 9 to 14) (size 15 to 20)
#    1.000    0.667    0.000    3.000    2.333    9.333 
#    3.000    3.333    0.000    0.000    0.000    0.000 
#    0.000    0.000    0.000    0.000    0.000    0.000 
#
# Total GULP energy -66990.432300 kJ/mol
# GULP energy per Si atom -5582.536025 kJ/mol
# Density = 2.517999 g / cm^3
# Si number density = 25.237431 Si / 1000 Ang^3
#
#
#
# Elastic Constant Matrix: (Units=GPa)
#
#
# Indices 1 2 3 4 5 6 
#
# 1 158.8772 43.8333 20.8151 0.0000 -33.7729 0.0000
# 2 43.8333 147.6596 41.2063 0.0000 -22.9404 0.0000
# 3 20.8151 41.2063 68.0797 0.0000 -13.2805 0.0000
# 4 0.0000 0.0000 0.0000 29.1693 0.0000 -1.4834
# 5 -33.7729 -22.9404 -13.2805 0.0000 52.2109 0.0000
# 6 0.0000 0.0000 0.0000 -1.4834 0.0000 12.6422
#
#
#
# Elastic Compliance Matrix: (Units=1/GPa)
#
#
# Indices 1 2 3 4 5 6 
#
# 1 0.007662 -0.001446 -0.000657 0.000000 0.004154 0.000000
# 2 -0.001446 0.008730 -0.004499 0.000000 0.001756 0.000000
# 3 -0.000657 -0.004499 0.018039 0.000000 0.002186 0.000000
# 4 0.000000 0.000000 0.000000 0.034488 0.000000 0.004047
# 5 0.004154 0.001756 0.002186 0.000000 0.023168 0.000000
# 6 0.000000 0.000000 0.000000 0.004047 0.000000 0.079575
#
#
# Mechanical properties :
#
#
# Convention : Reuss Voigt Hill
#
# Bulk Modulus (GPa) = 47.11031 65.14731 56.12881
# Shear Modulus (GPa) = 26.04935 36.72193 31.38564
#
# Velocity S-wave (km/s) = 3.21623 3.81866 3.53032
# Velocity P-wave (km/s) = 5.70084 6.73147 6.23748
#
# Compressibility (1/GPa) = 0.02122678
#
# Stress axis : x y z
#
# Youngs Moduli (GPa) = 130.51140 114.54843 55.43409
#
# Poissons Ratio (x) = 0.16561 0.03644
# Poissons Ratio (y) = 0.18869 0.24942
# Poissons Ratio (z) = 0.08578 0.51539
#
# Static dielectric constant tensor:
#      x y z
#    x 2.067240 0.000000 0.136640 
#    y 0.000000 2.012910 0.000000 
#    z 0.136640 0.000000 2.147880 
# 
# From -- ./inp_files/13195.got.cif
#   From: 2010.05.17/outbox.cif.g08.bks.cpg/sg3_7_cif.got.tgz:13195.got - 2010.06.03 18:33:08.
