data_PCOD9113994
_publ_section_title
;
Structure prediction by ZEFSAII (Michael W. Deem and Ramdas Pophale) SiO2 
 PCOD9113994
Probable space group: P 2
;
_chemical_formula_sum "Si O2"
_cell_formula_units_Z 11
_cell_length_a 8.738709
_cell_length_b 5.633575
_cell_length_c 9.930636
_cell_angle_alpha 90.000000
_cell_angle_beta 116.292845
_cell_angle_gamma 90.000000
_cell_volume 438.307540
_symmetry_space_group_name_H-M "P 2"
_symmetry_group_IT_number 3
_symmetry_cell_setting 'monoclinic'
loop_
_space_group_symop_operation_xyz
x,y,z
-x,y,-z
loop_
_atom_site_type_symbol
_atom_site_label
_atom_site_fract_x
_atom_site_fract_y
_atom_site_fract_z
Si Si1 0.787798 0.889650 0.432044
Si Si2 0.500000 0.107966 0.500000
Si Si3 0.206861 0.668212 0.926912
Si Si4 0.334444 0.313328 0.174845
Si Si5 0.828487 0.393235 0.345065
Si Si6 0.500000 0.018121 0.000000
Si Si7 0.000000 0.014556 0.000000
O O1 0.732737 0.623960 0.367669
O O2 0.000000 0.872255 0.500000
O O3 0.664614 0.954298 0.511825
O O4 0.757978 0.130862 0.336009
O O5 0.428010 0.271374 0.351254
O O6 0.153169 0.459343 0.804979
O O7 0.287709 0.570677 0.097237
O O8 0.347175 0.834881 0.915289
O O9 0.052088 0.839781 0.899984
O O10 0.439011 0.186516 0.096087
O O11 0.155312 0.175310 0.106860
O O12 0.000000 0.383806 0.500000
#
# Coordination Sequence:
#
# PCOD9113994 Si02
#       7
#     2   1   2   2   2   1   1
#     4  10  25  47  73 115 156 208 258 333 401 475
#     4  12  28  48  78 120 158 204 270 344 398 480
#     4  11  24  43  73 104 149 204 257 318 401 478
#     4  11  26  48  76 109 156 197 269 326 400 485
#     4  10  24  43  76 107 151 205 263 319 393 479
#     4  10  24  46  72 104 146 206 250 324 394 480
#     4  10  26  44  72 106 144 208 248 332 394 476
#
# _framework density 25.096530000000001
#
# number of rings (size 3 to 8) (size 9 to 14) (size 15 to 20)
#    0.000    1.455    0.000    2.182   15.273    5.091 
#    3.273    0.000    0.000    0.000    0.000    0.000 
#    0.000    0.000    0.000    0.000    0.000    0.000 
#
# Total GULP energy -61430.096324 kJ/mol
# GULP energy per Si atom -5584.554211 kJ/mol
# Density = 2.503941 g / cm^3
# Si number density = 25.096530 Si / 1000 Ang^3
#
#
#
# Elastic Constant Matrix: (Units=GPa)
#
#
# Indices 1 2 3 4 5 6 
#
# 1 159.8199 33.9552 42.5660 0.0000 -2.0598 0.0000
# 2 33.9552 155.6494 33.4101 0.0000 -11.8517 0.0000
# 3 42.5660 33.4101 145.6455 0.0000 3.4439 0.0000
# 4 0.0000 0.0000 0.0000 32.1110 0.0000 -12.8291
# 5 -2.0598 -11.8517 3.4439 0.0000 25.4522 0.0000
# 6 0.0000 0.0000 0.0000 -12.8291 0.0000 38.9923
#
#
#
# Elastic Compliance Matrix: (Units=1/GPa)
#
#
# Indices 1 2 3 4 5 6 
#
# 1 0.006974 -0.001116 -0.001789 0.000000 0.000287 0.000000
# 2 -0.001116 0.007236 -0.001416 0.000000 0.003471 0.000000
# 3 -0.001789 -0.001416 0.007758 0.000000 -0.001854 0.000000
# 4 0.000000 0.000000 0.000000 0.035855 0.000000 0.011797
# 5 0.000287 0.003471 -0.001854 0.000000 0.041180 0.000000
# 6 0.000000 0.000000 0.000000 0.011797 0.000000 0.029527
#
#
# Mechanical properties :
#
#
# Convention : Reuss Voigt Hill
#
# Bulk Modulus (GPa) = 75.03754 75.66413 75.35084
# Shear Modulus (GPa) = 35.30729 42.72334 39.01532
#
# Velocity S-wave (km/s) = 3.75488 4.13044 3.94713
# Velocity P-wave (km/s) = 6.98307 7.27751 7.13181
#
# Compressibility (1/GPa) = 0.01332666
#
# Stress axis : x y z
#
# Youngs Moduli (GPa) = 143.38414 138.19255 128.90682
#
# Poissons Ratio (x) = 0.15416 0.23064
# Poissons Ratio (y) = 0.15995 0.18253
# Poissons Ratio (z) = 0.25654 0.19568
#
# Static dielectric constant tensor:
#      x y z
#    x 2.100920 0.000000 0.003750 
#    y 0.000000 1.929790 0.000000 
#    z 0.003750 0.000000 2.011510 
# 
# From -- ./inp_files/4875.got.cif
#   From: 2010.05.17/outbox.cif.g08.bks.cpg/sg3_3_cif.got.tgz:4875.got - 2010.06.03 18:33:08.
