data_PCOD9113331
_publ_section_title
;
Structure prediction by ZEFSAII (Michael W. Deem and Ramdas Pophale) SiO2 
 PCOD9113331
Probable space group: P 2
;
_chemical_formula_sum "Si O2"
_cell_formula_units_Z 10
_cell_length_a 14.782321
_cell_length_b 5.260730
_cell_length_c 15.520235
_cell_angle_alpha 90.000000
_cell_angle_beta 18.023871
_cell_angle_gamma 90.000000
_cell_volume 373.444250
_symmetry_space_group_name_H-M "P 2"
_symmetry_group_IT_number 3
_symmetry_cell_setting 'monoclinic'
loop_
_space_group_symop_operation_xyz
x,y,z
-x,y,-z
loop_
_atom_site_type_symbol
_atom_site_label
_atom_site_fract_x
_atom_site_fract_y
_atom_site_fract_z
Si Si1 0.875230 0.540350 0.413097
Si Si2 0.671832 0.543823 0.421128
Si Si3 0.826912 0.176370 0.080008
Si Si4 0.630396 0.195890 0.080217
Si Si5 0.809352 0.891883 0.749466
O O1 0.710368 0.663908 0.480476
O O2 0.189620 0.456703 0.093232
O O3 0.947938 0.707599 0.429019
O O4 0.694306 0.288793 0.603753
O O5 0.500000 0.682185 0.500000
O O6 0.481043 0.288064 0.611144
O O7 0.976837 0.429961 0.113451
O O8 0.774986 0.059946 0.032682
O O9 0.000000 0.037068 0.000000
O O10 0.689066 0.060120 0.937396
O O11 0.000000 0.019838 0.500000
O O12 0.500000 0.766803 0.000000
#
# Coordination Sequence:
#
# PCOD9113331 Si02
#       5
#     2   2   2   2   2
#     4  10  21  39  63  89 122 163 205 255 317 378
#     4   8  14  27  52  84 115 152 195 239 298 372
#     4   8  14  27  52  84 115 152 195 239 298 372
#     4  10  21  39  63  89 122 163 205 255 317 378
#     4  12  26  42  62  90 126 166 216 274 316 364
#
# _framework density 26.777759
#
# number of rings (size 3 to 8) (size 9 to 14) (size 15 to 20)
#    0.000    2.400    0.000    2.400    0.000    3.200 
#    0.000    0.000    0.000   26.400    0.000    0.000 
#    0.000    0.000    0.000    0.000    0.000    0.000 
#
# Total GULP energy -55844.793846 kJ/mol
# GULP energy per Si atom -5584.479385 kJ/mol
# Density = 2.671681 g / cm^3
# Si number density = 26.777759 Si / 1000 Ang^3
#
#
#
# Elastic Constant Matrix: (Units=GPa)
#
#
# Indices 1 2 3 4 5 6 
#
# 1 217.9236 35.5697 42.2432 0.0000 5.6648 0.0000
# 2 35.5697 44.0579 15.0461 0.0000 -5.5084 0.0000
# 3 42.2432 15.0461 109.3131 0.0000 13.3287 0.0000
# 4 0.0000 0.0000 0.0000 50.6619 0.0000 3.8477
# 5 5.6648 -5.5084 13.3287 0.0000 35.3897 0.0000
# 6 0.0000 0.0000 0.0000 3.8477 0.0000 65.3004
#
#
#
# Elastic Compliance Matrix: (Units=1/GPa)
#
#
# Indices 1 2 3 4 5 6 
#
# 1 0.005571 -0.004119 -0.001466 0.000000 -0.000981 0.000000
# 2 -0.004119 0.027805 -0.002980 0.000000 0.006110 0.000000
# 3 -0.001466 -0.002980 0.010641 0.000000 -0.004237 0.000000
# 4 0.000000 0.000000 0.000000 0.019827 0.000000 -0.001168
# 5 -0.000981 0.006110 -0.004237 0.000000 0.030961 0.000000
# 6 0.000000 0.000000 0.000000 -0.001168 0.000000 0.015383
#
#
# Mechanical properties :
#
#
# Convention : Reuss Voigt Hill
#
# Bulk Modulus (GPa) = 37.19476 61.89027 49.54252
# Shear Modulus (GPa) = 36.68880 48.83275 42.76078
#
# Velocity S-wave (km/s) = 3.70553 4.27503 4.00043
# Velocity P-wave (km/s) = 5.67700 6.89424 6.31502
#
# Compressibility (1/GPa) = 0.02688551
#
# Stress axis : x y z
#
# Youngs Moduli (GPa) = 179.50548 35.96496 93.97198
#
# Poissons Ratio (x) = 0.14816 0.13778
# Poissons Ratio (y) = 0.73947 0.28005
# Poissons Ratio (z) = 0.26320 0.10718
#
# Static dielectric constant tensor:
#      x y z
#    x 2.224220 0.000000 0.010060 
#    y 0.000000 2.117800 0.000000 
#    z 0.010060 0.000000 1.985500 
# 
# From -- ./inp_files/2621.got.cif
#   From: 2010.05.17/outbox.cif.g08.bks.cpg/sg3_2_cif.got.tgz:2621.got - 2010.06.03 18:33:08.
