data_PCOD9113827
_publ_section_title
;
Structure prediction by ZEFSAII (Michael W. Deem and Ramdas Pophale) SiO2 
 PCOD9113827
Probable space group: P 2
;
_chemical_formula_sum "Si O2"
_cell_formula_units_Z 12
_cell_length_a 11.159855
_cell_length_b 9.040993
_cell_length_c 8.095703
_cell_angle_alpha 90.000000
_cell_angle_beta 43.303117
_cell_angle_gamma 90.000000
_cell_volume 560.226213
_symmetry_space_group_name_H-M "P 2"
_symmetry_group_IT_number 3
_symmetry_cell_setting 'monoclinic'
loop_
_space_group_symop_operation_xyz
x,y,z
-x,y,-z
loop_
_atom_site_type_symbol
_atom_site_label
_atom_site_fract_x
_atom_site_fract_y
_atom_site_fract_z
Si Si1 0.858662 0.696530 0.365217
Si Si2 0.279682 0.046296 0.864176
Si Si3 0.749139 0.692589 0.101096
Si Si4 0.557969 0.506693 0.760425
Si Si5 0.074887 0.022149 0.602387
Si Si6 0.376065 0.188690 0.413286
O O1 0.790788 0.655846 0.250005
O O2 0.728645 0.608837 0.612262
O O3 0.845759 0.872928 0.399497
O O4 0.064732 0.665932 0.175146
O O5 0.293863 0.868089 0.854255
O O6 0.310245 0.119204 0.653708
O O7 0.437582 0.114551 0.811064
O O8 0.086488 0.077676 0.125029
O O9 0.593235 0.601675 0.176664
O O10 0.601428 0.363466 0.608096
O O11 0.500000 0.456289 0.000000
O O12 0.000000 0.981595 0.500000
O O13 0.226017 0.142122 0.437476
#
# Coordination Sequence:
#
# PCOD9113827 Si02
#       6
#     2   2   2   2   2   2
#     4  10  23  45  71 100 134 180 240 288 340 408
#     4  10  23  44  75  96 131 181 245 290 334 407
#     4  10  22  46  74 101 128 181 242 291 334 411
#     4  12  29  43  67 102 151 184 226 283 360 417
#     4  11  24  43  73 103 137 180 236 297 350 396
#     4  11  25  45  66  98 141 188 229 281 346 423
#
# _framework density 21.419920000000001
#
# number of rings (size 3 to 8) (size 9 to 14) (size 15 to 20)
#    0.000    1.333    1.667    2.000   14.000    1.333 
#    3.000    0.000    0.000    0.000    0.000    0.000 
#    0.000    0.000    0.000    0.000    0.000    0.000 
#
# Total GULP energy -67084.735332 kJ/mol
# GULP energy per Si atom -5590.394611 kJ/mol
# Density = 2.137117 g / cm^3
# Si number density = 21.419920 Si / 1000 Ang^3
#
#
#
# Elastic Constant Matrix: (Units=GPa)
#
#
# Indices 1 2 3 4 5 6 
#
# 1 88.7405 56.0650 29.2259 0.0000 -11.9611 0.0000
# 2 56.0650 106.2116 60.1255 0.0000 -32.5813 0.0000
# 3 29.2259 60.1255 86.8024 0.0000 -21.4215 0.0000
# 4 0.0000 0.0000 0.0000 4.3039 0.0000 15.0633
# 5 -11.9611 -32.5813 -21.4215 0.0000 31.9790 0.0000
# 6 0.0000 0.0000 0.0000 15.0633 0.0000 0.2058
#
#
#
# Elastic Compliance Matrix: (Units=1/GPa)
#
#
# Indices 1 2 3 4 5 6 
#
# 1 0.017290 -0.010703 0.000595 0.000000 -0.004038 0.000000
# 2 -0.010703 0.025575 -0.010386 0.000000 0.015096 0.000000
# 3 0.000595 -0.010386 0.019118 0.000000 0.002447 0.000000
# 4 0.000000 0.000000 0.000000 -0.000911 0.000000 0.066647
# 5 -0.004038 0.015096 0.002447 0.000000 0.046780 0.000000
# 6 0.000000 0.000000 0.000000 0.066647 0.000000 -0.019042
#
#
# Mechanical properties :
#
#
# Convention : Reuss Voigt Hill
#
# Bulk Modulus (GPa) = 47.62672 63.62081 55.62377
# Shear Modulus (GPa) = 36.55072 16.38694 26.46883
#
# Velocity S-wave (km/s) = 4.13533 2.76892 3.51908
# Velocity P-wave (km/s) = 6.71448 6.32367 6.52200
#
# Compressibility (1/GPa) = 0.02099662
#
# Stress axis : x y z
#
# Youngs Moduli (GPa) = 57.83621 39.10064 52.30641
#
# Poissons Ratio (x) = 0.41848 -0.03114
# Poissons Ratio (y) = 0.61900 0.54326
# Poissons Ratio (z) = -0.03443 0.40610
#
# Static dielectric constant tensor:
#      x y z
#    x 1.806880 0.000000 0.012930 
#    y 0.000000 1.739270 0.000000 
#    z 0.012930 0.000000 1.800780 
# 
# From -- ./inp_files/7274.got.cif
#   From: 2010.05.17/outbox.cif.g08.bks.cpg/sg3_4_cif.got.tgz:7274.got - 2010.06.03 18:33:08.
