data_PCOD9113507
_publ_section_title
;
Structure prediction by ZEFSAII (Michael W. Deem and Ramdas Pophale) SiO2 
 PCOD9113507
Probable space group: P 2
;
_chemical_formula_sum "Si O2"
_cell_formula_units_Z 13
_cell_length_a 5.366094
_cell_length_b 5.308689
_cell_length_c 17.845285
_cell_angle_alpha 90.000000
_cell_angle_beta 89.811806
_cell_angle_gamma 90.000000
_cell_volume 508.354539
_symmetry_space_group_name_H-M "P 2"
_symmetry_group_IT_number 3
_symmetry_cell_setting 'monoclinic'
loop_
_space_group_symop_operation_xyz
x,y,z
-x,y,-z
loop_
_atom_site_type_symbol
_atom_site_label
_atom_site_fract_x
_atom_site_fract_y
_atom_site_fract_z
Si Si1 0.548686 0.943960 0.346738
Si Si2 0.066298 0.567491 0.713447
Si Si3 0.892259 0.337935 0.427903
Si Si4 0.500000 0.722110 0.500000
Si Si5 0.745758 0.688886 0.050123
Si Si6 0.163369 0.076027 0.225795
Si Si7 0.072115 0.185303 0.912499
O O1 0.667810 0.692394 0.309064
O O2 0.419787 0.880906 0.426680
O O3 0.761746 0.130671 0.376589
O O4 0.390836 0.085871 0.283381
O O5 0.948508 0.499740 0.631676
O O6 0.027527 0.304070 0.755242
O O7 0.935176 0.794762 0.757369
O O8 0.711787 0.539825 0.467412
O O9 0.000000 0.201981 0.500000
O O10 0.784467 0.445283 0.101080
O O11 0.748059 0.946005 0.096621
O O12 0.500000 0.666332 0.000000
O O13 0.000000 0.702996 0.000000
O O14 0.171375 0.123550 0.136812
O O15 0.000000 0.200669 0.000000
#
# Coordination Sequence:
#
# PCOD9113507 Si02
#       7
#     2   2   2   1   2   2   2
#     4  11  26  45  72 108 143 202 245 310 376 451
#     4  11  26  46  68 106 143 191 244 300 376 441
#     4  11  24  43  68 104 142 186 249 304 365 445
#     4  10  24  40  70 102 138 194 244 296 382 430
#     4  10  21  44  72 109 147 186 244 307 376 452
#     4  12  26  48  73 102 154 191 249 306 386 446
#     4  10  23  47  72 110 139 194 245 311 375 457
#
# _framework density 25.572702
#
# number of rings (size 3 to 8) (size 9 to 14) (size 15 to 20)
#    0.000    1.231    1.538    2.769    8.615    2.462 
#   16.615    0.000    0.000    0.000    0.000    0.000 
#    0.000    0.000    0.000    0.000    0.000    0.000 
#
# Total GULP energy -72554.882600 kJ/mol
# GULP energy per Si atom -5581.144815 kJ/mol
# Density = 2.551450 g / cm^3
# Si number density = 25.572702 Si / 1000 Ang^3
#
#
#
# Elastic Constant Matrix: (Units=GPa)
#
#
# Indices 1 2 3 4 5 6 
#
# 1 64.7823 12.1278 17.8477 0.0000 18.4704 0.0000
# 2 12.1278 163.0591 -11.7373 0.0000 4.9679 0.0000
# 3 17.8477 -11.7373 86.3089 0.0000 11.6955 0.0000
# 4 0.0000 0.0000 0.0000 3.4831 0.0000 -9.3980
# 5 18.4704 4.9679 11.6955 0.0000 26.7945 0.0000
# 6 0.0000 0.0000 0.0000 -9.3980 0.0000 22.8582
#
#
#
# Elastic Compliance Matrix: (Units=1/GPa)
#
#
# Indices 1 2 3 4 5 6 
#
# 1 0.019922 -0.001294 -0.002622 0.000000 -0.012348 0.000000
# 2 -0.001294 0.006344 0.001242 0.000000 -0.000826 0.000000
# 3 -0.002622 0.001242 0.012843 0.000000 -0.004029 0.000000
# 4 0.000000 0.000000 0.000000 -2.625858 0.000000 -1.079602
# 5 -0.012348 -0.000826 -0.004029 0.000000 0.047745 0.000000
# 6 0.000000 0.000000 0.000000 -1.079602 0.000000 -0.400123
#
#
# Mechanical properties :
#
#
# Convention : Reuss Voigt Hill
#
# Bulk Modulus (GPa) = 29.62072 38.95850 34.28961
# Shear Modulus (GPa) = -1.71085 30.35465 14.32190
#
# Velocity S-wave (km/s) = -0.81882 3.44902 2.36910
# Velocity P-wave (km/s) = 3.27325 5.57929 4.57398
#
# Compressibility (1/GPa) = 0.03376015
#
# Stress axis : x y z
#
# Youngs Moduli (GPa) = 50.19649 157.63915 77.86099
#
# Poissons Ratio (x) = 0.20403 0.20418
# Poissons Ratio (y) = 0.06497 -0.09672
# Poissons Ratio (z) = 0.13163 -0.19583
#
# Static dielectric constant tensor:
#      x y z
#    x 2.086730 0.000000 0.009860 
#    y 0.000000 2.087540 0.000000 
#    z 0.009860 0.000000 2.129620 
# 
# From -- ./inp_files/14607.got.cif
#   From: 2010.05.17/outbox.cif.g08.bks.cpg/sg3_8_cif.got.tgz:14607.got - 2010.06.03 18:33:08.
