data_PCOD9113076
_publ_section_title
;
Structure prediction by ZEFSAII (Michael W. Deem and Ramdas Pophale) SiO2 
 PCOD9113076
Probable space group: P 2
;
_chemical_formula_sum "Si O2"
_cell_formula_units_Z 14
_cell_length_a 22.921220
_cell_length_b 5.259570
_cell_length_c 13.811010
_cell_angle_alpha 90.000000
_cell_angle_beta 157.151763
_cell_angle_gamma 90.000000
_cell_volume 646.504214
_symmetry_space_group_name_H-M "P 2"
_symmetry_group_IT_number 3
_symmetry_cell_setting 'monoclinic'
loop_
_space_group_symop_operation_xyz
x,y,z
-x,y,-z
loop_
_atom_site_type_symbol
_atom_site_label
_atom_site_fract_x
_atom_site_fract_y
_atom_site_fract_z
Si Si1 0.668590 0.318950 0.494446
Si Si2 0.886207 0.635960 0.690718
Si Si3 0.782595 0.947619 0.370423
Si Si4 0.822435 0.925143 0.838376
Si Si5 0.402963 0.461258 0.947993
Si Si6 0.952532 0.266084 0.188826
Si Si7 0.336183 0.532111 0.293305
O O1 0.791637 0.461394 0.616914
O O2 0.658124 0.422676 0.588400
O O3 0.724084 0.029365 0.600078
O O4 0.514514 0.383774 0.205230
O O5 0.791478 0.864179 0.497231
O O6 0.934992 0.491799 0.666035
O O7 0.045931 0.724437 0.976854
O O8 0.701016 0.710706 0.192079
O O9 0.684922 0.200416 0.208322
O O10 0.954304 0.050609 0.611140
O O11 0.721634 0.816618 0.771840
O O12 0.917973 0.152323 0.029768
O O13 0.500000 0.523040 0.000000
O O14 0.790413 0.387978 0.965116
O O15 0.500000 0.521809 0.500000
#
# Coordination Sequence:
#
# PCOD9113076 Si02
#       7
#     2   2   2   2   2   2   2
#     4  11  24  39  62  99 138 180 223 281 337 415
#     4  10  20  39  62  96 134 179 222 271 331 418
#     4  11  21  39  63  96 135 180 225 262 321 406
#     4   9  22  37  61  91 135 176 219 275 342 402
#     4  12  24  37  62  97 145 185 219 263 332 408
#     4   9  19  39  66  95 128 172 221 272 331 410
#     4  10  23  42  65  97 131 175 231 290 351 395
#
# _framework density 21.654924000000001
#
# number of rings (size 3 to 8) (size 9 to 14) (size 15 to 20)
#    0.000    1.714    2.857    0.429    2.000   10.857 
#    0.000    0.000    0.000    0.857    7.429    0.000 
#    0.000    0.000    0.000    0.000    0.000    0.000 
#
# Total GULP energy -77965.603577 kJ/mol
# GULP energy per Si atom -5568.971684 kJ/mol
# Density = 2.160564 g / cm^3
# Si number density = 21.654924 Si / 1000 Ang^3
#
#
#
# Elastic Constant Matrix: (Units=GPa)
#
#
# Indices 1 2 3 4 5 6 
#
# 1 33.5652 14.3107 41.7158 0.0000 20.4887 0.0000
# 2 14.3107 129.4846 81.4916 0.0000 6.5931 0.0000
# 3 41.7158 81.4916 185.9765 0.0000 6.1403 0.0000
# 4 0.0000 0.0000 0.0000 47.7465 0.0000 -10.7254
# 5 20.4887 6.5931 6.1403 0.0000 32.0866 0.0000
# 6 0.0000 0.0000 0.0000 -10.7254 0.0000 10.6462
#
#
#
# Elastic Compliance Matrix: (Units=1/GPa)
#
#
# Indices 1 2 3 4 5 6 
#
# 1 0.081128 0.005485 -0.018973 0.000000 -0.049300 0.000000
# 2 0.005485 0.011089 -0.005936 0.000000 -0.004645 0.000000
# 3 -0.018973 -0.005936 0.011869 0.000000 0.011064 0.000000
# 4 0.000000 0.000000 0.000000 0.027070 0.000000 0.027271
# 5 -0.049300 -0.004645 0.011064 0.000000 0.061483 0.000000
# 6 0.000000 0.000000 0.000000 0.027271 0.000000 0.121405
#
#
# Mechanical properties :
#
#
# Convention : Reuss Voigt Hill
#
# Bulk Modulus (GPa) = 15.32866 69.34026 42.33446
# Shear Modulus (GPa) = 13.34619 32.19640 22.77130
#
# Velocity S-wave (km/s) = 2.48526 3.86008 3.24628
# Velocity P-wave (km/s) = 3.91527 7.20812 5.80027
#
# Compressibility (1/GPa) = 0.06523728
#
# Stress axis : x y z
#
# Youngs Moduli (GPa) = 12.32614 90.17893 84.25592
#
# Poissons Ratio (x) = -0.49462 1.59861
# Poissons Ratio (y) = -0.06761 0.50014
# Poissons Ratio (z) = 0.23387 0.53530
#
# Static dielectric constant tensor:
#      x y z
#    x 1.795430 0.000000 -0.025490 
#    y 0.000000 1.987000 0.000000 
#    z -0.025490 0.000000 1.856610 
# 
# From -- ./inp_files/14423.got.cif
#   From: 2010.05.17/outbox.cif.g08.bks.cpg/sg3_8_cif.got.tgz:14423.got - 2010.06.03 18:33:08.
