data_PCOD9113340
_publ_section_title
;
Structure prediction by ZEFSAII (Michael W. Deem and Ramdas Pophale) SiO2 
 PCOD9113340
Probable space group: P 2
;
_chemical_formula_sum "Si O2"
_cell_formula_units_Z 16
_cell_length_a 13.646152
_cell_length_b 6.524881
_cell_length_c 9.076166
_cell_angle_alpha 90.000000
_cell_angle_beta 66.638205
_cell_angle_gamma 90.000000
_cell_volume 741.885724
_symmetry_space_group_name_H-M "P 2"
_symmetry_group_IT_number 3
_symmetry_cell_setting 'monoclinic'
loop_
_space_group_symop_operation_xyz
x,y,z
-x,y,-z
loop_
_atom_site_type_symbol
_atom_site_label
_atom_site_fract_x
_atom_site_fract_y
_atom_site_fract_z
Si Si1 0.199711 0.585130 0.190476
Si Si2 0.017663 0.920781 0.325634
Si Si3 0.183283 0.036553 0.698337
Si Si4 0.431403 0.030739 0.253284
Si Si5 0.146840 0.207778 0.029800
Si Si6 0.707916 0.373824 0.564663
Si Si7 0.627775 0.758374 0.458278
Si Si8 0.346061 0.941187 0.986822
O O1 0.156705 0.433701 0.089181
O O2 0.243354 0.469601 0.312546
O O3 0.291835 0.724440 0.059105
O O4 0.101033 0.734358 0.289444
O O5 0.000000 0.004358 0.500000
O O6 0.902560 0.880679 0.321246
O O7 0.069919 0.084128 0.184782
O O8 0.215671 0.203899 0.555386
O O9 0.288315 0.902653 0.679822
O O10 0.131132 0.158934 0.866956
O O11 0.402736 0.253072 0.333286
O O12 0.367114 0.866304 0.385370
O O13 0.387971 0.026161 0.116334
O O14 0.551709 0.951563 0.178204
O O15 0.260518 0.102746 0.986839
O O16 0.678206 0.537508 0.456641
O O17 0.500000 0.753630 0.500000
#
# Coordination Sequence:
#
# PCOD9113340 Si02
#       8
#     2   2   2   2   2   2   2   2
#     4  11  23  43  71 103 134 175 238 283 338 414
#     4  11  25  45  73  97 132 178 226 285 349 406
#     4  11  26  46  70  99 142 181 221 284 353 407
#     4  10  21  39  63  96 139 181 220 278 341 394
#     4  11  24  44  69 101 136 174 225 283 343 410
#     4  11  23  42  71 100 138 180 236 279 337 419
#     4  11  24  42  67  99 140 183 230 275 340 408
#     4  10  21  39  65  96 137 180 222 279 338 395
#
# _framework density 21.566662999999998
#
# number of rings (size 3 to 8) (size 9 to 14) (size 15 to 20)
#    0.000    1.250    2.500    2.625    3.500    9.500 
#    0.000    3.750    0.000    0.000    0.000    0.000 
#    0.000    0.000    0.000    0.000    0.000    0.000 
#
# Total GULP energy -89230.621584 kJ/mol
# GULP energy per Si atom -5576.913849 kJ/mol
# Density = 2.151758 g / cm^3
# Si number density = 21.566663 Si / 1000 Ang^3
#
#
#
# Elastic Constant Matrix: (Units=GPa)
#
#
# Indices 1 2 3 4 5 6 
#
# 1 88.4649 24.7424 31.0388 0.0000 -5.6945 0.0000
# 2 24.7424 90.6553 25.5238 0.0000 -12.2053 0.0000
# 3 31.0388 25.5238 81.2644 0.0000 -15.9925 0.0000
# 4 0.0000 0.0000 0.0000 5.5524 0.0000 23.3943
# 5 -5.6945 -12.2053 -15.9925 0.0000 31.1402 0.0000
# 6 0.0000 0.0000 0.0000 23.3943 0.0000 2.0042
#
#
#
# Elastic Compliance Matrix: (Units=1/GPa)
#
#
# Indices 1 2 3 4 5 6 
#
# 1 0.013554 -0.002533 -0.004548 0.000000 -0.000850 0.000000
# 2 -0.002533 0.012850 -0.002412 0.000000 0.003335 0.000000
# 3 -0.004548 -0.002412 0.016075 0.000000 0.006478 0.000000
# 4 0.000000 0.000000 0.000000 -0.003738 0.000000 0.043633
# 5 -0.000850 0.003335 0.006478 0.000000 0.036591 0.000000
# 6 0.000000 0.000000 0.000000 0.043633 0.000000 -0.010356
#
#
# Mechanical properties :
#
#
# Convention : Reuss Voigt Hill
#
# Bulk Modulus (GPa) = 42.56859 46.99940 44.78400
# Shear Modulus (GPa) = 54.46914 19.67800 37.07357
#
# Velocity S-wave (km/s) = 5.03100 3.02392 4.15061
# Velocity P-wave (km/s) = 7.31635 5.83370 6.61668
#
# Compressibility (1/GPa) = 0.02349150
#
# Stress axis : x y z
#
# Youngs Moduli (GPa) = 73.78166 77.81945 62.20681
#
# Poissons Ratio (x) = 0.19712 0.28295
# Poissons Ratio (y) = 0.18689 0.15007
# Poissons Ratio (z) = 0.33559 0.18773
#
# Static dielectric constant tensor:
#      x y z
#    x 1.865450 0.000000 0.001040 
#    y 0.000000 1.768670 0.000000 
#    z 0.001040 0.000000 1.828390 
# 
# From -- ./inp_files/8281.got.cif
#   From: 2010.05.17/outbox.cif.g08.bks.cpg/sg3_5_cif.got.tgz:8281.got - 2010.06.03 18:33:08.
