data_PCOD9113564
_publ_section_title
;
Structure prediction by ZEFSAII (Michael W. Deem and Ramdas Pophale) SiO2 
 PCOD9113564
Probable space group: P 2
;
_chemical_formula_sum "Si O2"
_cell_formula_units_Z 14
_cell_length_a 18.177223
_cell_length_b 5.216919
_cell_length_c 11.341589
_cell_angle_alpha 90.000000
_cell_angle_beta 152.124193
_cell_angle_gamma 90.000000
_cell_volume 502.863056
_symmetry_space_group_name_H-M "P 2"
_symmetry_group_IT_number 3
_symmetry_cell_setting 'monoclinic'
loop_
_space_group_symop_operation_xyz
x,y,z
-x,y,-z
loop_
_atom_site_type_symbol
_atom_site_label
_atom_site_fract_x
_atom_site_fract_y
_atom_site_fract_z
Si Si1 0.827123 0.252730 0.308820
Si Si2 0.794674 0.175323 0.809127
Si Si3 0.873803 0.255883 0.655926
Si Si4 0.605146 0.696145 0.501831
Si Si5 0.735964 0.747606 0.044167
Si Si6 0.049853 0.668646 0.339263
Si Si7 0.637482 0.916008 0.285705
O O1 0.744236 0.501577 0.140029
O O2 0.876467 0.381837 0.508233
O O3 0.000000 0.213740 0.500000
O O4 0.736344 0.006519 0.124951
O O5 0.849880 0.141529 0.753965
O O6 0.696414 0.441094 0.671207
O O7 0.678654 0.941965 0.668353
O O8 0.943367 0.136977 0.106301
O O9 0.944032 0.551003 0.780686
O O10 0.674831 0.216836 0.353071
O O11 0.617586 0.761093 0.377550
O O12 0.417249 0.699718 0.250050
O O13 0.901244 0.725600 0.206849
O O14 0.192107 0.866352 0.538637
O O15 0.500000 0.865628 0.000000
#
# Coordination Sequence:
#
# PCOD9113564 Si02
#       7
#     2   2   2   2   2   2   2
#     4  10  22  38  62  92 134 185 220 267 337 431
#     4  10  23  45  72  98 139 187 243 287 357 414
#     4  10  24  42  71 101 139 186 239 295 353 420
#     4  11  23  44  68 102 136 190 231 298 352 419
#     4  11  24  42  67  95 141 185 230 273 356 425
#     4  11  24  41  69 100 140 188 239 287 351 431
#     4  11  25  41  69 109 143 178 237 307 359 419
#
# _framework density 27.840582999999999
#
# number of rings (size 3 to 8) (size 9 to 14) (size 15 to 20)
#    0.000    1.429    1.429    3.000   10.000    1.714 
#    0.000    0.714    0.000    0.000    0.000    0.000 
#    0.000    0.000    0.000    0.000    0.000    0.000 
#
# Total GULP energy -77984.101649 kJ/mol
# GULP energy per Si atom -5570.292975 kJ/mol
# Density = 2.777722 g / cm^3
# Si number density = 27.840583 Si / 1000 Ang^3
#
#
#
# Elastic Constant Matrix: (Units=GPa)
#
#
# Indices 1 2 3 4 5 6 
#
# 1 112.9642 28.1030 33.2083 0.0000 8.5005 0.0000
# 2 28.1030 154.4783 54.3762 0.0000 3.2630 0.0000
# 3 33.2083 54.3762 197.6966 0.0000 3.0171 0.0000
# 4 0.0000 0.0000 0.0000 9.1506 0.0000 0.5934
# 5 8.5005 3.2630 3.0171 0.0000 36.5517 0.0000
# 6 0.0000 0.0000 0.0000 0.5934 0.0000 27.9975
#
#
#
# Elastic Compliance Matrix: (Units=1/GPa)
#
#
# Indices 1 2 3 4 5 6 
#
# 1 0.009690 -0.001282 -0.001244 0.000000 -0.002036 0.000000
# 2 -0.001282 0.007345 -0.001802 0.000000 -0.000209 0.000000
# 3 -0.001244 -0.001802 0.005763 0.000000 -0.000026 0.000000
# 4 0.000000 0.000000 0.000000 0.109433 0.000000 -0.002319
# 5 -0.002036 -0.000209 -0.000026 0.000000 0.027853 0.000000
# 6 0.000000 0.000000 0.000000 -0.002319 0.000000 0.035767
#
#
# Mechanical properties :
#
#
# Convention : Reuss Voigt Hill
#
# Bulk Modulus (GPa) = 70.70573 77.39046 74.04810
# Shear Modulus (GPa) = 23.89817 38.03672 30.96744
#
# Velocity S-wave (km/s) = 2.93301 3.70027 3.33875
# Velocity P-wave (km/s) = 6.07634 6.79073 6.44344
#
# Compressibility (1/GPa) = 0.01414313
#
# Stress axis : x y z
#
# Youngs Moduli (GPa) = 103.19666 136.14238 173.51486
#
# Poissons Ratio (x) = 0.17453 0.21586
# Poissons Ratio (y) = 0.13229 0.31264
# Poissons Ratio (z) = 0.12838 0.24530
#
# Static dielectric constant tensor:
#      x y z
#    x 2.459340 0.000000 -0.138400 
#    y 0.000000 2.667540 0.000000 
#    z -0.138400 0.000000 2.437020 
# 
# From -- ./inp_files/14424.got.cif
#   From: 2010.05.17/outbox.cif.g08.bks.cpg/sg3_8_cif.got.tgz:14424.got - 2010.06.03 18:33:08.
