data_PCOD9113810
_publ_section_title
;
Structure prediction by ZEFSAII (Michael W. Deem and Ramdas Pophale) SiO2 
 PCOD9113810
Probable space group: P 2
;
_chemical_formula_sum "Si O2"
_cell_formula_units_Z 12
_cell_length_a 10.761812
_cell_length_b 5.071273
_cell_length_c 10.659645
_cell_angle_alpha 90.000000
_cell_angle_beta 122.194541
_cell_angle_gamma 90.000000
_cell_volume 492.312317
_symmetry_space_group_name_H-M "P 2"
_symmetry_group_IT_number 3
_symmetry_cell_setting 'monoclinic'
loop_
_space_group_symop_operation_xyz
x,y,z
-x,y,-z
loop_
_atom_site_type_symbol
_atom_site_label
_atom_site_fract_x
_atom_site_fract_y
_atom_site_fract_z
Si Si1 0.398680 0.979030 0.851350
Si Si2 0.136128 0.429830 0.322016
Si Si3 0.194515 0.395373 0.809873
Si Si4 0.356201 0.319654 0.132401
Si Si5 0.145798 0.932423 0.162042
Si Si6 0.365263 0.592040 0.652946
O O1 0.373759 0.898614 0.692142
O O2 0.244991 0.087769 0.822321
O O3 0.525214 0.194959 0.897029
O O4 0.500000 0.799173 0.000000
O O5 0.134571 0.128664 0.274905
O O6 0.262543 0.497167 0.487865
O O7 0.974657 0.465497 0.293596
O O8 0.157728 0.632877 0.217216
O O9 0.285599 0.518557 0.743824
O O10 0.243335 0.467496 0.978257
O O11 0.275638 0.077743 0.156440
O O12 0.467092 0.496325 0.273525
O O13 0.000000 0.955543 0.000000
#
# Coordination Sequence:
#
# PCOD9113810 Si02
#       6
#     2   2   2   2   2   2
#     4   9  20  40  73 108 141 190 242 305 370 436
#     4  12  29  47  75 110 149 194 242 310 379 436
#     4  10  22  45  73 108 142 192 247 309 367 445
#     4  10  23  45  73 103 145 193 255 292 362 445
#     4  12  28  51  75 103 146 204 256 297 354 454
#     4  11  24  43  72 112 150 185 244 314 391 431
#
# _framework density 24.374773999999999
#
# number of rings (size 3 to 8) (size 9 to 14) (size 15 to 20)
#    0.000    1.333    1.667    3.500    9.333    0.667 
#    0.000    0.000    0.000    0.000    0.000    0.000 
#    0.000    0.000    0.000    0.000    0.000    0.000 
#
# Total GULP energy -66895.921992 kJ/mol
# GULP energy per Si atom -5574.660166 kJ/mol
# Density = 2.431930 g / cm^3
# Si number density = 24.374774 Si / 1000 Ang^3
#
#
#
# Elastic Constant Matrix: (Units=GPa)
#
#
# Indices 1 2 3 4 5 6 
#
# 1 110.2882 -0.0862 7.3194 0.0000 23.0614 0.0000
# 2 -0.0862 43.5562 12.7630 0.0000 11.8483 0.0000
# 3 7.3194 12.7630 162.7586 0.0000 29.7409 0.0000
# 4 0.0000 0.0000 0.0000 -3.9018 0.0000 3.9751
# 5 23.0614 11.8483 29.7409 0.0000 33.6609 0.0000
# 6 0.0000 0.0000 0.0000 3.9751 0.0000 36.6653
#
#
#
# Elastic Compliance Matrix: (Units=1/GPa)
#
#
# Indices 1 2 3 4 5 6 
#
# 1 0.010915 0.002215 0.001007 0.000000 -0.009147 0.000000
# 2 0.002215 0.025864 -0.000223 0.000000 -0.010424 0.000000
# 3 0.001007 -0.000223 0.007427 0.000000 -0.007174 0.000000
# 4 0.000000 0.000000 0.000000 -0.230799 0.000000 0.025022
# 5 -0.009147 -0.010424 -0.007174 0.000000 0.045982 0.000000
# 6 0.000000 0.000000 0.000000 0.025022 0.000000 0.024561
#
#
# Mechanical properties :
#
#
# Convention : Reuss Voigt Hill
#
# Bulk Modulus (GPa) = 19.91899 39.62172 29.77035
# Shear Modulus (GPa) = -47.47779 33.05866 -7.20956
#
# Velocity S-wave (km/s) = -4.41820 3.68675 -1.72169
# Velocity P-wave (km/s) = 4.22347 5.86628 2.87886
#
# Compressibility (1/GPa) = 0.05020336
#
# Stress axis : x y z
#
# Youngs Moduli (GPa) = 91.61951 38.66347 134.64228
#
# Poissons Ratio (x) = -0.08563 -0.13557
# Poissons Ratio (y) = -0.20291 0.03002
# Poissons Ratio (z) = -0.09225 0.00862
#
# Static dielectric constant tensor:
#      x y z
#    x 1.933650 0.000000 -0.061030 
#    y 0.000000 3.133060 0.000000 
#    z -0.061030 0.000000 2.205690 
# 
# From -- ./inp_files/11166.got.cif
#   From: 2010.05.17/outbox.cif.g08.bks.cpg/sg3_6_cif.got.tgz:11166.got - 2010.06.03 18:33:08.
