data_PCOD9113902
_publ_section_title
;
Structure prediction by ZEFSAII (Michael W. Deem and Ramdas Pophale) SiO2 
 PCOD9113902
Probable space group: P 2
;
_chemical_formula_sum "Si O2"
_cell_formula_units_Z 15
_cell_length_a 21.922992
_cell_length_b 5.391256
_cell_length_c 13.132574
_cell_angle_alpha 90.000000
_cell_angle_beta 157.163742
_cell_angle_gamma 90.000000
_cell_volume 602.395931
_symmetry_space_group_name_H-M "P 2"
_symmetry_group_IT_number 3
_symmetry_cell_setting 'monoclinic'
loop_
_space_group_symop_operation_xyz
x,y,z
-x,y,-z
loop_
_atom_site_type_symbol
_atom_site_label
_atom_site_fract_x
_atom_site_fract_y
_atom_site_fract_z
Si Si1 0.847750 0.059610 0.044165
Si Si2 0.843432 0.311683 0.570019
Si Si3 0.602989 0.380183 0.777835
Si Si4 0.150480 0.801352 0.301309
Si Si5 0.149428 0.737621 0.771338
Si Si6 0.581836 0.022369 0.908399
Si Si7 0.500000 0.158968 0.000000
Si Si8 0.661256 0.738849 0.597833
O O1 0.682060 0.174999 0.828188
O O2 0.789737 0.871476 0.866196
O O3 0.989769 0.233226 0.224104
O O4 0.916822 0.942788 0.253722
O O5 0.866764 0.596026 0.638645
O O6 0.823664 0.082854 0.620979
O O7 0.667412 0.302351 0.250749
O O8 0.612275 0.296691 0.911717
O O9 0.434772 0.509894 0.502698
O O10 0.735144 0.589829 0.978390
O O11 0.269890 0.669825 0.406099
O O12 0.000000 0.819484 0.000000
O O13 0.000000 0.592078 0.500000
O O14 0.260155 0.863468 0.857555
O O15 0.508031 0.007603 0.906189
O O16 0.467787 0.935050 0.640610
#
# Coordination Sequence:
#
# PCOD9113902 Si02
#       8
#     2   2   2   2   2   2   1   2
#     4  11  26  46  75 111 148 196 261 317 400 469
#     4  12  28  47  77 116 153 210 257 332 389 473
#     4  10  25  45  70 105 144 199 249 322 393 466
#     4  12  26  50  77 111 158 204 261 322 401 467
#     4  10  23  44  68  99 143 194 247 316 381 468
#     4  10  23  44  67 103 146 192 253 318 389 459
#     4  12  24  48  76 110 156 206 274 318 398 486
#     4  11  24  46  75 106 150 198 253 326 395 472
#
# _framework density 24.900565
#
# number of rings (size 3 to 8) (size 9 to 14) (size 15 to 20)
#    0.000    1.067    2.667    2.000    1.867   10.667 
#    4.800    0.000    0.000    0.000    0.000    0.000 
#    0.000    0.000    0.000    0.000    0.000    0.000 
#
# Total GULP energy -83644.553219 kJ/mol
# GULP energy per Si atom -5576.303548 kJ/mol
# Density = 2.484389 g / cm^3
# Si number density = 24.900565 Si / 1000 Ang^3
#
#
#
# Elastic Constant Matrix: (Units=GPa)
#
#
# Indices 1 2 3 4 5 6 
#
# 1 119.1667 0.5936 8.7306 0.0000 20.2080 0.0000
# 2 0.5936 42.7814 1.2128 0.0000 -4.8610 0.0000
# 3 8.7306 1.2128 117.7352 0.0000 7.8830 0.0000
# 4 0.0000 0.0000 0.0000 3.5855 0.0000 -2.0715
# 5 20.2080 -4.8610 7.8830 0.0000 30.5562 0.0000
# 6 0.0000 0.0000 0.0000 -2.0715 0.0000 28.5377
#
#
#
# Elastic Compliance Matrix: (Units=1/GPa)
#
#
# Indices 1 2 3 4 5 6 
#
# 1 0.009491 -0.000845 -0.000271 0.000000 -0.006341 0.000000
# 2 -0.000845 0.023910 -0.000484 0.000000 0.004487 0.000000
# 3 -0.000271 -0.000484 0.008661 0.000000 -0.002133 0.000000
# 4 0.000000 0.000000 0.000000 0.291110 0.000000 0.021131
# 5 -0.006341 0.004487 -0.002133 0.000000 0.038184 0.000000
# 6 0.000000 0.000000 0.000000 0.021131 0.000000 0.036575
#
#
# Mechanical properties :
#
#
# Convention : Reuss Voigt Hill
#
# Bulk Modulus (GPa) = 25.73071 33.41747 29.57409
# Shear Modulus (GPa) = 11.79008 30.47896 21.13452
#
# Velocity S-wave (km/s) = 2.17834 3.50241 2.91650
# Velocity P-wave (km/s) = 4.08444 5.45942 4.82120
#
# Compressibility (1/GPa) = 0.03886406
#
# Stress axis : x y z
#
# Youngs Moduli (GPa) = 105.36318 41.82364 115.45377
#
# Poissons Ratio (x) = 0.03532 0.03123
# Poissons Ratio (y) = 0.08898 0.05589
# Poissons Ratio (z) = 0.02850 0.02025
#
# Static dielectric constant tensor:
#      x y z
#    x 2.050110 0.000000 0.059970 
#    y 0.000000 2.076180 0.000000 
#    z 0.059970 0.000000 2.053060 
# 
# From -- ./inp_files/14434.got.cif
#   From: 2010.05.17/outbox.cif.g08.bks.cpg/sg3_8_cif.got.tgz:14434.got - 2010.06.03 18:33:08.
