data_PCOD9113601
_publ_section_title
;
Structure prediction by ZEFSAII (Michael W. Deem and Ramdas Pophale) SiO2 
 PCOD9113601
Probable space group: P 2
;
_chemical_formula_sum "Si O2"
_cell_formula_units_Z 13
_cell_length_a 8.044574
_cell_length_b 6.792963
_cell_length_c 17.479725
_cell_angle_alpha 90.000000
_cell_angle_beta 37.875391
_cell_angle_gamma 90.000000
_cell_volume 586.444921
_symmetry_space_group_name_H-M "P 2"
_symmetry_group_IT_number 3
_symmetry_cell_setting 'monoclinic'
loop_
_space_group_symop_operation_xyz
x,y,z
-x,y,-z
loop_
_atom_site_type_symbol
_atom_site_label
_atom_site_fract_x
_atom_site_fract_y
_atom_site_fract_z
Si Si1 0.247387 0.493380 0.534148
Si Si2 0.611000 0.413323 0.183496
Si Si3 0.114522 0.622695 0.202652
Si Si4 0.709522 0.144924 0.595752
Si Si5 0.819788 0.298673 0.948363
Si Si6 0.500000 0.937539 0.000000
Si Si7 0.420418 0.752590 0.694889
O O1 0.500000 0.496579 0.500000
O O2 0.260921 0.281456 0.489373
O O3 0.328608 0.649897 0.440005
O O4 0.985212 0.554205 0.677841
O O5 0.362577 0.293246 0.309324
O O6 0.607612 0.637145 0.214863
O O7 0.875978 0.316545 0.128726
O O8 0.642832 0.387829 0.081993
O O9 0.190571 0.434642 0.123020
O O10 0.849198 0.710431 0.255826
O O11 0.340175 0.791646 0.115192
O O12 0.000000 0.046700 0.500000
O O13 0.481939 0.980828 0.675812
O O14 0.709778 0.083234 0.966750
#
# Coordination Sequence:
#
# PCOD9113601 Si02
#       7
#     2   2   2   2   2   1   2
#     4   9  21  41  63  85 117 161 201 243 298 359
#     4   9  21  43  63  82 118 162 203 243 296 360
#     4  10  22  40  61  89 124 160 203 250 299 359
#     4  11  23  37  61  93 120 151 197 253 304 355
#     4  10  22  41  63  87 119 162 204 250 300 354
#     4  12  24  36  60  96 126 158 202 250 304 360
#     4   9  20  40  64  87 115 158 203 245 298 359
#
# _framework density 22.167469000000001
#
# number of rings (size 3 to 8) (size 9 to 14) (size 15 to 20)
#    0.000    2.154    0.000    2.308    0.000   10.462 
#    0.000    3.077    0.000    0.000    0.000    0.000 
#    0.000    0.000    0.000    0.000    0.000    0.000 
#
# Total GULP energy -72665.399983 kJ/mol
# GULP energy per Si atom -5589.646153 kJ/mol
# Density = 2.211701 g / cm^3
# Si number density = 22.167469 Si / 1000 Ang^3
#
#
#
# Elastic Constant Matrix: (Units=GPa)
#
#
# Indices 1 2 3 4 5 6 
#
# 1 52.4805 27.7026 26.3490 0.0000 2.6603 0.0000
# 2 27.7026 147.1950 60.0271 0.0000 5.5473 0.0000
# 3 26.3490 60.0271 138.0882 0.0000 8.5022 0.0000
# 4 0.0000 0.0000 0.0000 28.3542 0.0000 -8.9826
# 5 2.6603 5.5473 8.5022 0.0000 31.3237 0.0000
# 6 0.0000 0.0000 0.0000 -8.9826 0.0000 26.7204
#
#
#
# Elastic Compliance Matrix: (Units=1/GPa)
#
#
# Indices 1 2 3 4 5 6 
#
# 1 0.022098 -0.002956 -0.002897 0.000000 -0.000567 0.000000
# 2 -0.002956 0.008661 -0.003175 0.000000 -0.000421 0.000000
# 3 -0.002897 -0.003175 0.009280 0.000000 -0.001711 0.000000
# 4 0.000000 0.000000 0.000000 0.039472 0.000000 0.013269
# 5 -0.000567 -0.000421 -0.001711 0.000000 0.032512 0.000000
# 6 0.000000 0.000000 0.000000 0.013269 0.000000 0.041885
#
#
# Mechanical properties :
#
#
# Convention : Reuss Voigt Hill
#
# Bulk Modulus (GPa) = 45.48894 62.88013 54.18454
# Shear Modulus (GPa) = 27.88767 32.19201 30.03984
#
# Velocity S-wave (km/s) = 3.55074 3.81493 3.68520
# Velocity P-wave (km/s) = 6.11355 6.91610 6.52717
#
# Compressibility (1/GPa) = 0.02198336
#
# Stress axis : x y z
#
# Youngs Moduli (GPa) = 45.25235 115.46463 107.76028
#
# Poissons Ratio (x) = 0.34135 0.31214
# Poissons Ratio (y) = 0.13378 0.34211
# Poissons Ratio (z) = 0.13108 0.36657
#
# Static dielectric constant tensor:
#      x y z
#    x 1.831870 0.000000 -0.044610 
#    y 0.000000 1.773130 0.000000 
#    z -0.044610 0.000000 1.822090 
# 
# From -- ./inp_files/8972.got.cif
#   From: 2010.05.17/outbox.cif.g08.bks.cpg/sg3_5_cif.got.tgz:8972.got - 2010.06.03 18:33:08.
