data_PCOD9113696
_publ_section_title
;
Structure prediction by ZEFSAII (Michael W. Deem and Ramdas Pophale) SiO2 
 PCOD9113696
Probable space group: P 2
;
_chemical_formula_sum "Si O2"
_cell_formula_units_Z 12
_cell_length_a 23.212523
_cell_length_b 5.427783
_cell_length_c 11.812133
_cell_angle_alpha 90.000000
_cell_angle_beta 158.377878
_cell_angle_gamma 90.000000
_cell_volume 548.392130
_symmetry_space_group_name_H-M "P 2"
_symmetry_group_IT_number 3
_symmetry_cell_setting 'monoclinic'
loop_
_space_group_symop_operation_xyz
x,y,z
-x,y,-z
loop_
_atom_site_type_symbol
_atom_site_label
_atom_site_fract_x
_atom_site_fract_y
_atom_site_fract_z
Si Si1 0.325560 0.043460 0.360069
Si Si2 0.815438 0.792114 0.684647
Si Si3 0.622775 0.321884 0.973262
Si Si4 0.592072 0.702444 0.758000
Si Si5 0.313377 0.289727 0.661692
Si Si6 0.176041 0.085666 0.862134
O O1 0.444941 0.217565 0.648456
O O2 0.232935 0.860455 0.274512
O O3 0.452481 0.897895 0.517616
O O4 0.212285 0.162978 0.058235
O O5 0.755137 0.527674 0.528885
O O6 0.742958 0.026510 0.486516
O O7 0.000000 0.796134 0.000000
O O8 0.607302 0.605742 0.913034
O O9 0.718348 0.289489 0.261601
O O10 0.716714 0.219989 0.035853
O O11 0.500000 0.526275 0.500000
O O12 0.760329 0.803831 0.030322
O O13 0.500000 0.310767 0.000000
O O14 0.000000 0.109604 0.500000
#
# Coordination Sequence:
#
# PCOD9113696 Si02
#       6
#     2   2   2   2   2   2
#     4  10  22  42  66  93 137 180 232 292 352 431
#     4  12  28  48  70 108 147 194 235 306 368 423
#     4  11  22  40  68  96 133 178 240 293 349 427
#     4   9  19  38  63  91 125 173 229 278 348 423
#     4  12  26  46  76 105 141 191 256 292 351 436
#     4  10  23  39  63 101 134 177 223 294 366 425
#
# _framework density 21.882152000000001
#
# number of rings (size 3 to 8) (size 9 to 14) (size 15 to 20)
#    0.000    1.333    1.667    4.500    7.000    0.667 
#    0.000    0.000    0.000    0.000    0.000    0.000 
#    0.000    0.000    0.000    0.000    0.000    0.000 
#
# Total GULP energy -66844.249271 kJ/mol
# GULP energy per Si atom -5570.354106 kJ/mol
# Density = 2.183235 g / cm^3
# Si number density = 21.882152 Si / 1000 Ang^3
#
#
#
# Elastic Constant Matrix: (Units=GPa)
#
#
# Indices 1 2 3 4 5 6 
#
# 1 110.3251 9.2252 38.8284 0.0000 -13.3825 0.0000
# 2 9.2252 50.1151 16.8125 0.0000 1.4889 0.0000
# 3 38.8284 16.8125 117.2684 0.0000 15.5410 0.0000
# 4 0.0000 0.0000 0.0000 34.4750 0.0000 -8.1062
# 5 -13.3825 1.4889 15.5410 0.0000 42.5294 0.0000
# 6 0.0000 0.0000 0.0000 -8.1062 0.0000 26.9217
#
#
#
# Elastic Compliance Matrix: (Units=1/GPa)
#
#
# Indices 1 2 3 4 5 6 
#
# 1 0.011267 -0.000784 -0.004300 0.000000 0.005144 0.000000
# 2 -0.000784 0.021023 -0.002758 0.000000 0.000025 0.000000
# 3 -0.004300 -0.002758 0.011048 0.000000 -0.005294 0.000000
# 4 0.000000 0.000000 0.000000 0.031217 0.000000 0.009399
# 5 0.005144 0.000025 -0.005294 0.000000 0.027065 0.000000
# 6 0.000000 0.000000 0.000000 0.009399 0.000000 0.039975
#
#
# Mechanical properties :
#
#
# Convention : Reuss Voigt Hill
#
# Bulk Modulus (GPa) = 36.16076 45.27118 40.71597
# Shear Modulus (GPa) = 30.03070 34.97473 32.50271
#
# Velocity S-wave (km/s) = 3.70859 4.00224 3.85821
# Velocity P-wave (km/s) = 5.90756 6.48774 6.20444
#
# Compressibility (1/GPa) = 0.02765429
#
# Stress axis : x y z
#
# Youngs Moduli (GPa) = 88.75493 47.56742 90.51391
#
# Poissons Ratio (x) = 0.03731 0.38919
# Poissons Ratio (y) = 0.06962 0.24960
# Poissons Ratio (z) = 0.38163 0.13117
#
# Static dielectric constant tensor:
#      x y z
#    x 2.014890 0.000000 -0.131290 
#    y 0.000000 2.037660 0.000000 
#    z -0.131290 0.000000 1.836120 
# 
# From -- ./inp_files/6686.got.cif
#   From: 2010.05.17/outbox.cif.g08.bks.cpg/sg3_4_cif.got.tgz:6686.got - 2010.06.03 18:33:08.
