data_PCOD9113389
_publ_section_title
;
Structure prediction by ZEFSAII (Michael W. Deem and Ramdas Pophale) SiO2 
 PCOD9113389
Probable space group: P 2
;
_chemical_formula_sum "Si O2"
_cell_formula_units_Z 15
_cell_length_a 21.095329
_cell_length_b 5.526344
_cell_length_c 4.913997
_cell_angle_alpha 90.000000
_cell_angle_beta 105.603390
_cell_angle_gamma 90.000000
_cell_volume 551.761667
_symmetry_space_group_name_H-M "P 2"
_symmetry_group_IT_number 3
_symmetry_cell_setting 'monoclinic'
loop_
_space_group_symop_operation_xyz
x,y,z
-x,y,-z
loop_
_atom_site_type_symbol
_atom_site_label
_atom_site_fract_x
_atom_site_fract_y
_atom_site_fract_z
Si Si1 0.565542 0.413760 0.480630
Si Si2 0.500000 0.790492 0.000000
Si Si3 0.813995 0.039289 0.364495
Si Si4 0.098034 0.027154 0.045673
Si Si5 0.366781 0.025194 0.797337
Si Si6 0.938726 0.525315 0.228496
Si Si7 0.787456 0.536563 0.247197
Si Si8 0.674546 0.730385 0.777427
O O1 0.500000 0.266729 0.500000
O O2 0.613692 0.542151 0.754905
O O3 0.616024 0.267885 0.346419
O O4 0.528349 0.619495 0.266221
O O5 0.438502 0.956172 0.996414
O O6 0.836796 0.028648 0.075574
O O7 0.771766 0.279763 0.365210
O O8 0.784731 0.782189 0.415174
O O9 0.879708 0.058028 0.620358
O O10 0.058712 0.264948 0.912455
O O11 0.065328 0.767845 0.957505
O O12 0.341860 0.838672 0.535992
O O13 0.324662 0.961516 0.016722
O O14 0.865488 0.520415 0.275504
O O15 0.000000 0.548849 0.500000
O O16 0.740164 0.583698 0.936042
#
# Coordination Sequence:
#
# PCOD9113389 Si02
#       8
#     2   1   2   2   2   2   2   2
#     4  11  24  44  76  99 147 187 247 304 382 437
#     4  10  22  44  64 106 138 178 234 306 354 446
#     4  10  22  42  69  96 134 187 229 289 357 423
#     4  10  21  40  66 100 135 175 234 289 355 421
#     4  11  26  42  72 103 139 188 241 296 373 434
#     4  10  21  42  71 104 141 188 241 298 361 429
#     4  10  24  46  69 101 146 188 241 300 366 436
#     4  11  27  46  66 106 143 187 246 301 366 452
#
# _framework density 27.185649000000002
#
# number of rings (size 3 to 8) (size 9 to 14) (size 15 to 20)
#    0.000    1.600    1.333    1.600    5.600    4.267 
#    2.400   16.000    0.000    0.000    0.000    0.000 
#    0.000    0.000    0.000    0.000    0.000    0.000 
#
# Total GULP energy -83882.743524 kJ/mol
# GULP energy per Si atom -5592.182902 kJ/mol
# Density = 2.712377 g / cm^3
# Si number density = 27.185649 Si / 1000 Ang^3
#
#
#
# Elastic Constant Matrix: (Units=GPa)
#
#
# Indices 1 2 3 4 5 6 
#
# 1 108.6227 6.9986 25.9294 0.0000 18.5009 0.0000
# 2 6.9986 207.0109 57.3906 0.0000 10.7385 0.0000
# 3 25.9294 57.3906 156.2473 0.0000 35.8597 0.0000
# 4 0.0000 0.0000 0.0000 65.3311 0.0000 -1.1627
# 5 18.5009 10.7385 35.8597 0.0000 47.8256 0.0000
# 6 0.0000 0.0000 0.0000 -1.1627 0.0000 24.0218
#
#
#
# Elastic Compliance Matrix: (Units=1/GPa)
#
#
# Indices 1 2 3 4 5 6 
#
# 1 0.009968 0.000094 -0.000965 0.000000 -0.003153 0.000000
# 2 0.000094 0.005384 -0.002062 0.000000 0.000301 0.000000
# 3 -0.000965 -0.002062 0.008607 0.000000 -0.005617 0.000000
# 4 0.000000 0.000000 0.000000 0.015320 0.000000 0.000742
# 5 -0.003153 0.000301 -0.005617 0.000000 0.026273 0.000000
# 6 0.000000 0.000000 0.000000 0.000742 0.000000 0.041665
#
#
# Mechanical properties :
#
#
# Convention : Reuss Voigt Hill
#
# Bulk Modulus (GPa) = 55.27290 72.50203 63.88747
# Shear Modulus (GPa) = 41.97718 52.87321 47.42520
#
# Velocity S-wave (km/s) = 3.93376 4.41488 4.18124
# Velocity P-wave (km/s) = 6.40378 7.26053 6.84557
#
# Compressibility (1/GPa) = 0.01809205
#
# Stress axis : x y z
#
# Youngs Moduli (GPa) = 100.32545 185.75078 116.18683
#
# Poissons Ratio (x) = -0.01748 0.11212
# Poissons Ratio (y) = -0.00944 0.23959
# Poissons Ratio (z) = 0.09681 0.38304
#
# Static dielectric constant tensor:
#      x y z
#    x 2.309220 0.000000 -0.014060 
#    y 0.000000 2.175990 0.000000 
#    z -0.014060 0.000000 1.995550 
# 
# From -- ./inp_files/3964.got.cif
#   From: 2010.05.17/outbox.cif.g08.bks.cpg/sg3_2_cif.got.tgz:3964.got - 2010.06.03 18:33:08.
