data_PCOD9113354
_publ_section_title
;
Structure prediction by ZEFSAII (Michael W. Deem and Ramdas Pophale) SiO2 
 PCOD9113354
Probable space group: P 2
;
_chemical_formula_sum "Si O2"
_cell_formula_units_Z 14
_cell_length_a 9.732540
_cell_length_b 9.391961
_cell_length_c 12.181325
_cell_angle_alpha 90.000000
_cell_angle_beta 38.109223
_cell_angle_gamma 90.000000
_cell_volume 687.189582
_symmetry_space_group_name_H-M "P 2"
_symmetry_group_IT_number 3
_symmetry_cell_setting 'monoclinic'
loop_
_space_group_symop_operation_xyz
x,y,z
-x,y,-z
loop_
_atom_site_type_symbol
_atom_site_label
_atom_site_fract_x
_atom_site_fract_y
_atom_site_fract_z
Si Si1 0.000000 0.702210 0.000000
Si Si2 0.500000 0.879365 0.000000
Si Si3 0.073988 0.281456 0.076741
Si Si4 0.400613 0.494710 0.797313
Si Si5 0.264260 0.729581 0.341342
Si Si6 0.662916 0.259636 0.496089
Si Si7 0.120601 0.958352 0.087271
Si Si8 0.335380 0.948533 0.495978
O O1 0.783916 0.597284 0.147794
O O2 0.090023 0.816277 0.033562
O O3 0.664985 0.791919 0.819786
O O4 0.654558 0.961624 0.986200
O O5 0.896283 0.293861 0.288038
O O6 0.118899 0.113547 0.033956
O O7 0.274054 0.393003 0.964143
O O8 0.000000 0.323234 0.000000
O O9 0.584799 0.592350 0.736682
O O10 0.543066 0.389685 0.630551
O O11 0.335644 0.833247 0.398474
O O12 0.000000 0.706152 0.500000
O O13 0.500000 0.223189 0.500000
O O14 0.651177 0.107728 0.565508
O O15 0.907877 0.950315 0.298766
O O16 0.500000 0.922863 0.500000
#
# Coordination Sequence:
#
# PCOD9113354 Si02
#       8
#     1   1   2   2   2   2   2   2
#     4  12  22  40  74 108 134 178 236 288 344 408
#     4  12  26  46  70  98 142 188 226 288 338 412
#     4  11  22  42  68 103 142 175 228 292 345 406
#     4  12  25  40  68 102 141 181 218 293 352 413
#     4  12  27  49  67 100 145 185 232 281 349 421
#     4  10  21  39  66 102 138 173 220 284 351 406
#     4  11  24  43  73 103 134 185 237 287 341 400
#     4  10  23  43  74 108 132 174 234 298 340 401
#
# _framework density 20.372834999999998
#
# number of rings (size 3 to 8) (size 9 to 14) (size 15 to 20)
#    0.000    0.857    5.714    0.857    2.000    4.000 
#    0.000    4.286    0.000    0.000    0.000    0.000 
#    0.000    0.000    0.000    0.000    0.000    0.000 
#
# Total GULP energy -77946.865306 kJ/mol
# GULP energy per Si atom -5567.633236 kJ/mol
# Density = 2.032647 g / cm^3
# Si number density = 20.372835 Si / 1000 Ang^3
#
#
#
# Elastic Constant Matrix: (Units=GPa)
#
#
# Indices 1 2 3 4 5 6 
#
# 1 72.6674 35.7138 42.3165 0.0000 -18.2176 0.0000
# 2 35.7138 151.6309 62.0071 0.0000 -6.1954 0.0000
# 3 42.3165 62.0071 112.9492 0.0000 -29.0619 0.0000
# 4 0.0000 0.0000 0.0000 -0.1187 0.0000 -76.7394
# 5 -18.2176 -6.1954 -29.0619 0.0000 26.9059 0.0000
# 6 0.0000 0.0000 0.0000 -76.7394 0.0000 -116.0984
#
#
#
# Elastic Compliance Matrix: (Units=1/GPa)
#
#
# Indices 1 2 3 4 5 6 
#
# 1 0.019331 -0.002773 -0.003485 0.000000 0.008686 0.000000
# 2 -0.002773 0.009272 -0.005519 0.000000 -0.005703 0.000000
# 3 -0.003485 -0.005519 0.016972 0.000000 0.014701 0.000000
# 4 0.000000 0.000000 0.000000 0.019761 0.000000 -0.013062
# 5 0.008686 -0.005703 0.014701 0.000000 0.057613 0.000000
# 6 0.000000 0.000000 0.000000 -0.013062 0.000000 0.000020
#
#
# Mechanical properties :
#
#
# Convention : Reuss Voigt Hill
#
# Bulk Modulus (GPa) = 45.41172 68.59136 57.00154
# Shear Modulus (GPa) = 32.49641 -4.71491 13.89075
#
# Velocity S-wave (km/s) = 3.99818 -1.52294 2.61401
# Velocity P-wave (km/s) = 6.60702 5.53613 6.09514
#
# Compressibility (1/GPa) = 0.02202075
#
# Stress axis : x y z
#
# Youngs Moduli (GPa) = 51.72958 107.85358 58.92231
#
# Poissons Ratio (x) = 0.29908 0.20536
# Poissons Ratio (y) = 0.14345 0.32517
# Poissons Ratio (z) = 0.18029 0.59521
#
# Static dielectric constant tensor:
#      x y z
#    x 1.699600 0.000000 -0.057110 
#    y 0.000000 1.841670 0.000000 
#    z -0.057110 0.000000 1.737520 
# 
# From -- ./inp_files/10684.got.cif
#   From: 2010.05.17/outbox.cif.g08.bks.cpg/sg3_6_cif.got.tgz:10684.got - 2010.06.03 18:33:08.
