data_PCOD9113421
_publ_section_title
;
Structure prediction by ZEFSAII (Michael W. Deem and Ramdas Pophale) SiO2 
 PCOD9113421
Probable space group: P 2
;
_chemical_formula_sum "Si O2"
_cell_formula_units_Z 12
_cell_length_a 4.944384
_cell_length_b 6.523551
_cell_length_c 19.310442
_cell_angle_alpha 90.000000
_cell_angle_beta 59.069694
_cell_angle_gamma 90.000000
_cell_volume 534.282617
_symmetry_space_group_name_H-M "P 2"
_symmetry_group_IT_number 3
_symmetry_cell_setting 'monoclinic'
loop_
_space_group_symop_operation_xyz
x,y,z
-x,y,-z
loop_
_atom_site_type_symbol
_atom_site_label
_atom_site_fract_x
_atom_site_fract_y
_atom_site_fract_z
Si Si1 0.648682 0.146380 0.050990
Si Si2 0.253335 0.551144 0.664560
Si Si3 0.500000 0.335259 0.500000
Si Si4 0.214309 0.507121 0.162426
Si Si5 0.000000 0.046190 0.500000
Si Si6 0.716043 0.806550 0.161173
Si Si7 0.754005 0.807085 0.665359
O O1 0.385990 0.317731 0.103378
O O2 0.713370 0.974108 0.100939
O O3 0.500000 0.053080 0.000000
O O4 0.000000 0.244978 0.000000
O O5 0.309235 0.463899 0.581363
O O6 0.582270 0.604618 0.657367
O O7 0.041322 0.429144 0.747405
O O8 0.045904 0.754859 0.676761
O O9 0.280382 0.190540 0.485012
O O10 0.490193 0.623865 0.166064
O O11 0.032520 0.684294 0.141906
O O12 0.113911 0.920205 0.418721
O O13 0.528703 0.903118 0.251733
#
# Coordination Sequence:
#
# PCOD9113421 Si02
#       7
#     2   2   1   2   1   2   2
#     4  12  26  44  70 106 136 178 226 290 358 416
#     4  10  21  41  64  88 128 176 218 262 325 388
#     4  12  24  36  58 100 130 168 214 270 320 378
#     4  10  23  44  69  99 134 181 225 279 341 409
#     4  12  24  36  58 100 130 168 214 270 320 378
#     4  10  23  44  69  99 134 181 225 279 341 409
#     4  10  21  41  64  88 128 176 218 262 325 388
#
# _framework density 22.460021999999999
#
# number of rings (size 3 to 8) (size 9 to 14) (size 15 to 20)
#    0.000    1.333    0.000    5.000    2.333    2.667 
#    3.000    0.000    0.000    0.000    0.000    0.000 
#    0.000    0.000    0.000    0.000    0.000    0.000 
#
# Total GULP energy -66978.917166 kJ/mol
# GULP energy per Si atom -5581.576431 kJ/mol
# Density = 2.240890 g / cm^3
# Si number density = 22.460022 Si / 1000 Ang^3
#
#
#
# Elastic Constant Matrix: (Units=GPa)
#
#
# Indices 1 2 3 4 5 6 
#
# 1 125.5009 9.6648 26.5442 0.0000 4.5208 0.0000
# 2 9.6648 38.8727 48.2227 0.0000 -0.2028 0.0000
# 3 26.5442 48.2227 134.5610 0.0000 8.2239 0.0000
# 4 0.0000 0.0000 0.0000 49.8594 0.0000 5.9058
# 5 4.5208 -0.2028 8.2239 0.0000 32.7877 0.0000
# 6 0.0000 0.0000 0.0000 5.9058 0.0000 34.8939
#
#
#
# Elastic Compliance Matrix: (Units=1/GPa)
#
#
# Indices 1 2 3 4 5 6 
#
# 1 0.008334 -0.000170 -0.001536 0.000000 -0.000765 0.000000
# 2 -0.000170 0.046988 -0.017087 0.000000 0.004600 0.000000
# 3 -0.001536 -0.017087 0.014067 0.000000 -0.003422 0.000000
# 4 0.000000 0.000000 0.000000 0.020467 0.000000 -0.003464
# 5 -0.000765 0.004600 -0.003422 0.000000 0.031492 0.000000
# 6 0.000000 0.000000 0.000000 -0.003464 0.000000 0.029245
#
#
# Mechanical properties :
#
#
# Convention : Reuss Voigt Hill
#
# Bulk Modulus (GPa) = 31.44417 51.97755 41.71086
# Shear Modulus (GPa) = 25.15370 37.80840 31.48105
#
# Velocity S-wave (km/s) = 3.35017 4.10733 3.74792
# Velocity P-wave (km/s) = 5.38473 6.75915 6.11070
#
# Compressibility (1/GPa) = 0.03180240
#
# Stress axis : x y z
#
# Youngs Moduli (GPa) = 119.99555 21.28218 71.08804
#
# Poissons Ratio (x) = 0.00362 0.10920
# Poissons Ratio (y) = 0.02044 1.21465
# Poissons Ratio (z) = 0.18433 0.36364
#
# Static dielectric constant tensor:
#      x y z
#    x 1.782220 0.000000 -0.029540 
#    y 0.000000 1.811660 0.000000 
#    z -0.029540 0.000000 1.980370 
# 
# From -- ./inp_files/3377.got.cif
#   From: 2010.05.17/outbox.cif.g08.bks.cpg/sg3_2_cif.got.tgz:3377.got - 2010.06.03 18:33:08.
