data_PCOD9113152
_publ_section_title
;
Structure prediction by ZEFSAII (Michael W. Deem and Ramdas Pophale) SiO2 
 PCOD9113152
Probable space group: P 2
;
_chemical_formula_sum "Si O2"
_cell_formula_units_Z 11
_cell_length_a 8.695664
_cell_length_b 7.650141
_cell_length_c 13.017404
_cell_angle_alpha 90.000000
_cell_angle_beta 145.027237
_cell_angle_gamma 90.000000
_cell_volume 496.355548
_symmetry_space_group_name_H-M "P 2"
_symmetry_group_IT_number 3
_symmetry_cell_setting 'monoclinic'
loop_
_space_group_symop_operation_xyz
x,y,z
-x,y,-z
loop_
_atom_site_type_symbol
_atom_site_label
_atom_site_fract_x
_atom_site_fract_y
_atom_site_fract_z
Si Si1 0.716733 0.049990 0.702699
Si Si2 0.000000 0.935078 0.500000
Si Si3 0.810761 0.990989 0.185685
Si Si4 0.555072 0.752493 0.758491
Si Si5 0.762323 0.608296 0.090319
Si Si6 0.199545 0.430045 0.207256
O O1 0.500000 0.987427 0.500000
O O2 0.652247 0.247428 0.698549
O O3 0.707170 0.916509 0.791246
O O4 0.003661 0.055430 0.804506
O O5 0.082393 0.046695 0.644777
O O6 0.254347 0.817146 0.609805
O O7 0.500000 0.033522 0.000000
O O8 0.836196 0.778565 0.197463
O O9 0.673906 0.692843 0.932721
O O10 0.602307 0.589322 0.709198
O O11 0.500000 0.524750 0.000000
O O12 0.009957 0.484053 0.199167
O O13 0.000000 0.411864 0.000000
#
# Coordination Sequence:
#
# PCOD9113152 Si02
#       6
#     2   1   2   2   2   2
#     4  12  26  43  68 101 136 180 225 279 339 404
#     4  12  22  40  72 100 132 176 230 278 344 398
#     4  11  23  40  70 102 132 180 223 277 342 403
#     4  11  23  43  67  98 132 175 227 281 332 401
#     4  10  20  41  69  97 129 175 225 271 340 400
#     4  10  25  41  67  99 132 175 225 279 334 402
#
# _framework density 22.161532000000001
#
# number of rings (size 3 to 8) (size 9 to 14) (size 15 to 20)
#    0.000    1.091    7.273    0.000    2.545    2.909 
#    0.000    2.727    0.000    0.000    0.000    0.000 
#    0.000    0.000    0.000    0.000    0.000    0.000 
#
# Total GULP energy -61526.790945 kJ/mol
# GULP energy per Si atom -5593.344631 kJ/mol
# Density = 2.211109 g / cm^3
# Si number density = 22.161532 Si / 1000 Ang^3
#
#
#
# Elastic Constant Matrix: (Units=GPa)
#
#
# Indices 1 2 3 4 5 6 
#
# 1 151.0608 43.5567 27.1903 0.0000 -0.6488 0.0000
# 2 43.5567 90.1558 4.6072 0.0000 -4.0066 0.0000
# 3 27.1903 4.6072 79.4698 0.0000 -5.7843 0.0000
# 4 0.0000 0.0000 0.0000 8.8841 0.0000 3.0477
# 5 -0.6488 -4.0066 -5.7843 0.0000 27.2349 0.0000
# 6 0.0000 0.0000 0.0000 3.0477 0.0000 -22.2326
#
#
#
# Elastic Compliance Matrix: (Units=1/GPa)
#
#
# Indices 1 2 3 4 5 6 
#
# 1 0.008210 -0.003873 -0.002653 0.000000 -0.000938 0.000000
# 2 -0.003873 0.013014 0.000714 0.000000 0.001974 0.000000
# 3 -0.002653 0.000714 0.013664 0.000000 0.002944 0.000000
# 4 0.000000 0.000000 0.000000 0.107505 0.000000 0.014737
# 5 -0.000938 0.001974 0.002944 0.000000 0.037611 0.000000
# 6 0.000000 0.000000 0.000000 0.014737 0.000000 -0.042959
#
#
# Mechanical properties :
#
#
# Convention : Reuss Voigt Hill
#
# Bulk Modulus (GPa) = 42.98174 52.37718 47.67946
# Shear Modulus (GPa) = 31.96479 19.13277 25.54878
#
# Velocity S-wave (km/s) = 3.80195 2.94144 3.39904
# Velocity P-wave (km/s) = 6.22174 5.93479 6.07995
#
# Compressibility (1/GPa) = 0.02326569
#
# Stress axis : x y z
#
# Youngs Moduli (GPa) = 121.80414 76.83999 73.18559
#
# Poissons Ratio (x) = 0.29756 0.19414
# Poissons Ratio (y) = 0.47169 -0.05227
# Poissons Ratio (z) = 0.32311 -0.05488
#
# Static dielectric constant tensor:
#      x y z
#    x 1.834590 0.000000 -0.023260 
#    y 0.000000 1.785910 0.000000 
#    z -0.023260 0.000000 1.851020 
# 
# From -- ./inp_files/10387.got.cif
#   From: 2010.05.17/outbox.cif.g08.bks.cpg/sg3_6_cif.got.tgz:10387.got - 2010.06.03 18:33:08.
