data_PCOD9113042
_publ_section_title
;
Structure prediction by ZEFSAII (Michael W. Deem and Ramdas Pophale) SiO2 
 PCOD9113042
Probable space group: P 2
;
_chemical_formula_sum "Si O2"
_cell_formula_units_Z 16
_cell_length_a 11.360382
_cell_length_b 8.327979
_cell_length_c 8.737808
_cell_angle_alpha 90.000000
_cell_angle_beta 63.448481
_cell_angle_gamma 90.000000
_cell_volume 739.488319
_symmetry_space_group_name_H-M "P 2"
_symmetry_group_IT_number 3
_symmetry_cell_setting 'monoclinic'
loop_
_space_group_symop_operation_xyz
x,y,z
-x,y,-z
loop_
_atom_site_type_symbol
_atom_site_label
_atom_site_fract_x
_atom_site_fract_y
_atom_site_fract_z
Si Si1 0.118576 0.228650 0.312693
Si Si2 0.268480 0.927357 0.284795
Si Si3 0.632503 0.426498 0.716798
Si Si4 0.385758 0.811942 0.695913
Si Si5 0.203024 0.668642 0.565944
Si Si6 0.502412 0.126904 0.679398
Si Si7 0.665686 0.660730 0.973559
Si Si8 0.950681 0.511260 0.855426
O O1 0.238916 0.319475 0.323897
O O2 0.081547 0.332879 0.186914
O O3 0.000000 0.226490 0.500000
O O4 0.169521 0.049091 0.261398
O O5 0.195994 0.796541 0.432806
O O6 0.342832 0.827208 0.112823
O O7 0.371767 0.024327 0.331885
O O8 0.683000 0.541556 0.550247
O O9 0.515016 0.300203 0.752909
O O10 0.620905 0.530273 0.876477
O O11 0.500000 0.806519 0.500000
O O12 0.254065 0.763123 0.684887
O O13 0.405164 0.687125 0.823108
O O14 0.387586 0.993601 0.761440
O O15 0.066428 0.582451 0.681585
O O16 0.500000 0.163022 0.500000
O O17 0.817876 0.615583 0.918158
O O18 0.000000 0.509360 0.000000
#
# Coordination Sequence:
#
# PCOD9113042 Si02
#       8
#     2   2   2   2   2   2   2   2
#     4  10  20  38  63  96 133 177 216 276 342 408
#     4  10  22  39  65  97 131 177 226 280 347 399
#     4   9  21  39  68  97 135 176 224 279 342 403
#     4  11  22  42  72  96 134 179 231 289 336 398
#     4  11  20  40  68 101 129 175 231 278 339 414
#     4  10  20  42  67  94 135 177 227 281 341 401
#     4  10  23  41  68 103 138 172 234 283 341 414
#     4  11  22  40  65 100 140 176 219 281 343 412
#
# _framework density 21.636582000000001
#
# number of rings (size 3 to 8) (size 9 to 14) (size 15 to 20)
#    0.000    1.750    5.000    0.000    1.750    1.000 
#    0.000    4.375   16.500    0.000    0.000    0.000 
#    0.000    0.000    0.000    0.000    0.000    0.000 
#
# Total GULP energy -89331.961276 kJ/mol
# GULP energy per Si atom -5583.247580 kJ/mol
# Density = 2.158734 g / cm^3
# Si number density = 21.636582 Si / 1000 Ang^3
#
#
#
# Elastic Constant Matrix: (Units=GPa)
#
#
# Indices 1 2 3 4 5 6 
#
# 1 79.3716 36.5240 36.2071 0.0000 10.4304 0.0000
# 2 36.5240 140.2327 54.2041 0.0000 9.1748 0.0000
# 3 36.2071 54.2041 111.7144 0.0000 8.3656 0.0000
# 4 0.0000 0.0000 0.0000 15.7483 0.0000 21.9027
# 5 10.4304 9.1748 8.3656 0.0000 35.5191 0.0000
# 6 0.0000 0.0000 0.0000 21.9027 0.0000 -14.5233
#
#
#
# Elastic Compliance Matrix: (Units=1/GPa)
#
#
# Indices 1 2 3 4 5 6 
#
# 1 0.015842 -0.002495 -0.003689 0.000000 -0.003139 0.000000
# 2 -0.002495 0.009228 -0.003609 0.000000 -0.000801 0.000000
# 3 -0.003689 -0.003609 0.011958 0.000000 -0.000801 0.000000
# 4 0.000000 0.000000 0.000000 0.020500 0.000000 0.030917
# 5 -0.003139 -0.000801 -0.000801 0.000000 0.029471 0.000000
# 6 0.000000 0.000000 0.000000 0.030917 0.000000 -0.022229
#
#
# Mechanical properties :
#
#
# Convention : Reuss Voigt Hill
#
# Bulk Modulus (GPa) = 57.32991 65.02103 61.17547
# Shear Modulus (GPa) = 55.45046 20.97439 38.21242
#
# Velocity S-wave (km/s) = 5.06791 3.11689 4.20706
# Velocity P-wave (km/s) = 7.79739 6.56277 7.20657
#
# Compressibility (1/GPa) = 0.01744290
#
# Stress axis : x y z
#
# Youngs Moduli (GPa) = 63.12202 108.36367 83.62572
#
# Poissons Ratio (x) = 0.27036 0.30849
# Poissons Ratio (y) = 0.15748 0.30180
# Poissons Ratio (z) = 0.23286 0.39108
#
# Static dielectric constant tensor:
#      x y z
#    x 1.829550 0.000000 -0.027080 
#    y 0.000000 1.830390 0.000000 
#    z -0.027080 0.000000 1.800220 
# 
# From -- ./inp_files/7196.got.cif
#   From: 2010.05.17/outbox.cif.g08.bks.cpg/sg3_4_cif.got.tgz:7196.got - 2010.06.03 18:33:08.
