data_PCOD9113660
_publ_section_title
;
Structure prediction by ZEFSAII (Michael W. Deem and Ramdas Pophale) SiO2 
 PCOD9113660
Probable space group: P 2
;
_chemical_formula_sum "Si O2"
_cell_formula_units_Z 15
_cell_length_a 27.029931
_cell_length_b 5.080201
_cell_length_c 16.397217
_cell_angle_alpha 90.000000
_cell_angle_beta 16.773767
_cell_angle_gamma 90.000000
_cell_volume 649.804112
_symmetry_space_group_name_H-M "P 2"
_symmetry_group_IT_number 3
_symmetry_cell_setting 'monoclinic'
loop_
_space_group_symop_operation_xyz
x,y,z
-x,y,-z
loop_
_atom_site_type_symbol
_atom_site_label
_atom_site_fract_x
_atom_site_fract_y
_atom_site_fract_z
Si Si1 0.848360 0.530630 0.803686
Si Si2 0.500000 0.859179 0.000000
Si Si3 0.895038 0.042870 0.836468
Si Si4 0.164229 0.426631 0.793051
Si Si5 0.434394 0.580792 0.248078
Si Si6 0.277881 0.192284 0.221718
Si Si7 0.419592 0.913471 0.849536
Si Si8 0.749523 0.945293 0.243091
O O1 0.912416 0.765956 0.761987
O O2 0.000000 0.480465 0.500000
O O3 0.808338 0.263252 0.915473
O O4 0.684128 0.664422 0.020703
O O5 0.622041 0.678736 0.750975
O O6 0.609764 0.030846 0.889622
O O7 0.082536 0.167321 0.555586
O O8 0.797048 0.984213 0.074367
O O9 0.312627 0.389041 0.490203
O O10 0.212997 0.651973 0.781969
O O11 0.142040 0.154655 0.875534
O O12 0.000000 0.508196 0.000000
O O13 0.450076 0.819009 0.285713
O O14 0.625565 0.469790 0.933361
O O15 0.293687 0.090267 0.102891
O O16 0.549242 0.014812 0.576323
#
# Coordination Sequence:
#
# PCOD9113660 Si02
#       8
#     2   1   2   2   2   2   2   2
#     4  12  25  46  73 106 135 188 236 288 359 421
#     4  10  24  36  64 102 136 180 232 286 350 418
#     4  12  28  43  73 107 142 177 235 300 353 403
#     4  11  24  42  72  96 141 190 238 277 350 424
#     4  10  22  41  65  99 134 189 233 283 354 415
#     4  11  22  43  67 101 140 183 227 294 347 415
#     4  10  23  44  71  92 140 181 234 284 345 428
#     4  11  25  47  66 103 142 181 231 296 349 411
#
# _framework density 23.083877999999999
#
# number of rings (size 3 to 8) (size 9 to 14) (size 15 to 20)
#    0.000    1.067    2.667    2.800    5.600    2.667 
#    0.000    1.333    0.000    0.000    0.000    0.000 
#    0.000    0.000    0.000    0.000    0.000    0.000 
#
# Total GULP energy -83825.859621 kJ/mol
# GULP energy per Si atom -5588.390641 kJ/mol
# Density = 2.303134 g / cm^3
# Si number density = 23.083878 Si / 1000 Ang^3
#
#
#
# Elastic Constant Matrix: (Units=GPa)
#
#
# Indices 1 2 3 4 5 6 
#
# 1 121.7957 31.2832 57.8556 0.0000 27.4263 0.0000
# 2 31.2832 93.3376 17.8199 0.0000 14.2137 0.0000
# 3 57.8556 17.8199 104.1610 0.0000 25.3346 0.0000
# 4 0.0000 0.0000 0.0000 24.0488 0.0000 1.9405
# 5 27.4263 14.2137 25.3346 0.0000 40.4067 0.0000
# 6 0.0000 0.0000 0.0000 1.9405 0.0000 33.4552
#
#
#
# Elastic Compliance Matrix: (Units=1/GPa)
#
#
# Indices 1 2 3 4 5 6 
#
# 1 0.012355 -0.002477 -0.005441 0.000000 -0.004103 0.000000
# 2 -0.002477 0.011933 -0.000063 0.000000 -0.002477 0.000000
# 3 -0.005441 -0.000063 0.013840 0.000000 -0.004963 0.000000
# 4 0.000000 0.000000 0.000000 0.041778 0.000000 -0.002423
# 5 -0.004103 -0.002477 -0.004963 0.000000 0.031516 0.000000
# 6 0.000000 0.000000 0.000000 -0.002423 0.000000 0.030031
#
#
# Mechanical properties :
#
#
# Convention : Reuss Voigt Hill
#
# Bulk Modulus (GPa) = 45.11324 59.24574 52.17949
# Shear Modulus (GPa) = 30.33876 33.73785 32.03830
#
# Velocity S-wave (km/s) = 3.62924 3.82715 3.72951
# Velocity P-wave (km/s) = 6.09487 6.72685 6.41864
#
# Compressibility (1/GPa) = 0.02216644
#
# Stress axis : x y z
#
# Youngs Moduli (GPa) = 80.93689 83.79897 72.25220
#
# Poissons Ratio (x) = 0.20760 0.39311
# Poissons Ratio (y) = 0.20051 0.00456
# Poissons Ratio (z) = 0.44036 0.00529
#
# Static dielectric constant tensor:
#      x y z
#    x 1.856500 0.000000 -0.007420 
#    y 0.000000 1.908420 0.000000 
#    z -0.007420 0.000000 1.893370 
# 
# From -- ./inp_files/14398.got.cif
#   From: 2010.05.17/outbox.cif.g08.bks.cpg/sg3_8_cif.got.tgz:14398.got - 2010.06.03 18:33:08.
