data_PCOD9113753
_publ_section_title
;
Structure prediction by ZEFSAII (Michael W. Deem and Ramdas Pophale) SiO2 
 PCOD9113753
Probable space group: P 2
;
_chemical_formula_sum "Si O2"
_cell_formula_units_Z 13
_cell_length_a 9.215474
_cell_length_b 8.040461
_cell_length_c 12.440368
_cell_angle_alpha 90.000000
_cell_angle_beta 41.680008
_cell_angle_gamma 90.000000
_cell_volume 612.962312
_symmetry_space_group_name_H-M "P 2"
_symmetry_group_IT_number 3
_symmetry_cell_setting 'monoclinic'
loop_
_space_group_symop_operation_xyz
x,y,z
-x,y,-z
loop_
_atom_site_type_symbol
_atom_site_label
_atom_site_fract_x
_atom_site_fract_y
_atom_site_fract_z
Si Si1 0.840339 0.732470 0.180981
Si Si2 0.984474 0.770946 0.674897
Si Si3 0.668526 0.078829 0.808872
Si Si4 0.756505 0.425199 0.831144
Si Si5 0.500000 0.166015 0.500000
Si Si6 0.402840 0.920287 0.371833
Si Si7 0.093510 0.348676 0.837380
O O1 0.608351 0.812317 0.290789
O O2 0.828135 0.534164 0.176415
O O3 0.930395 0.768143 0.249330
O O4 0.000000 0.796824 0.000000
O O5 0.859063 0.596336 0.730263
O O6 0.193158 0.800916 0.483985
O O7 0.838095 0.933731 0.741806
O O8 0.766539 0.264384 0.748104
O O9 0.561959 0.019548 0.757285
O O10 0.500000 0.085855 0.000000
O O11 0.898267 0.371525 0.858141
O O12 0.500000 0.455406 0.000000
O O13 0.305168 0.262397 0.668483
O O14 0.376693 0.053668 0.480705
O O15 0.000000 0.270996 0.000000
#
# Coordination Sequence:
#
# PCOD9113753 Si02
#       7
#     2   2   2   2   1   2   2
#     4  10  22  43  70  99 135 185 243 298 357 433
#     4  11  22  44  68 100 146 182 234 293 364 427
#     4  11  25  45  70 101 140 188 237 291 357 438
#     4  10  24  44  73 106 142 187 246 295 359 441
#     4  12  26  42  74 106 150 186 238 312 362 434
#     4  12  25  45  67 104 142 183 243 295 368 435
#     4  10  25  44  72 105 144 191 244 302 364 430
#
# _framework density 21.208482
#
# number of rings (size 3 to 8) (size 9 to 14) (size 15 to 20)
#    0.000    1.231    1.538    2.769    8.615    3.077 
#    0.000    4.615    0.000    0.000    0.000    0.000 
#    0.000    0.000    0.000    0.000    0.000    0.000 
#
# Total GULP energy -72675.619333 kJ/mol
# GULP energy per Si atom -5590.432256 kJ/mol
# Density = 2.116021 g / cm^3
# Si number density = 21.208482 Si / 1000 Ang^3
#
#
#
# Elastic Constant Matrix: (Units=GPa)
#
#
# Indices 1 2 3 4 5 6 
#
# 1 76.1849 49.7090 25.1807 0.0000 -2.3675 0.0000
# 2 49.7090 115.9534 29.7709 0.0000 -9.7588 0.0000
# 3 25.1807 29.7709 85.0837 0.0000 2.9639 0.0000
# 4 0.0000 0.0000 0.0000 25.2669 0.0000 6.6642
# 5 -2.3675 -9.7588 2.9639 0.0000 37.0976 0.0000
# 6 0.0000 0.0000 0.0000 6.6642 0.0000 20.2090
#
#
#
# Elastic Compliance Matrix: (Units=1/GPa)
#
#
# Indices 1 2 3 4 5 6 
#
# 1 0.018918 -0.007382 -0.002999 0.000000 -0.000495 0.000000
# 2 -0.007382 0.012647 -0.002347 0.000000 0.003043 0.000000
# 3 -0.002999 -0.002347 0.013528 0.000000 -0.001889 0.000000
# 4 0.000000 0.000000 0.000000 0.043348 0.000000 -0.014295
# 5 -0.000495 0.003043 -0.001889 0.000000 0.027876 0.000000
# 6 0.000000 0.000000 0.000000 -0.014295 0.000000 0.054197
#
#
# Mechanical properties :
#
#
# Convention : Reuss Voigt Hill
#
# Bulk Modulus (GPa) = 50.92022 54.06036 52.49029
# Shear Modulus (GPa) = 24.68958 28.01879 26.35419
#
# Velocity S-wave (km/s) = 3.41565 3.63865 3.52891
# Velocity P-wave (km/s) = 6.29420 6.57255 6.43488
#
# Compressibility (1/GPa) = 0.01963857
#
# Stress axis : x y z
#
# Youngs Moduli (GPa) = 52.85884 79.06738 73.92332
#
# Poissons Ratio (x) = 0.58367 0.22167
# Poissons Ratio (y) = 0.39020 0.17347
# Poissons Ratio (z) = 0.15851 0.18554
#
# Static dielectric constant tensor:
#      x y z
#    x 1.776140 0.000000 0.008130 
#    y 0.000000 1.752300 0.000000 
#    z 0.008130 0.000000 1.770490 
# 
# From -- ./inp_files/10656.got.cif
#   From: 2010.05.17/outbox.cif.g08.bks.cpg/sg3_6_cif.got.tgz:10656.got - 2010.06.03 18:33:08.
