data_PCOD9113991
_publ_section_title
;
Structure prediction by ZEFSAII (Michael W. Deem and Ramdas Pophale) SiO2 
 PCOD9113991
Probable space group: P 2
;
_chemical_formula_sum "Si O2"
_cell_formula_units_Z 12
_cell_length_a 14.889298
_cell_length_b 5.281654
_cell_length_c 9.735496
_cell_angle_alpha 90.000000
_cell_angle_beta 37.520256
_cell_angle_gamma 90.000000
_cell_volume 466.282806
_symmetry_space_group_name_H-M "P 2"
_symmetry_group_IT_number 3
_symmetry_cell_setting 'monoclinic'
loop_
_space_group_symop_operation_xyz
x,y,z
-x,y,-z
loop_
_atom_site_type_symbol
_atom_site_label
_atom_site_fract_x
_atom_site_fract_y
_atom_site_fract_z
Si Si1 0.038042 0.377050 0.618255
Si Si2 0.123681 0.692391 0.965947
Si Si3 0.694372 0.903958 0.034492
Si Si4 0.466517 0.207328 0.183948
Si Si5 0.575080 0.546624 0.536852
Si Si6 0.221534 0.862402 0.375393
O O1 0.151678 0.605600 0.511128
O O2 0.000000 0.396953 0.500000
O O3 0.115516 0.103020 0.532961
O O4 0.917132 0.456167 0.881833
O O5 0.175383 0.902582 0.014281
O O6 0.275252 0.664674 0.698501
O O7 0.000000 0.738542 0.000000
O O8 0.554454 0.738956 0.257577
O O9 0.620178 0.163950 0.075922
O O10 0.756950 0.814473 0.812828
O O11 0.378428 0.362984 0.399461
O O12 0.376665 0.956437 0.250324
O O13 0.500000 0.342619 0.000000
O O14 0.500000 0.401699 0.500000
#
# Coordination Sequence:
#
# PCOD9113991 Si02
#       6
#     2   2   2   2   2   2
#     4  12  26  50  78 113 158 208 261 324 390 469
#     4  11  25  48  76 112 162 210 262 324 403 484
#     4  10  24  46  74 112 151 207 257 336 387 464
#     4  10  24  42  77 113 146 199 260 333 385 462
#     4  10  24  47  73 111 159 207 260 326 404 477
#     4  11  26  46  81 115 151 198 270 325 383 461
#
# _framework density 25.735453
#
# number of rings (size 3 to 8) (size 9 to 14) (size 15 to 20)
#    0.000    1.333    1.667    1.500    9.333    2.667 
#    3.000    0.833    0.000    0.000    0.000    0.000 
#    0.000    0.000    0.000    0.000    0.000    0.000 
#
# Total GULP energy -67053.829103 kJ/mol
# GULP energy per Si atom -5587.819092 kJ/mol
# Density = 2.567688 g / cm^3
# Si number density = 25.735453 Si / 1000 Ang^3
#
#
#
# Elastic Constant Matrix: (Units=GPa)
#
#
# Indices 1 2 3 4 5 6 
#
# 1 241.2304 70.3669 37.0835 0.0000 14.3155 0.0000
# 2 70.3669 73.0473 54.7975 0.0000 -1.7774 0.0000
# 3 37.0835 54.7975 129.5537 0.0000 1.0985 0.0000
# 4 0.0000 0.0000 0.0000 33.5592 0.0000 3.0490
# 5 14.3155 -1.7774 1.0985 0.0000 44.2005 0.0000
# 6 0.0000 0.0000 0.0000 3.0490 0.0000 32.3966
#
#
#
# Elastic Compliance Matrix: (Units=1/GPa)
#
#
# Indices 1 2 3 4 5 6 
#
# 1 0.006079 -0.006767 0.001142 0.000000 -0.002269 0.000000
# 2 -0.006767 0.027632 -0.009781 0.000000 0.003546 0.000000
# 3 0.001142 -0.009781 0.011538 0.000000 -0.001050 0.000000
# 4 0.000000 0.000000 0.000000 0.030055 0.000000 -0.002829
# 5 -0.002269 0.003546 -0.001050 0.000000 0.023528 0.000000
# 6 0.000000 0.000000 0.000000 -0.002829 0.000000 0.031134
#
#
# Mechanical properties :
#
#
# Convention : Reuss Voigt Hill
#
# Bulk Modulus (GPa) = 69.27055 85.36970 77.32012
# Shear Modulus (GPa) = 30.19527 40.80350 35.49939
#
# Velocity S-wave (km/s) = 3.42906 3.98615 3.71805
# Velocity P-wave (km/s) = 6.53090 7.37766 6.96716
#
# Compressibility (1/GPa) = 0.01443615
#
# Stress axis : x y z
#
# Youngs Moduli (GPa) = 164.51300 36.19012 86.67149
#
# Poissons Ratio (x) = 0.24490 -0.09895
# Poissons Ratio (y) = 1.11328 0.84769
# Poissons Ratio (z) = -0.18781 0.35396
#
# Static dielectric constant tensor:
#      x y z
#    x 1.980000 0.000000 -0.080780 
#    y 0.000000 2.032040 0.000000 
#    z -0.080780 0.000000 2.064440 
# 
# From -- ./inp_files/8150.got.cif
#   From: 2010.05.17/outbox.cif.g08.bks.cpg/sg3_5_cif.got.tgz:8150.got - 2010.06.03 18:33:08.
