data_PCOD9113726
_publ_section_title
;
Structure prediction by ZEFSAII (Michael W. Deem and Ramdas Pophale) SiO2 
 PCOD9113726
Probable space group: P 2
;
_chemical_formula_sum "Si O2"
_cell_formula_units_Z 13
_cell_length_a 11.205272
_cell_length_b 6.970726
_cell_length_c 6.994402
_cell_angle_alpha 90.000000
_cell_angle_beta 93.119316
_cell_angle_gamma 90.000000
_cell_volume 545.515468
_symmetry_space_group_name_H-M "P 2"
_symmetry_group_IT_number 3
_symmetry_cell_setting 'monoclinic'
loop_
_space_group_symop_operation_xyz
x,y,z
-x,y,-z
loop_
_atom_site_type_symbol
_atom_site_label
_atom_site_fract_x
_atom_site_fract_y
_atom_site_fract_z
Si Si1 0.352157 0.593380 0.318406
Si Si2 0.155192 0.343112 0.317800
Si Si3 0.163574 0.767628 0.853153
Si Si4 0.500000 0.186677 0.000000
Si Si5 0.000000 0.438349 0.000000
Si Si6 0.608065 0.526231 0.244041
Si Si7 0.000000 0.668226 0.500000
Si Si8 0.277545 0.995595 0.198132
O O1 0.263213 0.445972 0.212814
O O2 0.476215 0.615259 0.222527
O O3 0.369211 0.500088 0.527771
O O4 0.296712 0.800967 0.315604
O O5 0.104376 0.514221 0.446894
O O6 0.214497 0.137437 0.345424
O O7 0.040552 0.310204 0.177007
O O8 0.100854 0.587265 0.949084
O O9 0.292174 0.678388 0.808047
O O10 0.068121 0.793022 0.669081
O O11 0.193359 0.936729 0.007646
O O12 0.413783 0.324091 0.863009
O O13 0.594962 0.070650 0.875647
#
# Coordination Sequence:
#
# PCOD9113726 Si02
#       8
#     2   2   2   1   1   2   1   2
#     4  11  23  47  71 102 141 189 225 301 361 421
#     4  11  22  48  69 104 136 190 233 296 351 425
#     4  11  22  43  73 104 140 193 234 290 352 427
#     4  12  24  44  74 110 142 188 236 298 356 438
#     4  10  22  42  72  92 146 190 230 280 366 412
#     4  11  23  45  75  98 146 187 229 288 370 419
#     4  10  24  46  78  96 148 194 238 284 364 418
#     4  12  25  44  75 109 139 181 251 291 354 421
#
# _framework density 23.830670000000001
#
# number of rings (size 3 to 8) (size 9 to 14) (size 15 to 20)
#    0.000    0.923    4.615    2.769    0.000    0.615 
#    8.308    2.308    0.000    0.000    0.000    0.000 
#    0.000    0.000    0.000    0.000    0.000    0.000 
#
# Total GULP energy -72383.679270 kJ/mol
# GULP energy per Si atom -5567.975328 kJ/mol
# Density = 2.377643 g / cm^3
# Si number density = 23.830670 Si / 1000 Ang^3
#
#
#
# Elastic Constant Matrix: (Units=GPa)
#
#
# Indices 1 2 3 4 5 6 
#
# 1 100.0155 18.0663 8.0407 0.0000 0.1537 0.0000
# 2 18.0663 83.3484 6.9337 0.0000 2.5729 0.0000
# 3 8.0407 6.9337 82.0587 0.0000 15.8841 0.0000
# 4 0.0000 0.0000 0.0000 35.1010 0.0000 1.1182
# 5 0.1537 2.5729 15.8841 0.0000 35.0061 0.0000
# 6 0.0000 0.0000 0.0000 1.1182 0.0000 45.1430
#
#
#
# Elastic Compliance Matrix: (Units=1/GPa)
#
#
# Indices 1 2 3 4 5 6 
#
# 1 0.010472 -0.002208 -0.000945 0.000000 0.000545 0.000000
# 2 -0.002208 0.012555 -0.000732 0.000000 -0.000581 0.000000
# 3 -0.000945 -0.000732 0.013517 0.000000 -0.006075 0.000000
# 4 0.000000 0.000000 0.000000 0.028512 0.000000 -0.000706
# 5 0.000545 -0.000581 -0.006075 0.000000 0.031363 0.000000
# 6 0.000000 0.000000 0.000000 -0.000706 0.000000 0.022169
#
#
# Mechanical properties :
#
#
# Convention : Reuss Voigt Hill
#
# Bulk Modulus (GPa) = 34.75368 36.83378 35.79373
# Shear Modulus (GPa) = 36.77792 38.54214 37.66003
#
# Velocity S-wave (km/s) = 3.93275 4.02597 3.97963
# Velocity P-wave (km/s) = 5.93610 6.09108 6.01409
#
# Compressibility (1/GPa) = 0.02877393
#
# Stress axis : x y z
#
# Youngs Moduli (GPa) = 95.48850 79.64763 73.98168
#
# Poissons Ratio (x) = 0.17588 0.06992
# Poissons Ratio (y) = 0.21086 0.05416
# Poissons Ratio (z) = 0.09025 0.05831
#
# Static dielectric constant tensor:
#      x y z
#    x 1.935040 0.000000 -0.000040 
#    y 0.000000 1.851890 0.000000 
#    z -0.000040 0.000000 2.061390 
# 
# From -- ./inp_files/6745.got.cif
#   From: 2010.05.17/outbox.cif.g08.bks.cpg/sg3_4_cif.got.tgz:6745.got - 2010.06.03 18:33:08.
