data_PCOD9113430
_publ_section_title
;
Structure prediction by ZEFSAII (Michael W. Deem and Ramdas Pophale) SiO2 
 PCOD9113430
Probable space group: P 2
;
_chemical_formula_sum "Si O2"
_cell_formula_units_Z 15
_cell_length_a 9.950407
_cell_length_b 14.147727
_cell_length_c 10.247995
_cell_angle_alpha 90.000000
_cell_angle_beta 152.840271
_cell_angle_gamma 90.000000
_cell_volume 658.538558
_symmetry_space_group_name_H-M "P 2"
_symmetry_group_IT_number 3
_symmetry_cell_setting 'monoclinic'
loop_
_space_group_symop_operation_xyz
x,y,z
-x,y,-z
loop_
_atom_site_type_symbol
_atom_site_label
_atom_site_fract_x
_atom_site_fract_y
_atom_site_fract_z
Si Si1 0.538955 0.299320 0.379899
Si Si2 0.724673 0.517598 0.350032
Si Si3 0.767315 0.724246 0.450085
Si Si4 0.099122 0.415619 0.832036
Si Si5 0.211062 0.975937 0.946691
Si Si6 0.358103 0.079049 0.516187
Si Si7 0.000000 0.893681 0.500000
Si Si8 0.170288 0.768868 0.018947
O O1 0.500000 0.319529 0.500000
O O2 0.555745 0.186681 0.380904
O O3 0.837361 0.339137 0.567825
O O4 0.254845 0.351049 0.075193
O O5 0.711020 0.629511 0.321298
O O6 0.000000 0.478327 0.500000
O O7 0.863282 0.501893 0.616035
O O8 0.409474 0.468169 0.056790
O O9 0.774560 0.818501 0.369739
O O10 0.060053 0.721043 0.789631
O O11 0.506722 0.741306 0.325989
O O12 0.134887 0.880505 0.959716
O O13 0.159253 0.952108 0.750817
O O14 0.986863 0.059352 0.791626
O O15 0.523860 0.011841 0.266813
O O16 0.500000 0.051754 0.500000
O O17 0.000000 0.740639 0.000000
#
# Coordination Sequence:
#
# PCOD9113430 Si02
#       8
#     2   2   2   2   2   2   1   2
#     4  10  21  41  66  94 131 168 211 263 322 400
#     4  11  22  42  66  93 122 163 221 276 315 388
#     4  11  23  41  64  92 124 173 222 263 320 393
#     4  10  22  38  64  95 123 156 206 266 328 376
#     4  11  23  38  63  93 133 171 227 272 313 385
#     4  11  22  39  68  97 127 175 222 268 323 392
#     4  10  24  42  64  96 132 180 224 270 332 368
#     4  11  23  39  59  89 132 172 210 269 326 380
#
# _framework density 22.777709000000002
#
# number of rings (size 3 to 8) (size 9 to 14) (size 15 to 20)
#    0.000    1.333    0.667    5.600    0.000    6.933 
#    0.000   13.333   22.000    0.000    0.000    0.000 
#    0.000    0.000    0.000    0.000    0.000    0.000 
#
# Total GULP energy -83506.101216 kJ/mol
# GULP energy per Si atom -5567.073414 kJ/mol
# Density = 2.272587 g / cm^3
# Si number density = 22.777709 Si / 1000 Ang^3
#
#
#
# Elastic Constant Matrix: (Units=GPa)
#
#
# Indices 1 2 3 4 5 6 
#
# 1 62.1752 17.5595 15.0321 0.0000 15.1390 0.0000
# 2 17.5595 76.4964 24.4098 0.0000 -6.7073 0.0000
# 3 15.0321 24.4098 131.5023 0.0000 2.9120 0.0000
# 4 0.0000 0.0000 0.0000 33.2573 0.0000 26.5378
# 5 15.1390 -6.7073 2.9120 0.0000 32.0848 0.0000
# 6 0.0000 0.0000 0.0000 26.5378 0.0000 40.3901
#
#
#
# Elastic Compliance Matrix: (Units=1/GPa)
#
#
# Indices 1 2 3 4 5 6 
#
# 1 0.020433 -0.005265 -0.001123 0.000000 -0.010640 0.000000
# 2 -0.005265 0.015576 -0.002421 0.000000 0.005960 0.000000
# 3 -0.001123 -0.002421 0.008198 0.000000 -0.000721 0.000000
# 4 0.000000 0.000000 0.000000 0.063207 0.000000 -0.041530
# 5 -0.010640 0.005960 -0.000721 0.000000 0.037499 0.000000
# 6 0.000000 0.000000 0.000000 -0.041530 0.000000 0.052045
#
#
# Mechanical properties :
#
#
# Convention : Reuss Voigt Hill
#
# Bulk Modulus (GPa) = 37.60968 42.68629 40.14799
# Shear Modulus (GPa) = 22.37741 35.35793 28.86767
#
# Velocity S-wave (km/s) = 3.13777 3.94420 3.56387
# Velocity P-wave (km/s) = 5.44747 6.28676 5.88210
#
# Compressibility (1/GPa) = 0.02658890
#
# Stress axis : x y z
#
# Youngs Moduli (GPa) = 48.94143 64.19994 121.97786
#
# Poissons Ratio (x) = 0.33800 0.13695
# Poissons Ratio (y) = 0.25767 0.29537
# Poissons Ratio (z) = 0.05495 0.15546
#
# Static dielectric constant tensor:
#      x y z
#    x 1.898040 0.000000 0.036290 
#    y 0.000000 1.847240 0.000000 
#    z 0.036290 0.000000 1.798610 
# 
# From -- ./inp_files/11963.got.cif
#   From: 2010.05.17/outbox.cif.g08.bks.cpg/sg3_6_cif.got.tgz:11963.got - 2010.06.03 18:33:08.
