data_PCOD9113819
_publ_section_title
;
Structure prediction by ZEFSAII (Michael W. Deem and Ramdas Pophale) SiO2 
 PCOD9113819
Probable space group: P 2
;
_chemical_formula_sum "Si O2"
_cell_formula_units_Z 8
_cell_length_a 8.062355
_cell_length_b 5.343735
_cell_length_c 7.699706
_cell_angle_alpha 90.000000
_cell_angle_beta 74.553002
_cell_angle_gamma 90.000000
_cell_volume 319.744221
_symmetry_space_group_name_H-M "P 2"
_symmetry_group_IT_number 3
_symmetry_cell_setting 'monoclinic'
loop_
_space_group_symop_operation_xyz
x,y,z
-x,y,-z
loop_
_atom_site_type_symbol
_atom_site_label
_atom_site_fract_x
_atom_site_fract_y
_atom_site_fract_z
Si Si1 0.500000 0.647491 0.000000
Si Si2 0.711259 0.017117 0.173476
Si Si3 0.500000 0.355126 0.500000
Si Si4 0.931545 0.044779 0.758647
Si Si5 0.221860 0.533456 0.328514
O O1 0.352777 0.494747 0.131643
O O2 0.586285 0.805872 0.130846
O O3 0.584327 0.196929 0.318023
O O4 0.871810 0.970367 0.256922
O O5 0.822422 0.076312 0.967823
O O6 0.338693 0.504844 0.465928
O O7 0.910917 0.310022 0.670031
O O8 0.850514 0.811523 0.677642
#
# Coordination Sequence:
#
# PCOD9113819 Si02
#       5
#     1   2   1   2   2
#     4  10  22  46  72 100 136 188 232 272 336 424
#     4  10  23  44  72 101 136 179 230 281 338 404
#     4  12  24  42  70 108 140 174 226 296 344 388
#     4  10  24  47  70  96 135 188 229 268 336 423
#     4  11  24  43  69  99 137 179 228 279 338 404
#
# _framework density 25.019995000000002
#
# number of rings (size 3 to 8) (size 9 to 14) (size 15 to 20)
#    0.000    1.500    0.000    4.500    0.000   16.000 
#    0.000    5.000    0.000    0.000    0.000    0.000 
#    0.000    0.000    0.000    0.000    0.000    0.000 
#
# Total GULP energy -44710.843367 kJ/mol
# GULP energy per Si atom -5588.855421 kJ/mol
# Density = 2.496305 g / cm^3
# Si number density = 25.019995 Si / 1000 Ang^3
#
#
#
# Elastic Constant Matrix: (Units=GPa)
#
#
# Indices 1 2 3 4 5 6 
#
# 1 156.2242 43.6824 47.4454 0.0000 23.3845 0.0000
# 2 43.6824 66.4632 54.9676 0.0000 21.2194 0.0000
# 3 47.4454 54.9676 147.6108 0.0000 -10.2149 0.0000
# 4 0.0000 0.0000 0.0000 75.7872 0.0000 -37.4394
# 5 23.3845 21.2194 -10.2149 0.0000 66.2962 0.0000
# 6 0.0000 0.0000 0.0000 -37.4394 0.0000 39.8935
#
#
#
# Elastic Compliance Matrix: (Units=1/GPa)
#
#
# Indices 1 2 3 4 5 6 
#
# 1 0.008114 -0.003526 -0.001430 0.000000 -0.001954 0.000000
# 2 -0.003526 0.028969 -0.010320 0.000000 -0.009618 0.000000
# 3 -0.001430 -0.010320 0.011463 0.000000 0.005574 0.000000
# 4 0.000000 0.000000 0.000000 0.024600 0.000000 0.023086
# 5 -0.001954 -0.009618 0.005574 0.000000 0.019710 0.000000
# 6 0.000000 0.000000 0.000000 0.023086 0.000000 0.046733
#
#
# Mechanical properties :
#
#
# Convention : Reuss Voigt Hill
#
# Bulk Modulus (GPa) = 55.57528 73.60990 64.59259
# Shear Modulus (GPa) = 28.38664 51.34224 39.86444
#
# Velocity S-wave (km/s) = 3.37197 4.53487 3.99595
# Velocity P-wave (km/s) = 6.11726 7.54350 6.86750
#
# Compressibility (1/GPa) = 0.01799361
#
# Stress axis : x y z
#
# Youngs Moduli (GPa) = 123.24699 34.51925 87.23840
#
# Poissons Ratio (x) = 0.12173 0.12475
# Poissons Ratio (y) = 0.43461 0.90029
# Poissons Ratio (z) = 0.17624 0.35623
#
# Static dielectric constant tensor:
#      x y z
#    x 1.981310 0.000000 0.007500 
#    y 0.000000 1.930300 0.000000 
#    z 0.007500 0.000000 1.980690 
# 
# From -- ./inp_files/4722.got.cif
#   From: 2010.05.17/outbox.cif.g08.bks.cpg/sg3_3_cif.got.tgz:4722.got - 2010.06.03 18:33:08.
