data_PCOD9113765
_publ_section_title
;
Structure prediction by ZEFSAII (Michael W. Deem and Ramdas Pophale) SiO2 
 PCOD9113765
Probable space group: P 2
;
_chemical_formula_sum "Si O2"
_cell_formula_units_Z 15
_cell_length_a 20.209706
_cell_length_b 5.569207
_cell_length_c 5.198880
_cell_angle_alpha 90.000000
_cell_angle_beta 101.562879
_cell_angle_gamma 90.000000
_cell_volume 573.269208
_symmetry_space_group_name_H-M "P 2"
_symmetry_group_IT_number 3
_symmetry_cell_setting 'monoclinic'
loop_
_space_group_symop_operation_xyz
x,y,z
-x,y,-z
loop_
_atom_site_type_symbol
_atom_site_label
_atom_site_fract_x
_atom_site_fract_y
_atom_site_fract_z
Si Si1 0.065232 0.780320 0.429901
Si Si2 0.546460 0.376981 0.292188
Si Si3 0.132884 0.399128 0.110930
Si Si4 0.694465 0.105686 0.965637
Si Si5 0.576859 0.874817 0.153935
Si Si6 0.739747 0.369252 0.515708
Si Si7 0.799227 0.737587 0.217222
Si Si8 0.000000 0.146649 0.000000
O O1 0.127308 0.845496 0.661989
O O2 0.000000 0.649554 0.500000
O O3 0.030675 0.996320 0.255781
O O4 0.100683 0.614462 0.248092
O O5 0.500000 0.429354 0.500000
O O6 0.576131 0.107766 0.338970
O O7 0.593558 0.612028 0.284009
O O8 0.500000 0.357728 0.000000
O O9 0.180165 0.501278 0.925360
O O10 0.185214 0.270425 0.345145
O O11 0.066583 0.277239 0.951213
O O12 0.626238 0.954864 0.962171
O O13 0.708787 0.242236 0.244293
O O14 0.754640 0.911113 0.008904
O O15 0.696216 0.292894 0.731645
O O16 0.500000 0.847893 0.000000
O O17 0.757020 0.641271 0.432411
#
# Coordination Sequence:
#
# PCOD9113765 Si02
#       8
#     2   2   2   2   2   2   2   1
#     4  11  25  41  69 104 143 195 251 314 393 460
#     4  10  22  43  74 108 154 199 250 311 390 464
#     4  11  25  46  71 100 150 191 257 316 389 465
#     4  12  28  47  78 112 152 207 265 321 405 475
#     4  10  25  49  78 118 159 210 261 334 399 484
#     4  11  27  47  74 110 148 202 259 316 393 470
#     4  11  26  49  73 107 156 202 260 330 391 480
#     4  12  24  40  68 102 140 192 246 314 386 466
#
# _framework density 26.165714000000001
#
# number of rings (size 3 to 8) (size 9 to 14) (size 15 to 20)
#    0.000    1.067    1.333    3.200    9.333    6.933 
#    0.000    1.333    0.000    0.000    0.000    0.000 
#    0.000    0.000    0.000    0.000    0.000    0.000 
#
# Total GULP energy -83900.199628 kJ/mol
# GULP energy per Si atom -5593.346642 kJ/mol
# Density = 2.610616 g / cm^3
# Si number density = 26.165714 Si / 1000 Ang^3
#
#
#
# Elastic Constant Matrix: (Units=GPa)
#
#
# Indices 1 2 3 4 5 6 
#
# 1 89.6148 11.3695 28.3582 0.0000 7.0707 0.0000
# 2 11.3695 113.7561 25.9280 0.0000 -7.7798 0.0000
# 3 28.3582 25.9280 125.2520 0.0000 -15.7531 0.0000
# 4 0.0000 0.0000 0.0000 64.2585 0.0000 -18.1149
# 5 7.0707 -7.7798 -15.7531 0.0000 44.5342 0.0000
# 6 0.0000 0.0000 0.0000 -18.1149 0.0000 46.8029
#
#
#
# Elastic Compliance Matrix: (Units=1/GPa)
#
#
# Indices 1 2 3 4 5 6 
#
# 1 0.012480 -0.000767 -0.003070 0.000000 -0.003201 0.000000
# 2 -0.000767 0.009314 -0.001606 0.000000 0.001181 0.000000
# 3 -0.003070 -0.001606 0.009458 0.000000 0.003552 0.000000
# 4 0.000000 0.000000 0.000000 0.017468 0.000000 0.006761
# 5 -0.003201 0.001181 0.003552 0.000000 0.024426 0.000000
# 6 0.000000 0.000000 0.000000 0.006761 0.000000 0.023983
#
#
# Mechanical properties :
#
#
# Convention : Reuss Voigt Hill
#
# Bulk Modulus (GPa) = 49.09665 51.10382 50.10023
# Shear Modulus (GPa) = 43.55292 48.65026 46.10159
#
# Velocity S-wave (km/s) = 4.08426 4.31665 4.20206
# Velocity P-wave (km/s) = 6.40672 6.66468 6.53697
#
# Compressibility (1/GPa) = 0.02036799
#
# Stress axis : x y z
#
# Youngs Moduli (GPa) = 80.12788 107.36338 105.72921
#
# Poissons Ratio (x) = 0.08231 0.32454
# Poissons Ratio (y) = 0.06143 0.16980
# Poissons Ratio (z) = 0.24595 0.17243
#
# Static dielectric constant tensor:
#      x y z
#    x 2.340770 0.000000 -0.073480 
#    y 0.000000 2.145440 0.000000 
#    z -0.073480 0.000000 2.057850 
# 
# From -- ./inp_files/3895.got.cif
#   From: 2010.05.17/outbox.cif.g08.bks.cpg/sg3_2_cif.got.tgz:3895.got - 2010.06.03 18:33:08.
