data_PCOD9113453
_publ_section_title
;
Structure prediction by ZEFSAII (Michael W. Deem and Ramdas Pophale) SiO2 
 PCOD9113453
Probable space group: P 2
;
_chemical_formula_sum "Si O2"
_cell_formula_units_Z 12
_cell_length_a 17.672167
_cell_length_b 4.797663
_cell_length_c 6.863357
_cell_angle_alpha 90.000000
_cell_angle_beta 46.955410
_cell_angle_gamma 90.000000
_cell_volume 425.273357
_symmetry_space_group_name_H-M "P 2"
_symmetry_group_IT_number 3
_symmetry_cell_setting 'monoclinic'
loop_
_space_group_symop_operation_xyz
x,y,z
-x,y,-z
loop_
_atom_site_type_symbol
_atom_site_label
_atom_site_fract_x
_atom_site_fract_y
_atom_site_fract_z
Si Si1 0.348462 0.132110 0.242643
Si Si2 0.332924 0.675701 0.998338
Si Si3 0.600835 0.279765 0.427442
Si Si4 0.899165 0.628229 0.572560
Si Si5 0.151539 0.775882 0.757355
Si Si6 0.832923 0.232292 0.998340
O O1 0.394504 0.899441 0.017620
O O2 0.407662 0.255055 0.325691
O O3 0.116632 0.329415 0.292458
O O4 0.250000 0.953997 0.499999
O O5 0.323989 0.397984 0.151112
O O6 0.383368 0.578579 0.707540
O O7 0.176011 0.510008 0.848885
O O8 0.500000 0.164923 0.500000
O O9 0.712573 0.148447 0.183978
O O10 0.907662 0.652938 0.325693
O O11 0.000000 0.743071 0.500000
O O12 0.787427 0.759547 0.816023
O O13 0.105496 0.008551 0.982379
#
# Coordination Sequence:
#
# PCOD9113453 Si02
#       6
#     2   2   2   2   2   2
#     4  10  21  42  65  90 129 172 212 267 332 388
#     4  10  23  43  65  91 131 173 211 267 333 389
#     4  10  22  41  67  97 128 171 223 270 324 394
#     4  10  22  41  67  97 128 171 223 270 324 394
#     4  10  21  42  65  90 129 172 212 267 332 388
#     4  10  23  43  65  91 131 173 211 267 333 389
#
# _framework density 28.217141999999999
#
# number of rings (size 3 to 8) (size 9 to 14) (size 15 to 20)
#    0.000    2.000    0.000    4.000    0.000   16.000 
#    0.000   33.333    0.000    0.000    0.000    0.000 
#    0.000    0.000    0.000    0.000    0.000    0.000 
#
# Total GULP energy -67135.176970 kJ/mol
# GULP energy per Si atom -5594.598081 kJ/mol
# Density = 2.815292 g / cm^3
# Si number density = 28.217142 Si / 1000 Ang^3
#
#
#
# Elastic Constant Matrix: (Units=GPa)
#
#
# Indices 1 2 3 4 5 6 
#
# 1 215.7398 64.0878 99.1297 0.0000 54.0020 0.0000
# 2 64.0878 180.4958 77.1239 0.0000 24.3024 0.0000
# 3 99.1297 77.1239 127.9217 0.0000 37.4253 0.0000
# 4 0.0000 0.0000 0.0000 69.9710 0.0000 23.2736
# 5 54.0020 24.3024 37.4253 0.0000 57.3996 0.0000
# 6 0.0000 0.0000 0.0000 23.2736 0.0000 33.0830
#
#
#
# Elastic Compliance Matrix: (Units=1/GPa)
#
#
# Indices 1 2 3 4 5 6 
#
# 1 0.007976 -0.000202 -0.004805 0.000000 -0.004285 0.000000
# 2 -0.000202 0.007472 -0.004298 0.000000 -0.000171 0.000000
# 3 -0.004805 -0.004298 0.015171 0.000000 -0.003551 0.000000
# 4 0.000000 0.000000 0.000000 0.018657 0.000000 -0.013125
# 5 -0.004285 -0.000171 -0.003551 0.000000 0.023841 0.000000
# 6 0.000000 0.000000 0.000000 -0.013125 0.000000 0.039461
#
#
# Mechanical properties :
#
#
# Convention : Reuss Voigt Hill
#
# Bulk Modulus (GPa) = 83.27648 111.64892 97.46270
# Shear Modulus (GPa) = 36.98473 51.01177 43.99825
#
# Velocity S-wave (km/s) = 3.62431 4.25647 3.95305
# Velocity P-wave (km/s) = 6.86229 7.98814 7.44652
#
# Compressibility (1/GPa) = 0.01200819
#
# Stress axis : x y z
#
# Youngs Moduli (GPa) = 125.38055 133.84132 65.91343
#
# Poissons Ratio (x) = 0.02699 0.31674
# Poissons Ratio (y) = 0.02529 0.28331
# Poissons Ratio (z) = 0.60249 0.57528
#
# Static dielectric constant tensor:
#      x y z
#    x 2.166990 0.000000 0.009930 
#    y 0.000000 2.211080 0.000000 
#    z 0.009930 0.000000 2.269540 
# 
# From -- ./inp_files/3053.got.cif
#   From: 2010.05.17/outbox.cif.g08.bks.cpg/sg3_2_cif.got.tgz:3053.got - 2010.06.03 18:33:08.
