data_PCOD9113423
_publ_section_title
;
Structure prediction by ZEFSAII (Michael W. Deem and Ramdas Pophale) SiO2 
 PCOD9113423
Probable space group: P 2
;
_chemical_formula_sum "Si O2"
_cell_formula_units_Z 14
_cell_length_a 16.559166
_cell_length_b 5.892364
_cell_length_c 11.349766
_cell_angle_alpha 90.000000
_cell_angle_beta 32.364900
_cell_angle_gamma 90.000000
_cell_volume 592.815903
_symmetry_space_group_name_H-M "P 2"
_symmetry_group_IT_number 3
_symmetry_cell_setting 'monoclinic'
loop_
_space_group_symop_operation_xyz
x,y,z
-x,y,-z
loop_
_atom_site_type_symbol
_atom_site_label
_atom_site_fract_x
_atom_site_fract_y
_atom_site_fract_z
Si Si1 0.850403 0.580950 0.832281
Si Si2 0.326375 0.351136 0.737400
Si Si3 0.645260 0.993289 0.665641
Si Si4 0.118951 0.961933 0.032530
Si Si5 0.803017 0.681029 0.288613
Si Si6 0.891065 0.345769 0.370807
Si Si7 0.364761 0.743548 0.099581
O O1 0.000451 0.423360 0.654090
O O2 0.249270 0.610145 0.161380
O O3 0.736874 0.489424 0.073305
O O4 0.891626 0.828605 0.832067
O O5 0.500000 0.368379 0.500000
O O6 0.257981 0.457963 0.703388
O O7 0.274326 0.099233 0.831014
O O8 0.691220 0.859289 0.490776
O O9 0.717134 0.863737 0.690449
O O10 0.721907 0.241109 0.583691
O O11 0.466637 0.937702 0.906703
O O12 0.123866 0.811647 0.910308
O O13 0.013985 0.145312 0.807961
O O14 0.889738 0.565703 0.289923
O O15 0.500000 0.606144 0.000000
#
# Coordination Sequence:
#
# PCOD9113423 Si02
#       7
#     2   2   2   2   2   2   2
#     4  10  21  41  64  93 131 170 216 274 334 394
#     4  10  22  36  60  97 128 170 219 268 327 400
#     4   9  21  41  66  93 123 170 222 273 328 389
#     4  10  24  38  58  92 135 169 208 268 327 396
#     4  11  22  38  62  91 131 172 215 262 327 398
#     4  11  23  39  63  99 132 173 222 268 329 400
#     4   8  21  45  72  87 123 176 220 272 341 386
#
# _framework density 23.616099999999999
#
# number of rings (size 3 to 8) (size 9 to 14) (size 15 to 20)
#    0.857    1.143    0.000    2.571    0.000   18.286 
#    0.000   10.000    0.000    0.000    0.000    4.000 
#    0.000    0.000    0.000    0.000    0.000    0.000 
#
# Total GULP energy -78017.146932 kJ/mol
# GULP energy per Si atom -5572.653352 kJ/mol
# Density = 2.356235 g / cm^3
# Si number density = 23.616100 Si / 1000 Ang^3
#
#
#
# Elastic Constant Matrix: (Units=GPa)
#
#
# Indices 1 2 3 4 5 6 
#
# 1 101.2954 22.9216 5.7504 0.0000 4.3913 0.0000
# 2 22.9216 65.7894 25.0622 0.0000 -0.8799 0.0000
# 3 5.7504 25.0622 85.3095 0.0000 8.0456 0.0000
# 4 0.0000 0.0000 0.0000 27.9666 0.0000 -3.0053
# 5 4.3913 -0.8799 8.0456 0.0000 25.7493 0.0000
# 6 0.0000 0.0000 0.0000 -3.0053 0.0000 23.3754
#
#
#
# Elastic Compliance Matrix: (Units=1/GPa)
#
#
# Indices 1 2 3 4 5 6 
#
# 1 0.010849 -0.004065 0.000670 0.000000 -0.002199 0.000000
# 2 -0.004065 0.018763 -0.005527 0.000000 0.003061 0.000000
# 3 0.000670 -0.005527 0.013734 0.000000 -0.004594 0.000000
# 4 0.000000 0.000000 0.000000 0.036258 0.000000 0.004662
# 5 -0.002199 0.003061 -0.004594 0.000000 0.040751 0.000000
# 6 0.000000 0.000000 0.000000 0.004662 0.000000 0.043379
#
#
# Mechanical properties :
#
#
# Convention : Reuss Voigt Hill
#
# Bulk Modulus (GPa) = 39.21114 39.98475 39.59794
# Shear Modulus (GPa) = 26.30506 28.66224 27.48365
#
# Velocity S-wave (km/s) = 3.34108 3.48756 3.41510
# Velocity P-wave (km/s) = 5.61456 5.76067 5.68809
#
# Compressibility (1/GPa) = 0.02550296
#
# Stress axis : x y z
#
# Youngs Moduli (GPa) = 92.17318 53.29774 72.81299
#
# Poissons Ratio (x) = 0.21664 -0.04880
# Poissons Ratio (y) = 0.37465 0.40242
# Poissons Ratio (z) = -0.06177 0.29456
#
# Static dielectric constant tensor:
#      x y z
#    x 1.995700 0.000000 -0.061450 
#    y 0.000000 1.939440 0.000000 
#    z -0.061450 0.000000 1.947630 
# 
# From -- ./inp_files/14391.got.cif
#   From: 2010.05.17/outbox.cif.g08.bks.cpg/sg3_8_cif.got.tgz:14391.got - 2010.06.03 18:33:08.
