data_PCOD9113317
_publ_section_title
;
Structure prediction by ZEFSAII (Michael W. Deem and Ramdas Pophale) SiO2 
 PCOD9113317
Probable space group: P 2
;
_chemical_formula_sum "Si O2"
_cell_formula_units_Z 13
_cell_length_a 6.271491
_cell_length_b 5.261564
_cell_length_c 17.061978
_cell_angle_alpha 90.000000
_cell_angle_beta 83.791845
_cell_angle_gamma 90.000000
_cell_volume 559.706895
_symmetry_space_group_name_H-M "P 2"
_symmetry_group_IT_number 3
_symmetry_cell_setting 'monoclinic'
loop_
_space_group_symop_operation_xyz
x,y,z
-x,y,-z
loop_
_atom_site_type_symbol
_atom_site_label
_atom_site_fract_x
_atom_site_fract_y
_atom_site_fract_z
Si Si1 0.699781 0.584400 0.769899
Si Si2 0.118039 0.315365 0.577100
Si Si3 0.690137 0.742215 0.931990
Si Si4 0.575387 0.704443 0.355621
Si Si5 0.500000 0.969321 0.500000
Si Si6 0.107047 0.244282 0.122222
Si Si7 0.069676 0.011245 0.731755
O O1 0.590789 0.725514 0.848276
O O2 0.562820 0.546258 0.698937
O O3 0.748298 0.312977 0.807033
O O4 0.908528 0.767057 0.746916
O O5 0.234173 0.559707 0.608127
O O6 0.000000 0.370075 0.500000
O O7 0.309372 0.132329 0.541813
O O8 0.005974 0.180105 0.657080
O O9 0.866474 0.512655 0.923448
O O10 0.803696 0.015058 0.932948
O O11 0.500000 0.702350 0.000000
O O12 0.422314 0.804135 0.430019
O O13 0.693794 0.915796 0.299861
O O14 0.910903 0.147682 0.183366
#
# Coordination Sequence:
#
# PCOD9113317 Si02
#       7
#     2   2   2   2   1   2   2
#     4   9  21  38  60  91 122 161 207 258 308 374
#     4  11  24  38  58  85 122 167 209 263 316 367
#     4   9  18  35  63  97 125 163 208 252 310 374
#     4  11  23  39  61  89 121 163 216 261 315 366
#     4  10  24  40  56  82 122 164 214 260 310 370
#     4   9  19  34  62  91 127 159 204 255 304 371
#     4  10  21  39  61  87 121 165 208 260 309 374
#
# _framework density 23.226438999999999
#
# number of rings (size 3 to 8) (size 9 to 14) (size 15 to 20)
#    0.923    1.231    0.000    2.769    0.000   12.308 
#    0.000    0.000    0.000    3.692    4.000    0.000 
#    0.000    0.000    0.000    0.000    0.000    0.000 
#
# Total GULP energy -72373.700898 kJ/mol
# GULP energy per Si atom -5567.207761 kJ/mol
# Density = 2.317357 g / cm^3
# Si number density = 23.226439 Si / 1000 Ang^3
#
#
#
# Elastic Constant Matrix: (Units=GPa)
#
#
# Indices 1 2 3 4 5 6 
#
# 1 17.8208 -1.8705 18.9658 0.0000 0.0141 0.0000
# 2 -1.8705 106.6750 26.1252 0.0000 -18.4713 0.0000
# 3 18.9658 26.1252 134.5911 0.0000 -38.1266 0.0000
# 4 0.0000 0.0000 0.0000 21.5392 0.0000 -5.0744
# 5 0.0141 -18.4713 -38.1266 0.0000 31.0897 0.0000
# 6 0.0000 0.0000 0.0000 -5.0744 0.0000 13.8750
#
#
#
# Elastic Compliance Matrix: (Units=1/GPa)
#
#
# Indices 1 2 3 4 5 6 
#
# 1 0.073278 0.002003 -0.015916 0.000000 -0.018362 0.000000
# 2 0.002003 0.010519 -0.000849 0.000000 0.005208 0.000000
# 3 -0.015916 -0.000849 0.014858 0.000000 0.017724 0.000000
# 4 0.000000 0.000000 0.000000 0.050804 0.000000 0.018580
# 5 -0.018362 0.005208 0.017724 0.000000 0.057004 0.000000
# 6 0.000000 0.000000 0.000000 0.018580 0.000000 0.078867
#
#
# Mechanical properties :
#
#
# Convention : Reuss Voigt Hill
#
# Bulk Modulus (GPa) = 14.46507 38.39198 26.42853
# Shear Modulus (GPa) = 14.79738 27.69188 21.24463
#
# Velocity S-wave (km/s) = 2.52681 3.45665 3.02764
# Velocity P-wave (km/s) = 3.84114 5.70058 4.86060
#
# Compressibility (1/GPa) = 0.06913205
#
# Stress axis : x y z
#
# Youngs Moduli (GPa) = 13.64666 95.06566 67.30181
#
# Poissons Ratio (x) = -0.19046 1.07119
# Poissons Ratio (y) = -0.02734 0.05713
# Poissons Ratio (z) = 0.21720 0.08070
#
# Static dielectric constant tensor:
#      x y z
#    x 1.902780 0.000000 0.004060 
#    y 0.000000 2.003540 0.000000 
#    z 0.004060 0.000000 1.955490 
# 
# From -- ./inp_files/15545.got.cif
#   From: 2010.05.17/outbox.cif.g08.bks.cpg/sg3_8_cif.got.tgz:15545.got - 2010.06.03 18:33:08.
