data_PCOD9113629
_publ_section_title
;
Structure prediction by ZEFSAII (Michael W. Deem and Ramdas Pophale) SiO2 
 PCOD9113629
Probable space group: P 2
;
_chemical_formula_sum "Si O2"
_cell_formula_units_Z 15
_cell_length_a 8.380150
_cell_length_b 5.696872
_cell_length_c 13.459582
_cell_angle_alpha 90.000000
_cell_angle_beta 114.015538
_cell_angle_gamma 90.000000
_cell_volume 586.945170
_symmetry_space_group_name_H-M "P 2"
_symmetry_group_IT_number 3
_symmetry_cell_setting 'monoclinic'
loop_
_space_group_symop_operation_xyz
x,y,z
-x,y,-z
loop_
_atom_site_type_symbol
_atom_site_label
_atom_site_fract_x
_atom_site_fract_y
_atom_site_fract_z
Si Si1 0.203203 0.357760 0.041779
Si Si2 0.000000 0.597909 0.500000
Si Si3 0.889412 0.391506 0.678791
Si Si4 0.683944 0.006464 0.077146
Si Si5 0.709450 0.893793 0.647317
Si Si6 0.326936 0.933380 0.600005
Si Si7 0.548670 0.322527 0.225867
Si Si8 0.766972 0.568737 0.155790
O O1 0.340388 0.353595 0.166852
O O2 0.223189 0.103481 0.996556
O O3 0.278306 0.514847 0.970488
O O4 0.000000 0.417718 0.000000
O O5 0.072700 0.432080 0.429813
O O6 0.155842 0.772561 0.578987
O O7 0.798628 0.148466 0.688098
O O8 0.075113 0.399845 0.778814
O O9 0.801731 0.642117 0.683157
O O10 0.607968 0.187663 0.139143
O O11 0.819485 0.839220 0.165083
O O12 0.500000 0.889513 0.000000
O O13 0.529972 0.856672 0.662886
O O14 0.682702 0.930945 0.522148
O O15 0.349403 0.187823 0.660552
O O16 0.632130 0.566166 0.212860
#
# Coordination Sequence:
#
# PCOD9113629 Si02
#       8
#     2   1   2   2   2   2   2   2
#     4  10  23  40  64  95 135 171 229 284 355 427
#     4  10  24  44  74 110 138 192 256 308 344 452
#     4  11  26  43  74 102 146 184 242 291 366 422
#     4   9  19  39  60  88 126 171 218 287 340 403
#     4  10  26  48  66 105 147 191 224 305 362 432
#     4  10  23  44  74  98 149 182 244 289 370 420
#     4  10  22  40  66  96 129 182 226 291 346 420
#     4  11  23  38  67  92 134 175 231 293 346 422
#
# _framework density 25.556048000000001
#
# number of rings (size 3 to 8) (size 9 to 14) (size 15 to 20)
#    0.000    1.867    0.000    2.800   11.200    5.333 
#    2.400    1.333    0.000    0.000    0.000    0.000 
#    0.000    0.000    0.000    0.000    0.000    0.000 
#
# Total GULP energy -83503.588292 kJ/mol
# GULP energy per Si atom -5566.905886 kJ/mol
# Density = 2.549788 g / cm^3
# Si number density = 25.556048 Si / 1000 Ang^3
#
#
#
# Elastic Constant Matrix: (Units=GPa)
#
#
# Indices 1 2 3 4 5 6 
#
# 1 137.5242 66.8174 38.7833 0.0000 11.7547 0.0000
# 2 66.8174 99.1945 37.9432 0.0000 7.9017 0.0000
# 3 38.7833 37.9432 92.2100 0.0000 6.1182 0.0000
# 4 0.0000 0.0000 0.0000 39.5572 0.0000 4.1845
# 5 11.7547 7.9017 6.1182 0.0000 37.8852 0.0000
# 6 0.0000 0.0000 0.0000 4.1845 0.0000 35.2089
#
#
#
# Elastic Compliance Matrix: (Units=1/GPa)
#
#
# Indices 1 2 3 4 5 6 
#
# 1 0.011195 -0.006697 -0.001835 0.000000 -0.001780 0.000000
# 2 -0.006697 0.016083 -0.003757 0.000000 -0.000670 0.000000
# 3 -0.001835 -0.003757 0.013214 0.000000 -0.000781 0.000000
# 4 0.000000 0.000000 0.000000 0.025602 0.000000 -0.003043
# 5 -0.001780 -0.000670 -0.000781 0.000000 0.027214 0.000000
# 6 0.000000 0.000000 0.000000 -0.003043 0.000000 0.028764
#
#
# Mechanical properties :
#
#
# Convention : Reuss Voigt Hill
#
# Bulk Modulus (GPa) = 62.83430 68.44628 65.64029
# Shear Modulus (GPa) = 32.90497 34.88925 33.89711
#
# Velocity S-wave (km/s) = 3.59215 3.69888 3.64591
# Velocity P-wave (km/s) = 6.46877 6.71440 6.59273
#
# Compressibility (1/GPa) = 0.01591487
#
# Stress axis : x y z
#
# Youngs Moduli (GPa) = 89.32595 62.17820 75.67719
#
# Poissons Ratio (x) = 0.41643 0.13883
# Poissons Ratio (y) = 0.59825 0.28428
# Poissons Ratio (z) = 0.16387 0.23357
#
# Static dielectric constant tensor:
#      x y z
#    x 2.152660 0.000000 0.052280 
#    y 0.000000 2.250370 0.000000 
#    z 0.052280 0.000000 2.054230 
# 
# From -- ./inp_files/13370.got.cif
#   From: 2010.05.17/outbox.cif.g08.bks.cpg/sg3_7_cif.got.tgz:13370.got - 2010.06.03 18:33:08.
