data_PCOD9113191
_publ_section_title
;
Structure prediction by ZEFSAII (Michael W. Deem and Ramdas Pophale) SiO2 
 PCOD9113191
Probable space group: P 2
;
_chemical_formula_sum "Si O2"
_cell_formula_units_Z 14
_cell_length_a 9.060271
_cell_length_b 9.516992
_cell_length_c 8.902504
_cell_angle_alpha 90.000000
_cell_angle_beta 130.982031
_cell_angle_gamma 90.000000
_cell_volume 579.497136
_symmetry_space_group_name_H-M "P 2"
_symmetry_group_IT_number 3
_symmetry_cell_setting 'monoclinic'
loop_
_space_group_symop_operation_xyz
x,y,z
-x,y,-z
loop_
_atom_site_type_symbol
_atom_site_label
_atom_site_fract_x
_atom_site_fract_y
_atom_site_fract_z
Si Si1 0.264213 0.037300 0.702848
Si Si2 0.679225 0.388148 0.836199
Si Si3 0.000000 0.299129 0.500000
Si Si4 0.314560 0.740739 0.661855
Si Si5 0.000000 0.863693 0.000000
Si Si6 0.721149 0.069757 0.946990
Si Si7 0.243243 0.674836 0.953888
Si Si8 0.244515 0.464275 0.450629
O O1 0.173483 0.186805 0.608936
O O2 0.491682 0.053356 0.819467
O O3 0.220615 0.894747 0.583431
O O4 0.205752 0.019568 0.839523
O O5 0.749928 0.235038 0.935094
O O6 0.739417 0.513837 0.985204
O O7 0.443147 0.397988 0.656160
O O8 0.758778 0.427144 0.725279
O O9 0.054097 0.401190 0.401101
O O10 0.551157 0.743133 0.846825
O O11 0.268164 0.628987 0.502806
O O12 0.239762 0.685284 0.772807
O O13 0.933913 0.757391 0.086886
O O14 0.818725 0.974789 0.882812
#
# Coordination Sequence:
#
# PCOD9113191 Si02
#       8
#     2   2   1   2   1   2   2   2
#     4  11  23  45  70 101 136 185 227 284 345 419
#     4  10  23  44  66  98 138 186 218 289 343 401
#     4  12  26  42  66 106 134 180 234 274 340 424
#     4  10  20  44  67  95 135 188 222 281 338 414
#     4  12  22  38  64 108 132 166 228 304 334 400
#     4  11  23  42  73 100 140 176 231 289 351 400
#     4  10  21  38  69  99 132 173 241 278 335 403
#     4  10  24  43  67  95 141 181 233 269 345 412
#
# _framework density 24.158877
#
# number of rings (size 3 to 8) (size 9 to 14) (size 15 to 20)
#    0.000    1.429    4.286    0.857    4.000    3.429 
#    2.571    0.000    3.143    0.000    0.000    0.000 
#    0.000    0.000    0.000    0.000    0.000    0.000 
#
# Total GULP energy -78228.078012 kJ/mol
# GULP energy per Si atom -5587.719858 kJ/mol
# Density = 2.410389 g / cm^3
# Si number density = 24.158877 Si / 1000 Ang^3
#
#
#
# Elastic Constant Matrix: (Units=GPa)
#
#
# Indices 1 2 3 4 5 6 
#
# 1 143.1718 61.0235 36.0918 0.0000 -13.5400 0.0000
# 2 61.0235 23.5275 28.1902 0.0000 -34.5059 0.0000
# 3 36.0918 28.1902 35.5983 0.0000 5.5255 0.0000
# 4 0.0000 0.0000 0.0000 99.8672 0.0000 38.4690
# 5 -13.5400 -34.5059 5.5255 0.0000 15.2253 0.0000
# 6 0.0000 0.0000 0.0000 38.4690 0.0000 78.5710
#
#
#
# Elastic Compliance Matrix: (Units=1/GPa)
#
#
# Indices 1 2 3 4 5 6 
#
# 1 0.011809 -0.002198 -0.011751 0.000000 0.009785 0.000000
# 2 -0.002198 -0.009205 0.013839 0.000000 -0.027838 0.000000
# 3 -0.011751 0.013839 0.027341 0.000000 0.010990 0.000000
# 4 0.000000 0.000000 0.000000 0.012341 0.000000 -0.006042
# 5 0.009785 -0.027838 0.010990 0.000000 0.007303 0.000000
# 6 0.000000 0.000000 0.000000 -0.006042 0.000000 0.015686
#
#
# Mechanical properties :
#
#
# Convention : Reuss Voigt Hill
#
# Bulk Modulus (GPa) = 33.64281 50.32319 41.98300
# Shear Modulus (GPa) = 66.30942 43.86551 55.08746
#
# Velocity S-wave (km/s) = 5.24469 4.26574 4.78034
# Velocity P-wave (km/s) = 7.11559 6.71843 6.91986
#
# Compressibility (1/GPa) = 0.02972403
#
# Stress axis : x y z
#
# Youngs Moduli (GPa) = 84.67965 -108.64007 36.57530
#
# Poissons Ratio (x) = -0.23878 0.42981
# Poissons Ratio (y) = 0.18612 -0.50615
# Poissons Ratio (z) = 0.99510 1.50342
#
# Static dielectric constant tensor:
#      x y z
#    x 1.845850 0.000000 -0.149390 
#    y 0.000000 1.952490 0.000000 
#    z -0.149390 0.000000 1.327490 
# 
# From -- ./inp_files/5655.got.cif
#   From: 2010.05.17/outbox.cif.g08.bks.cpg/sg3_3_cif.got.tgz:5655.got - 2010.06.03 18:33:08.
