data_PCOD9113120
_publ_section_title
;
Structure prediction by ZEFSAII (Michael W. Deem and Ramdas Pophale) SiO2 
 PCOD9113120
Probable space group: P 2
;
_chemical_formula_sum "Si O2"
_cell_formula_units_Z 15
_cell_length_a 8.305554
_cell_length_b 10.958366
_cell_length_c 9.213948
_cell_angle_alpha 90.000000
_cell_angle_beta 65.157776
_cell_angle_gamma 90.000000
_cell_volume 761.012062
_symmetry_space_group_name_H-M "P 2"
_symmetry_group_IT_number 3
_symmetry_cell_setting 'monoclinic'
loop_
_space_group_symop_operation_xyz
x,y,z
-x,y,-z
loop_
_atom_site_type_symbol
_atom_site_label
_atom_site_fract_x
_atom_site_fract_y
_atom_site_fract_z
Si Si1 0.122373 0.295060 0.599565
Si Si2 0.999825 0.543820 0.671802
Si Si3 0.026213 0.027268 0.664241
Si Si4 0.296362 0.673598 0.051602
Si Si5 0.678391 0.632004 0.276077
Si Si6 0.351319 0.909105 0.668385
Si Si7 0.307604 0.963590 0.017011
Si Si8 0.500000 0.420469 0.500000
O O1 0.327269 0.342397 0.516708
O O2 0.000000 0.285212 0.500000
O O3 0.026030 0.405815 0.720843
O O4 0.117179 0.158405 0.660512
O O5 0.824008 0.609183 0.786964
O O6 0.000000 0.536303 0.500000
O O7 0.167168 0.619143 0.665196
O O8 0.161694 0.922442 0.662853
O O9 0.000000 0.015164 0.500000
O O10 0.849351 0.023910 0.830003
O O11 0.281982 0.819500 0.059800
O O12 0.500000 0.642456 0.000000
O O13 0.240819 0.627823 0.914224
O O14 0.597132 0.767729 0.318839
O O15 0.552071 0.516913 0.353439
O O16 0.500000 0.958399 0.500000
O O17 0.320450 0.972271 0.836962
O O18 0.500000 0.003217 0.000000
#
# Coordination Sequence:
#
# PCOD9113120 Si02
#       8
#     2   2   2   2   2   2   2   1
#     4   9  22  40  63  88 126 165 219 262 307 368
#     4  10  21  37  60  85 120 162 206 254 308 369
#     4  11  23  41  62  89 126 170 215 260 312 372
#     4  10  22  35  58  90 127 159 199 254 317 377
#     4  10  21  36  60  90 127 155 202 252 319 380
#     4  11  22  37  63  93 124 161 208 253 321 380
#     4  10  22  41  59  89 129 162 204 263 314 379
#     4  10  20  40  66  94 124 166 204 264 322 374
#
# _framework density 19.710595999999999
#
# number of rings (size 3 to 8) (size 9 to 14) (size 15 to 20)
#    0.000    1.867    0.667    2.400    6.533    5.333 
#    0.000    6.000    0.000    0.000    0.000    0.000 
#    0.000    0.000    0.000    0.000    0.000    0.000 
#
# Total GULP energy -83582.940898 kJ/mol
# GULP energy per Si atom -5572.196060 kJ/mol
# Density = 1.966573 g / cm^3
# Si number density = 19.710596 Si / 1000 Ang^3
#
#
#
# Elastic Constant Matrix: (Units=GPa)
#
#
# Indices 1 2 3 4 5 6 
#
# 1 100.8508 29.1649 41.2919 0.0000 -10.8674 0.0000
# 2 29.1649 63.5997 34.0684 0.0000 -13.1890 0.0000
# 3 41.2919 34.0684 125.1513 0.0000 -12.7914 0.0000
# 4 0.0000 0.0000 0.0000 15.9261 0.0000 -7.9044
# 5 -10.8674 -13.1890 -12.7914 0.0000 39.2073 0.0000
# 6 0.0000 0.0000 0.0000 -7.9044 0.0000 29.2961
#
#
#
# Elastic Compliance Matrix: (Units=1/GPa)
#
#
# Indices 1 2 3 4 5 6 
#
# 1 0.012348 -0.003864 -0.002902 0.000000 0.001176 0.000000
# 2 -0.003864 0.020500 -0.003838 0.000000 0.004573 0.000000
# 3 -0.002902 -0.003838 0.010116 0.000000 0.001205 0.000000
# 4 0.000000 0.000000 0.000000 0.072498 0.000000 0.019561
# 5 0.001176 0.004573 0.001205 0.000000 0.027763 0.000000
# 6 0.000000 0.000000 0.000000 0.019561 0.000000 0.039412
#
#
# Mechanical properties :
#
#
# Convention : Reuss Voigt Hill
#
# Bulk Modulus (GPa) = 45.96647 55.40580 50.68613
# Shear Modulus (GPa) = 23.68589 29.22433 26.45511
#
# Velocity S-wave (km/s) = 3.47029 3.85472 3.66755
# Velocity P-wave (km/s) = 6.27922 6.92694 6.61102
#
# Compressibility (1/GPa) = 0.02175499
#
# Stress axis : x y z
#
# Youngs Moduli (GPa) = 80.98498 48.78168 98.85594
#
# Poissons Ratio (x) = 0.18849 0.28688
# Poissons Ratio (y) = 0.31293 0.37942
# Poissons Ratio (z) = 0.23502 0.18723
#
# Static dielectric constant tensor:
#      x y z
#    x 1.714440 0.000000 0.009310 
#    y 0.000000 1.712990 0.000000 
#    z 0.009310 0.000000 1.706110 
# 
# From -- ./inp_files/5793.got.cif
#   From: 2010.05.17/outbox.cif.g08.bks.cpg/sg3_3_cif.got.tgz:5793.got - 2010.06.03 18:33:08.
