data_PCOD9113918
_publ_section_title
;
Structure prediction by ZEFSAII (Michael W. Deem and Ramdas Pophale) SiO2 
 PCOD9113918
Probable space group: P 2
;
_chemical_formula_sum "Si O2"
_cell_formula_units_Z 14
_cell_length_a 8.667248
_cell_length_b 6.424570
_cell_length_c 11.288006
_cell_angle_alpha 90.000000
_cell_angle_beta 101.334166
_cell_angle_gamma 90.000000
_cell_volume 616.295608
_symmetry_space_group_name_H-M "P 2"
_symmetry_group_IT_number 3
_symmetry_cell_setting 'monoclinic'
loop_
_space_group_symop_operation_xyz
x,y,z
-x,y,-z
loop_
_atom_site_type_symbol
_atom_site_label
_atom_site_fract_x
_atom_site_fract_y
_atom_site_fract_z
Si Si1 0.844790 0.735000 0.437610
Si Si2 0.694209 0.115470 0.311919
Si Si3 0.675033 0.463897 0.985527
Si Si4 0.093886 0.442401 0.769049
Si Si5 0.128555 0.752043 0.124389
Si Si6 0.319497 0.398481 0.456861
Si Si7 0.317808 0.147673 0.214661
O O1 0.897141 0.558416 0.353787
O O2 0.771741 0.612075 0.535897
O O3 0.000000 0.857952 0.500000
O O4 0.726343 0.878858 0.349895
O O5 0.838412 0.208356 0.252980
O O6 0.707097 0.240031 0.438136
O O7 0.511288 0.126837 0.240707
O O8 0.713158 0.660627 0.910382
O O9 0.724066 0.266090 0.913792
O O10 0.500000 0.439658 0.000000
O O11 0.771889 0.500415 0.118042
O O12 0.948019 0.558870 0.813593
O O13 0.197887 0.952052 0.202822
O O14 0.000000 0.802430 0.000000
O O15 0.500000 0.457431 0.500000
O O16 0.290194 0.283327 0.329158
#
# Coordination Sequence:
#
# PCOD9113918 Si02
#       7
#     2   2   2   2   2   2   2
#     4  11  26  44  71 102 142 192 238 299 364 439
#     4  10  23  44  73 104 142 189 248 298 365 440
#     4  11  24  44  74 101 142 189 240 307 373 437
#     4  10  24  48  66 105 145 188 235 302 369 435
#     4  10  26  45  70 109 145 193 246 304 374 443
#     4   9  23  45  69 101 140 183 239 299 362 431
#     4  11  24  43  77 108 138 194 249 312 362 438
#
# _framework density 22.716370000000001
#
# number of rings (size 3 to 8) (size 9 to 14) (size 15 to 20)
#    0.000    1.714    1.429    0.000    6.000    9.714 
#    0.000    0.000    0.000    0.000    0.000    0.000 
#    0.000    0.000    0.000    0.000    0.000    0.000 
#
# Total GULP energy -77966.560514 kJ/mol
# GULP energy per Si atom -5569.040037 kJ/mol
# Density = 2.266467 g / cm^3
# Si number density = 22.716370 Si / 1000 Ang^3
#
#
#
# Elastic Constant Matrix: (Units=GPa)
#
#
# Indices 1 2 3 4 5 6 
#
# 1 92.2121 63.3375 48.6601 0.0000 -10.7717 0.0000
# 2 63.3375 64.6718 4.7961 0.0000 5.5318 0.0000
# 3 48.6601 4.7961 59.0865 0.0000 3.2170 0.0000
# 4 0.0000 0.0000 0.0000 22.5105 0.0000 4.0319
# 5 -10.7717 5.5318 3.2170 0.0000 28.4514 0.0000
# 6 0.0000 0.0000 0.0000 4.0319 0.0000 28.9082
#
#
#
# Elastic Compliance Matrix: (Units=1/GPa)
#
#
# Indices 1 2 3 4 5 6 
#
# 1 -0.067834 0.066322 0.052907 0.000000 -0.044559 0.000000
# 2 0.066322 -0.049047 -0.052850 0.000000 0.040622 0.000000
# 3 0.052907 -0.052850 -0.024155 0.000000 0.033037 0.000000
# 4 0.000000 0.000000 0.000000 0.045562 0.000000 -0.006355
# 5 -0.044559 0.040622 0.033037 0.000000 0.006644 0.000000
# 6 0.000000 0.000000 0.000000 -0.006355 0.000000 0.035479
#
#
# Mechanical properties :
#
#
# Convention : Reuss Voigt Hill
#
# Bulk Modulus (GPa) = -120.81357 49.95086 -35.43135
# Shear Modulus (GPa) = -26.47332 22.58579 -1.94376
#
# Velocity S-wave (km/s) = -3.41748 3.15660 -0.92603
# Velocity P-wave (km/s) = 8.29886 5.94324 4.09567
#
# Compressibility (1/GPa) = -0.00827722
#
# Stress axis : x y z
#
# Youngs Moduli (GPa) = -14.74186 -20.38879 -41.39864
#
# Poissons Ratio (x) = 1.35223 2.19027
# Poissons Ratio (y) = 0.97771 -2.18791
# Poissons Ratio (z) = 0.77994 -1.07754
#
# Static dielectric constant tensor:
#      x y z
#    x 1.968470 0.000000 -0.051040 
#    y 0.000000 1.881810 0.000000 
#    z -0.051040 0.000000 1.813620 
# 
# From -- ./inp_files/10264.got.cif
#   From: 2010.05.17/outbox.cif.g08.bks.cpg/sg3_6_cif.got.tgz:10264.got - 2010.06.03 18:33:08.
