data_PCOD9113463
_publ_section_title
;
Structure prediction by ZEFSAII (Michael W. Deem and Ramdas Pophale) SiO2 
 PCOD9113463
Probable space group: P 2
;
_chemical_formula_sum "Si O2"
_cell_formula_units_Z 16
_cell_length_a 9.720920
_cell_length_b 8.858634
_cell_length_c 11.504642
_cell_angle_alpha 90.000000
_cell_angle_beta 130.238687
_cell_angle_gamma 90.000000
_cell_volume 756.269619
_symmetry_space_group_name_H-M "P 2"
_symmetry_group_IT_number 3
_symmetry_cell_setting 'monoclinic'
loop_
_space_group_symop_operation_xyz
x,y,z
-x,y,-z
loop_
_atom_site_type_symbol
_atom_site_label
_atom_site_fract_x
_atom_site_fract_y
_atom_site_fract_z
Si Si1 0.577163 0.340840 0.867215
Si Si2 0.935543 0.547703 0.711124
Si Si3 0.078585 0.050665 0.338149
Si Si4 0.809285 0.776196 0.458939
Si Si5 0.686193 0.285098 0.669886
Si Si6 0.099267 0.824305 0.935343
Si Si7 0.471721 0.692320 0.122934
Si Si8 0.201618 0.302064 0.777166
O O1 0.646212 0.275269 0.784295
O O2 0.579457 0.523340 0.864945
O O3 0.368211 0.301677 0.779677
O O4 0.702792 0.289868 0.043566
O O5 0.810924 0.648871 0.559775
O O6 0.818722 0.424523 0.714889
O O7 0.029545 0.662410 0.850849
O O8 0.088286 0.457977 0.721241
O O9 0.188948 0.942374 0.484016
O O10 0.954002 0.941796 0.192813
O O11 0.213506 0.140734 0.328421
O O12 0.943779 0.171216 0.322423
O O13 0.650915 0.746469 0.283526
O O14 0.000000 0.761776 0.500000
O O15 0.500000 0.308772 0.500000
O O16 0.311396 0.806098 0.065497
O O17 0.000000 0.863207 0.000000
O O18 0.500000 0.685706 0.000000
#
# Coordination Sequence:
#
# PCOD9113463 Si02
#       8
#     2   2   2   2   2   2   2   2
#     4  11  21  40  73 107 130 174 234 299 341 402
#     4  10  21  42  68 100 132 174 224 283 351 407
#     4  10  26  45  61  97 140 186 227 271 353 415
#     4  11  24  44  71  99 141 183 229 289 346 417
#     4  11  25  42  67  99 141 182 230 282 351 420
#     4  11  23  40  64  97 133 180 223 280 341 412
#     4  12  22  43  74 105 132 172 238 293 349 406
#     4  10  21  42  71 100 137 172 232 286 344 409
#
# _framework density 21.156476999999999
#
# number of rings (size 3 to 8) (size 9 to 14) (size 15 to 20)
#    0.000    1.250    2.500    3.750    1.750    3.000 
#    6.750    5.000    0.000    0.000    0.000    0.000 
#    0.000    0.000    0.000    0.000    0.000    0.000 
#
# Total GULP energy -89572.692979 kJ/mol
# GULP energy per Si atom -5598.293311 kJ/mol
# Density = 2.110832 g / cm^3
# Si number density = 21.156477 Si / 1000 Ang^3
#
#
#
# Elastic Constant Matrix: (Units=GPa)
#
#
# Indices 1 2 3 4 5 6 
#
# 1 75.6900 -2.9745 18.5453 0.0000 2.4732 0.0000
# 2 -2.9745 53.2309 18.4032 0.0000 -2.5643 0.0000
# 3 18.5453 18.4032 112.0743 0.0000 13.2717 0.0000
# 4 0.0000 0.0000 0.0000 28.0003 0.0000 -94.4846
# 5 2.4732 -2.5643 13.2717 0.0000 32.4097 0.0000
# 6 0.0000 0.0000 0.0000 -94.4846 0.0000 519.0495
#
#
#
# Elastic Compliance Matrix: (Units=1/GPa)
#
#
# Indices 1 2 3 4 5 6 
#
# 1 0.013909 0.001680 -0.002593 0.000000 0.000133 0.000000
# 2 0.001680 0.020413 -0.004000 0.000000 0.003125 0.000000
# 3 -0.002593 -0.004000 0.010533 0.000000 -0.004432 0.000000
# 4 0.000000 0.000000 0.000000 0.092585 0.000000 0.016854
# 5 0.000133 0.003125 -0.004432 0.000000 0.032907 0.000000
# 6 0.000000 0.000000 0.000000 0.016854 0.000000 0.004995
#
#
# Mechanical properties :
#
#
# Convention : Reuss Voigt Hill
#
# Bulk Modulus (GPa) = 28.54741 34.32703 31.43722
# Shear Modulus (GPa) = 25.40071 129.69332 77.54701
#
# Velocity S-wave (km/s) = 3.46874 7.83805 6.06083
# Velocity P-wave (km/s) = 5.43743 9.90827 7.99186
#
# Compressibility (1/GPa) = 0.03502945
#
# Stress axis : x y z
#
# Youngs Moduli (GPa) = 71.89673 48.98738 94.93581
#
# Poissons Ratio (x) = -0.08231 0.24619
# Poissons Ratio (y) = -0.12080 0.37975
# Poissons Ratio (z) = 0.18645 0.19595
#
# Static dielectric constant tensor:
#      x y z
#    x 1.681640 0.000000 -0.048130 
#    y 0.000000 1.757490 0.000000 
#    z -0.048130 0.000000 1.710600 
# 
# From -- ./inp_files/9173.got.cif
#   From: 2010.05.17/outbox.cif.g08.bks.cpg/sg3_5_cif.got.tgz:9173.got - 2010.06.03 18:33:08.
