data_PCOD9113174
_publ_section_title
;
Structure prediction by ZEFSAII (Michael W. Deem and Ramdas Pophale) SiO2 
 PCOD9113174
Probable space group: P 2
;
_chemical_formula_sum "Si O2"
_cell_formula_units_Z 9
_cell_length_a 9.182577
_cell_length_b 5.374254
_cell_length_c 8.944920
_cell_angle_alpha 90.000000
_cell_angle_beta 48.608488
_cell_angle_gamma 90.000000
_cell_volume 331.162777
_symmetry_space_group_name_H-M "P 2"
_symmetry_group_IT_number 3
_symmetry_cell_setting 'monoclinic'
loop_
_space_group_symop_operation_xyz
x,y,z
-x,y,-z
loop_
_atom_site_type_symbol
_atom_site_label
_atom_site_fract_x
_atom_site_fract_y
_atom_site_fract_z
Si Si1 0.712543 0.902840 0.299265
Si Si2 0.930338 0.603139 0.376785
Si Si3 0.789068 0.197705 0.954120
Si Si4 0.500000 0.932563 0.000000
Si Si5 0.488930 0.533382 0.265360
O O1 0.500000 0.999634 0.500000
O O2 0.869026 0.848895 0.322573
O O3 0.649907 0.633642 0.272337
O O4 0.801310 0.067236 0.106976
O O5 0.719818 0.471473 0.530592
O O6 0.000000 0.634461 0.500000
O O7 0.072169 0.421727 0.187180
O O8 0.569327 0.308405 0.116813
O O9 0.729549 0.016147 0.862067
O O10 0.475584 0.764426 0.164260
#
# Coordination Sequence:
#
# PCOD9113174 Si02
#       5
#     2   2   2   1   2
#     4   9  23  47  73 105 150 202 251 305 372 447
#     4  11  23  45  77 112 150 191 247 313 376 443
#     4  11  23  45  77 109 149 200 250 305 376 447
#     4  10  20  42  74 108 148 194 246 310 372 438
#     4  10  22  45  69 101 150 196 247 306 366 440
#
# _framework density 27.176969
#
# number of rings (size 3 to 8) (size 9 to 14) (size 15 to 20)
#    0.000    1.778    0.000    3.333    0.000    3.556 
#    0.000   47.778    0.000   10.667    0.000    0.000 
#    0.000    0.000    0.000    0.000    0.000    0.000 
#
# Total GULP energy -50292.738405 kJ/mol
# GULP energy per Si atom -5588.082045 kJ/mol
# Density = 2.711511 g / cm^3
# Si number density = 27.176969 Si / 1000 Ang^3
#
#
#
# Elastic Constant Matrix: (Units=GPa)
#
#
# Indices 1 2 3 4 5 6 
#
# 1 226.6198 42.5194 68.0656 0.0000 20.4314 0.0000
# 2 42.5194 23.0150 6.5367 0.0000 5.5154 0.0000
# 3 68.0656 6.5367 133.8939 0.0000 -5.4804 0.0000
# 4 0.0000 0.0000 0.0000 19.7363 0.0000 15.3024
# 5 20.4314 5.5154 -5.4804 0.0000 48.7844 0.0000
# 6 0.0000 0.0000 0.0000 15.3024 0.0000 -99.7412
#
#
#
# Elastic Compliance Matrix: (Units=1/GPa)
#
#
# Indices 1 2 3 4 5 6 
#
# 1 0.008291 -0.013726 -0.003640 0.000000 -0.002330 0.000000
# 2 -0.013726 0.068162 0.003586 0.000000 -0.001555 0.000000
# 3 -0.003640 0.003586 0.009232 0.000000 0.002156 0.000000
# 4 0.000000 0.000000 0.000000 0.045282 0.000000 0.006947
# 5 -0.002330 -0.001555 0.002156 0.000000 0.021892 0.000000
# 6 0.000000 0.000000 0.000000 0.006947 0.000000 -0.008960
#
#
# Mechanical properties :
#
#
# Convention : Reuss Voigt Hill
#
# Bulk Modulus (GPa) = 17.20397 68.64133 42.92265
# Shear Modulus (GPa) = 26.20077 11.51636 18.85857
#
# Velocity S-wave (km/s) = 3.10833 2.06076 2.63709
# Velocity P-wave (km/s) = 4.38479 5.56546 5.01003
#
# Compressibility (1/GPa) = 0.05812610
#
# Stress axis : x y z
#
# Youngs Moduli (GPa) = 120.60778 14.67094 108.31556
#
# Poissons Ratio (x) = 0.20137 0.39429
# Poissons Ratio (y) = 1.65544 -0.38845
# Poissons Ratio (z) = 0.43904 -0.05261
#
# Static dielectric constant tensor:
#      x y z
#    x 2.346630 0.000000 0.132160 
#    y 0.000000 2.232290 0.000000 
#    z 0.132160 0.000000 2.410930 
# 
# From -- ./inp_files/4810.got.cif
#   From: 2010.05.17/outbox.cif.g08.bks.cpg/sg3_3_cif.got.tgz:4810.got - 2010.06.03 18:33:08.
