data_PCOD9113426
_publ_section_title
;
Structure prediction by ZEFSAII (Michael W. Deem and Ramdas Pophale) SiO2 
 PCOD9113426
Probable space group: P 2
;
_chemical_formula_sum "Si O2"
_cell_formula_units_Z 14
_cell_length_a 16.875161
_cell_length_b 6.164238
_cell_length_c 6.167907
_cell_angle_alpha 90.000000
_cell_angle_beta 94.529825
_cell_angle_gamma 90.000000
_cell_volume 639.597027
_symmetry_space_group_name_H-M "P 2"
_symmetry_group_IT_number 3
_symmetry_cell_setting 'monoclinic'
loop_
_space_group_symop_operation_xyz
x,y,z
-x,y,-z
loop_
_atom_site_type_symbol
_atom_site_label
_atom_site_fract_x
_atom_site_fract_y
_atom_site_fract_z
Si Si1 0.286026 0.229750 0.069358
Si Si2 0.635148 0.502803 0.536376
Si Si3 0.000000 0.674092 0.000000
Si Si4 0.143321 0.955307 0.976311
Si Si5 0.430844 0.162753 0.819191
Si Si6 0.500000 0.820468 0.500000
Si Si7 0.218079 0.578213 0.709917
Si Si8 0.932558 0.332878 0.324697
O O1 0.331285 0.340966 0.276439
O O2 0.214048 0.072453 0.121036
O O3 0.351666 0.107558 0.937736
O O4 0.249889 0.419497 0.908495
O O5 0.591527 0.360103 0.343634
O O6 0.571029 0.672779 0.607581
O O7 0.710726 0.616055 0.440601
O O8 0.924390 0.819736 0.916156
O O9 0.028478 0.520891 0.812743
O O10 0.184964 0.793354 0.814524
O O11 0.097500 0.141213 0.834613
O O12 0.462614 0.968337 0.678857
O O13 0.500000 0.226595 0.000000
O O14 0.145212 0.444615 0.586609
O O15 0.000000 0.252835 0.500000
#
# Coordination Sequence:
#
# PCOD9113426 Si02
#       8
#     2   2   1   2   2   1   2   2
#     4  10  22  42  64  91 129 163 204 262 313 363
#     4  11  24  43  66  93 124 164 210 257 308 369
#     4  10  22  40  62  92 126 164 212 258 312 370
#     4  10  21  41  65  90 125 168 208 257 313 368
#     4  11  24  43  64  92 128 162 204 257 312 370
#     4  12  24  38  64  96 122 164 212 248 310 378
#     4   9  22  40  61  92 127 162 207 259 313 367
#     4  10  22  41  62  91 128 166 207 259 313 368
#
# _framework density 21.888781999999999
#
# number of rings (size 3 to 8) (size 9 to 14) (size 15 to 20)
#    0.000    1.714    0.000    3.429    0.000   12.000 
#    0.000    7.143    0.000    0.000    0.000    0.000 
#    0.000    0.000    0.000    0.000    0.000    0.000 
#
# Total GULP energy -78320.551937 kJ/mol
# GULP energy per Si atom -5594.325138 kJ/mol
# Density = 2.183896 g / cm^3
# Si number density = 21.888782 Si / 1000 Ang^3
#
#
#
# Elastic Constant Matrix: (Units=GPa)
#
#
# Indices 1 2 3 4 5 6 
#
# 1 166.2233 75.8241 46.8356 0.0000 -0.5555 0.0000
# 2 75.8241 94.0287 23.1554 0.0000 -5.5196 0.0000
# 3 46.8356 23.1554 61.2102 0.0000 17.5728 0.0000
# 4 0.0000 0.0000 0.0000 39.1332 0.0000 44.4001
# 5 -0.5555 -5.5196 17.5728 0.0000 36.7999 0.0000
# 6 0.0000 0.0000 0.0000 44.4001 0.0000 144.8698
#
#
#
# Elastic Compliance Matrix: (Units=1/GPa)
#
#
# Indices 1 2 3 4 5 6 
#
# 1 0.011148 -0.007294 -0.006379 0.000000 0.002121 0.000000
# 2 -0.007294 0.017178 -0.001884 0.000000 0.003366 0.000000
# 3 -0.006379 -0.001884 0.025541 0.000000 -0.012575 0.000000
# 4 0.000000 0.000000 0.000000 0.039177 0.000000 -0.012007
# 5 0.002121 0.003366 -0.012575 0.000000 0.033716 0.000000
# 6 0.000000 0.000000 0.000000 -0.012007 0.000000 0.010583
#
#
# Mechanical properties :
#
#
# Convention : Reuss Voigt Hill
#
# Bulk Modulus (GPa) = 43.94982 68.12137 56.03560
# Shear Modulus (GPa) = 28.40241 55.87037 42.13639
#
# Velocity S-wave (km/s) = 3.60610 5.05767 4.39227
# Velocity P-wave (km/s) = 6.12053 8.08059 7.16787
#
# Compressibility (1/GPa) = 0.02275322
#
# Stress axis : x y z
#
# Youngs Moduli (GPa) = 89.70379 58.21263 39.15243
#
# Poissons Ratio (x) = 0.42461 0.24977
# Poissons Ratio (y) = 0.65431 0.07375
# Poissons Ratio (z) = 0.57225 0.10965
#
# Static dielectric constant tensor:
#      x y z
#    x 1.773610 0.000000 0.069430 
#    y 0.000000 1.786140 0.000000 
#    z 0.069430 0.000000 1.652250 
# 
# From -- ./inp_files/3546.got.cif
#   From: 2010.05.17/outbox.cif.g08.bks.cpg/sg3_2_cif.got.tgz:3546.got - 2010.06.03 18:33:08.
