data_PCOD9113409
_publ_section_title
;
Structure prediction by ZEFSAII (Michael W. Deem and Ramdas Pophale) SiO2 
 PCOD9113409
Probable space group: P 2
;
_chemical_formula_sum "Si O2"
_cell_formula_units_Z 13
_cell_length_a 24.134190
_cell_length_b 5.378319
_cell_length_c 5.440965
_cell_angle_alpha 90.000000
_cell_angle_beta 44.371582
_cell_angle_gamma 90.000000
_cell_volume 493.883211
_symmetry_space_group_name_H-M "P 2"
_symmetry_group_IT_number 3
_symmetry_cell_setting 'monoclinic'
loop_
_space_group_symop_operation_xyz
x,y,z
-x,y,-z
loop_
_atom_site_type_symbol
_atom_site_label
_atom_site_fract_x
_atom_site_fract_y
_atom_site_fract_z
Si Si1 0.209739 0.759680 0.648800
Si Si2 0.581426 0.290613 0.594437
Si Si3 0.642410 0.930648 0.045604
Si Si4 0.909429 0.957616 0.373766
Si Si5 0.051553 0.458647 0.581824
Si Si6 0.267694 0.261002 0.587564
Si Si7 0.500000 0.671673 0.500000
O O1 0.140549 0.871486 0.701520
O O2 0.203100 0.475437 0.754282
O O3 0.234637 0.983239 0.756705
O O4 0.285746 0.744648 0.221518
O O5 0.662302 0.370964 0.469702
O O6 0.556999 0.491653 0.469920
O O7 0.605701 0.019284 0.415983
O O8 0.500000 0.272674 0.000000
O O9 0.564069 0.839101 0.151658
O O10 0.684002 0.179020 0.809370
O O11 0.908883 0.730009 0.567322
O O12 0.890865 0.228237 0.541284
O O13 0.000000 0.987884 0.000000
O O14 0.000000 0.407684 0.500000
O O15 0.000000 0.485051 0.000000
#
# Coordination Sequence:
#
# PCOD9113409 Si02
#       7
#     2   2   2   2   2   2   1
#     4  10  22  45  68  96 140 179 225 287 342 416
#     4  12  24  40  64 100 126 180 224 287 336 414
#     4  10  24  42  63  94 132 175 217 284 336 413
#     4  10  21  41  73 101 141 184 237 296 356 426
#     4  10  21  40  69 106 144 184 237 301 360 427
#     4  10  24  44  67  91 138 176 225 278 344 411
#     4  12  24  40  68  92 136 170 236 280 344 406
#
# _framework density 26.322013999999999
#
# number of rings (size 3 to 8) (size 9 to 14) (size 15 to 20)
#    0.923    0.615    0.000    5.538    2.154    0.615 
#    0.000    9.231    0.000    0.000    0.000    0.000 
#    0.000    0.000    0.000    0.000    0.000    0.000 
#
# Total GULP energy -72566.501683 kJ/mol
# GULP energy per Si atom -5582.038591 kJ/mol
# Density = 2.626210 g / cm^3
# Si number density = 26.322014 Si / 1000 Ang^3
#
#
#
# Elastic Constant Matrix: (Units=GPa)
#
#
# Indices 1 2 3 4 5 6 
#
# 1 115.1890 16.6813 -14.2564 0.0000 -11.2285 0.0000
# 2 16.6813 182.7835 10.9095 0.0000 -1.3007 0.0000
# 3 -14.2564 10.9095 82.1359 0.0000 -10.4556 0.0000
# 4 0.0000 0.0000 0.0000 6.2278 0.0000 -37.3052
# 5 -11.2285 -1.3007 -10.4556 0.0000 36.1140 0.0000
# 6 0.0000 0.0000 0.0000 -37.3052 0.0000 25.8085
#
#
#
# Elastic Compliance Matrix: (Units=1/GPa)
#
#
# Indices 1 2 3 4 5 6 
#
# 1 0.009442 -0.000969 0.002218 0.000000 0.003543 0.000000
# 2 -0.000969 0.005614 -0.000962 0.000000 -0.000378 0.000000
# 3 0.002218 -0.000962 0.013260 0.000000 0.004494 0.000000
# 4 0.000000 0.000000 0.000000 -0.020966 0.000000 -0.030306
# 5 0.003543 -0.000378 0.004494 0.000000 0.030079 0.000000
# 6 0.000000 0.000000 0.000000 -0.030306 0.000000 -0.005059
#
#
# Mechanical properties :
#
#
# Convention : Reuss Voigt Hill
#
# Bulk Modulus (GPa) = 34.61287 45.19748 39.90517
# Shear Modulus (GPa) = 120.70353 38.08167 79.39260
#
# Velocity S-wave (km/s) = 6.77909 3.80776 5.49796
# Velocity P-wave (km/s) = 8.62862 6.04486 7.44961
#
# Compressibility (1/GPa) = 0.02889099
#
# Stress axis : x y z
#
# Youngs Moduli (GPa) = 105.91394 178.12292 75.41567
#
# Poissons Ratio (x) = 0.17258 -0.16731
# Poissons Ratio (y) = 0.10262 0.07254
# Poissons Ratio (z) = -0.23497 0.17134
#
# Static dielectric constant tensor:
#      x y z
#    x 2.031640 0.000000 -0.031720 
#    y 0.000000 2.160630 0.000000 
#    z -0.031720 0.000000 2.917590 
# 
# From -- ./inp_files/3956.got.cif
#   From: 2010.05.17/outbox.cif.g08.bks.cpg/sg3_2_cif.got.tgz:3956.got - 2010.06.03 18:33:08.
