data_PCOD9113132
_publ_section_title
;
Structure prediction by ZEFSAII (Michael W. Deem and Ramdas Pophale) SiO2 
 PCOD9113132
Probable space group: P 2
;
_chemical_formula_sum "Si O2"
_cell_formula_units_Z 14
_cell_length_a 7.776581
_cell_length_b 5.394358
_cell_length_c 16.350267
_cell_angle_alpha 90.000000
_cell_angle_beta 57.877917
_cell_angle_gamma 90.000000
_cell_volume 580.890386
_symmetry_space_group_name_H-M "P 2"
_symmetry_group_IT_number 3
_symmetry_cell_setting 'monoclinic'
loop_
_space_group_symop_operation_xyz
x,y,z
-x,y,-z
loop_
_atom_site_type_symbol
_atom_site_label
_atom_site_fract_x
_atom_site_fract_y
_atom_site_fract_z
Si Si1 0.508953 0.093080 0.910305
Si Si2 0.900859 0.286060 0.940057
Si Si3 0.238647 0.977337 0.464083
Si Si4 0.145636 0.468397 0.542795
Si Si5 0.480703 0.800093 0.749309
Si Si6 0.791814 0.474119 0.754138
Si Si7 0.975432 0.782840 0.178780
O O1 0.699339 0.262614 0.835004
O O2 0.449961 0.935537 0.844922
O O3 0.500000 0.942714 0.000000
O O4 0.335249 0.287867 0.978421
O O5 0.971782 0.554096 0.893810
O O6 0.970552 0.053554 0.867387
O O7 0.000000 0.223146 0.000000
O O8 0.252155 0.735785 0.518595
O O9 0.368166 0.943243 0.349525
O O10 0.000000 0.997160 0.500000
O O11 0.291243 0.237326 0.491964
O O12 0.000000 0.494975 0.500000
O O13 0.991536 0.398893 0.654042
O O14 0.608838 0.555236 0.740913
O O15 0.269137 0.767616 0.755237
O O16 0.878725 0.712540 0.781730
#
# Coordination Sequence:
#
# PCOD9113132 Si02
#       7
#     2   2   2   2   2   2   2
#     4  12  25  44  74 106 150 206 256 298 383 455
#     4  12  25  50  68 102 155 201 245 315 364 445
#     4  10  20  40  71 103 136 184 243 297 373 442
#     4  10  20  40  70 102 139 182 235 309 365 438
#     4  12  26  46  77 106 149 205 248 312 387 447
#     4  12  26  45  76 110 148 196 253 313 376 457
#     4  12  29  47  73 110 154 190 258 314 374 447
#
# _framework density 24.100932
#
# number of rings (size 3 to 8) (size 9 to 14) (size 15 to 20)
#    0.000    0.571    5.714    3.857    2.000    0.571 
#    0.000    0.714    0.000    3.429    0.000    0.000 
#    0.000    0.000    0.000    0.000    0.000    0.000 
#
# Total GULP energy -78199.049383 kJ/mol
# GULP energy per Si atom -5585.646385 kJ/mol
# Density = 2.404608 g / cm^3
# Si number density = 24.100932 Si / 1000 Ang^3
#
#
#
# Elastic Constant Matrix: (Units=GPa)
#
#
# Indices 1 2 3 4 5 6 
#
# 1 82.8243 3.3522 -2.7062 0.0000 -20.1953 0.0000
# 2 3.3522 81.2495 -13.7235 0.0000 0.9625 0.0000
# 3 -2.7062 -13.7235 86.0372 0.0000 8.3733 0.0000
# 4 0.0000 0.0000 0.0000 17.3603 0.0000 1.0653
# 5 -20.1953 0.9625 8.3733 0.0000 15.9562 0.0000
# 6 0.0000 0.0000 0.0000 1.0653 0.0000 12.3876
#
#
#
# Elastic Compliance Matrix: (Units=1/GPa)
#
#
# Indices 1 2 3 4 5 6 
#
# 1 0.017841 -0.001348 -0.001959 0.000000 0.023690 0.000000
# 2 -0.001348 0.012806 0.002362 0.000000 -0.003718 0.000000
# 3 -0.001959 0.002362 0.012849 0.000000 -0.009365 0.000000
# 4 0.000000 0.000000 0.000000 0.057908 0.000000 -0.004980
# 5 0.023690 -0.003718 -0.009365 0.000000 0.097794 0.000000
# 6 0.000000 0.000000 0.000000 -0.004980 0.000000 0.081154
#
#
# Mechanical properties :
#
#
# Convention : Reuss Voigt Hill
#
# Bulk Modulus (GPa) = 24.03453 24.88400 24.45926
# Shear Modulus (GPa) = 16.88554 26.68672 21.78613
#
# Velocity S-wave (km/s) = 2.64979 3.33121 3.00984
# Velocity P-wave (km/s) = 4.39954 5.01430 4.71695
#
# Compressibility (1/GPa) = 0.04160681
#
# Stress axis : x y z
#
# Youngs Moduli (GPa) = 56.05173 78.08600 77.82428
#
# Poissons Ratio (x) = 0.10523 0.15248
# Poissons Ratio (y) = 0.07554 -0.18383
# Poissons Ratio (z) = 0.10982 -0.18445
#
# Static dielectric constant tensor:
#      x y z
#    x 2.159190 0.000000 -0.011570 
#    y 0.000000 1.969310 0.000000 
#    z -0.011570 0.000000 1.945470 
# 
# From -- ./inp_files/14812.got.cif
#   From: 2010.05.17/outbox.cif.g08.bks.cpg/sg3_8_cif.got.tgz:14812.got - 2010.06.03 18:33:08.
