data_PCOD9113086
_publ_section_title
;
Structure prediction by ZEFSAII (Michael W. Deem and Ramdas Pophale) SiO2 
 PCOD9113086
Probable space group: P 2
;
_chemical_formula_sum "Si O2"
_cell_formula_units_Z 13
_cell_length_a 9.026987
_cell_length_b 11.798782
_cell_length_c 7.816399
_cell_angle_alpha 90.000000
_cell_angle_beta 44.004699
_cell_angle_gamma 90.000000
_cell_volume 578.355497
_symmetry_space_group_name_H-M "P 2"
_symmetry_group_IT_number 3
_symmetry_cell_setting 'monoclinic'
loop_
_space_group_symop_operation_xyz
x,y,z
-x,y,-z
loop_
_atom_site_type_symbol
_atom_site_label
_atom_site_fract_x
_atom_site_fract_y
_atom_site_fract_z
Si Si1 0.556165 0.004740 0.252363
Si Si2 0.552489 0.252179 0.655375
Si Si3 0.582866 0.627643 0.596581
Si Si4 0.000000 0.911420 0.000000
Si Si5 0.814145 0.833048 0.513860
Si Si6 0.894538 0.417070 0.279530
Si Si7 0.671976 0.467680 0.000418
O O1 0.500000 0.004064 0.500000
O O2 0.495353 0.128943 0.230929
O O3 0.393261 0.915633 0.300615
O O4 0.809376 0.979743 0.059265
O O5 0.500000 0.244876 0.500000
O O6 0.789044 0.305143 0.449047
O O7 0.400018 0.347974 0.858879
O O8 0.500000 0.695056 0.500000
O O9 0.720414 0.706392 0.603637
O O10 0.716734 0.515778 0.430593
O O11 0.367235 0.577606 0.853349
O O12 0.098905 0.845133 0.754668
O O13 0.000000 0.854100 0.500000
O O14 0.000000 0.404271 0.000000
O O15 0.084370 0.457118 0.241894
O O16 0.500000 0.485001 0.000000
#
# Coordination Sequence:
#
# PCOD9113086 Si02
#       7
#     2   2   2   1   2   2   2
#     4   9  21  43  67  98 129 167 224 272 326 394
#     4  10  20  39  65  95 125 165 218 265 309 391
#     4  11  23  41  64  93 130 166 220 271 314 391
#     4  10  22  46  74  92 132 180 216 270 344 390
#     4  11  26  45  66 101 134 171 223 281 327 395
#     4  11  20  38  67  91 124 173 211 256 328 386
#     4  11  24  39  58  96 131 167 210 266 325 386
#
# _framework density 22.477526000000001
#
# number of rings (size 3 to 8) (size 9 to 14) (size 15 to 20)
#    0.000    1.538    3.077    2.308    3.231    7.385 
#    6.923    0.000    0.000    0.000    0.000    0.000 
#    0.000    0.000    0.000    0.000    0.000    0.000 
#
# Total GULP energy -72453.124095 kJ/mol
# GULP energy per Si atom -5573.317238 kJ/mol
# Density = 2.242637 g / cm^3
# Si number density = 22.477526 Si / 1000 Ang^3
#
#
#
# Elastic Constant Matrix: (Units=GPa)
#
#
# Indices 1 2 3 4 5 6 
#
# 1 131.4805 29.7288 23.2808 0.0000 -32.0708 0.0000
# 2 29.7288 105.9052 25.7085 0.0000 -14.1639 0.0000
# 3 23.2808 25.7085 74.0990 0.0000 -27.1608 0.0000
# 4 0.0000 0.0000 0.0000 15.3004 0.0000 -11.6031
# 5 -32.0708 -14.1639 -27.1608 0.0000 44.1246 0.0000
# 6 0.0000 0.0000 0.0000 -11.6031 0.0000 20.4680
#
#
#
# Elastic Compliance Matrix: (Units=1/GPa)
#
#
# Indices 1 2 3 4 5 6 
#
# 1 0.009575 -0.001827 -0.000050 0.000000 0.006342 0.000000
# 2 -0.001827 0.010730 -0.003064 0.000000 0.000230 0.000000
# 3 -0.000050 -0.003064 0.018338 0.000000 0.010268 0.000000
# 4 0.000000 0.000000 0.000000 0.114643 0.000000 0.064990
# 5 0.006342 0.000230 0.010268 0.000000 0.033667 0.000000
# 6 0.000000 0.000000 0.000000 0.064990 0.000000 0.085699
#
#
# Mechanical properties :
#
#
# Convention : Reuss Voigt Hill
#
# Bulk Modulus (GPa) = 34.77073 52.10232 43.43652
# Shear Modulus (GPa) = 17.11619 31.49639 24.30629
#
# Velocity S-wave (km/s) = 2.76249 3.74737 3.29197
# Velocity P-wave (km/s) = 5.06733 6.47718 5.81514
#
# Compressibility (1/GPa) = 0.02875982
#
# Stress axis : x y z
#
# Youngs Moduli (GPa) = 104.44302 93.19659 54.53166
#
# Poissons Ratio (x) = 0.17032 0.00270
# Poissons Ratio (y) = 0.19087 0.16710
# Poissons Ratio (z) = 0.00517 0.28559
#
# Static dielectric constant tensor:
#      x y z
#    x 1.895820 0.000000 0.018070 
#    y 0.000000 1.878880 0.000000 
#    z 0.018070 0.000000 1.884740 
# 
# From -- ./inp_files/1211.got.cif
#   From: 2010.05.17/outbox.cif.g08.bks.cpg/sg3_1_cif.got.tgz:1211.got - 2010.06.03 18:33:08.
