data_PCOD9113749
_publ_section_title
;
Structure prediction by ZEFSAII (Michael W. Deem and Ramdas Pophale) SiO2 
 PCOD9113749
Probable space group: P 2
;
_chemical_formula_sum "Si O2"
_cell_formula_units_Z 12
_cell_length_a 9.094333
_cell_length_b 8.472770
_cell_length_c 9.321326
_cell_angle_alpha 90.000000
_cell_angle_beta 129.633293
_cell_angle_gamma 90.000000
_cell_volume 553.152887
_symmetry_space_group_name_H-M "P 2"
_symmetry_group_IT_number 3
_symmetry_cell_setting 'monoclinic'
loop_
_space_group_symop_operation_xyz
x,y,z
-x,y,-z
loop_
_atom_site_type_symbol
_atom_site_label
_atom_site_fract_x
_atom_site_fract_y
_atom_site_fract_z
Si Si1 0.986128 0.042130 0.334307
Si Si2 0.091964 0.495197 0.402168
Si Si3 0.380430 0.938675 0.785759
Si Si4 0.317174 0.800217 0.483692
Si Si5 0.452242 0.253994 0.639774
Si Si6 0.849837 0.308364 0.035886
O O1 0.833624 0.914798 0.291170
O O2 0.886387 0.149828 0.153201
O O3 0.000000 0.130315 0.500000
O O4 0.170041 0.949371 0.389808
O O5 0.194323 0.644143 0.392222
O O6 0.262267 0.363112 0.520431
O O7 0.000000 0.528212 0.500000
O O8 0.921948 0.438996 0.192222
O O9 0.414739 0.096964 0.712229
O O10 0.412965 0.795354 0.700728
O O11 0.500000 0.950544 0.000000
O O12 0.500000 0.819029 0.500000
O O13 0.500000 0.223292 0.500000
O O14 0.640211 0.324650 0.835992
O O15 0.000000 0.303470 0.000000
#
# Coordination Sequence:
#
# PCOD9113749 Si02
#       6
#     2   2   2   2   2   2
#     4  10  22  43  70 101 135 177 231 285 347 410
#     4  12  26  48  71 100 145 185 234 287 352 419
#     4  11  22  42  71 105 136 175 233 282 343 413
#     4  11  26  47  70  95 140 187 227 290 352 410
#     4  12  25  45  73 108 143 182 232 288 347 411
#     4  12  25  42  74 107 138 180 233 291 349 409
#
# _framework density 21.693822999999998
#
# number of rings (size 3 to 8) (size 9 to 14) (size 15 to 20)
#    0.000    0.667    3.333    6.000    2.333    0.000 
#    6.000    0.833    0.000    0.000    0.000    0.000 
#    0.000    0.000    0.000    0.000    0.000    0.000 
#
# Total GULP energy -66897.334209 kJ/mol
# GULP energy per Si atom -5574.777851 kJ/mol
# Density = 2.164445 g / cm^3
# Si number density = 21.693823 Si / 1000 Ang^3
#
#
#
# Elastic Constant Matrix: (Units=GPa)
#
#
# Indices 1 2 3 4 5 6 
#
# 1 154.1188 4.5308 45.8432 0.0000 5.9170 0.0000
# 2 4.5308 36.3816 23.7038 0.0000 13.7005 0.0000
# 3 45.8432 23.7038 164.3668 0.0000 11.8137 0.0000
# 4 0.0000 0.0000 0.0000 6.3935 0.0000 -12.9471
# 5 5.9170 13.7005 11.8137 0.0000 41.2897 0.0000
# 6 0.0000 0.0000 0.0000 -12.9471 0.0000 -3.9318
#
#
#
# Elastic Compliance Matrix: (Units=1/GPa)
#
#
# Indices 1 2 3 4 5 6 
#
# 1 0.007098 0.000690 -0.002031 0.000000 -0.000665 0.000000
# 2 0.000690 0.034076 -0.004377 0.000000 -0.010153 0.000000
# 3 -0.002031 -0.004377 0.007307 0.000000 -0.000347 0.000000
# 4 0.000000 0.000000 0.000000 0.020397 0.000000 -0.067165
# 5 -0.000665 -0.010153 -0.000347 0.000000 0.027783 0.000000
# 6 0.000000 0.000000 0.000000 -0.067165 0.000000 -0.033167
#
#
# Mechanical properties :
#
#
# Convention : Reuss Voigt Hill
#
# Bulk Modulus (GPa) = 26.99504 55.89141 41.44323
# Shear Modulus (GPa) = 57.28872 27.46957 42.37915
#
# Velocity S-wave (km/s) = 5.14443 3.56229 4.42465
# Velocity P-wave (km/s) = 6.91069 6.53755 6.72670
#
# Compressibility (1/GPa) = 0.03704384
#
# Stress axis : x y z
#
# Youngs Moduli (GPa) = 140.88490 29.34642 136.86120
#
# Poissons Ratio (x) = -0.02025 0.27802
# Poissons Ratio (y) = -0.09720 0.59902
# Poissons Ratio (z) = 0.28619 0.12844
#
# Static dielectric constant tensor:
#      x y z
#    x 1.903190 0.000000 0.020300 
#    y 0.000000 1.847580 0.000000 
#    z 0.020300 0.000000 1.887660 
# 
# From -- ./inp_files/5626.got.cif
#   From: 2010.05.17/outbox.cif.g08.bks.cpg/sg3_3_cif.got.tgz:5626.got - 2010.06.03 18:33:08.
