data_PCOD9113567
_publ_section_title
;
Structure prediction by ZEFSAII (Michael W. Deem and Ramdas Pophale) SiO2 
 PCOD9113567
Probable space group: P 2
;
_chemical_formula_sum "Si O2"
_cell_formula_units_Z 12
_cell_length_a 14.455143
_cell_length_b 5.905998
_cell_length_c 10.235260
_cell_angle_alpha 90.000000
_cell_angle_beta 34.013940
_cell_angle_gamma 90.000000
_cell_volume 488.801837
_symmetry_space_group_name_H-M "P 2"
_symmetry_group_IT_number 3
_symmetry_cell_setting 'monoclinic'
loop_
_space_group_symop_operation_xyz
x,y,z
-x,y,-z
loop_
_atom_site_type_symbol
_atom_site_label
_atom_site_fract_x
_atom_site_fract_y
_atom_site_fract_z
Si Si1 0.696537 0.840540 0.293039
Si Si2 0.000000 0.159906 0.500000
Si Si3 0.000000 0.189161 0.000000
Si Si4 0.743940 0.547187 0.748448
Si Si5 0.517036 0.207778 0.126506
Si Si6 0.796762 0.895512 0.903439
Si Si7 0.770179 0.472244 0.428168
O O1 0.500000 0.900132 0.500000
O O2 0.709731 0.643717 0.386061
O O3 0.836529 0.035793 0.159615
O O4 0.766150 0.760083 0.070273
O O5 0.151765 0.320041 0.355076
O O6 0.040554 0.040502 0.314355
O O7 0.941462 0.359560 0.183178
O O8 0.806385 0.744969 0.763907
O O9 0.764954 0.603287 0.572335
O O10 0.580669 0.461100 0.015895
O O11 0.352000 0.260600 0.398275
O O12 0.500000 0.100491 0.000000
O O13 0.641022 0.062510 0.066867
#
# Coordination Sequence:
#
# PCOD9113567 Si02
#       7
#     2   1   1   2   2   2   2
#     4  12  28  47  73 108 145 192 243 297 359 428
#     4  10  22  38  64  98 136 180 234 294 350 416
#     4  12  28  48  72 104 150 198 242 288 356 436
#     4  10  22  41  67  98 133 178 236 297 354 418
#     4   9  21  41  68  99 132 179 237 296 354 420
#     4  11  23  41  68 100 136 182 237 292 356 424
#     4  11  25  46  70 101 143 188 237 294 358 426
#
# _framework density 24.549825999999999
#
# number of rings (size 3 to 8) (size 9 to 14) (size 15 to 20)
#    0.000    1.333    0.000    4.000    0.000   17.333 
#    0.000    0.000    0.000    0.000    0.000    0.000 
#    0.000    0.000    0.000    0.000    0.000    0.000 
#
# Total GULP energy -66910.983346 kJ/mol
# GULP energy per Si atom -5575.915279 kJ/mol
# Density = 2.449395 g / cm^3
# Si number density = 24.549826 Si / 1000 Ang^3
#
#
#
# Elastic Constant Matrix: (Units=GPa)
#
#
# Indices 1 2 3 4 5 6 
#
# 1 83.9110 33.4174 57.0265 0.0000 18.5555 0.0000
# 2 33.4174 49.1537 47.8089 0.0000 6.9221 0.0000
# 3 57.0265 47.8089 205.6037 0.0000 23.0361 0.0000
# 4 0.0000 0.0000 0.0000 41.0547 0.0000 5.3006
# 5 18.5555 6.9221 23.0361 0.0000 52.2454 0.0000
# 6 0.0000 0.0000 0.0000 5.3006 0.0000 29.5696
#
#
#
# Elastic Compliance Matrix: (Units=1/GPa)
#
#
# Indices 1 2 3 4 5 6 
#
# 1 0.018241 -0.009495 -0.002384 0.000000 -0.004169 0.000000
# 2 -0.009495 0.031267 -0.004787 0.000000 0.001340 0.000000
# 3 -0.002384 -0.004787 0.006809 0.000000 -0.001521 0.000000
# 4 0.000000 0.000000 0.000000 0.024935 0.000000 -0.004470
# 5 -0.004169 0.001340 -0.001521 0.000000 0.021114 0.000000
# 6 0.000000 0.000000 0.000000 -0.004470 0.000000 0.034620
#
#
# Mechanical properties :
#
#
# Convention : Reuss Voigt Hill
#
# Bulk Modulus (GPa) = 43.50916 68.35265 55.93090
# Shear Modulus (GPa) = 28.09304 37.93499 33.01401
#
# Velocity S-wave (km/s) = 3.38646 3.93520 3.67110
# Velocity P-wave (km/s) = 5.74909 6.96782 6.38759
#
# Compressibility (1/GPa) = 0.02298367
#
# Stress axis : x y z
#
# Youngs Moduli (GPa) = 54.82101 31.98256 146.87267
#
# Poissons Ratio (x) = 0.30368 0.35020
# Poissons Ratio (y) = 0.52053 0.70310
# Poissons Ratio (z) = 0.13071 0.15310
#
# Static dielectric constant tensor:
#      x y z
#    x 2.093760 0.000000 -0.071580 
#    y 0.000000 1.936700 0.000000 
#    z -0.071580 0.000000 2.019440 
# 
# From -- ./inp_files/8159.got.cif
#   From: 2010.05.17/outbox.cif.g08.bks.cpg/sg3_5_cif.got.tgz:8159.got - 2010.06.03 18:33:08.
