data_PCOD9113204
_publ_section_title
;
Structure prediction by ZEFSAII (Michael W. Deem and Ramdas Pophale) SiO2 
 PCOD9113204
Probable space group: P 2
;
_chemical_formula_sum "Si O2"
_cell_formula_units_Z 14
_cell_length_a 5.277677
_cell_length_b 9.275825
_cell_length_c 12.985772
_cell_angle_alpha 90.000000
_cell_angle_beta 78.751448
_cell_angle_gamma 90.000000
_cell_volume 623.504008
_symmetry_space_group_name_H-M "P 2"
_symmetry_group_IT_number 3
_symmetry_cell_setting 'monoclinic'
loop_
_space_group_symop_operation_xyz
x,y,z
-x,y,-z
loop_
_atom_site_type_symbol
_atom_site_label
_atom_site_fract_x
_atom_site_fract_y
_atom_site_fract_z
Si Si1 0.560997 0.789000 0.372534
Si Si2 0.949943 0.012479 0.290300
Si Si3 0.661215 0.052368 0.897193
Si Si4 0.000000 0.119686 0.500000
Si Si5 0.307924 0.266735 0.793823
Si Si6 0.941830 0.623934 0.623575
Si Si7 0.000000 0.278842 0.000000
Si Si8 0.710047 0.369706 0.411970
O O1 0.500000 0.806263 0.500000
O O2 0.330833 0.700654 0.337062
O O3 0.825574 0.700067 0.335625
O O4 0.668484 0.940466 0.321372
O O5 0.066515 0.020934 0.396209
O O6 0.903745 0.174967 0.253759
O O7 0.146384 0.957645 0.187561
O O8 0.487712 0.148359 0.833712
O O9 0.500000 0.972994 0.000000
O O10 0.814793 0.171323 0.951961
O O11 0.780791 0.226416 0.472163
O O12 0.422258 0.352596 0.689130
O O13 0.170659 0.353156 0.897659
O O14 0.000000 0.656456 0.500000
O O15 0.022519 0.456379 0.625629
O O16 0.500000 0.452291 0.500000
#
# Coordination Sequence:
#
# PCOD9113204 Si02
#       8
#     2   2   2   1   2   2   1   2
#     4  10  23  37  57  78 117 166 217 256 295 356
#     4  10  21  33  53  87 125 162 205 251 319 370
#     4   9  17  33  55  80 123 161 202 247 308 391
#     4  10  22  32  52  88 132 168 194 256 322 374
#     4   9  19  32  54  86 121 160 194 253 318 373
#     4  10  21  39  56  77 114 171 217 251 285 358
#     4   8  16  34  50  80 116 156 200 238 304 394
#     4  11  20  34  55  85 126 164 208 253 313 373
#
# _framework density 22.453747
#
# number of rings (size 3 to 8) (size 9 to 14) (size 15 to 20)
#    0.000    2.286    0.714    2.143    5.000    2.286 
#    0.000    0.000    0.000    0.000    0.000    6.000 
#    0.000    0.000    0.000    0.000    0.000    0.000 
#
# Total GULP energy -77951.514379 kJ/mol
# GULP energy per Si atom -5567.965313 kJ/mol
# Density = 2.240264 g / cm^3
# Si number density = 22.453747 Si / 1000 Ang^3
#
#
#
# Elastic Constant Matrix: (Units=GPa)
#
#
# Indices 1 2 3 4 5 6 
#
# 1 121.6011 23.7505 64.1264 0.0000 -8.3402 0.0000
# 2 23.7505 50.7528 30.5081 0.0000 -7.0339 0.0000
# 3 64.1264 30.5081 169.8579 0.0000 -9.4299 0.0000
# 4 0.0000 0.0000 0.0000 8.3887 0.0000 -2.9908
# 5 -8.3402 -7.0339 -9.4299 0.0000 37.4610 0.0000
# 6 0.0000 0.0000 0.0000 -2.9908 0.0000 25.6764
#
#
#
# Elastic Compliance Matrix: (Units=1/GPa)
#
#
# Indices 1 2 3 4 5 6 
#
# 1 0.010663 -0.002766 -0.003475 0.000000 0.000980 0.000000
# 2 -0.002766 0.023189 -0.002955 0.000000 0.002995 0.000000
# 3 -0.003475 -0.002955 0.007764 0.000000 0.000626 0.000000
# 4 0.000000 0.000000 0.000000 0.124373 0.000000 0.014487
# 5 0.000980 0.002995 0.000626 0.000000 0.027633 0.000000
# 6 0.000000 0.000000 0.000000 0.014487 0.000000 0.040634
#
#
# Mechanical properties :
#
#
# Convention : Reuss Voigt Hill
#
# Bulk Modulus (GPa) = 43.05350 64.33131 53.69240
# Shear Modulus (GPa) = 19.20216 29.22701 24.21458
#
# Velocity S-wave (km/s) = 2.92753 3.61176 3.28749
# Velocity P-wave (km/s) = 5.53563 6.79013 6.19472
#
# Compressibility (1/GPa) = 0.02322692
#
# Stress axis : x y z
#
# Youngs Moduli (GPa) = 93.77949 43.12465 128.79189
#
# Poissons Ratio (x) = 0.11927 0.44750
# Poissons Ratio (y) = 0.25936 0.38052
# Poissons Ratio (z) = 0.32584 0.12741
#
# Static dielectric constant tensor:
#      x y z
#    x 1.971630 0.000000 -0.066400 
#    y 0.000000 1.989820 0.000000 
#    z -0.066400 0.000000 1.962200 
# 
# From -- ./inp_files/9925.got.cif
#   From: 2010.05.17/outbox.cif.g08.bks.cpg/sg3_5_cif.got.tgz:9925.got - 2010.06.03 18:33:08.
