data_PCOD9113643
_publ_section_title
;
Structure prediction by ZEFSAII (Michael W. Deem and Ramdas Pophale) SiO2 
 PCOD9113643
Probable space group: P 2
;
_chemical_formula_sum "Si O2"
_cell_formula_units_Z 16
_cell_length_a 27.522467
_cell_length_b 7.082246
_cell_length_c 8.936262
_cell_angle_alpha 90.000000
_cell_angle_beta 28.853269
_cell_angle_gamma 90.000000
_cell_volume 840.568183
_symmetry_space_group_name_H-M "P 2"
_symmetry_group_IT_number 3
_symmetry_cell_setting 'monoclinic'
loop_
_space_group_symop_operation_xyz
x,y,z
-x,y,-z
loop_
_atom_site_type_symbol
_atom_site_label
_atom_site_fract_x
_atom_site_fract_y
_atom_site_fract_z
Si Si1 0.095935 0.457120 0.636503
Si Si2 0.575909 0.482153 0.671328
Si Si3 0.917757 0.174352 0.593471
Si Si4 0.261784 0.180334 0.699643
Si Si5 0.229878 0.152076 0.447215
Si Si6 0.469287 0.172589 0.752087
Si Si7 0.367222 0.875107 0.611146
Si Si8 0.819079 0.863941 0.665837
O O1 0.062066 0.334410 0.584070
O O2 0.175022 0.328282 0.515639
O O3 0.147778 0.649743 0.443833
O O4 0.000000 0.495758 0.000000
O O5 0.661883 0.355149 0.515572
O O6 0.515537 0.336307 0.730217
O O7 0.619325 0.657798 0.464858
O O8 0.500000 0.559229 0.000000
O O9 0.000000 0.154060 0.500000
O O10 0.896782 0.981596 0.559403
O O11 0.816168 0.224115 0.957830
O O12 0.212130 0.148912 0.672603
O O13 0.320617 0.994098 0.598296
O O14 0.188438 0.968822 0.472912
O O15 0.350140 0.160098 0.096717
O O16 0.500000 0.217251 0.500000
O O17 0.528088 0.978892 0.633163
O O18 0.288350 0.887662 0.960786
#
# Coordination Sequence:
#
# PCOD9113643 Si02
#       8
#     2   2   2   2   2   2   2   2
#     4  11  25  42  65  94 125 160 206 258 309 369
#     4  11  23  37  60  88 125 165 207 253 304 356
#     4  10  22  43  69  88 120 161 203 251 314 363
#     4  10  22  41  60  90 124 161 207 256 300 366
#     4  11  23  41  63  90 127 162 207 253 309 363
#     4  11  23  40  61  89 124 167 210 250 304 370
#     4  10  23  38  61  88 126 166 207 255 305 360
#     4  10  23  42  62  92 125 161 205 255 309 367
#
# _framework density 19.034742999999999
#
# number of rings (size 3 to 8) (size 9 to 14) (size 15 to 20)
#    0.000    1.500    2.500    1.500    5.250    6.000 
#    0.000    2.500    0.000    0.000    0.000    0.000 
#    0.000    0.000    0.000    0.000    0.000    0.000 
#
# Total GULP energy -89384.037411 kJ/mol
# GULP energy per Si atom -5586.502338 kJ/mol
# Density = 1.899142 g / cm^3
# Si number density = 19.034743 Si / 1000 Ang^3
#
#
#
# Elastic Constant Matrix: (Units=GPa)
#
#
# Indices 1 2 3 4 5 6 
#
# 1 104.5616 22.1528 14.4321 0.0000 4.3335 0.0000
# 2 22.1528 95.2876 18.5593 0.0000 -6.9410 0.0000
# 3 14.4321 18.5593 52.3244 0.0000 1.3777 0.0000
# 4 0.0000 0.0000 0.0000 26.4748 0.0000 6.1150
# 5 4.3335 -6.9410 1.3777 0.0000 35.7541 0.0000
# 6 0.0000 0.0000 0.0000 6.1150 0.0000 8.0990
#
#
#
# Elastic Compliance Matrix: (Units=1/GPa)
#
#
# Indices 1 2 3 4 5 6 
#
# 1 0.010364 -0.002123 -0.002064 0.000000 -0.001589 0.000000
# 2 -0.002123 0.011908 -0.003710 0.000000 0.002712 0.000000
# 3 -0.002064 -0.003710 0.021030 0.000000 -0.001280 0.000000
# 4 0.000000 0.000000 0.000000 0.045750 0.000000 -0.034543
# 5 -0.001589 0.002712 -0.001280 0.000000 0.028737 0.000000
# 6 0.000000 0.000000 0.000000 -0.034543 0.000000 0.149554
#
#
# Mechanical properties :
#
#
# Convention : Reuss Voigt Hill
#
# Bulk Modulus (GPa) = 36.35096 40.27354 38.31225
# Shear Modulus (GPa) = 17.10530 27.20088 22.15309
#
# Velocity S-wave (km/s) = 3.00098 3.78433 3.41519
# Velocity P-wave (km/s) = 5.58090 6.34813 5.97684
#
# Compressibility (1/GPa) = 0.02750959
#
# Stress axis : x y z
#
# Youngs Moduli (GPa) = 96.48524 83.97539 47.55059
#
# Poissons Ratio (x) = 0.17831 0.09813
# Poissons Ratio (y) = 0.20487 0.17639
# Poissons Ratio (z) = 0.19912 0.31151
#
# Static dielectric constant tensor:
#      x y z
#    x 1.660640 0.000000 -0.005180 
#    y 0.000000 1.612720 0.000000 
#    z -0.005180 0.000000 1.673970 
# 
# From -- ./inp_files/9611.got.cif
#   From: 2010.05.17/outbox.cif.g08.bks.cpg/sg3_5_cif.got.tgz:9611.got - 2010.06.03 18:33:08.
