data_PCOD9113229
_publ_section_title
;
Structure prediction by ZEFSAII (Michael W. Deem and Ramdas Pophale) SiO2 
 PCOD9113229
Probable space group: P 2
;
_chemical_formula_sum "Si O2"
_cell_formula_units_Z 16
_cell_length_a 8.519821
_cell_length_b 5.722182
_cell_length_c 14.047262
_cell_angle_alpha 90.000000
_cell_angle_beta 67.077275
_cell_angle_gamma 90.000000
_cell_volume 630.751172
_symmetry_space_group_name_H-M "P 2"
_symmetry_group_IT_number 3
_symmetry_cell_setting 'monoclinic'
loop_
_space_group_symop_operation_xyz
x,y,z
-x,y,-z
loop_
_atom_site_type_symbol
_atom_site_label
_atom_site_fract_x
_atom_site_fract_y
_atom_site_fract_z
Si Si1 0.769222 0.318890 0.683393
Si Si2 0.178476 0.009052 0.017087
Si Si3 0.680696 0.528479 0.212912
Si Si4 0.557824 0.033141 0.218488
Si Si5 0.827087 0.509046 0.978116
Si Si6 0.041628 0.604884 0.710094
Si Si7 0.072892 0.983277 0.571481
Si Si8 0.315082 0.372102 0.501650
O O1 0.633467 0.128358 0.752198
O O2 0.695361 0.443590 0.606389
O O3 0.856448 0.499357 0.734424
O O4 0.930824 0.182280 0.605082
O O5 0.329066 0.014371 0.903598
O O6 0.185683 0.256902 0.068409
O O7 0.189046 0.761206 0.067680
O O8 0.000000 0.005300 0.000000
O O9 0.631101 0.263843 0.256462
O O10 0.685968 0.512471 0.096828
O O11 0.869051 0.560164 0.211592
O O12 0.582746 0.774185 0.258206
O O13 0.000000 0.505229 0.000000
O O14 0.049164 0.872872 0.680016
O O15 0.179473 0.503827 0.600386
O O16 0.000000 0.830067 0.500000
O O17 0.257582 0.098279 0.517302
O O18 0.500000 0.408845 0.500000
#
# Coordination Sequence:
#
# PCOD9113229 Si02
#       8
#     2   2   2   2   2   2   2   2
#     4  10  22  36  56  75 115 151 197 238 301 356
#     4   8  14  27  50  78 112 137 173 223 290 334
#     4  10  22  34  58  84 118 143 190 247 291 338
#     4  10  21  37  55  88 116 144 192 249 289 338
#     4   8  14  28  48  78 110 137 174 222 286 334
#     4  11  22  36  55  76 114 154 196 238 304 356
#     4   9  20  37  53  73 102 149 194 232 291 358
#     4  10  21  37  55  78 105 146 200 252 295 340
#
# _framework density 25.366579999999999
#
# number of rings (size 3 to 8) (size 9 to 14) (size 15 to 20)
#    0.000    2.500    0.000    2.625    7.000    0.500 
#    2.250    0.000    0.000    0.000    0.000   14.000 
#    0.000    0.000    0.000    0.000    0.000    0.000 
#
# Total GULP energy -89176.726804 kJ/mol
# GULP energy per Si atom -5573.545425 kJ/mol
# Density = 2.530884 g / cm^3
# Si number density = 25.366580 Si / 1000 Ang^3
#
#
#
# Elastic Constant Matrix: (Units=GPa)
#
#
# Indices 1 2 3 4 5 6 
#
# 1 113.3467 43.3792 25.1614 0.0000 -13.4707 0.0000
# 2 43.3792 203.8749 21.3827 0.0000 5.2231 0.0000
# 3 25.1614 21.3827 71.3955 0.0000 -6.9252 0.0000
# 4 0.0000 0.0000 0.0000 35.5397 0.0000 -6.6947
# 5 -13.4707 5.2231 -6.9252 0.0000 36.0851 0.0000
# 6 0.0000 0.0000 0.0000 -6.6947 0.0000 38.7153
#
#
#
# Elastic Compliance Matrix: (Units=1/GPa)
#
#
# Indices 1 2 3 4 5 6 
#
# 1 0.010680 -0.002077 -0.002778 0.000000 0.003755 0.000000
# 2 -0.002077 0.005507 -0.001090 0.000000 -0.001782 0.000000
# 3 -0.002778 -0.001090 0.015515 0.000000 0.002098 0.000000
# 4 0.000000 0.000000 0.000000 0.029085 0.000000 0.005029
# 5 0.003755 -0.001782 0.002098 0.000000 0.029775 0.000000
# 6 0.000000 0.000000 0.000000 0.005029 0.000000 0.026699
#
#
# Mechanical properties :
#
#
# Convention : Reuss Voigt Hill
#
# Bulk Modulus (GPa) = 50.47286 63.16262 56.81774
# Shear Modulus (GPa) = 36.83085 41.98093 39.40589
#
# Velocity S-wave (km/s) = 3.81457 4.07255 3.94567
# Velocity P-wave (km/s) = 6.27231 6.86062 6.57305
#
# Compressibility (1/GPa) = 0.01981263
#
# Stress axis : x y z
#
# Youngs Moduli (GPa) = 93.62992 181.58874 64.45209
#
# Poissons Ratio (x) = 0.37723 0.17902
# Poissons Ratio (y) = 0.19450 0.07025
# Poissons Ratio (z) = 0.26007 0.19794
#
# Static dielectric constant tensor:
#      x y z
#    x 1.989250 0.000000 0.004200 
#    y 0.000000 2.121640 0.000000 
#    z 0.004200 0.000000 2.114670 
# 
# From -- ./inp_files/8729.got.cif
#   From: 2010.05.17/outbox.cif.g08.bks.cpg/sg3_5_cif.got.tgz:8729.got - 2010.06.03 18:33:08.
