data_PCOD9113437
_publ_section_title
;
Structure prediction by ZEFSAII (Michael W. Deem and Ramdas Pophale) SiO2 
 PCOD9113437
Probable space group: P 2
;
_chemical_formula_sum "Si O2"
_cell_formula_units_Z 13
_cell_length_a 5.693527
_cell_length_b 7.239364
_cell_length_c 16.381291
_cell_angle_alpha 90.000000
_cell_angle_beta 116.873216
_cell_angle_gamma 90.000000
_cell_volume 602.280950
_symmetry_space_group_name_H-M "P 2"
_symmetry_group_IT_number 3
_symmetry_cell_setting 'monoclinic'
loop_
_space_group_symop_operation_xyz
x,y,z
-x,y,-z
loop_
_atom_site_type_symbol
_atom_site_label
_atom_site_fract_x
_atom_site_fract_y
_atom_site_fract_z
Si Si1 0.026081 0.409480 0.152275
Si Si2 0.869437 0.098880 0.397178
Si Si3 0.586170 0.717659 0.764319
Si Si4 0.169270 0.410286 0.705603
Si Si5 0.641889 0.924239 0.610756
Si Si6 0.500000 0.287965 0.000000
Si Si7 0.406195 0.117052 0.156755
O O1 0.025717 0.417239 0.249876
O O2 0.211258 0.579964 0.158335
O O3 0.137050 0.211109 0.143768
O O4 0.738105 0.416058 0.068606
O O5 0.926681 0.315760 0.391624
O O6 0.000000 0.029602 0.500000
O O7 0.561903 0.059927 0.371653
O O8 0.062412 0.000950 0.360220
O O9 0.316558 0.602123 0.718999
O O10 0.661958 0.764788 0.682466
O O11 0.565330 0.907530 0.811100
O O12 0.373182 0.248102 0.766796
O O13 0.500000 0.884178 0.500000
O O14 0.574204 0.158735 0.935736
#
# Coordination Sequence:
#
# PCOD9113437 Si02
#       7
#     2   2   2   2   2   1   2
#     4  10  23  41  65  94 130 174 217 285 335 417
#     4  10  21  41  67  95 136 186 229 280 339 399
#     4  11  23  40  67  99 131 179 226 277 349 400
#     4  10  22  39  63  95 127 174 222 276 335 405
#     4  10  22  41  68  99 140 187 237 281 331 404
#     4  10  22  44  66  92 130 170 220 280 348 406
#     4  10  21  43  67  88 129 172 219 273 344 406
#
# _framework density 21.584610999999999
#
# number of rings (size 3 to 8) (size 9 to 14) (size 15 to 20)
#    0.000    1.846    1.538    1.385    4.308    2.462 
#    2.769   18.462    0.000    0.000    0.000    0.000 
#    0.000    0.000    0.000    0.000    0.000    0.000 
#
# Total GULP energy -72393.882909 kJ/mol
# GULP energy per Si atom -5568.760224 kJ/mol
# Density = 2.153548 g / cm^3
# Si number density = 21.584611 Si / 1000 Ang^3
#
#
#
# Elastic Constant Matrix: (Units=GPa)
#
#
# Indices 1 2 3 4 5 6 
#
# 1 93.4012 37.5456 21.2110 0.0000 -22.1381 0.0000
# 2 37.5456 126.0834 26.9137 0.0000 -15.0342 0.0000
# 3 21.2110 26.9137 76.2334 0.0000 -29.6850 0.0000
# 4 0.0000 0.0000 0.0000 16.8012 0.0000 -0.6737
# 5 -22.1381 -15.0342 -29.6850 0.0000 37.6543 0.0000
# 6 0.0000 0.0000 0.0000 -0.6737 0.0000 16.9828
#
#
#
# Elastic Compliance Matrix: (Units=1/GPa)
#
#
# Indices 1 2 3 4 5 6 
#
# 1 0.013601 -0.003246 -0.000042 0.000000 0.006667 0.000000
# 2 -0.003246 0.009411 -0.002452 0.000000 -0.000084 0.000000
# 3 -0.000042 -0.002452 0.019630 0.000000 0.014472 0.000000
# 4 0.000000 0.000000 0.000000 0.059614 0.000000 0.002365
# 5 0.006667 -0.000084 0.014472 0.000000 0.041853 0.000000
# 6 0.000000 0.000000 0.000000 0.002365 0.000000 0.058977
#
#
# Mechanical properties :
#
#
# Convention : Reuss Voigt Hill
#
# Bulk Modulus (GPa) = 32.09039 51.89540 41.99289
# Shear Modulus (GPa) = 22.22667 28.29085 25.25876
#
# Velocity S-wave (km/s) = 3.21245 3.62428 3.42456
# Velocity P-wave (km/s) = 5.35344 6.45049 5.92740
#
# Compressibility (1/GPa) = 0.03116198
#
# Stress axis : x y z
#
# Youngs Moduli (GPa) = 73.52253 106.25475 50.94167
#
# Poissons Ratio (x) = 0.34493 0.00215
# Poissons Ratio (y) = 0.23867 0.12491
# Poissons Ratio (z) = 0.00310 0.26055
#
# Static dielectric constant tensor:
#      x y z
#    x 1.869390 0.000000 0.072970 
#    y 0.000000 1.789120 0.000000 
#    z 0.072970 0.000000 1.991590 
# 
# From -- ./inp_files/14562.got.cif
#   From: 2010.05.17/outbox.cif.g08.bks.cpg/sg3_8_cif.got.tgz:14562.got - 2010.06.03 18:33:08.
