data_PCOD9113703
_publ_section_title
;
Structure prediction by ZEFSAII (Michael W. Deem and Ramdas Pophale) SiO2 
 PCOD9113703
Probable space group: P 2
;
_chemical_formula_sum "Si O2"
_cell_formula_units_Z 16
_cell_length_a 9.731774
_cell_length_b 8.858724
_cell_length_c 8.164758
_cell_angle_alpha 90.000000
_cell_angle_beta 93.775151
_cell_angle_gamma 90.000000
_cell_volume 702.365403
_symmetry_space_group_name_H-M "P 2"
_symmetry_group_IT_number 3
_symmetry_cell_setting 'monoclinic'
loop_
_space_group_symop_operation_xyz
x,y,z
-x,y,-z
loop_
_atom_site_type_symbol
_atom_site_label
_atom_site_fract_x
_atom_site_fract_y
_atom_site_fract_z
Si Si1 0.225246 0.202040 0.106567
Si Si2 0.804071 0.663443 0.172260
Si Si3 0.597839 0.405389 0.650367
Si Si4 0.294833 0.850837 0.140103
Si Si5 0.035962 0.840251 0.315197
Si Si6 0.063132 0.175417 0.763557
Si Si7 0.848845 0.423623 0.432313
Si Si8 0.540926 0.727497 0.320901
O O1 0.347825 0.301152 0.196455
O O2 0.091638 0.234615 0.211663
O O3 0.266332 0.025558 0.099664
O O4 0.160638 0.221399 0.921739
O O5 0.807695 0.499264 0.255324
O O6 0.699953 0.744061 0.291743
O O7 0.958840 0.718553 0.199576
O O8 0.748366 0.722494 0.994768
O O9 0.500000 0.332612 0.500000
O O10 0.733134 0.455056 0.557702
O O11 0.514677 0.554045 0.703186
O O12 0.196410 0.828920 0.289831
O O13 0.452741 0.827481 0.192149
O O14 0.000000 0.820395 0.500000
O O15 0.966880 0.998092 0.253129
O O16 0.130776 0.247064 0.608118
O O17 0.000000 0.478244 0.500000
O O18 0.500000 0.770296 0.500000
#
# Coordination Sequence:
#
# PCOD9113703 Si02
#       8
#     2   2   2   2   2   2   2   2
#     4  10  22  45  68 100 140 177 227 290 348 416
#     4  12  24  44  66  99 143 177 229 292 342 419
#     4  11  24  47  67  98 141 183 233 289 349 415
#     4  11  25  44  69 102 135 182 233 283 353 414
#     4  11  23  42  71 101 137 180 230 288 349 412
#     4  10  22  42  68 102 139 174 228 294 349 403
#     4  12  24  43  69 105 132 179 242 283 351 415
#     4  11  24  46  66  94 139 184 230 286 350 410
#
# _framework density 22.780166000000001
#
# number of rings (size 3 to 8) (size 9 to 14) (size 15 to 20)
#    0.000    1.000    5.000    2.250    5.250    0.500 
#    4.500    0.625    0.000    0.000    0.000    0.000 
#    0.000    0.000    0.000    0.000    0.000    0.000 
#
# Total GULP energy -89255.937026 kJ/mol
# GULP energy per Si atom -5578.496064 kJ/mol
# Density = 2.272832 g / cm^3
# Si number density = 22.780166 Si / 1000 Ang^3
#
#
#
# Elastic Constant Matrix: (Units=GPa)
#
#
# Indices 1 2 3 4 5 6 
#
# 1 80.4873 4.9098 4.9496 0.0000 11.7046 0.0000
# 2 4.9098 51.4327 13.6973 0.0000 4.8897 0.0000
# 3 4.9496 13.6973 86.5156 0.0000 12.0079 0.0000
# 4 0.0000 0.0000 0.0000 27.9972 0.0000 0.0470
# 5 11.7046 4.8897 12.0079 0.0000 42.3979 0.0000
# 6 0.0000 0.0000 0.0000 0.0470 0.0000 28.5667
#
#
#
# Elastic Compliance Matrix: (Units=1/GPa)
#
#
# Indices 1 2 3 4 5 6 
#
# 1 0.012987 -0.000879 -0.000125 0.000000 -0.003448 0.000000
# 2 -0.000879 0.020449 -0.003012 0.000000 -0.001263 0.000000
# 3 -0.000125 -0.003012 0.012480 0.000000 -0.003153 0.000000
# 4 0.000000 0.000000 0.000000 0.035718 0.000000 -0.000059
# 5 -0.003448 -0.001263 -0.003153 0.000000 0.025577 0.000000
# 6 0.000000 0.000000 0.000000 -0.000059 0.000000 0.035006
#
#
# Mechanical properties :
#
#
# Convention : Reuss Voigt Hill
#
# Bulk Modulus (GPa) = 26.39591 29.50544 27.95068
# Shear Modulus (GPa) = 30.69809 32.78427 31.74118
#
# Velocity S-wave (km/s) = 3.67492 3.79774 3.73684
# Velocity P-wave (km/s) = 5.44235 5.67546 5.56012
#
# Compressibility (1/GPa) = 0.03788465
#
# Stress axis : x y z
#
# Youngs Moduli (GPa) = 76.99951 48.90231 80.12684
#
# Poissons Ratio (x) = 0.04296 0.01004
# Poissons Ratio (y) = 0.06765 0.24134
# Poissons Ratio (z) = 0.00965 0.14729
#
# Static dielectric constant tensor:
#      x y z
#    x 1.806810 0.000000 0.019430 
#    y 0.000000 1.874470 0.000000 
#    z 0.019430 0.000000 1.868280 
# 
# From -- ./inp_files/5591.got.cif
#   From: 2010.05.17/outbox.cif.g08.bks.cpg/sg3_3_cif.got.tgz:5591.got - 2010.06.03 18:33:08.
