data_PCOD9113532
_publ_section_title
;
Structure prediction by ZEFSAII (Michael W. Deem and Ramdas Pophale) SiO2 
 PCOD9113532
Probable space group: P 2
;
_chemical_formula_sum "Si O2"
_cell_formula_units_Z 13
_cell_length_a 14.876178
_cell_length_b 7.936128
_cell_length_c 14.767890
_cell_angle_alpha 90.000000
_cell_angle_beta 159.681723
_cell_angle_gamma 90.000000
_cell_volume 605.399058
_symmetry_space_group_name_H-M "P 2"
_symmetry_group_IT_number 3
_symmetry_cell_setting 'monoclinic'
loop_
_space_group_symop_operation_xyz
x,y,z
-x,y,-z
loop_
_atom_site_type_symbol
_atom_site_label
_atom_site_fract_x
_atom_site_fract_y
_atom_site_fract_z
Si Si1 0.285492 0.100240 0.604059
Si Si2 0.652579 0.942042 0.520973
Si Si3 0.151282 0.147021 0.059175
Si Si4 0.051135 0.378753 0.818965
Si Si5 0.357013 0.361650 0.948082
Si Si6 0.237745 0.576683 0.297214
Si Si7 0.000000 0.103637 0.500000
O O1 0.100726 0.227615 0.373988
O O2 0.146776 0.009398 0.558131
O O3 0.379267 0.967561 0.617902
O O4 0.475001 0.232898 0.832165
O O5 0.667766 0.755536 0.573541
O O6 0.924702 0.027285 0.806188
O O7 0.398908 0.038323 0.317311
O O8 0.235560 0.284575 0.065462
O O9 0.000000 0.231002 0.000000
O O10 0.867356 0.481149 0.712680
O O11 0.199743 0.465772 0.875672
O O12 0.183758 0.231584 0.727526
O O13 0.500000 0.456223 0.000000
O O14 0.500000 0.499087 0.500000
O O15 0.000000 0.598998 0.000000
#
# Coordination Sequence:
#
# PCOD9113532 Si02
#       7
#     2   2   2   2   2   2   1
#     4   9  18  33  60  87 120 157 204 266 312 379
#     4  11  22  39  59  85 121 166 209 252 316 374
#     4  11  21  36  59  85 118 157 212 265 306 362
#     4  10  22  35  58  91 122 163 215 264 318 372
#     4   9  16  33  58  90 123 152 197 266 331 373
#     4  12  27  43  60  89 133 180 218 260 321 386
#     4   8  16  30  54  94 118 146 194 262 330 366
#
# _framework density 21.473438999999999
#
# number of rings (size 3 to 8) (size 9 to 14) (size 15 to 20)
#    0.000    1.846    1.538    3.231    2.154    2.462 
#    0.000    0.000    0.000    5.538    0.000    9.692 
#    0.000    0.000    0.000    0.000    0.000    0.000 
#
# Total GULP energy -72381.659481 kJ/mol
# GULP energy per Si atom -5567.819960 kJ/mol
# Density = 2.142456 g / cm^3
# Si number density = 21.473439 Si / 1000 Ang^3
#
#
#
# Elastic Constant Matrix: (Units=GPa)
#
#
# Indices 1 2 3 4 5 6 
#
# 1 254.4894 40.2927 44.4346 0.0000 16.4661 0.0000
# 2 40.2927 43.8624 11.8670 0.0000 2.8643 0.0000
# 3 44.4346 11.8670 98.8273 0.0000 -4.1167 0.0000
# 4 0.0000 0.0000 0.0000 -29.9420 0.0000 21.7976
# 5 16.4661 2.8643 -4.1167 0.0000 38.1285 0.0000
# 6 0.0000 0.0000 0.0000 21.7976 0.0000 15.0552
#
#
#
# Elastic Compliance Matrix: (Units=1/GPa)
#
#
# Indices 1 2 3 4 5 6 
#
# 1 0.005018 -0.003969 -0.001866 0.000000 -0.002070 0.000000
# 2 -0.003969 0.026870 -0.001461 0.000000 -0.000462 0.000000
# 3 -0.001866 -0.001461 0.011222 0.000000 0.002127 0.000000
# 4 0.000000 0.000000 0.000000 -0.016260 0.000000 0.023542
# 5 -0.002070 -0.000462 0.002127 0.000000 0.027385 0.000000
# 6 0.000000 0.000000 0.000000 0.023542 0.000000 0.032338
#
#
# Mechanical properties :
#
#
# Convention : Reuss Voigt Hill
#
# Bulk Modulus (GPa) = 35.06632 65.59639 50.33136
# Shear Modulus (GPa) = 45.17917 24.68733 34.93325
#
# Velocity S-wave (km/s) = 4.59187 3.39435 4.03775
# Velocity P-wave (km/s) = 6.66927 6.78057 6.72515
#
# Compressibility (1/GPa) = 0.02851740
#
# Stress axis : x y z
#
# Youngs Moduli (GPa) = 199.29978 37.21580 89.11448
#
# Poissons Ratio (x) = 0.14772 0.16625
# Poissons Ratio (y) = 0.79108 0.13021
# Poissons Ratio (z) = 0.37181 0.05438
#
# Static dielectric constant tensor:
#      x y z
#    x 2.753940 0.000000 -1.080940 
#    y 0.000000 1.767230 0.000000 
#    z -1.080940 0.000000 3.650880 
# 
# From -- ./inp_files/2241.got.cif
#   From: 2010.05.17/outbox.cif.g08.bks.cpg/sg3_2_cif.got.tgz:2241.got - 2010.06.03 18:33:08.
