data_PCOD9113024
_publ_section_title
;
Structure prediction by ZEFSAII (Michael W. Deem and Ramdas Pophale) SiO2 
 PCOD9113024
Probable space group: P 2
;
_chemical_formula_sum "Si O2"
_cell_formula_units_Z 16
_cell_length_a 9.188683
_cell_length_b 7.409537
_cell_length_c 11.431631
_cell_angle_alpha 90.000000
_cell_angle_beta 126.122508
_cell_angle_gamma 90.000000
_cell_volume 628.686306
_symmetry_space_group_name_H-M "P 2"
_symmetry_group_IT_number 3
_symmetry_cell_setting 'monoclinic'
loop_
_space_group_symop_operation_xyz
x,y,z
-x,y,-z
loop_
_atom_site_type_symbol
_atom_site_label
_atom_site_fract_x
_atom_site_fract_y
_atom_site_fract_z
Si Si1 0.663643 0.922280 0.990081
Si Si2 0.698417 0.528028 0.370775
Si Si3 0.357251 0.323709 0.117953
Si Si4 0.966673 0.731655 0.844859
Si Si5 0.656271 0.205099 0.646601
Si Si6 0.053774 0.219084 0.405210
Si Si7 0.182895 0.475009 0.815769
Si Si8 0.434187 0.822255 0.309610
O O1 0.609393 0.815211 0.847951
O O2 0.656804 0.129929 0.947833
O O3 0.500000 0.889613 0.000000
O O4 0.869157 0.864820 0.117555
O O5 0.547615 0.385748 0.257469
O O6 0.847069 0.405047 0.504440
O O7 0.768556 0.591252 0.275763
O O8 0.601319 0.685509 0.399156
O O9 0.258560 0.301322 0.197923
O O10 0.311034 0.457175 0.988960
O O11 0.006768 0.553024 0.792854
O O12 0.758766 0.774909 0.726371
O O13 0.000000 0.712354 0.000000
O O14 0.500000 0.310290 0.500000
O O15 0.812025 0.147761 0.630030
O O16 0.546610 0.030630 0.644234
O O17 0.000000 0.117440 0.500000
O O18 0.867930 0.278662 0.257229
#
# Coordination Sequence:
#
# PCOD9113024 Si02
#       8
#     2   2   2   2   2   2   2   2
#     4  10  20  38  61  94 141 180 224 287 344 411
#     4  11  22  46  67 100 138 180 235 283 348 425
#     4  11  23  39  71 103 129 184 237 279 351 411
#     4  10  22  38  55  97 138 173 225 282 348 406
#     4  11  24  46  67  98 137 180 236 287 349 427
#     4  10  25  44  69 102 141 183 230 296 358 415
#     4  11  24  39  69 102 137 179 230 289 350 414
#     4  10  24  40  65  97 131 186 231 280 350 416
#
# _framework density 25.449895000000001
#
# number of rings (size 3 to 8) (size 9 to 14) (size 15 to 20)
#    0.000    1.500    1.250    3.375    5.250    1.000 
#    0.000    1.250    0.000    0.000    0.000    0.000 
#    0.000    0.000    0.000    0.000    0.000    0.000 
#
# Total GULP energy -89279.605230 kJ/mol
# GULP energy per Si atom -5579.975327 kJ/mol
# Density = 2.539197 g / cm^3
# Si number density = 25.449895 Si / 1000 Ang^3
#
#
#
# Elastic Constant Matrix: (Units=GPa)
#
#
# Indices 1 2 3 4 5 6 
#
# 1 177.6569 22.7301 33.8168 0.0000 -33.6321 0.0000
# 2 22.7301 47.2364 17.7751 0.0000 -15.4767 0.0000
# 3 33.8168 17.7751 134.1195 0.0000 -17.7100 0.0000
# 4 0.0000 0.0000 0.0000 24.7613 0.0000 4.7486
# 5 -33.6321 -15.4767 -17.7100 0.0000 24.1787 0.0000
# 6 0.0000 0.0000 0.0000 4.7486 0.0000 17.0688
#
#
#
# Elastic Compliance Matrix: (Units=1/GPa)
#
#
# Indices 1 2 3 4 5 6 
#
# 1 0.007683 -0.000148 -0.000574 0.000000 0.010171 0.000000
# 2 -0.000148 0.027039 -0.001426 0.000000 0.016057 0.000000
# 3 -0.000574 -0.001426 0.008374 0.000000 0.004422 0.000000
# 4 0.000000 0.000000 0.000000 0.042662 0.000000 -0.011869
# 5 0.010171 0.016057 0.004422 0.000000 0.069022 0.000000
# 6 0.000000 0.000000 0.000000 -0.011869 0.000000 0.061888
#
#
# Mechanical properties :
#
#
# Convention : Reuss Voigt Hill
#
# Bulk Modulus (GPa) = 25.77459 56.40634 41.09047
# Shear Modulus (GPa) = 21.37685 32.18113 26.77899
#
# Velocity S-wave (km/s) = 2.90135 3.55982 3.24732
# Velocity P-wave (km/s) = 4.62313 6.25366 5.49916
#
# Compressibility (1/GPa) = 0.03879790
#
# Stress axis : x y z
#
# Youngs Moduli (GPa) = 130.16561 36.98364 119.42124
#
# Poissons Ratio (x) = 0.00549 0.06860
# Poissons Ratio (y) = 0.01931 0.17028
# Poissons Ratio (z) = 0.07477 0.05273
#
# Static dielectric constant tensor:
#      x y z
#    x 2.097920 0.000000 -0.081170 
#    y 0.000000 2.053470 0.000000 
#    z -0.081170 0.000000 2.071720 
# 
# From -- ./inp_files/10590.got.cif
#   From: 2010.05.17/outbox.cif.g08.bks.cpg/sg3_6_cif.got.tgz:10590.got - 2010.06.03 18:33:08.
