data_PCOD9113644
_publ_section_title
;
Structure prediction by ZEFSAII (Michael W. Deem and Ramdas Pophale) SiO2 
 PCOD9113644
Probable space group: P 2
;
_chemical_formula_sum "Si O2"
_cell_formula_units_Z 16
_cell_length_a 8.554859
_cell_length_b 5.193592
_cell_length_c 17.955908
_cell_angle_alpha 90.000000
_cell_angle_beta 116.883626
_cell_angle_gamma 90.000000
_cell_volume 711.569403
_symmetry_space_group_name_H-M "P 2"
_symmetry_group_IT_number 3
_symmetry_cell_setting 'monoclinic'
loop_
_space_group_symop_operation_xyz
x,y,z
-x,y,-z
loop_
_atom_site_type_symbol
_atom_site_label
_atom_site_fract_x
_atom_site_fract_y
_atom_site_fract_z
Si Si1 0.906520 0.308140 0.059183
Si Si2 0.356173 0.643032 0.415203
Si Si3 0.040543 0.270526 0.317305
Si Si4 0.767794 0.661389 0.245418
Si Si5 0.215351 0.078812 0.223328
Si Si6 0.043231 0.893497 0.424866
Si Si7 0.422977 0.596301 0.267410
Si Si8 0.702426 0.816237 0.064729
O O1 0.819986 0.580738 0.059783
O O2 0.064293 0.219102 0.145762
O O3 0.763959 0.081837 0.039951
O O4 0.000000 0.317899 0.000000
O O5 0.500000 0.517587 0.500000
O O6 0.200423 0.466561 0.351635
O O7 0.452644 0.707529 0.358009
O O8 0.244551 0.833415 0.444680
O O9 0.121667 0.045696 0.283474
O O10 0.016620 0.192158 0.397750
O O11 0.865562 0.393269 0.247205
O O12 0.587619 0.621467 0.249495
O O13 0.733997 0.812786 0.161312
O O14 0.902092 0.774745 0.336262
O O15 0.367952 0.295432 0.257775
O O16 0.276200 0.801160 0.207743
O O17 0.000000 0.831102 0.500000
O O18 0.500000 0.770012 0.000000
#
# Coordination Sequence:
#
# PCOD9113644 Si02
#       8
#     2   2   2   2   2   2   2   2
#     4  12  27  47  77 106 146 189 244 301 368 438
#     4  10  22  41  61  93 136 173 234 296 353 419
#     4  10  22  43  66  94 133 192 231 295 362 432
#     4  11  26  44  71  99 146 188 241 301 369 430
#     4  11  23  45  69  98 135 186 235 289 359 426
#     4  11  23  41  69  98 139 187 240 296 369 433
#     4  11  25  41  70 101 134 182 241 291 352 428
#     4  12  28  48  75 109 152 192 245 305 366 433
#
# _framework density 22.485512
#
# number of rings (size 3 to 8) (size 9 to 14) (size 15 to 20)
#    0.000    1.000    2.500    3.000    7.000    3.500 
#    2.250    0.000    0.000    0.000    0.000    0.000 
#    0.000    0.000    0.000    0.000    0.000    0.000 
#
# Total GULP energy -89234.309047 kJ/mol
# GULP energy per Si atom -5577.144315 kJ/mol
# Density = 2.243433 g / cm^3
# Si number density = 22.485512 Si / 1000 Ang^3
#
#
#
# Elastic Constant Matrix: (Units=GPa)
#
#
# Indices 1 2 3 4 5 6 
#
# 1 123.3516 19.1973 46.2091 0.0000 -17.4719 0.0000
# 2 19.1973 64.2084 2.1808 0.0000 -7.4532 0.0000
# 3 46.2091 2.1808 88.2164 0.0000 -15.9161 0.0000
# 4 0.0000 0.0000 0.0000 19.9538 0.0000 -6.9205
# 5 -17.4719 -7.4532 -15.9161 0.0000 38.3573 0.0000
# 6 0.0000 0.0000 0.0000 -6.9205 0.0000 -1.4073
#
#
#
# Elastic Compliance Matrix: (Units=1/GPa)
#
#
# Indices 1 2 3 4 5 6 
#
# 1 0.010800 -0.002795 -0.005187 0.000000 0.002224 0.000000
# 2 -0.002795 0.016659 0.001520 0.000000 0.002595 0.000000
# 3 -0.005187 0.001520 0.014746 0.000000 0.004052 0.000000
# 4 0.000000 0.000000 0.000000 0.018523 0.000000 -0.091091
# 5 0.002224 0.002595 0.004052 0.000000 0.029269 0.000000
# 6 0.000000 0.000000 0.000000 -0.091091 0.000000 -0.262639
#
#
# Mechanical properties :
#
#
# Convention : Reuss Voigt Hill
#
# Bulk Modulus (GPa) = 34.14948 45.66118 39.90533
# Shear Modulus (GPa) = -33.34262 25.26005 -4.04128
#
# Velocity S-wave (km/s) = -3.85496 3.35534 -1.34208
# Velocity P-wave (km/s) = 2.14335 5.94660 3.92225
#
# Compressibility (1/GPa) = 0.02928302
#
# Stress axis : x y z
#
# Youngs Moduli (GPa) = 92.59329 60.02602 67.81452
#
# Poissons Ratio (x) = 0.16775 0.35174
# Poissons Ratio (y) = 0.25877 -0.10309
# Poissons Ratio (z) = 0.48026 -0.09125
#
# Static dielectric constant tensor:
#      x y z
#    x 1.846000 0.000000 -0.048170 
#    y 0.000000 1.956740 0.000000 
#    z -0.048170 0.000000 1.968100 
# 
# From -- ./inp_files/8891.got.cif
#   From: 2010.05.17/outbox.cif.g08.bks.cpg/sg3_5_cif.got.tgz:8891.got - 2010.06.03 18:33:08.
