data_PCOD9113575
_publ_section_title
;
Structure prediction by ZEFSAII (Michael W. Deem and Ramdas Pophale) SiO2 
 PCOD9113575
Probable space group: P 2
;
_chemical_formula_sum "Si O2"
_cell_formula_units_Z 14
_cell_length_a 7.965043
_cell_length_b 9.658084
_cell_length_c 8.917096
_cell_angle_alpha 90.000000
_cell_angle_beta 104.615518
_cell_angle_gamma 90.000000
_cell_volume 663.768664
_symmetry_space_group_name_H-M "P 2"
_symmetry_group_IT_number 3
_symmetry_cell_setting 'monoclinic'
loop_
_space_group_symop_operation_xyz
x,y,z
-x,y,-z
loop_
_atom_site_type_symbol
_atom_site_label
_atom_site_fract_x
_atom_site_fract_y
_atom_site_fract_z
Si Si1 0.000000 0.703980 0.500000
Si Si2 0.726505 0.511923 0.919249
Si Si3 0.221028 0.949831 0.430336
Si Si4 0.993536 0.487371 0.253141
Si Si5 0.519065 0.973936 0.253134
Si Si6 0.296536 0.208724 0.060696
Si Si7 0.008754 0.182479 0.759666
Si Si8 0.500000 0.754610 0.000000
O O1 0.855757 0.803990 0.536221
O O2 0.065378 0.602413 0.644290
O O3 0.867225 0.488877 0.082221
O O4 0.820186 0.522127 0.779379
O O5 0.629683 0.364335 0.906246
O O6 0.627838 0.650162 0.942534
O O7 0.355662 0.930455 0.323094
O O8 0.329326 0.009093 0.595594
O O9 0.064590 0.052194 0.347669
O O10 0.990643 0.332535 0.318263
O O11 0.440949 0.101636 0.143840
O O12 0.572805 0.855670 0.146479
O O13 0.139552 0.202100 0.146130
O O14 0.194062 0.168650 0.884938
#
# Coordination Sequence:
#
# PCOD9113575 Si02
#       8
#     1   2   2   2   2   2   2   1
#     4  12  22  34  54  84 116 152 184 220 276 340
#     4   9  19  37  59  82 108 141 186 235 277 324
#     4  10  22  39  57  82 117 151 185 229 279 331
#     4   9  19  37  59  82 108 141 186 235 277 324
#     4  10  22  39  57  82 117 151 185 229 279 331
#     4   8  16  35  62  85 106 141 190 237 278 325
#     4   8  16  35  62  85 106 141 190 237 278 325
#     4  12  22  34  54  84 116 152 184 220 276 340
#
# _framework density 21.091685999999999
#
# number of rings (size 3 to 8) (size 9 to 14) (size 15 to 20)
#    0.000    2.571    0.000    3.429    0.000    3.429 
#    0.000    8.571    0.000    6.857    0.000    0.000 
#    0.000    0.000    0.000    0.000    0.000    0.000 
#
# Total GULP energy -78109.797716 kJ/mol
# GULP energy per Si atom -5579.271265 kJ/mol
# Density = 2.104368 g / cm^3
# Si number density = 21.091686 Si / 1000 Ang^3
#
#
#
# Elastic Constant Matrix: (Units=GPa)
#
#
# Indices 1 2 3 4 5 6 
#
# 1 44.8939 29.0333 9.2427 0.0000 -3.2999 0.0000
# 2 29.0333 156.0860 56.8895 0.0000 6.4391 0.0000
# 3 9.2427 56.8895 93.7533 0.0000 -3.5867 0.0000
# 4 0.0000 0.0000 0.0000 25.9656 0.0000 19.2257
# 5 -3.2999 6.4391 -3.5867 0.0000 26.0873 0.0000
# 6 0.0000 0.0000 0.0000 19.2257 0.0000 -17.9642
#
#
#
# Elastic Compliance Matrix: (Units=1/GPa)
#
#
# Indices 1 2 3 4 5 6 
#
# 1 0.025886 -0.005321 0.000857 0.000000 0.004706 0.000000
# 2 -0.005321 0.009518 -0.005395 0.000000 -0.003764 0.000000
# 3 0.000857 -0.005395 0.013984 0.000000 0.003363 0.000000
# 4 0.000000 0.000000 0.000000 0.021486 0.000000 0.022995
# 5 0.004706 -0.003764 0.003363 0.000000 0.040320 0.000000
# 6 0.000000 0.000000 0.000000 0.022995 0.000000 -0.031056
#
#
# Mechanical properties :
#
#
# Convention : Reuss Voigt Hill
#
# Bulk Modulus (GPa) = 33.70493 53.89602 43.80048
# Shear Modulus (GPa) = 45.55982 20.12226 32.84104
#
# Velocity S-wave (km/s) = 4.65271 3.09210 3.95024
# Velocity P-wave (km/s) = 6.69914 6.19329 6.45118
#
# Compressibility (1/GPa) = 0.02966925
#
# Stress axis : x y z
#
# Youngs Moduli (GPa) = 38.63150 105.06173 71.50954
#
# Poissons Ratio (x) = 0.55908 -0.06129
# Poissons Ratio (y) = 0.20558 0.38580
# Poissons Ratio (z) = -0.03311 0.56681
#
# Static dielectric constant tensor:
#      x y z
#    x 1.798010 0.000000 -0.047650 
#    y 0.000000 1.763340 0.000000 
#    z -0.047650 0.000000 1.775390 
# 
# From -- ./inp_files/5449.got.cif
#   From: 2010.05.17/outbox.cif.g08.bks.cpg/sg3_3_cif.got.tgz:5449.got - 2010.06.03 18:33:08.
