data_PCOD9113129
_publ_section_title
;
Structure prediction by ZEFSAII (Michael W. Deem and Ramdas Pophale) SiO2 
 PCOD9113129
Probable space group: P 2
;
_chemical_formula_sum "Si O2"
_cell_formula_units_Z 16
_cell_length_a 18.143776
_cell_length_b 8.900753
_cell_length_c 9.089777
_cell_angle_alpha 90.000000
_cell_angle_beta 29.445222
_cell_angle_gamma 90.000000
_cell_volume 721.625342
_symmetry_space_group_name_H-M "P 2"
_symmetry_group_IT_number 3
_symmetry_cell_setting 'monoclinic'
loop_
_space_group_symop_operation_xyz
x,y,z
-x,y,-z
loop_
_atom_site_type_symbol
_atom_site_label
_atom_site_fract_x
_atom_site_fract_y
_atom_site_fract_z
Si Si1 0.780245 0.105190 0.135594
Si Si2 0.360207 0.614972 0.017347
Si Si3 0.885247 0.397370 0.569054
Si Si4 0.885250 0.081005 0.412959
Si Si5 0.177319 0.884572 0.213505
Si Si6 0.313129 0.655194 0.451069
Si Si7 0.361791 0.001014 0.356202
Si Si8 0.096686 0.412168 0.964872
O O1 0.809907 0.285558 0.105566
O O2 0.633006 0.064177 0.486846
O O3 0.941490 0.045495 0.919819
O O4 0.778855 0.014101 0.982399
O O5 0.277020 0.462208 0.118288
O O6 0.286171 0.741620 0.040874
O O7 0.328954 0.631283 0.247899
O O8 0.538125 0.618699 0.712081
O O9 0.882257 0.227689 0.519569
O O10 0.000000 0.409934 0.500000
O O11 0.971572 0.483175 0.288527
O O12 0.817111 0.952127 0.632926
O O13 0.767021 0.103302 0.490619
O O14 0.000000 0.845344 0.500000
O O15 0.297512 0.834004 0.489247
O O16 0.191564 0.544224 0.729099
O O17 0.500000 0.998478 0.000000
O O18 0.000000 0.338141 0.000000
#
# Coordination Sequence:
#
# PCOD9113129 Si02
#       8
#     2   2   2   2   2   2   2   2
#     4  10  23  39  64  99 128 169 222 278 333 396
#     4  11  22  43  65  95 133 178 219 276 338 400
#     4  11  23  41  67  99 133 172 224 279 344 402
#     4  10  20  41  65  93 131 172 218 280 331 397
#     4  10  20  40  69  98 134 171 220 277 343 403
#     4  11  24  42  65  93 136 172 229 274 330 401
#     4  12  23  40  61  92 133 175 223 272 332 399
#     4  11  22  42  67 101 135 176 227 281 333 400
#
# _framework density 22.172170999999999
#
# number of rings (size 3 to 8) (size 9 to 14) (size 15 to 20)
#    0.000    1.250    3.750    4.125    0.000    5.000 
#    0.000    4.375    0.000    7.500    0.000    0.000 
#    0.000    0.000    0.000    0.000    0.000    0.000 
#
# Total GULP energy -89141.201393 kJ/mol
# GULP energy per Si atom -5571.325087 kJ/mol
# Density = 2.212171 g / cm^3
# Si number density = 22.172171 Si / 1000 Ang^3
#
#
#
# Elastic Constant Matrix: (Units=GPa)
#
#
# Indices 1 2 3 4 5 6 
#
# 1 92.3351 3.9676 17.7335 0.0000 -9.5820 0.0000
# 2 3.9676 40.4640 36.9181 0.0000 -9.2187 0.0000
# 3 17.7335 36.9181 83.2902 0.0000 9.1669 0.0000
# 4 0.0000 0.0000 0.0000 26.8743 0.0000 5.9786
# 5 -9.5820 -9.2187 9.1669 0.0000 24.2273 0.0000
# 6 0.0000 0.0000 0.0000 5.9786 0.0000 25.0799
#
#
#
# Elastic Compliance Matrix: (Units=1/GPa)
#
#
# Indices 1 2 3 4 5 6 
#
# 1 0.013130 0.008347 -0.007739 0.000000 0.011297 0.000000
# 2 0.008347 0.065903 -0.035594 0.000000 0.041846 0.000000
# 3 -0.007739 -0.035594 0.032617 0.000000 -0.028945 0.000000
# 4 0.000000 0.000000 0.000000 0.039294 0.000000 -0.009367
# 5 0.011297 0.041846 -0.028945 0.000000 0.072618 0.000000
# 6 0.000000 0.000000 0.000000 -0.009367 0.000000 0.042105
#
#
# Mechanical properties :
#
#
# Convention : Reuss Voigt Hill
#
# Bulk Modulus (GPa) = 23.99343 37.03642 30.51492
# Shear Modulus (GPa) = 14.30484 25.73431 20.01958
#
# Velocity S-wave (km/s) = 2.54278 3.41054 3.00811
# Velocity P-wave (km/s) = 4.41201 5.67885 5.08504
#
# Compressibility (1/GPa) = 0.04167808
#
# Stress axis : x y z
#
# Youngs Moduli (GPa) = 76.16130 15.17376 30.65932
#
# Poissons Ratio (x) = -0.12665 0.23726
# Poissons Ratio (y) = -0.63570 1.09129
# Poissons Ratio (z) = 0.58938 0.54009
#
# Static dielectric constant tensor:
#      x y z
#    x 1.874790 0.000000 0.028430 
#    y 0.000000 1.822130 0.000000 
#    z 0.028430 0.000000 1.870130 
# 
# From -- ./inp_files/9145.got.cif
#   From: 2010.05.17/outbox.cif.g08.bks.cpg/sg3_5_cif.got.tgz:9145.got - 2010.06.03 18:33:08.
