data_PCOD9113321
_publ_section_title
;
Structure prediction by ZEFSAII (Michael W. Deem and Ramdas Pophale) SiO2 
 PCOD9113321
Probable space group: P 2
;
_chemical_formula_sum "Si O2"
_cell_formula_units_Z 12
_cell_length_a 8.023504
_cell_length_b 5.030664
_cell_length_c 17.117815
_cell_angle_alpha 90.000000
_cell_angle_beta 130.931200
_cell_angle_gamma 90.000000
_cell_volume 521.999823
_symmetry_space_group_name_H-M "P 2"
_symmetry_group_IT_number 3
_symmetry_cell_setting 'monoclinic'
loop_
_space_group_symop_operation_xyz
x,y,z
-x,y,-z
loop_
_atom_site_type_symbol
_atom_site_label
_atom_site_fract_x
_atom_site_fract_y
_atom_site_fract_z
Si Si1 0.281871 0.967900 0.239615
Si Si2 0.887764 0.473513 0.883656
Si Si3 0.707825 0.513460 0.113284
Si Si4 0.861981 0.019132 0.229563
Si Si5 0.083917 0.299300 0.440524
Si Si6 0.359994 0.810579 0.529702
O O1 0.216085 0.765000 0.150910
O O2 0.491299 0.839444 0.347482
O O3 0.286636 0.257600 0.201919
O O4 0.086823 0.993934 0.245859
O O5 0.083062 0.495948 0.880086
O O6 0.000000 0.402783 0.000000
O O7 0.765754 0.722954 0.199253
O O8 0.684430 0.213026 0.135018
O O9 0.500000 0.604476 0.000000
O O10 0.921952 0.181165 0.325654
O O11 0.294509 0.112773 0.491924
O O12 0.000000 0.225820 0.500000
O O13 0.153605 0.608030 0.466100
O O14 0.500000 0.707786 0.500000
#
# Coordination Sequence:
#
# PCOD9113321 Si02
#       6
#     2   2   2   2   2   2
#     4  10  21  39  65  93 119 167 219 258 313 385
#     4  10  21  39  61  90 128 157 202 276 326 361
#     4  10  21  39  63  88 118 166 219 251 311 396
#     4  10  21  40  65  87 125 170 208 264 318 383
#     4  12  26  44  64  99 139 169 211 279 342 373
#     4  12  24  42  72  96 125 175 231 263 309 418
#
# _framework density 22.988513000000001
#
# number of rings (size 3 to 8) (size 9 to 14) (size 15 to 20)
#    0.000    1.333    1.667    4.000    4.667    0.000 
#    9.000    0.000    0.000    0.000    0.000    0.000 
#    0.000    0.000    0.000    0.000    0.000    0.000 
#
# Total GULP energy -66958.676090 kJ/mol
# GULP energy per Si atom -5579.889674 kJ/mol
# Density = 2.293619 g / cm^3
# Si number density = 22.988513 Si / 1000 Ang^3
#
#
#
# Elastic Constant Matrix: (Units=GPa)
#
#
# Indices 1 2 3 4 5 6 
#
# 1 25.9124 14.8214 4.6103 0.0000 -12.0939 0.0000
# 2 14.8214 132.5026 30.6550 0.0000 -5.4467 0.0000
# 3 4.6103 30.6550 124.9465 0.0000 -13.5092 0.0000
# 4 0.0000 0.0000 0.0000 59.9085 0.0000 1.9981
# 5 -12.0939 -5.4467 -13.5092 0.0000 25.6379 0.0000
# 6 0.0000 0.0000 0.0000 1.9981 0.0000 13.9142
#
#
#
# Elastic Compliance Matrix: (Units=1/GPa)
#
#
# Indices 1 2 3 4 5 6 
#
# 1 0.052923 -0.005372 0.002058 0.000000 0.024908 0.000000
# 2 -0.005372 0.008559 -0.002099 0.000000 -0.001822 0.000000
# 3 0.002058 -0.002099 0.009013 0.000000 0.005274 0.000000
# 4 0.000000 0.000000 0.000000 0.016772 0.000000 -0.002409
# 5 0.024908 -0.001822 0.005274 0.000000 0.053147 0.000000
# 6 0.000000 0.000000 0.000000 -0.002409 0.000000 0.072215
#
#
# Mechanical properties :
#
#
# Convention : Reuss Voigt Hill
#
# Bulk Modulus (GPa) = 16.75893 42.61500 29.68696
# Shear Modulus (GPa) = 20.54711 35.44374 27.99543
#
# Velocity S-wave (km/s) = 2.99289 3.93084 3.49349
# Velocity P-wave (km/s) = 4.38739 6.25937 5.40504
#
# Compressibility (1/GPa) = 0.05966967
#
# Stress axis : x y z
#
# Youngs Moduli (GPa) = 18.89526 116.84206 110.95614
#
# Poissons Ratio (x) = 0.62770 -0.22838
# Poissons Ratio (y) = 0.10151 0.23285
# Poissons Ratio (z) = -0.03889 0.24520
#
# Static dielectric constant tensor:
#      x y z
#    x 1.825020 0.000000 0.019260 
#    y 0.000000 1.804940 0.000000 
#    z 0.019260 0.000000 1.884700 
# 
# From -- ./inp_files/14889.got.cif
#   From: 2010.05.17/outbox.cif.g08.bks.cpg/sg3_8_cif.got.tgz:14889.got - 2010.06.03 18:33:08.
