data_PCOD9113650
_publ_section_title
;
Structure prediction by ZEFSAII (Michael W. Deem and Ramdas Pophale) SiO2 
 PCOD9113650
Probable space group: P 2
;
_chemical_formula_sum "Si O2"
_cell_formula_units_Z 10
_cell_length_a 17.561091
_cell_length_b 5.220061
_cell_length_c 23.871305
_cell_angle_alpha 90.000000
_cell_angle_beta 13.433571
_cell_angle_gamma 90.000000
_cell_volume 508.376877
_symmetry_space_group_name_H-M "P 2"
_symmetry_group_IT_number 3
_symmetry_cell_setting 'monoclinic'
loop_
_space_group_symop_operation_xyz
x,y,z
-x,y,-z
loop_
_atom_site_type_symbol
_atom_site_label
_atom_site_fract_x
_atom_site_fract_y
_atom_site_fract_z
Si Si1 0.818158 0.913380 0.737452
Si Si2 0.587170 0.617665 0.726023
Si Si3 0.371341 0.600079 0.754366
Si Si4 0.444909 0.118388 0.900254
Si Si5 0.212837 0.099855 0.559392
O O1 0.035891 0.679092 0.559583
O O2 0.500000 0.824510 0.000000
O O3 0.042320 0.073995 0.620064
O O4 0.690558 0.076189 0.776541
O O5 0.395078 0.604956 0.804875
O O6 0.534525 0.365772 0.800126
O O7 0.472878 0.865267 0.842533
O O8 0.544105 0.337780 0.612380
O O9 0.585411 0.837548 0.578364
O O10 0.000000 0.616300 0.000000
O O11 0.081845 0.133648 0.186109
#
# Coordination Sequence:
#
# PCOD9113650 Si02
#       5
#     2   2   2   2   2
#     4   9  21  39  61  88 125 164 194 232 294 363
#     4  11  23  39  60  90 119 155 203 248 292 348
#     4  11  23  43  64  85 116 160 204 248 295 350
#     4  11  23  40  61  92 126 154 191 247 298 351
#     4  10  22  41  63  89 120 159 200 237 293 364
#
# _framework density 19.670448
#
# number of rings (size 3 to 8) (size 9 to 14) (size 15 to 20)
#    0.000    1.600    0.000    4.800    0.000    8.000 
#    0.000   22.000    0.000    0.000    0.000    0.000 
#    0.000    0.000    0.000    0.000    0.000    0.000 
#
# Total GULP energy -55964.459093 kJ/mol
# GULP energy per Si atom -5596.445909 kJ/mol
# Density = 1.962568 g / cm^3
# Si number density = 19.670448 Si / 1000 Ang^3
#
#
#
# Elastic Constant Matrix: (Units=GPa)
#
#
# Indices 1 2 3 4 5 6 
#
# 1 92.6138 57.2500 82.2890 0.0000 6.4111 0.0000
# 2 57.2500 160.4507 73.2330 0.0000 10.7693 0.0000
# 3 82.2890 73.2330 146.8458 0.0000 -6.8541 0.0000
# 4 0.0000 0.0000 0.0000 25.9365 0.0000 2.4679
# 5 6.4111 10.7693 -6.8541 0.0000 34.5795 0.0000
# 6 0.0000 0.0000 0.0000 2.4679 0.0000 6.8749
#
#
#
# Elastic Compliance Matrix: (Units=1/GPa)
#
#
# Indices 1 2 3 4 5 6 
#
# 1 0.023685 -0.002401 -0.012360 0.000000 -0.006093 0.000000
# 2 -0.002401 0.008714 -0.003135 0.000000 -0.002890 0.000000
# 3 -0.012360 -0.003135 0.015596 0.000000 0.006359 0.000000
# 4 0.000000 0.000000 0.000000 0.039919 0.000000 -0.014330
# 5 -0.006093 -0.002890 0.006359 0.000000 0.032209 0.000000
# 6 0.000000 0.000000 0.000000 -0.014330 0.000000 0.150602
#
#
# Mechanical properties :
#
#
# Convention : Reuss Voigt Hill
#
# Bulk Modulus (GPa) = 81.94065 91.71716 86.82891
# Shear Modulus (GPa) = 16.09861 25.95408 21.02634
#
# Velocity S-wave (km/s) = 2.86390 3.63636 3.27300
# Velocity P-wave (km/s) = 7.25831 8.02240 7.64990
#
# Compressibility (1/GPa) = 0.01220395
#
# Stress axis : x y z
#
# Youngs Moduli (GPa) = 42.22019 114.75673 64.11721
#
# Poissons Ratio (x) = 0.27551 0.79248
# Poissons Ratio (y) = 0.10136 0.20103
# Poissons Ratio (z) = 0.52183 0.35980
#
# Static dielectric constant tensor:
#      x y z
#    x 1.682530 0.000000 0.014690 
#    y 0.000000 1.672960 0.000000 
#    z 0.014690 0.000000 1.680380 
# 
# From -- ./inp_files/12672.got.cif
#   From: 2010.05.17/outbox.cif.g08.bks.cpg/sg3_7_cif.got.tgz:12672.got - 2010.06.03 18:33:08.
