data_PCOD9113145
_publ_section_title
;
Structure prediction by ZEFSAII (Michael W. Deem and Ramdas Pophale) SiO2 
 PCOD9113145
Probable space group: P 2
;
_chemical_formula_sum "Si O2"
_cell_formula_units_Z 12
_cell_length_a 10.905142
_cell_length_b 8.274901
_cell_length_c 9.050200
_cell_angle_alpha 90.000000
_cell_angle_beta 139.056332
_cell_angle_gamma 90.000000
_cell_volume 535.184519
_symmetry_space_group_name_H-M "P 2"
_symmetry_group_IT_number 3
_symmetry_cell_setting 'monoclinic'
loop_
_space_group_symop_operation_xyz
x,y,z
-x,y,-z
loop_
_atom_site_type_symbol
_atom_site_label
_atom_site_fract_x
_atom_site_fract_y
_atom_site_fract_z
Si Si1 0.312348 0.003010 0.894599
Si Si2 0.834158 0.735975 0.456667
Si Si3 0.006366 0.274507 0.661811
Si Si4 0.326565 0.418470 0.534683
Si Si5 0.247010 0.468387 0.117093
Si Si6 0.110728 0.838129 0.955956
O O1 0.137324 0.124420 0.740443
O O2 0.286953 0.856093 0.754554
O O3 0.500000 0.083688 0.000000
O O4 0.285412 0.930867 0.036971
O O5 0.735629 0.581913 0.437868
O O6 0.000000 0.686905 0.500000
O O7 0.942767 0.829308 0.684878
O O8 0.000000 0.364631 0.500000
O O9 0.789337 0.265164 0.510671
O O10 0.103964 0.369126 0.885267
O O11 0.265877 0.433283 0.308216
O O12 0.548169 0.418611 0.754195
O O13 0.187463 0.656240 0.051844
O O14 0.000000 0.900949 0.000000
#
# Coordination Sequence:
#
# PCOD9113145 Si02
#       6
#     2   2   2   2   2   2
#     4  11  27  46  67 103 147 188 241 293 352 436
#     4  10  20  41  67 101 137 179 228 286 354 409
#     4  12  26  45  67 100 144 185 233 289 360 422
#     4  11  23  42  73 104 142 182 235 298 346 425
#     4  11  24  42  71 107 139 181 240 290 355 422
#     4  11  20  41  72 103 138 185 231 293 355 416
#
# _framework density 22.422172
#
# number of rings (size 3 to 8) (size 9 to 14) (size 15 to 20)
#    0.000    1.000    3.333    3.500    4.667    1.333 
#    0.000    0.000    0.000    0.000    0.000    0.000 
#    0.000    0.000    0.000    0.000    0.000    0.000 
#
# Total GULP energy -66901.746867 kJ/mol
# GULP energy per Si atom -5575.145572 kJ/mol
# Density = 2.237114 g / cm^3
# Si number density = 22.422172 Si / 1000 Ang^3
#
#
#
# Elastic Constant Matrix: (Units=GPa)
#
#
# Indices 1 2 3 4 5 6 
#
# 1 169.9946 26.2980 29.9728 0.0000 23.0193 0.0000
# 2 26.2980 49.0825 3.2296 0.0000 12.2346 0.0000
# 3 29.9728 3.2296 69.3124 0.0000 8.3518 0.0000
# 4 0.0000 0.0000 0.0000 29.2182 0.0000 16.1735
# 5 23.0193 12.2346 8.3518 0.0000 41.3900 0.0000
# 6 0.0000 0.0000 0.0000 16.1735 0.0000 34.3351
#
#
#
# Elastic Compliance Matrix: (Units=1/GPa)
#
#
# Indices 1 2 3 4 5 6 
#
# 1 0.007164 -0.003027 -0.002649 0.000000 -0.002555 0.000000
# 2 -0.003027 0.023278 0.000872 0.000000 -0.005373 0.000000
# 3 -0.002649 0.000872 0.015769 0.000000 -0.001966 0.000000
# 4 0.000000 0.000000 0.000000 0.046297 0.000000 -0.021808
# 5 -0.002555 -0.005373 -0.001966 0.000000 0.027566 0.000000
# 6 0.000000 0.000000 0.000000 -0.021808 0.000000 0.039397
#
#
# Mechanical properties :
#
#
# Convention : Reuss Voigt Hill
#
# Bulk Modulus (GPa) = 27.32074 45.26561 36.29317
# Shear Modulus (GPa) = 27.58151 36.24792 31.91471
#
# Velocity S-wave (km/s) = 3.51108 4.02507 3.77683
# Velocity P-wave (km/s) = 5.35239 6.46787 5.93639
#
# Compressibility (1/GPa) = 0.03660223
#
# Stress axis : x y z
#
# Youngs Moduli (GPa) = 139.58947 42.95950 63.41455
#
# Poissons Ratio (x) = 0.13005 0.16798
# Poissons Ratio (y) = 0.42256 -0.05529
# Poissons Ratio (z) = 0.36977 -0.03745
#
# Static dielectric constant tensor:
#      x y z
#    x 1.878040 0.000000 0.020800 
#    y 0.000000 1.896120 0.000000 
#    z 0.020800 0.000000 1.799040 
# 
# From -- ./inp_files/7546.got.cif
#   From: 2010.05.17/outbox.cif.g08.bks.cpg/sg3_4_cif.got.tgz:7546.got - 2010.06.03 18:33:08.
