data_PCOD9113655
_publ_section_title
;
Structure prediction by ZEFSAII (Michael W. Deem and Ramdas Pophale) SiO2 
 PCOD9113655
Probable space group: P 2
;
_chemical_formula_sum "Si O2"
_cell_formula_units_Z 12
_cell_length_a 14.338519
_cell_length_b 4.859031
_cell_length_c 5.666135
_cell_angle_alpha 90.000000
_cell_angle_beta 77.481743
_cell_angle_gamma 90.000000
_cell_volume 385.382238
_symmetry_space_group_name_H-M "P 2"
_symmetry_group_IT_number 3
_symmetry_cell_setting 'monoclinic'
loop_
_space_group_symop_operation_xyz
x,y,z
-x,y,-z
loop_
_atom_site_type_symbol
_atom_site_label
_atom_site_fract_x
_atom_site_fract_y
_atom_site_fract_z
Si Si1 0.466016 0.548860 0.770546
Si Si2 0.884129 0.058360 0.289310
Si Si3 0.798576 0.557772 0.595973
Si Si4 0.296129 0.163722 0.870548
Si Si5 0.958033 0.480095 0.778238
Si Si6 0.635459 0.172858 0.669216
O O1 0.500000 0.669575 0.500000
O O2 0.355847 0.452800 0.838495
O O3 0.526008 0.259182 0.740198
O O4 0.500000 0.681075 0.000000
O O5 0.843110 0.254999 0.519347
O O6 0.817827 0.161744 0.107988
O O7 0.993014 0.171336 0.234064
O O8 0.841405 0.764806 0.382725
O O9 0.689392 0.474158 0.641893
O O10 0.851414 0.605761 0.812855
O O11 0.335912 0.045651 0.598729
O O12 0.324597 0.041808 0.110090
O O13 0.000000 0.582286 0.500000
O O14 0.000000 0.603058 0.000000
#
# Coordination Sequence:
#
# PCOD9113655 Si02
#       6
#     2   2   2   2   2   2
#     4   8  14  26  52  84 120 160 202 250 304 362
#     4  10  22  41  64  93 125 166 210 260 316 375
#     4  10  22  41  64  93 125 166 210 260 316 375
#     4   9  17  33  57  89 124 163 207 255 308 369
#     4  10  22  42  64  92 126 166 212 262 316 376
#     4   9  17  33  57  89 124 163 207 255 308 369
#
# _framework density 31.137920000000001
#
# number of rings (size 3 to 8) (size 9 to 14) (size 15 to 20)
#    0.000    2.667    0.000    1.000    0.000    6.000 
#    0.000   33.333    0.000   25.000    0.000   58.333 
#    0.000    0.000    0.000    0.000    0.000    0.000 
#
# Total GULP energy -66878.057297 kJ/mol
# GULP energy per Si atom -5573.171441 kJ/mol
# Density = 3.106705 g / cm^3
# Si number density = 31.137920 Si / 1000 Ang^3
#
#
#
# Elastic Constant Matrix: (Units=GPa)
#
#
# Indices 1 2 3 4 5 6 
#
# 1 182.9625 54.9741 24.0918 0.0000 31.2556 0.0000
# 2 54.9741 97.7126 40.3219 0.0000 -4.6920 0.0000
# 3 24.0918 40.3219 228.2354 0.0000 24.1156 0.0000
# 4 0.0000 0.0000 0.0000 16.0013 0.0000 1.1569
# 5 31.2556 -4.6920 24.1156 0.0000 64.8542 0.0000
# 6 0.0000 0.0000 0.0000 1.1569 0.0000 44.0002
#
#
#
# Elastic Compliance Matrix: (Units=1/GPa)
#
#
# Indices 1 2 3 4 5 6 
#
# 1 0.007490 -0.004600 0.000457 0.000000 -0.004112 0.000000
# 2 -0.004600 0.014023 -0.002429 0.000000 0.004134 0.000000
# 3 0.000457 -0.002429 0.005001 0.000000 -0.002255 0.000000
# 4 0.000000 0.000000 0.000000 0.062614 0.000000 -0.001646
# 5 -0.004112 0.004134 -0.002255 0.000000 0.018539 0.000000
# 6 0.000000 0.000000 0.000000 -0.001646 0.000000 0.022770
#
#
# Mechanical properties :
#
#
# Convention : Reuss Voigt Hill
#
# Bulk Modulus (GPa) = 74.79739 83.07623 78.93681
# Shear Modulus (GPa) = 33.77528 50.93930 42.35729
#
# Velocity S-wave (km/s) = 3.29705 4.04904 3.69224
# Velocity P-wave (km/s) = 6.21028 6.97120 6.60171
#
# Compressibility (1/GPa) = 0.01336945
#
# Stress axis : x y z
#
# Youngs Moduli (GPa) = 133.50963 71.31258 199.97575
#
# Poissons Ratio (x) = 0.32803 -0.09129
# Poissons Ratio (y) = 0.61413 0.48568
# Poissons Ratio (z) = -0.06095 0.17320
#
# Static dielectric constant tensor:
#      x y z
#    x 2.852030 0.000000 0.031320 
#    y 0.000000 2.413210 0.000000 
#    z 0.031320 0.000000 2.480610 
# 
# From -- ./inp_files/3384.got.cif
#   From: 2010.05.17/outbox.cif.g08.bks.cpg/sg3_2_cif.got.tgz:3384.got - 2010.06.03 18:33:08.
