data_PCOD9113667
_publ_section_title
;
Structure prediction by ZEFSAII (Michael W. Deem and Ramdas Pophale) SiO2 
 PCOD9113667
Probable space group: P 2
;
_chemical_formula_sum "Si O2"
_cell_formula_units_Z 15
_cell_length_a 10.323226
_cell_length_b 6.513086
_cell_length_c 11.580880
_cell_angle_alpha 90.000000
_cell_angle_beta 117.022387
_cell_angle_gamma 90.000000
_cell_volume 693.646485
_symmetry_space_group_name_H-M "P 2"
_symmetry_group_IT_number 3
_symmetry_cell_setting 'monoclinic'
loop_
_space_group_symop_operation_xyz
x,y,z
-x,y,-z
loop_
_atom_site_type_symbol
_atom_site_label
_atom_site_fract_x
_atom_site_fract_y
_atom_site_fract_z
Si Si1 0.340325 0.366120 0.880615
Si Si2 0.831114 0.071354 0.050353
Si Si3 0.136312 0.283527 0.172245
Si Si4 0.633152 0.457072 0.380839
Si Si5 0.929101 0.637583 0.135002
Si Si6 0.102608 0.749653 0.435109
Si Si7 0.711799 0.097582 0.557516
Si Si8 0.500000 0.737257 0.500000
O O1 0.281538 0.138545 0.895237
O O2 0.353417 0.424576 0.750617
O O3 0.208934 0.500020 0.882264
O O4 0.500000 0.397461 0.000000
O O5 0.994300 0.147035 0.143941
O O6 0.855912 0.830519 0.041615
O O7 0.795545 0.194247 0.917578
O O8 0.241601 0.246611 0.321078
O O9 0.061217 0.505763 0.132004
O O10 0.772712 0.578707 0.490310
O O11 0.621255 0.232782 0.432108
O O12 0.509715 0.598541 0.389058
O O13 0.010503 0.714794 0.282890
O O14 0.000000 0.720995 0.500000
O O15 0.158046 0.984925 0.456438
O O16 0.631369 0.895760 0.570400
#
# Coordination Sequence:
#
# PCOD9113667 Si02
#       8
#     2   2   2   2   2   2   2   1
#     4  11  27  45  64  97 138 186 226 271 340 409
#     4  10  24  41  64 100 136 176 225 269 335 410
#     4  10  22  41  67 101 131 177 223 281 337 386
#     4  11  24  44  68  97 140 175 227 284 335 406
#     4  11  22  44  69 101 138 169 229 283 341 401
#     4  11  22  38  69 106 132 171 223 284 350 392
#     4  11  23  41  68  98 136 175 226 284 334 403
#     4  10  26  42  62 102 130 178 228 276 340 400
#
# _framework density 21.624846999999999
#
# number of rings (size 3 to 8) (size 9 to 14) (size 15 to 20)
#    0.000    1.333    4.000    0.400    1.867    8.533 
#    0.000    0.000    0.000    0.000    0.000    0.000 
#    0.000    0.000    0.000    0.000    0.000    0.000 
#
# Total GULP energy -83624.296265 kJ/mol
# GULP energy per Si atom -5574.953084 kJ/mol
# Density = 2.157563 g / cm^3
# Si number density = 21.624847 Si / 1000 Ang^3
#
#
#
# Elastic Constant Matrix: (Units=GPa)
#
#
# Indices 1 2 3 4 5 6 
#
# 1 57.7983 37.3530 18.8882 0.0000 -14.4624 0.0000
# 2 37.3530 135.3850 33.6782 0.0000 -20.5838 0.0000
# 3 18.8882 33.6782 92.9972 0.0000 -21.6459 0.0000
# 4 0.0000 0.0000 0.0000 24.5506 0.0000 7.5431
# 5 -14.4624 -20.5838 -21.6459 0.0000 32.6271 0.0000
# 6 0.0000 0.0000 0.0000 7.5431 0.0000 44.9951
#
#
#
# Elastic Compliance Matrix: (Units=1/GPa)
#
#
# Indices 1 2 3 4 5 6 
#
# 1 0.022428 -0.004945 -0.001391 0.000000 0.005899 0.000000
# 2 -0.004945 0.009615 -0.001864 0.000000 0.002638 0.000000
# 3 -0.001391 -0.001864 0.013356 0.000000 0.007068 0.000000
# 4 0.000000 0.000000 0.000000 0.042944 0.000000 -0.007199
# 5 0.005899 0.002638 0.007068 0.000000 0.039617 0.000000
# 6 0.000000 0.000000 0.000000 -0.007199 0.000000 0.023432
#
#
# Mechanical properties :
#
#
# Convention : Reuss Voigt Hill
#
# Bulk Modulus (GPa) = 34.48450 51.77994 43.13222
# Shear Modulus (GPa) = 28.17554 33.51861 30.84707
#
# Velocity S-wave (km/s) = 3.61352 3.94128 3.78095
# Velocity P-wave (km/s) = 5.77853 6.68642 6.24898
#
# Compressibility (1/GPa) = 0.02899854
#
# Stress axis : x y z
#
# Youngs Moduli (GPa) = 44.58703 104.00040 74.87421
#
# Poissons Ratio (x) = 0.51428 0.10419
# Poissons Ratio (y) = 0.22048 0.13955
# Poissons Ratio (z) = 0.06204 0.19384
#
# Static dielectric constant tensor:
#      x y z
#    x 1.825570 0.000000 -0.010450 
#    y 0.000000 1.838090 0.000000 
#    z -0.010450 0.000000 1.767900 
# 
# From -- ./inp_files/11345.got.cif
#   From: 2010.05.17/outbox.cif.g08.bks.cpg/sg3_6_cif.got.tgz:11345.got - 2010.06.03 18:33:08.
