data_PCOD9113243
_publ_section_title
;
Structure prediction by ZEFSAII (Michael W. Deem and Ramdas Pophale) SiO2 
 PCOD9113243
Probable space group: P 2
;
_chemical_formula_sum "Si O2"
_cell_formula_units_Z 11
_cell_length_a 14.863672
_cell_length_b 5.292472
_cell_length_c 8.309093
_cell_angle_alpha 90.000000
_cell_angle_beta 42.356192
_cell_angle_gamma 90.000000
_cell_volume 440.381503
_symmetry_space_group_name_H-M "P 2"
_symmetry_group_IT_number 3
_symmetry_cell_setting 'monoclinic'
loop_
_space_group_symop_operation_xyz
x,y,z
-x,y,-z
loop_
_atom_site_type_symbol
_atom_site_label
_atom_site_fract_x
_atom_site_fract_y
_atom_site_fract_z
Si Si1 0.522259 0.775590 0.780069
Si Si2 0.824397 0.445406 0.094682
Si Si3 0.382053 0.268442 0.284761
Si Si4 0.747183 0.967870 0.026109
Si Si5 0.889259 0.480923 0.380737
Si Si6 0.000000 0.867763 0.500000
O O1 0.566661 0.496254 0.668261
O O2 0.633433 0.993279 0.615824
O O3 0.500000 0.732830 0.000000
O O4 0.390339 0.892689 0.878297
O O5 0.842716 0.516127 0.257160
O O6 0.786665 0.708378 0.062902
O O7 0.969732 0.349080 0.839520
O O8 0.732971 0.213097 0.158047
O O9 0.244850 0.347212 0.379341
O O10 0.500000 0.230486 0.000000
O O11 0.871302 0.010934 0.739951
O O12 0.932504 0.699594 0.446561
#
# Coordination Sequence:
#
# PCOD9113243 Si02
#       6
#     2   2   2   2   2   1
#     4  10  21  37  60  89 124 161 208 269 318 374
#     4  10  25  43  66  92 138 174 210 273 335 405
#     4  10  21  37  62  90 125 162 208 270 319 377
#     4  11  23  43  65  98 130 173 223 269 333 390
#     4  10  23  44  66  99 130 173 220 270 338 388
#     4  10  22  40  76 100 128 170 232 290 318 388
#
# _framework density 24.978342000000001
#
# number of rings (size 3 to 8) (size 9 to 14) (size 15 to 20)
#    0.000    1.818    0.000    3.273    0.000   20.364 
#    0.000    5.455    0.000    0.000    0.000    0.000 
#    0.000    0.000    0.000    0.000    0.000    0.000 
#
# Total GULP energy -61365.812871 kJ/mol
# GULP energy per Si atom -5578.710261 kJ/mol
# Density = 2.492149 g / cm^3
# Si number density = 24.978342 Si / 1000 Ang^3
#
#
#
# Elastic Constant Matrix: (Units=GPa)
#
#
# Indices 1 2 3 4 5 6 
#
# 1 157.0342 51.4934 26.5104 0.0000 -0.5355 0.0000
# 2 51.4934 147.4996 13.9419 0.0000 7.0644 0.0000
# 3 26.5104 13.9419 76.2258 0.0000 1.0775 0.0000
# 4 0.0000 0.0000 0.0000 -14.3593 0.0000 -20.4830
# 5 -0.5355 7.0644 1.0775 0.0000 28.4910 0.0000
# 6 0.0000 0.0000 0.0000 -20.4830 0.0000 23.6067
#
#
#
# Elastic Compliance Matrix: (Units=1/GPa)
#
#
# Indices 1 2 3 4 5 6 
#
# 1 0.007550 -0.002469 -0.002186 0.000000 0.000837 0.000000
# 2 -0.002469 0.007786 -0.000538 0.000000 -0.001957 0.000000
# 3 -0.002186 -0.000538 0.013984 0.000000 -0.000437 0.000000
# 4 0.000000 0.000000 0.000000 -0.031122 0.000000 -0.027004
# 5 0.000837 -0.001957 -0.000437 0.000000 0.035616 0.000000
# 6 0.000000 0.000000 0.000000 -0.027004 0.000000 0.018930
#
#
# Mechanical properties :
#
#
# Convention : Reuss Voigt Hill
#
# Bulk Modulus (GPa) = 52.81495 62.73901 57.77698
# Shear Modulus (GPa) = 72.00331 26.80192 49.40262
#
# Velocity S-wave (km/s) = 5.37484 3.27923 4.45209
# Velocity P-wave (km/s) = 7.72714 6.28567 7.04338
#
# Compressibility (1/GPa) = 0.01893403
#
# Stress axis : x y z
#
# Youngs Moduli (GPa) = 132.45820 128.43238 71.51203
#
# Poissons Ratio (x) = 0.31711 0.15632
# Poissons Ratio (y) = 0.32705 0.03845
# Poissons Ratio (z) = 0.28954 0.06906
#
# Static dielectric constant tensor:
#      x y z
#    x 2.118280 0.000000 0.306220 
#    y 0.000000 2.003670 0.000000 
#    z 0.306220 0.000000 2.509490 
# 
# From -- ./inp_files/8132.got.cif
#   From: 2010.05.17/outbox.cif.g08.bks.cpg/sg3_5_cif.got.tgz:8132.got - 2010.06.03 18:33:08.
