data_PCOD9113307
_publ_section_title
;
Structure prediction by ZEFSAII (Michael W. Deem and Ramdas Pophale) SiO2 
 PCOD9113307
Probable space group: P 2
;
_chemical_formula_sum "Si O2"
_cell_formula_units_Z 16
_cell_length_a 11.154079
_cell_length_b 10.495330
_cell_length_c 7.950486
_cell_angle_alpha 90.000000
_cell_angle_beta 117.677719
_cell_angle_gamma 90.000000
_cell_volume 824.230172
_symmetry_space_group_name_H-M "P 2"
_symmetry_group_IT_number 3
_symmetry_cell_setting 'monoclinic'
loop_
_space_group_symop_operation_xyz
x,y,z
-x,y,-z
loop_
_atom_site_type_symbol
_atom_site_label
_atom_site_fract_x
_atom_site_fract_y
_atom_site_fract_z
Si Si1 0.296021 0.385680 0.488500
Si Si2 0.600502 0.106180 0.822169
Si Si3 0.802581 0.892515 0.018395
Si Si4 0.592823 0.394993 0.818560
Si Si5 0.898133 0.886153 0.694789
Si Si6 0.144253 0.621607 0.506671
Si Si7 0.304921 0.098097 0.510823
Si Si8 0.346422 0.650168 0.945035
O O1 0.431767 0.412701 0.685576
O O2 0.342666 0.394365 0.325282
O O3 0.183325 0.490813 0.442713
O O4 0.254085 0.241963 0.506045
O O5 0.615653 0.250894 0.898113
O O6 0.440745 0.074889 0.707897
O O7 0.647350 0.101053 0.655350
O O8 0.695491 0.005715 0.977436
O O9 0.855673 0.901000 0.861726
O O10 0.725333 0.759166 0.991763
O O11 0.939842 0.901070 0.217177
O O12 0.648579 0.512045 0.962187
O O13 0.859709 0.744404 0.614208
O O14 0.808702 0.991511 0.541122
O O15 0.258103 0.643305 0.720395
O O16 0.000000 0.610771 0.500000
O O17 0.500000 0.685892 0.000000
#
# Coordination Sequence:
#
# PCOD9113307 Si02
#       8
#     2   2   2   2   2   2   2   2
#     4   9  18  37  63  86 112 147 187 233 283 335
#     4   8  16  33  60  88 112 137 185 241 280 325
#     4  10  21  39  59  85 113 148 191 234 279 333
#     4   9  18  37  62  89 112 141 189 240 280 328
#     4  10  21  39  60  82 115 151 188 232 280 336
#     4  12  24  41  55  78 121 157 187 230 282 335
#     4   8  16  33  60  88 110 141 186 234 281 331
#     4  12  24  39  57  82 117 151 193 235 277 331
#
# _framework density 19.412054000000001
#
# number of rings (size 3 to 8) (size 9 to 14) (size 15 to 20)
#    0.000    2.250    2.500    2.250    1.750    0.000 
#    2.250    2.500    0.000    0.000    0.000    0.000 
#    0.000    0.000    0.000    0.000    0.000    0.000 
#
# Total GULP energy -89305.478229 kJ/mol
# GULP energy per Si atom -5581.592389 kJ/mol
# Density = 1.936787 g / cm^3
# Si number density = 19.412054 Si / 1000 Ang^3
#
#
#
# Elastic Constant Matrix: (Units=GPa)
#
#
# Indices 1 2 3 4 5 6 
#
# 1 85.3424 64.1978 26.8925 0.0000 28.1304 0.0000
# 2 64.1978 156.8976 41.8948 0.0000 35.6257 0.0000
# 3 26.8925 41.8948 53.0752 0.0000 30.8940 0.0000
# 4 0.0000 0.0000 0.0000 11.1222 0.0000 27.6744
# 5 28.1304 35.6257 30.8940 0.0000 29.0411 0.0000
# 6 0.0000 0.0000 0.0000 27.6744 0.0000 -8.3555
#
#
#
# Elastic Compliance Matrix: (Units=1/GPa)
#
#
# Indices 1 2 3 4 5 6 
#
# 1 0.020211 -0.005446 0.004110 0.000000 -0.017268 0.000000
# 2 -0.005446 0.010364 -0.002867 0.000000 -0.004389 0.000000
# 3 0.004110 -0.002867 0.050664 0.000000 -0.054360 0.000000
# 4 0.000000 0.000000 0.000000 0.009729 0.000000 0.032224
# 5 -0.017268 -0.004389 -0.054360 0.000000 0.114373 0.000000
# 6 0.000000 0.000000 0.000000 0.032224 0.000000 -0.012951
#
#
# Mechanical properties :
#
#
# Convention : Reuss Voigt Hill
#
# Bulk Modulus (GPa) = 13.73009 62.36505 38.04757
# Shear Modulus (GPa) = 22.21489 17.18357 19.69923
#
# Velocity S-wave (km/s) = 3.38655 2.97846 3.18904
# Velocity P-wave (km/s) = 4.73074 6.63513 5.76216
#
# Compressibility (1/GPa) = 0.07283273
#
# Stress axis : x y z
#
# Youngs Moduli (GPa) = 49.47729 96.48756 19.73807
#
# Poissons Ratio (x) = 0.52549 -0.08112
# Poissons Ratio (y) = 0.26946 0.05658
# Poissons Ratio (z) = -0.20334 0.27658
#
# Static dielectric constant tensor:
#      x y z
#    x 1.667140 0.000000 -0.021500 
#    y 0.000000 1.672330 0.000000 
#    z -0.021500 0.000000 1.688720 
# 
# From -- ./inp_files/7468.got.cif
#   From: 2010.05.17/outbox.cif.g08.bks.cpg/sg3_4_cif.got.tgz:7468.got - 2010.06.03 18:33:08.
