data_PCOD9113729
_publ_section_title
;
Structure prediction by ZEFSAII (Michael W. Deem and Ramdas Pophale) SiO2 
 PCOD9113729
Probable space group: P 2
;
_chemical_formula_sum "Si O2"
_cell_formula_units_Z 11
_cell_length_a 16.068700
_cell_length_b 5.143713
_cell_length_c 5.199422
_cell_angle_alpha 90.000000
_cell_angle_beta 71.577209
_cell_angle_gamma 90.000000
_cell_volume 407.722333
_symmetry_space_group_name_H-M "P 2"
_symmetry_group_IT_number 3
_symmetry_cell_setting 'monoclinic'
loop_
_space_group_symop_operation_xyz
x,y,z
-x,y,-z
loop_
_atom_site_type_symbol
_atom_site_label
_atom_site_fract_x
_atom_site_fract_y
_atom_site_fract_z
Si Si1 0.826332 0.612430 0.863656
Si Si2 0.261330 0.990945 0.439870
Si Si3 0.593951 0.356520 0.860479
Si Si4 0.000000 0.606958 0.500000
Si Si5 0.086570 0.004125 0.825951
Si Si6 0.655372 0.612747 0.284138
O O1 0.772380 0.734700 0.678817
O O2 0.914229 0.462351 0.694419
O O3 0.867834 0.852862 0.983132
O O4 0.751753 0.495900 0.119138
O O5 0.169963 0.127425 0.603935
O O6 0.318436 0.893547 0.627230
O O7 0.325051 0.158538 0.203030
O O8 0.605641 0.473794 0.565219
O O9 0.500000 0.227945 0.000000
O O10 0.602111 0.574989 0.074457
O O11 0.955448 0.789904 0.326420
O O12 0.000000 0.157753 0.000000
#
# Coordination Sequence:
#
# PCOD9113729 Si02
#       6
#     2   2   2   1   2   2
#     4   9  17  36  65  99 130 183 219 275 340 411
#     4  10  22  42  72  98 136 185 226 279 352 417
#     4  12  28  47  68 101 138 177 234 296 349 413
#     4   8  14  28  58 100 132 172 226 266 330 412
#     4   8  15  29  60  98 131 173 226 267 334 410
#     4  11  24  46  70  98 137 178 225 289 349 411
#
# _framework density 26.979144000000002
#
# number of rings (size 3 to 8) (size 9 to 14) (size 15 to 20)
#    0.000    2.182    1.818    0.545    5.091    0.727 
#    3.273    0.000    4.000    0.000    0.000    0.000 
#    0.000    0.000    0.000    0.000    0.000    0.000 
#
# Total GULP energy -61465.980534 kJ/mol
# GULP energy per Si atom -5587.816412 kJ/mol
# Density = 2.691774 g / cm^3
# Si number density = 26.979144 Si / 1000 Ang^3
#
#
#
# Elastic Constant Matrix: (Units=GPa)
#
#
# Indices 1 2 3 4 5 6 
#
# 1 119.4832 31.0221 78.3359 0.0000 -44.3488 0.0000
# 2 31.0221 54.2757 27.4254 0.0000 -0.8122 0.0000
# 3 78.3359 27.4254 168.5615 0.0000 -34.3016 0.0000
# 4 0.0000 0.0000 0.0000 -743.7822 0.0000 -204.5794
# 5 -44.3488 -0.8122 -34.3016 0.0000 91.7725 0.0000
# 6 0.0000 0.0000 0.0000 -204.5794 0.0000 -13.9679
#
#
#
# Elastic Compliance Matrix: (Units=1/GPa)
#
#
# Indices 1 2 3 4 5 6 
#
# 1 0.015247 -0.006116 -0.004981 0.000000 0.005452 0.000000
# 2 -0.006116 0.022637 -0.001517 0.000000 -0.003322 0.000000
# 3 -0.004981 -0.001517 0.008660 0.000000 0.000816 0.000000
# 4 0.000000 0.000000 0.000000 0.000444 0.000000 -0.006502
# 5 0.005452 -0.003322 0.000816 0.000000 0.013807 0.000000
# 6 0.000000 0.000000 0.000000 -0.006502 0.000000 0.023639
#
#
# Mechanical properties :
#
#
# Convention : Reuss Voigt Hill
#
# Bulk Modulus (GPa) = 46.91278 68.43191 57.67234
# Shear Modulus (GPa) = 42.82028 -119.49306 -38.33639
#
# Velocity S-wave (km/s) = 3.98824 -6.66236 -3.77366
# Velocity P-wave (km/s) = 6.21566 5.81059 1.56068
#
# Compressibility (1/GPa) = 0.02131615
#
# Stress axis : x y z
#
# Youngs Moduli (GPa) = 65.58837 44.17577 115.46886
#
# Poissons Ratio (x) = 0.27018 0.57516
# Poissons Ratio (y) = 0.40113 0.17515
# Poissons Ratio (z) = 0.32670 0.06701
#
# Static dielectric constant tensor:
#      x y z
#    x 2.065150 0.000000 -0.037100 
#    y 0.000000 2.139970 0.000000 
#    z -0.037100 0.000000 2.228780 
# 
# From -- ./inp_files/2806.got.cif
#   From: 2010.05.17/outbox.cif.g08.bks.cpg/sg3_2_cif.got.tgz:2806.got - 2010.06.03 18:33:08.
