data_PCOD9113938
_publ_section_title
;
Structure prediction by ZEFSAII (Michael W. Deem and Ramdas Pophale) SiO2 
 PCOD9113938
Probable space group: P 2
;
_chemical_formula_sum "Si O2"
_cell_formula_units_Z 13
_cell_length_a 12.368940
_cell_length_b 8.692401
_cell_length_c 8.846160
_cell_angle_alpha 90.000000
_cell_angle_beta 33.930940
_cell_angle_gamma 90.000000
_cell_volume 530.898621
_symmetry_space_group_name_H-M "P 2"
_symmetry_group_IT_number 3
_symmetry_cell_setting 'monoclinic'
loop_
_space_group_symop_operation_xyz
x,y,z
-x,y,-z
loop_
_atom_site_type_symbol
_atom_site_label
_atom_site_fract_x
_atom_site_fract_y
_atom_site_fract_z
Si Si1 0.216049 0.702560 0.767674
Si Si2 0.139082 0.042622 0.951784
Si Si3 0.812034 0.163498 0.514572
Si Si4 0.462785 0.248046 0.697067
Si Si5 0.500000 0.951379 0.000000
Si Si6 0.709877 0.414414 0.831748
Si Si7 0.575502 0.693046 0.151904
O O1 0.363060 0.645367 0.466588
O O2 0.299758 0.689055 0.839748
O O3 0.000000 0.636519 0.000000
O O4 0.189477 0.889417 0.798080
O O5 0.993567 0.056262 0.262223
O O6 0.339331 0.106397 0.777887
O O7 0.000000 0.140508 0.000000
O O8 0.657837 0.201814 0.558236
O O9 0.852416 0.326555 0.552166
O O10 0.683887 0.061569 0.775631
O O11 0.500000 0.342824 0.500000
O O12 0.316690 0.335221 0.975970
O O13 0.472947 0.848184 0.882268
O O14 0.500000 0.388019 0.000000
O O15 0.698046 0.593406 0.887568
#
# Coordination Sequence:
#
# PCOD9113938 Si02
#       7
#     2   2   2   2   1   2   2
#     4  10  24  43  68 102 138 177 235 291 342 412
#     4  11  22  39  67 104 132 171 228 296 339 394
#     4  11  23  43  67 101 139 172 234 292 343 412
#     4  11  22  39  70  95 128 182 229 282 342 407
#     4  12  20  40  72 100 130 188 230 284 358 404
#     4  10  23  46  66  94 139 185 225 279 351 416
#     4  11  24  44  72  96 138 189 229 282 352 425
#
# _framework density 24.486782999999999
#
# number of rings (size 3 to 8) (size 9 to 14) (size 15 to 20)
#    0.000    1.231    4.615    2.769    4.308    0.615 
#    0.000    9.231    0.000    0.000    0.000    0.000 
#    0.000    0.000    0.000    0.000    0.000    0.000 
#
# Total GULP energy -72439.618370 kJ/mol
# GULP energy per Si atom -5572.278336 kJ/mol
# Density = 2.443105 g / cm^3
# Si number density = 24.486783 Si / 1000 Ang^3
#
#
#
# Elastic Constant Matrix: (Units=GPa)
#
#
# Indices 1 2 3 4 5 6 
#
# 1 113.6108 6.0042 22.7476 0.0000 -1.3423 0.0000
# 2 6.0042 56.6853 7.7170 0.0000 5.7878 0.0000
# 3 22.7476 7.7170 122.8643 0.0000 -8.6459 0.0000
# 4 0.0000 0.0000 0.0000 7.9314 0.0000 11.1123
# 5 -1.3423 5.7878 -8.6459 0.0000 38.3873 0.0000
# 6 0.0000 0.0000 0.0000 11.1123 0.0000 26.6051
#
#
#
# Elastic Compliance Matrix: (Units=1/GPa)
#
#
# Indices 1 2 3 4 5 6 
#
# 1 0.009172 -0.000754 -0.001646 0.000000 0.000064 0.000000
# 2 -0.000754 0.018198 -0.001218 0.000000 -0.003044 0.000000
# 3 -0.001646 -0.001218 0.008667 0.000000 0.002078 0.000000
# 4 0.000000 0.000000 0.000000 0.303945 0.000000 -0.126950
# 5 0.000064 -0.003044 0.002078 0.000000 0.026980 0.000000
# 6 0.000000 0.000000 0.000000 -0.126950 0.000000 0.090611
#
#
# Mechanical properties :
#
#
# Convention : Reuss Voigt Hill
#
# Bulk Modulus (GPa) = 34.72134 40.67756 37.69945
# Shear Modulus (GPa) = 10.53946 31.69754 21.11850
#
# Velocity S-wave (km/s) = 2.07689 3.60178 2.93993
# Velocity P-wave (km/s) = 4.46785 5.82626 5.19167
#
# Compressibility (1/GPa) = 0.02880073
#
# Stress axis : x y z
#
# Youngs Moduli (GPa) = 109.02494 54.95191 115.38581
#
# Poissons Ratio (x) = 0.04143 0.18997
# Poissons Ratio (y) = 0.08219 0.14050
# Poissons Ratio (z) = 0.17949 0.06691
#
# Static dielectric constant tensor:
#      x y z
#    x 2.021820 0.000000 0.068340 
#    y 0.000000 2.068300 0.000000 
#    z 0.068340 0.000000 2.092170 
# 
# From -- ./inp_files/7330.got.cif
#   From: 2010.05.17/outbox.cif.g08.bks.cpg/sg3_4_cif.got.tgz:7330.got - 2010.06.03 18:33:08.
