data_PCOD9113450
_publ_section_title
;
Structure prediction by ZEFSAII (Michael W. Deem and Ramdas Pophale) SiO2 
 PCOD9113450
Probable space group: P 2
;
_chemical_formula_sum "Si O2"
_cell_formula_units_Z 15
_cell_length_a 21.658981
_cell_length_b 6.086961
_cell_length_c 27.087447
_cell_angle_alpha 90.000000
_cell_angle_beta 11.445305
_cell_angle_gamma 90.000000
_cell_volume 708.629453
_symmetry_space_group_name_H-M "P 2"
_symmetry_group_IT_number 3
_symmetry_cell_setting 'monoclinic'
loop_
_space_group_symop_operation_xyz
x,y,z
-x,y,-z
loop_
_atom_site_type_symbol
_atom_site_label
_atom_site_fract_x
_atom_site_fract_y
_atom_site_fract_z
Si Si1 0.854777 0.713610 0.927854
Si Si2 0.256605 0.426937 0.405362
Si Si3 0.397437 0.086582 0.808570
Si Si4 0.204096 0.397403 0.154489
Si Si5 0.786544 0.327881 0.312206
Si Si6 0.793942 0.684977 0.705680
Si Si7 0.859956 0.085315 0.354561
Si Si8 0.500000 0.052046 0.000000
O O1 0.139291 0.563135 0.722076
O O2 0.550926 0.566549 0.157956
O O3 0.954813 0.863444 0.803435
O O4 0.752579 0.866683 0.053441
O O5 0.381433 0.185511 0.321147
O O6 0.099462 0.497770 0.580583
O O7 0.986624 0.481428 0.578311
O O8 0.597426 0.062673 0.602302
O O9 0.106075 0.254175 0.034228
O O10 0.094649 0.270907 0.191659
O O11 0.334844 0.207844 0.089173
O O12 0.467815 0.580479 0.944856
O O13 0.500000 0.326289 0.500000
O O14 0.737030 0.167187 0.397848
O O15 0.000000 0.772514 0.500000
O O16 0.735526 0.882455 0.789201
#
# Coordination Sequence:
#
# PCOD9113450 Si02
#       8
#     2   2   2   2   2   2   2   1
#     4  10  23  39  67  98 126 168 215 265 318 383
#     4  10  21  42  60  88 133 169 213 270 323 371
#     4   9  22  42  67  95 128 173 206 263 320 382
#     4  11  24  45  62  88 135 174 216 276 325 372
#     4  10  23  45  67  95 134 164 205 266 326 389
#     4  12  27  40  63  91 127 176 225 273 320 379
#     4  10  24  42  69  95 128 170 221 259 322 390
#     4  12  24  46  58  94 128 178 218 278 322 362
#
# _framework density 21.167622000000001
#
# number of rings (size 3 to 8) (size 9 to 14) (size 15 to 20)
#    0.000    1.600    2.667    0.000   11.200    6.400 
#    0.000    0.000    0.000    0.000    0.000    0.000 
#    0.000    0.000    0.000    0.000    0.000    0.000 
#
# Total GULP energy -83803.854717 kJ/mol
# GULP energy per Si atom -5586.923648 kJ/mol
# Density = 2.111944 g / cm^3
# Si number density = 21.167622 Si / 1000 Ang^3
#
#
#
# Elastic Constant Matrix: (Units=GPa)
#
#
# Indices 1 2 3 4 5 6 
#
# 1 103.5884 31.1468 51.5573 0.0000 7.2933 0.0000
# 2 31.1468 61.9641 34.2941 0.0000 16.9993 0.0000
# 3 51.5573 34.2941 100.9498 0.0000 19.8367 0.0000
# 4 0.0000 0.0000 0.0000 24.2987 0.0000 11.3554
# 5 7.2933 16.9993 19.8367 0.0000 49.2649 0.0000
# 6 0.0000 0.0000 0.0000 11.3554 0.0000 29.4334
#
#
#
# Elastic Compliance Matrix: (Units=1/GPa)
#
#
# Indices 1 2 3 4 5 6 
#
# 1 0.013730 -0.004083 -0.005975 0.000000 0.001782 0.000000
# 2 -0.004083 0.022051 -0.004375 0.000000 -0.005243 0.000000
# 3 -0.005975 -0.004375 0.015174 0.000000 -0.003716 0.000000
# 4 0.000000 0.000000 0.000000 0.050206 0.000000 -0.019370
# 5 0.001782 -0.005243 -0.003716 0.000000 0.023340 0.000000
# 6 0.000000 0.000000 0.000000 -0.019370 0.000000 0.041448
#
#
# Mechanical properties :
#
#
# Convention : Reuss Voigt Hill
#
# Bulk Modulus (GPa) = 45.27588 55.61098 50.44343
# Shear Modulus (GPa) = 24.73063 30.56633 27.64848
#
# Velocity S-wave (km/s) = 3.42178 3.80414 3.61802
# Velocity P-wave (km/s) = 6.08663 6.75456 6.42928
#
# Compressibility (1/GPa) = 0.02208682
#
# Stress axis : x y z
#
# Youngs Moduli (GPa) = 72.83422 45.34999 65.90220
#
# Poissons Ratio (x) = 0.18518 0.39378
# Poissons Ratio (y) = 0.29741 0.28834
# Poissons Ratio (z) = 0.43519 0.19842
#
# Static dielectric constant tensor:
#      x y z
#    x 1.764200 0.000000 0.018830 
#    y 0.000000 1.788050 0.000000 
#    z 0.018830 0.000000 1.768800 
# 
# From -- ./inp_files/16641.got.cif
#   From: 2010.05.17/outbox.cif.g08.bks.cpg/sg3_9_cif.got.tgz:16641.got - 2010.06.03 18:33:08.
