data_PCOD9113781
_publ_section_title
;
Structure prediction by ZEFSAII (Michael W. Deem and Ramdas Pophale) SiO2 
 PCOD9113781
Probable space group: P 2
;
_chemical_formula_sum "Si O2"
_cell_formula_units_Z 8
_cell_length_a 5.751272
_cell_length_b 4.827916
_cell_length_c 9.707553
_cell_angle_alpha 90.000000
_cell_angle_beta 70.656436
_cell_angle_gamma 90.000000
_cell_volume 254.330248
_symmetry_space_group_name_H-M "P 2"
_symmetry_group_IT_number 3
_symmetry_cell_setting 'monoclinic'
loop_
_space_group_symop_operation_xyz
x,y,z
-x,y,-z
loop_
_atom_site_type_symbol
_atom_site_label
_atom_site_fract_x
_atom_site_fract_y
_atom_site_fract_z
Si Si1 0.210087 0.754660 0.062364
Si Si2 0.784091 0.450607 0.443030
Si Si3 0.327354 0.327429 0.822095
Si Si4 0.659427 0.828761 0.689265
O O1 0.241304 0.444052 0.987459
O O2 0.500000 0.854398 0.000000
O O3 0.147874 0.874905 0.226316
O O4 0.000000 0.875246 0.000000
O O5 0.500000 0.339695 0.500000
O O6 0.846282 0.429253 0.269651
O O7 0.745939 0.757473 0.518820
O O8 0.000000 0.331211 0.500000
O O9 0.567779 0.522740 0.753460
O O10 0.431404 0.030895 0.757715
#
# Coordination Sequence:
#
# PCOD9113781 Si02
#       4
#     2   2   2   2
#     4  10  22  44  70 102 140 182 228 284 346 412
#     4  10  22  44  70 102 140 182 228 284 346 412
#     4  10  23  44  68 102 138 180 230 284 342 412
#     4  10  23  44  68 102 138 180 230 284 342 412
#
# _framework density 31.455164
#
# number of rings (size 3 to 8) (size 9 to 14) (size 15 to 20)
#    0.000    2.000    0.000    1.500    0.000   18.000 
#    0.000   60.000    0.000    0.000    0.000    0.000 
#    0.000    0.000    0.000    0.000    0.000    0.000 
#
# Total GULP energy -44535.894022 kJ/mol
# GULP energy per Si atom -5566.986753 kJ/mol
# Density = 3.138357 g / cm^3
# Si number density = 31.455164 Si / 1000 Ang^3
#
#
#
# Elastic Constant Matrix: (Units=GPa)
#
#
# Indices 1 2 3 4 5 6 
#
# 1 192.2285 44.7090 42.0698 0.0000 28.0071 0.0000
# 2 44.7090 95.5868 63.9642 0.0000 -3.4381 0.0000
# 3 42.0698 63.9642 300.7515 0.0000 42.8730 0.0000
# 4 0.0000 0.0000 0.0000 39.6454 0.0000 5.7365
# 5 28.0071 -3.4381 42.8730 0.0000 80.3954 0.0000
# 6 0.0000 0.0000 0.0000 5.7365 0.0000 46.6161
#
#
#
# Elastic Compliance Matrix: (Units=1/GPa)
#
#
# Indices 1 2 3 4 5 6 
#
# 1 0.006238 -0.003084 0.000121 0.000000 -0.002370 0.000000
# 2 -0.003084 0.014047 -0.003025 0.000000 0.003288 0.000000
# 3 0.000121 -0.003025 0.004303 0.000000 -0.002466 0.000000
# 4 0.000000 0.000000 0.000000 0.025681 0.000000 -0.003160
# 5 -0.002370 0.003288 -0.002466 0.000000 0.014720 0.000000
# 6 0.000000 0.000000 0.000000 -0.003160 0.000000 0.021841
#
#
# Mechanical properties :
#
#
# Convention : Reuss Voigt Hill
#
# Bulk Modulus (GPa) = 79.28802 98.89475 89.09139
# Shear Modulus (GPa) = 48.53959 62.51962 55.52960
#
# Velocity S-wave (km/s) = 3.93254 4.46306 4.20617
# Velocity P-wave (km/s) = 6.77357 7.62015 7.20930
#
# Compressibility (1/GPa) = 0.01261225
#
# Stress axis : x y z
#
# Youngs Moduli (GPa) = 160.30294 71.19164 232.39923
#
# Poissons Ratio (x) = 0.21956 -0.02815
# Poissons Ratio (y) = 0.49439 0.70296
# Poissons Ratio (z) = -0.01942 0.21534
#
# Static dielectric constant tensor:
#      x y z
#    x 2.496210 0.000000 -0.116100 
#    y 0.000000 2.502710 0.000000 
#    z -0.116100 0.000000 3.196180 
# 
# From -- ./inp_files/9658.got.cif
#   From: 2010.05.17/outbox.cif.g08.bks.cpg/sg3_5_cif.got.tgz:9658.got - 2010.06.03 18:33:08.
