data_PCOD9113275
_publ_section_title
;
Structure prediction by ZEFSAII (Michael W. Deem and Ramdas Pophale) SiO2 
 PCOD9113275
Probable space group: P 2
;
_chemical_formula_sum "Si O2"
_cell_formula_units_Z 15
_cell_length_a 9.267459
_cell_length_b 8.509714
_cell_length_c 12.127540
_cell_angle_alpha 90.000000
_cell_angle_beta 134.740223
_cell_angle_gamma 90.000000
_cell_volume 679.349923
_symmetry_space_group_name_H-M "P 2"
_symmetry_group_IT_number 3
_symmetry_cell_setting 'monoclinic'
loop_
_space_group_symop_operation_xyz
x,y,z
-x,y,-z
loop_
_atom_site_type_symbol
_atom_site_label
_atom_site_fract_x
_atom_site_fract_y
_atom_site_fract_z
Si Si1 0.702026 0.352440 0.660871
Si Si2 0.093124 0.962422 0.772518
Si Si3 0.138362 0.318602 0.813122
Si Si4 0.667512 0.989053 0.672790
Si Si5 0.332279 0.448977 0.132089
Si Si6 0.219333 0.466982 0.642680
Si Si7 0.223633 0.800886 0.059773
Si Si8 0.000000 0.771702 0.500000
O O1 0.500000 0.425115 0.500000
O O2 0.644001 0.176844 0.669044
O O3 0.777717 0.438815 0.810168
O O4 0.895528 0.345806 0.686108
O O5 0.054748 0.871550 0.637558
O O6 0.171453 0.139270 0.793842
O O7 0.222092 0.878962 0.938058
O O8 0.879085 0.972153 0.722369
O O9 0.232974 0.445877 0.781800
O O10 0.233128 0.343215 0.984722
O O11 0.500000 0.923569 0.500000
O O12 0.662323 0.907335 0.788286
O O13 0.566638 0.403682 0.282618
O O14 0.318441 0.630410 0.093395
O O15 0.000000 0.385894 0.500000
O O16 0.182314 0.644614 0.581161
O O17 0.000000 0.786126 0.000000
#
# Coordination Sequence:
#
# PCOD9113275 Si02
#       8
#     2   2   2   2   2   2   2   1
#     4  10  21  39  62  96 124 162 213 264 316 372
#     4  10  22  41  64  90 125 170 211 262 315 379
#     4  11  22  41  66  92 126 168 213 262 316 377
#     4   9  20  37  64  92 126 160 208 269 316 374
#     4  12  23  39  64  95 126 167 211 261 319 378
#     4  10  25  43  62  89 126 168 205 265 313 379
#     4  10  21  38  61  96 129 164 209 261 326 375
#     4  10  24  42  64  88 126 172 216 258 318 382
#
# _framework density 22.079931999999999
#
# number of rings (size 3 to 8) (size 9 to 14) (size 15 to 20)
#    0.400    1.333    0.000    4.000    2.800    3.733 
#    0.000    2.667    0.000    0.000    0.000    0.000 
#    0.000    0.000    0.000    0.000    0.000    0.000 
#
# Total GULP energy -83673.065394 kJ/mol
# GULP energy per Si atom -5578.204360 kJ/mol
# Density = 2.202968 g / cm^3
# Si number density = 22.079932 Si / 1000 Ang^3
#
#
#
# Elastic Constant Matrix: (Units=GPa)
#
#
# Indices 1 2 3 4 5 6 
#
# 1 44.0624 10.2681 18.2490 0.0000 -11.1586 0.0000
# 2 10.2681 61.8765 33.1660 0.0000 -9.5881 0.0000
# 3 18.2490 33.1660 118.0597 0.0000 -22.4730 0.0000
# 4 0.0000 0.0000 0.0000 35.3035 0.0000 -7.5576
# 5 -11.1586 -9.5881 -22.4730 0.0000 40.7448 0.0000
# 6 0.0000 0.0000 0.0000 -7.5576 0.0000 18.3738
#
#
#
# Elastic Compliance Matrix: (Units=1/GPa)
#
#
# Indices 1 2 3 4 5 6 
#
# 1 0.025482 -0.002170 -0.002344 0.000000 0.005175 0.000000
# 2 -0.002170 0.019318 -0.004848 0.000000 0.001277 0.000000
# 3 -0.002344 -0.004848 0.011011 0.000000 0.004291 0.000000
# 4 0.000000 0.000000 0.000000 0.031061 0.000000 0.012776
# 5 0.005175 0.001277 0.004291 0.000000 0.028627 0.000000
# 6 0.000000 0.000000 0.000000 0.012776 0.000000 0.059681
#
#
# Mechanical properties :
#
#
# Convention : Reuss Voigt Hill
#
# Bulk Modulus (GPa) = 26.96418 38.59609 32.78013
# Shear Modulus (GPa) = 24.24031 29.70544 26.97288
#
# Velocity S-wave (km/s) = 3.31697 3.67189 3.49893
# Velocity P-wave (km/s) = 5.18732 5.95778 5.58585
#
# Compressibility (1/GPa) = 0.03708623
#
# Stress axis : x y z
#
# Youngs Moduli (GPa) = 39.24294 51.76518 90.81538
#
# Poissons Ratio (x) = 0.11235 0.21288
# Poissons Ratio (y) = 0.08517 0.44030
# Poissons Ratio (z) = 0.09199 0.25097
#
# Static dielectric constant tensor:
#      x y z
#    x 1.806270 0.000000 0.019620 
#    y 0.000000 1.795030 0.000000 
#    z 0.019620 0.000000 1.864670 
# 
# From -- ./inp_files/9139.got.cif
#   From: 2010.05.17/outbox.cif.g08.bks.cpg/sg3_5_cif.got.tgz:9139.got - 2010.06.03 18:33:08.
