data_PCOD9113879
_publ_section_title
;
Structure prediction by ZEFSAII (Michael W. Deem and Ramdas Pophale) SiO2 
 PCOD9113879
Probable space group: P 2
;
_chemical_formula_sum "Si O2"
_cell_formula_units_Z 12
_cell_length_a 21.714899
_cell_length_b 5.066539
_cell_length_c 13.926820
_cell_angle_alpha 90.000000
_cell_angle_beta 18.989729
_cell_angle_gamma 90.000000
_cell_volume 498.582369
_symmetry_space_group_name_H-M "P 2"
_symmetry_group_IT_number 3
_symmetry_cell_setting 'monoclinic'
loop_
_space_group_symop_operation_xyz
x,y,z
-x,y,-z
loop_
_atom_site_type_symbol
_atom_site_label
_atom_site_fract_x
_atom_site_fract_y
_atom_site_fract_z
Si Si1 0.756810 0.517290 0.547827
Si Si2 0.214883 0.172567 0.664133
Si Si3 0.362258 0.063900 0.939519
Si Si4 0.288583 0.080192 0.830610
Si Si5 0.844252 0.571547 0.082395
Si Si6 0.339573 0.585222 0.097433
O O1 0.761472 0.242657 0.482483
O O2 0.765434 0.509126 0.649682
O O3 0.555702 0.632674 0.813209
O O4 0.938581 0.662907 0.237906
O O5 0.408013 0.025576 0.408974
O O6 0.000000 0.074657 0.000000
O O7 0.780478 0.444882 0.277722
O O8 0.270954 0.039927 0.969745
O O9 0.277418 0.849534 0.136653
O O10 0.336696 0.349541 0.025004
O O11 0.500000 0.184020 0.500000
O O12 0.266177 0.809064 0.804694
O O13 0.159113 0.312360 0.980740
#
# Coordination Sequence:
#
# PCOD9113879 Si02
#       6
#     2   2   2   2   2   2
#     4   9  22  42  66  95 128 164 210 262 319 375
#     4   9  20  40  67  98 128 160 209 272 324 373
#     4  11  23  42  64  92 126 170 215 252 316 379
#     4  12  25  41  64  91 130 170 208 258 319 376
#     4  11  24  41  65  98 127 163 212 263 316 376
#     4  10  23  42  67  92 127 169 208 260 316 376
#
# _framework density 24.068238999999998
#
# number of rings (size 3 to 8) (size 9 to 14) (size 15 to 20)
#    0.000    1.667    1.667    1.500    4.667   10.667 
#    0.000   10.000    0.000    0.000    0.000    0.000 
#    0.000    0.000    0.000    0.000    0.000    0.000 
#
# Total GULP energy -67081.748945 kJ/mol
# GULP energy per Si atom -5590.145745 kJ/mol
# Density = 2.401346 g / cm^3
# Si number density = 24.068239 Si / 1000 Ang^3
#
#
#
# Elastic Constant Matrix: (Units=GPa)
#
#
# Indices 1 2 3 4 5 6 
#
# 1 164.2510 54.6221 22.1045 0.0000 20.2833 0.0000
# 2 54.6221 108.3487 18.7114 0.0000 0.8088 0.0000
# 3 22.1045 18.7114 41.2364 0.0000 11.9935 0.0000
# 4 0.0000 0.0000 0.0000 12.1833 0.0000 6.9708
# 5 20.2833 0.8088 11.9935 0.0000 30.9904 0.0000
# 6 0.0000 0.0000 0.0000 6.9708 0.0000 27.7551
#
#
#
# Elastic Compliance Matrix: (Units=1/GPa)
#
#
# Indices 1 2 3 4 5 6 
#
# 1 0.008117 -0.003844 -0.001229 0.000000 -0.004737 0.000000
# 2 -0.003844 0.011914 -0.004492 0.000000 0.003944 0.000000
# 3 -0.001229 -0.004492 0.030064 0.000000 -0.010713 0.000000
# 4 0.000000 0.000000 0.000000 0.095854 0.000000 -0.024074
# 5 -0.004737 0.003944 -0.010713 0.000000 0.039411 0.000000
# 6 0.000000 0.000000 0.000000 -0.024074 0.000000 0.042076
#
#
# Mechanical properties :
#
#
# Convention : Reuss Voigt Hill
#
# Bulk Modulus (GPa) = 32.29660 56.07914 44.18787
# Shear Modulus (GPa) = 19.46374 28.74563 24.10468
#
# Velocity S-wave (km/s) = 2.84683 3.45967 3.16810
# Velocity P-wave (km/s) = 4.92482 6.26975 5.63753
#
# Compressibility (1/GPa) = 0.03096301
#
# Stress axis : x y z
#
# Youngs Moduli (GPa) = 123.19736 83.93518 33.26286
#
# Poissons Ratio (x) = 0.32269 0.04088
# Poissons Ratio (y) = 0.47363 0.14943
# Poissons Ratio (z) = 0.15141 0.37706
#
# Static dielectric constant tensor:
#      x y z
#    x 1.941840 0.000000 -0.013730 
#    y 0.000000 1.891130 0.000000 
#    z -0.013730 0.000000 1.926940 
# 
# From -- ./inp_files/13677.got.cif
#   From: 2010.05.17/outbox.cif.g08.bks.cpg/sg3_7_cif.got.tgz:13677.got - 2010.06.03 18:33:08.
