data_PCOD9113106
_publ_section_title
;
Structure prediction by ZEFSAII (Michael W. Deem and Ramdas Pophale) SiO2 
 PCOD9113106
Probable space group: P 2
;
_chemical_formula_sum "Si O2"
_cell_formula_units_Z 13
_cell_length_a 11.066092
_cell_length_b 4.921024
_cell_length_c 14.866692
_cell_angle_alpha 90.000000
_cell_angle_beta 137.684439
_cell_angle_gamma 90.000000
_cell_volume 545.025514
_symmetry_space_group_name_H-M "P 2"
_symmetry_group_IT_number 3
_symmetry_cell_setting 'monoclinic'
loop_
_space_group_symop_operation_xyz
x,y,z
-x,y,-z
loop_
_atom_site_type_symbol
_atom_site_label
_atom_site_fract_x
_atom_site_fract_y
_atom_site_fract_z
Si Si1 0.069020 0.166860 0.935343
Si Si2 0.608278 0.353657 0.472753
Si Si3 0.895652 0.633385 0.166001
Si Si4 0.451906 0.250709 0.207828
Si Si5 0.500000 0.710928 0.000000
Si Si6 0.643255 0.756599 0.264082
Si Si7 0.834675 0.846058 0.545368
O O1 0.997446 0.382703 0.821591
O O2 0.084856 0.880289 0.893894
O O3 0.264381 0.289641 0.060105
O O4 0.000000 0.140868 0.000000
O O5 0.500000 0.271511 0.500000
O O6 0.460375 0.351814 0.313265
O O7 0.692235 0.651560 0.517570
O O8 0.768473 0.149570 0.531142
O O9 0.981120 0.745851 0.307083
O O10 0.684567 0.569609 0.068386
O O11 0.602094 0.435766 0.241432
O O12 0.494929 0.932635 0.235705
O O13 0.410772 0.863552 0.865223
O O14 0.809592 0.802850 0.423634
#
# Coordination Sequence:
#
# PCOD9113106 Si02
#       7
#     2   2   2   2   1   2   2
#     4  12  25  44  66  99 139 173 225 272 337 401
#     4  10  21  38  65  91 127 176 213 267 325 396
#     4  12  27  43  70 100 132 184 220 279 337 387
#     4  10  20  40  61  94 126 166 217 262 324 388
#     4  12  24  46  72  96 134 176 230 276 332 402
#     4  10  22  41  66  91 126 167 211 272 323 386
#     4  10  23  42  59  96 134 160 225 269 328 396
#
# _framework density 23.852096
#
# number of rings (size 3 to 8) (size 9 to 14) (size 15 to 20)
#    0.000    1.231    3.077    1.846    4.308    3.077 
#    0.000    0.000    0.000    7.385    0.000    0.000 
#    0.000    0.000    0.000    0.000    0.000    0.000 
#
# Total GULP energy -72376.656340 kJ/mol
# GULP energy per Si atom -5567.435103 kJ/mol
# Density = 2.379781 g / cm^3
# Si number density = 23.852096 Si / 1000 Ang^3
#
#
#
# Elastic Constant Matrix: (Units=GPa)
#
#
# Indices 1 2 3 4 5 6 
#
# 1 82.4069 15.6197 46.9373 0.0000 -15.2999 0.0000
# 2 15.6197 77.4598 -0.7986 0.0000 -13.6370 0.0000
# 3 46.9373 -0.7986 166.1228 0.0000 -26.3486 0.0000
# 4 0.0000 0.0000 0.0000 30.4063 0.0000 -6.1605
# 5 -15.2999 -13.6370 -26.3486 0.0000 25.2019 0.0000
# 6 0.0000 0.0000 0.0000 -6.1605 0.0000 3.3810
#
#
#
# Elastic Compliance Matrix: (Units=1/GPa)
#
#
# Indices 1 2 3 4 5 6 
#
# 1 0.015495 -0.002423 -0.003723 0.000000 0.004204 0.000000
# 2 -0.002423 0.014989 0.002170 0.000000 0.008908 0.000000
# 3 -0.003723 0.002170 0.008283 0.000000 0.007574 0.000000
# 4 0.000000 0.000000 0.000000 0.052134 0.000000 0.094993
# 5 0.004204 0.008908 0.007574 0.000000 0.054970 0.000000
# 6 0.000000 0.000000 0.000000 0.094993 0.000000 0.468859
#
#
# Mechanical properties :
#
#
# Convention : Reuss Voigt Hill
#
# Bulk Modulus (GPa) = 32.45195 49.94515 41.19855
# Shear Modulus (GPa) = 7.89946 29.41325 18.65636
#
# Velocity S-wave (km/s) = 1.82182 3.51544 2.79976
# Velocity P-wave (km/s) = 4.24975 6.12068 5.26892
#
# Compressibility (1/GPa) = 0.03081478
#
# Stress axis : x y z
#
# Youngs Moduli (GPa) = 64.53632 66.71493 120.72499
#
# Poissons Ratio (x) = 0.16165 0.44946
# Poissons Ratio (y) = 0.15637 -0.26192
# Poissons Ratio (z) = 0.24027 -0.14474
#
# Static dielectric constant tensor:
#      x y z
#    x 1.975130 0.000000 -0.061420 
#    y 0.000000 1.870540 0.000000 
#    z -0.061420 0.000000 2.038050 
# 
# From -- ./inp_files/10218.got.cif
#   From: 2010.05.17/outbox.cif.g08.bks.cpg/sg3_6_cif.got.tgz:10218.got - 2010.06.03 18:33:08.
