data_PCOD9113061
_publ_section_title
;
Structure prediction by ZEFSAII (Michael W. Deem and Ramdas Pophale) SiO2 
 PCOD9113061
Probable space group: P 2
;
_chemical_formula_sum "Si O2"
_cell_formula_units_Z 14
_cell_length_a 9.016325
_cell_length_b 5.133007
_cell_length_c 31.306695
_cell_angle_alpha 90.000000
_cell_angle_beta 29.091939
_cell_angle_gamma 90.000000
_cell_volume 704.473573
_symmetry_space_group_name_H-M "P 2"
_symmetry_group_IT_number 3
_symmetry_cell_setting 'monoclinic'
loop_
_space_group_symop_operation_xyz
x,y,z
-x,y,-z
loop_
_atom_site_type_symbol
_atom_site_label
_atom_site_fract_x
_atom_site_fract_y
_atom_site_fract_z
Si Si1 0.731905 0.763990 0.101490
Si Si2 0.050518 0.753682 0.258710
Si Si3 0.392214 0.485900 0.320305
Si Si4 0.388584 0.245154 0.814589
Si Si5 0.293998 0.275391 0.514205
Si Si6 0.907074 0.901795 0.657867
Si Si7 0.303500 0.263483 0.672032
O O1 0.403865 0.823468 0.162633
O O2 0.681672 0.487995 0.137485
O O3 0.780251 0.992774 0.124278
O O4 0.000000 0.755747 0.000000
O O5 0.973006 0.466276 0.262707
O O6 0.005275 0.746024 0.321792
O O7 0.831319 0.970508 0.292447
O O8 0.636519 0.346112 0.227404
O O9 0.500948 0.391027 0.339022
O O10 0.034171 0.407015 0.409161
O O11 0.345743 0.770085 0.309587
O O12 0.742556 0.150414 0.722067
O O13 0.500000 0.391950 0.500000
O O14 0.485816 0.267044 0.423070
O O15 0.186516 0.993690 0.559077
#
# Coordination Sequence:
#
# PCOD9113061 Si02
#       7
#     2   2   2   2   2   2   2
#     4  11  22  40  72 105 126 156 219 283 329 395
#     4  11  23  43  64  96 129 171 218 275 337 391
#     4  11  24  42  64  92 138 183 222 265 334 396
#     4  10  20  38  66  95 129 168 213 262 329 391
#     4  11  23  39  63  94 127 179 233 282 314 370
#     4  10  21  40  68  89 129 179 230 264 327 384
#     4  12  27  41  63  95 141 176 224 272 329 394
#
# _framework density 19.872997000000002
#
# number of rings (size 3 to 8) (size 9 to 14) (size 15 to 20)
#    0.000    1.143    4.286    3.429    6.000    0.571 
#    0.000    0.000    0.000    5.143    0.000    0.000 
#    0.000    0.000    0.000    0.000    0.000    0.000 
#
# Total GULP energy -77955.165553 kJ/mol
# GULP energy per Si atom -5568.226111 kJ/mol
# Density = 1.982777 g / cm^3
# Si number density = 19.872997 Si / 1000 Ang^3
#
#
#
# Elastic Constant Matrix: (Units=GPa)
#
#
# Indices 1 2 3 4 5 6 
#
# 1 100.3834 20.0995 41.2207 0.0000 5.8239 0.0000
# 2 20.0995 107.5618 31.9579 0.0000 6.4044 0.0000
# 3 41.2207 31.9579 130.9722 -0.0002 10.5839 0.0000
# 4 0.0000 0.0000 -0.0002 28.4554 0.0000 2.2260
# 5 5.8239 6.4044 10.5839 0.0000 15.3649 0.0000
# 6 0.0000 0.0000 0.0000 2.2260 0.0000 20.4633
#
#
#
# Elastic Compliance Matrix: (Units=1/GPa)
#
#
# Indices 1 2 3 4 5 6 
#
# 1 0.011616 -0.001104 -0.003249 0.000000 -0.001705 0.000000
# 2 -0.001104 0.010231 -0.001947 0.000000 -0.002505 0.000000
# 3 -0.003249 -0.001947 0.009496 0.000000 -0.004499 0.000000
# 4 0.000000 0.000000 0.000000 0.035444 0.000000 -0.003856
# 5 -0.001705 -0.002505 -0.004499 0.000000 0.069873 0.000000
# 6 0.000000 0.000000 0.000000 -0.003856 0.000000 0.049287
#
#
# Mechanical properties :
#
#
# Convention : Reuss Voigt Hill
#
# Bulk Modulus (GPa) = 53.34874 58.38597 55.86735
# Shear Modulus (GPa) = 24.41486 29.23266 26.82376
#
# Velocity S-wave (km/s) = 3.50886 3.83949 3.67789
# Velocity P-wave (km/s) = 6.58174 7.00706 6.79773
#
# Compressibility (1/GPa) = 0.01874459
#
# Stress axis : x y z
#
# Youngs Moduli (GPa) = 86.08989 97.74464 105.30579
#
# Poissons Ratio (x) = 0.10789 0.34211
# Poissons Ratio (y) = 0.09503 0.20498
# Poissons Ratio (z) = 0.27968 0.19026
#
# Static dielectric constant tensor:
#      x y z
#    x 1.775820 0.000000 0.008480 
#    y 0.000000 1.847300 0.000000 
#    z 0.008480 0.000000 1.666050 
# 
# From -- ./inp_files/16602.got.cif
#   From: 2010.05.17/outbox.cif.g08.bks.cpg/sg3_9_cif.got.tgz:16602.got - 2010.06.03 18:33:08.
