data_PCOD9113941
_publ_section_title
;
Structure prediction by ZEFSAII (Michael W. Deem and Ramdas Pophale) SiO2 
 PCOD9113941
Probable space group: P 2
;
_chemical_formula_sum "Si O2"
_cell_formula_units_Z 12
_cell_length_a 20.816455
_cell_length_b 5.412580
_cell_length_c 9.256936
_cell_angle_alpha 90.000000
_cell_angle_beta 151.632917
_cell_angle_gamma 90.000000
_cell_volume 495.542085
_symmetry_space_group_name_H-M "P 2"
_symmetry_group_IT_number 3
_symmetry_cell_setting 'monoclinic'
loop_
_space_group_symop_operation_xyz
x,y,z
-x,y,-z
loop_
_atom_site_type_symbol
_atom_site_label
_atom_site_fract_x
_atom_site_fract_y
_atom_site_fract_z
Si Si1 0.373459 0.876240 0.164292
Si Si2 0.144141 0.176566 0.793206
Si Si3 0.797678 0.497511 0.355939
Si Si4 0.849192 0.980572 0.764103
Si Si5 0.894454 0.495475 0.009173
Si Si6 0.383647 0.126089 0.887180
O O1 0.500000 0.764944 0.500000
O O2 0.268308 0.689917 0.883354
O O3 0.281447 0.031572 0.094098
O O4 0.425963 0.036015 0.130545
O O5 0.168439 0.262346 0.678286
O O6 0.122295 0.406925 0.857969
O O7 0.000000 0.035542 0.500000
O O8 0.680686 0.399452 0.228283
O O9 0.946335 0.545006 0.711184
O O10 0.740899 0.964806 0.421488
O O11 0.827299 0.751664 0.829131
O O12 0.000000 0.974896 0.000000
O O13 0.841258 0.251113 0.821931
O O14 0.500000 0.114580 0.000000
#
# Coordination Sequence:
#
# PCOD9113941 Si02
#       6
#     2   2   2   2   2   2
#     4  11  26  47  74 101 150 202 252 304 379 444
#     4   9  23  43  70 108 141 191 244 318 370 441
#     4  10  23  46  71 105 147 195 247 319 365 447
#     4  12  25  46  74 112 151 197 247 308 381 446
#     4  11  25  43  80 113 147 190 254 312 377 446
#     4  11  27  48  69 105 153 194 252 311 374 450
#
# _framework density 24.215907000000001
#
# number of rings (size 3 to 8) (size 9 to 14) (size 15 to 20)
#    0.000    1.333    1.667    1.500   11.667    4.000 
#    0.000    0.000    0.000    0.000    0.000    0.000 
#    0.000    0.000    0.000    0.000    0.000    0.000 
#
# Total GULP energy -67047.633178 kJ/mol
# GULP energy per Si atom -5587.302765 kJ/mol
# Density = 2.416079 g / cm^3
# Si number density = 24.215907 Si / 1000 Ang^3
#
#
#
# Elastic Constant Matrix: (Units=GPa)
#
#
# Indices 1 2 3 4 5 6 
#
# 1 118.2798 23.9752 26.4752 0.0000 8.3904 0.0000
# 2 23.9752 96.4552 38.1085 0.0000 -2.9560 0.0000
# 3 26.4752 38.1085 118.1720 0.0000 -12.3008 0.0000
# 4 0.0000 0.0000 0.0000 24.4468 0.0000 -11.4577
# 5 8.3904 -2.9560 -12.3008 0.0000 31.5553 0.0000
# 6 0.0000 0.0000 0.0000 -11.4577 0.0000 30.6235
#
#
#
# Elastic Compliance Matrix: (Units=1/GPa)
#
#
# Indices 1 2 3 4 5 6 
#
# 1 0.009474 -0.001697 -0.001933 0.000000 -0.003432 0.000000
# 2 -0.001697 0.012190 -0.003528 0.000000 0.000218 0.000000
# 3 -0.001933 -0.003528 0.010477 0.000000 0.004268 0.000000
# 4 0.000000 0.000000 0.000000 0.049603 0.000000 0.018559
# 5 -0.003432 0.000218 0.004268 0.000000 0.034287 0.000000
# 6 0.000000 0.000000 0.000000 0.018559 0.000000 0.039598
#
#
# Mechanical properties :
#
#
# Convention : Reuss Voigt Hill
#
# Bulk Modulus (GPa) = 56.09638 56.66942 56.38290
# Shear Modulus (GPa) = 28.42729 33.61500 31.02115
#
# Velocity S-wave (km/s) = 3.42995 3.72981 3.58302
# Velocity P-wave (km/s) = 6.23711 6.48083 6.36014
#
# Compressibility (1/GPa) = 0.01782646
#
# Stress axis : x y z
#
# Youngs Moduli (GPa) = 105.54693 82.03534 95.44457
#
# Poissons Ratio (x) = 0.13918 0.18447
# Poissons Ratio (y) = 0.17907 0.33675
# Poissons Ratio (z) = 0.20399 0.28944
#
# Static dielectric constant tensor:
#      x y z
#    x 1.956860 0.000000 -0.008420 
#    y 0.000000 1.994480 0.000000 
#    z -0.008420 0.000000 2.006320 
# 
# From -- ./inp_files/9217.got.cif
#   From: 2010.05.17/outbox.cif.g08.bks.cpg/sg3_5_cif.got.tgz:9217.got - 2010.06.03 18:33:08.
