data_PCOD9113672
_publ_section_title
;
Structure prediction by ZEFSAII (Michael W. Deem and Ramdas Pophale) SiO2 
 PCOD9113672
Probable space group: P 2
;
_chemical_formula_sum "Si O2"
_cell_formula_units_Z 16
_cell_length_a 18.587233
_cell_length_b 5.135871
_cell_length_c 8.676942
_cell_angle_alpha 90.000000
_cell_angle_beta 116.942821
_cell_angle_gamma 90.000000
_cell_volume 738.409013
_symmetry_space_group_name_H-M "P 2"
_symmetry_group_IT_number 3
_symmetry_cell_setting 'monoclinic'
loop_
_space_group_symop_operation_xyz
x,y,z
-x,y,-z
loop_
_atom_site_type_symbol
_atom_site_label
_atom_site_fract_x
_atom_site_fract_y
_atom_site_fract_z
Si Si1 0.660674 0.504150 0.858975
Si Si2 0.294105 0.978864 0.529554
Si Si3 0.147083 0.364666 0.434354
Si Si4 0.980226 0.411811 0.164963
Si Si5 0.591799 0.029218 0.633394
Si Si6 0.212683 0.631529 0.231306
Si Si7 0.750137 0.707637 0.228396
Si Si8 0.873579 0.922715 0.103787
O O1 0.628740 0.778243 0.758040
O O2 0.743393 0.444863 0.845191
O O3 0.601161 0.273235 0.757544
O O4 0.690528 0.545268 0.061066
O O5 0.361009 0.099479 0.481806
O O6 0.277855 0.713688 0.420779
O O7 0.304839 0.889948 0.715176
O O8 0.209217 0.133420 0.455256
O O9 0.143750 0.527775 0.272262
O O10 0.190928 0.526029 0.611324
O O11 0.052062 0.320421 0.351974
O O12 0.944083 0.699948 0.165686
O O13 0.909839 0.206521 0.133281
O O14 0.000000 0.382839 0.000000
O O15 0.500000 0.976136 0.500000
O O16 0.179056 0.866779 0.099572
O O17 0.811734 0.873599 0.183525
#
# Coordination Sequence:
#
# PCOD9113672 Si02
#       8
#     2   2   2   2   2   2   2   2
#     4  10  22  42  70 101 133 175 224 273 329 406
#     4  10  22  41  68  94 131 175 226 267 332 409
#     4  11  22  40  63  89 129 178 224 276 338 406
#     4  12  25  40  65  91 129 170 230 292 341 382
#     4  11  23  44  76 106 137 170 222 277 334 405
#     4   9  19  38  64  92 118 174 227 277 315 396
#     4  10  26  42  67  95 137 182 227 278 344 408
#     4  11  25  42  62  92 127 171 228 286 342 389
#
# _framework density 21.668209000000001
#
# number of rings (size 3 to 8) (size 9 to 14) (size 15 to 20)
#    0.000    1.500    2.500    1.500    7.000    2.500 
#    0.000    0.625    0.000    0.000    0.000    0.000 
#    0.000    0.000    0.000    0.000    0.000    0.000 
#
# Total GULP energy -89193.609754 kJ/mol
# GULP energy per Si atom -5574.600610 kJ/mol
# Density = 2.161889 g / cm^3
# Si number density = 21.668209 Si / 1000 Ang^3
#
#
#
# Elastic Constant Matrix: (Units=GPa)
#
#
# Indices 1 2 3 4 5 6 
#
# 1 52.1314 8.3282 43.5149 0.0000 0.0449 0.0000
# 2 8.3282 68.9226 30.1656 0.0000 -0.4735 0.0000
# 3 43.5149 30.1656 135.2673 0.0000 -1.2405 0.0000
# 4 0.0000 0.0000 0.0000 10.5924 0.0000 9.4821
# 5 0.0449 -0.4735 -1.2405 0.0000 37.5863 0.0000
# 6 0.0000 0.0000 0.0000 9.4821 0.0000 21.7527
#
#
#
# Elastic Compliance Matrix: (Units=1/GPa)
#
#
# Indices 1 2 3 4 5 6 
#
# 1 0.026249 0.000580 -0.008576 0.000000 -0.000307 0.000000
# 2 0.000580 0.016091 -0.003774 0.000000 0.000077 0.000000
# 3 -0.008576 -0.003774 0.010996 0.000000 0.000326 0.000000
# 4 0.000000 0.000000 0.000000 0.154819 0.000000 -0.067486
# 5 -0.000307 0.000077 0.000326 0.000000 0.026618 0.000000
# 6 0.000000 0.000000 0.000000 -0.067486 0.000000 0.075389
#
#
# Mechanical properties :
#
#
# Convention : Reuss Voigt Hill
#
# Bulk Modulus (GPa) = 33.56274 46.70427 40.13351
# Shear Modulus (GPa) = 14.55033 25.60712 20.07873
#
# Velocity S-wave (km/s) = 2.59415 3.44144 3.04739
# Velocity P-wave (km/s) = 4.94933 6.11493 5.56274
#
# Compressibility (1/GPa) = 0.02979495
#
# Stress axis : x y z
#
# Youngs Moduli (GPa) = 38.09731 62.14490 90.93918
#
# Poissons Ratio (x) = -0.03603 0.77991
# Poissons Ratio (y) = -0.02209 0.34323
# Poissons Ratio (z) = 0.32673 0.23455
#
# Static dielectric constant tensor:
#      x y z
#    x 1.869110 0.000000 -0.027040 
#    y 0.000000 1.846120 0.000000 
#    z -0.027040 0.000000 1.802240 
# 
# From -- ./inp_files/8923.got.cif
#   From: 2010.05.17/outbox.cif.g08.bks.cpg/sg3_5_cif.got.tgz:8923.got - 2010.06.03 18:33:08.
