data_PCOD9113518
_publ_section_title
;
Structure prediction by ZEFSAII (Michael W. Deem and Ramdas Pophale) SiO2 
 PCOD9113518
Probable space group: P 2
;
_chemical_formula_sum "Si O2"
_cell_formula_units_Z 14
_cell_length_a 21.844592
_cell_length_b 5.268736
_cell_length_c 7.478079
_cell_angle_alpha 90.000000
_cell_angle_beta 36.887972
_cell_angle_gamma 90.000000
_cell_volume 516.623650
_symmetry_space_group_name_H-M "P 2"
_symmetry_group_IT_number 3
_symmetry_cell_setting 'monoclinic'
loop_
_space_group_symop_operation_xyz
x,y,z
-x,y,-z
loop_
_atom_site_type_symbol
_atom_site_label
_atom_site_fract_x
_atom_site_fract_y
_atom_site_fract_z
Si Si1 0.617011 0.000000 0.757459
Si Si2 0.244231 0.411409 0.288424
Si Si3 0.052048 0.729880 0.717834
Si Si4 0.283741 0.469631 0.578416
Si Si5 0.916164 0.354261 0.848759
Si Si6 0.385030 0.819549 0.841780
Si Si7 0.819005 0.993867 0.852646
O O1 0.674599 0.743382 0.565676
O O2 0.633741 0.247550 0.586170
O O3 0.500000 0.935857 0.000000
O O4 0.627173 0.999631 0.953999
O O5 0.166289 0.646667 0.494275
O O6 0.241363 0.321912 0.499277
O O7 0.197802 0.235817 0.244276
O O8 0.351941 0.537186 0.983654
O O9 0.977280 0.490169 0.863995
O O10 0.080237 0.868407 0.469687
O O11 0.000000 0.884412 0.000000
O O12 0.187772 0.516523 0.930193
O O13 0.000000 0.365349 0.500000
O O14 0.141615 0.085729 0.045362
O O15 0.500000 0.831128 0.500000
O O16 0.294622 0.878704 0.909477
#
# Coordination Sequence:
#
# PCOD9113518 Si02
#       7
#     2   2   2   2   2   2   2
#     4  11  25  47  73 108 146 199 264 318 395 469
#     4  10  21  46  68 101 142 194 254 301 378 477
#     4  11  24  46  73 101 146 203 255 310 384 471
#     4  11  25  46  74 104 151 202 256 318 384 484
#     4  12  27  44  69 111 150 195 250 324 389 445
#     4  10  24  44  72 105 145 196 246 323 395 461
#     4  11  25  45  70 106 146 192 259 315 387 473
#
# _framework density 27.099029999999999
#
# number of rings (size 3 to 8) (size 9 to 14) (size 15 to 20)
#    0.000    1.143    4.286    0.429    2.000    6.286 
#    0.000    0.000    0.000    0.000    0.000    0.000 
#    0.000    0.000    0.000    0.000    0.000    0.000 
#
# Total GULP energy -78004.364264 kJ/mol
# GULP energy per Si atom -5571.740305 kJ/mol
# Density = 2.703735 g / cm^3
# Si number density = 27.099030 Si / 1000 Ang^3
#
#
#
# Elastic Constant Matrix: (Units=GPa)
#
#
# Indices 1 2 3 4 5 6 
#
# 1 101.0606 -5.3898 30.2215 0.0000 -3.2448 0.0000
# 2 -5.3898 79.9015 44.4699 0.0000 6.5481 0.0000
# 3 30.2215 44.4699 195.4838 0.0000 -20.9511 0.0000
# 4 0.0000 0.0000 0.0000 29.1476 0.0000 5.9224
# 5 -3.2448 6.5481 -20.9511 0.0000 36.1033 0.0000
# 6 0.0000 0.0000 0.0000 5.9224 0.0000 26.5782
#
#
#
# Elastic Compliance Matrix: (Units=1/GPa)
#
#
# Indices 1 2 3 4 5 6 
#
# 1 0.010626 0.001974 -0.002162 0.000000 -0.000658 0.000000
# 2 0.001974 0.015517 -0.004391 0.000000 -0.005185 0.000000
# 3 -0.002162 -0.004391 0.006945 0.000000 0.004632 0.000000
# 4 0.000000 0.000000 0.000000 0.035935 0.000000 -0.008007
# 5 -0.000658 -0.005185 0.004632 0.000000 0.031268 0.000000
# 6 0.000000 0.000000 0.000000 -0.008007 0.000000 0.039409
#
#
# Mechanical properties :
#
#
# Convention : Reuss Voigt Hill
#
# Bulk Modulus (GPa) = 41.78828 57.22770 49.50799
# Shear Modulus (GPa) = 31.88063 38.84212 35.36138
#
# Velocity S-wave (km/s) = 3.43366 3.79005 3.61625
# Velocity P-wave (km/s) = 5.58338 6.34953 5.97874
#
# Compressibility (1/GPa) = 0.02393016
#
# Stress axis : x y z
#
# Youngs Moduli (GPa) = 94.11006 64.44428 143.98530
#
# Poissons Ratio (x) = -0.12722 0.31135
# Poissons Ratio (y) = -0.18579 0.63222
# Poissons Ratio (z) = 0.20350 0.28297
#
# Static dielectric constant tensor:
#      x y z
#    x 2.479230 0.000000 -0.019740 
#    y 0.000000 2.541250 0.000000 
#    z -0.019740 0.000000 2.162420 
# 
# From -- ./inp_files/9600.got.cif
#   From: 2010.05.17/outbox.cif.g08.bks.cpg/sg3_5_cif.got.tgz:9600.got - 2010.06.03 18:33:08.
