data_PCOD9113184
_publ_section_title
;
Structure prediction by ZEFSAII (Michael W. Deem and Ramdas Pophale) SiO2 
 PCOD9113184
Probable space group: P 2
;
_chemical_formula_sum "Si O2"
_cell_formula_units_Z 14
_cell_length_a 13.978897
_cell_length_b 6.459265
_cell_length_c 7.920448
_cell_angle_alpha 90.000000
_cell_angle_beta 119.988139
_cell_angle_gamma 90.000000
_cell_volume 619.424359
_symmetry_space_group_name_H-M "P 2"
_symmetry_group_IT_number 3
_symmetry_cell_setting 'monoclinic'
loop_
_space_group_symop_operation_xyz
x,y,z
-x,y,-z
loop_
_atom_site_type_symbol
_atom_site_label
_atom_site_fract_x
_atom_site_fract_y
_atom_site_fract_z
Si Si1 0.666614 0.109790 0.575430
Si Si2 0.500000 0.410040 0.500000
Si Si3 0.773839 0.408857 0.410925
Si Si4 0.313039 0.738350 0.894446
Si Si5 0.147812 0.775700 0.263549
Si Si6 0.000000 0.397176 0.500000
Si Si7 0.526560 0.776260 0.279051
Si Si8 0.087077 0.733664 0.840049
O O1 0.605853 0.271288 0.645608
O O2 0.701228 0.247833 0.446332
O O3 0.771596 0.966675 0.705829
O O4 0.572455 0.953114 0.436483
O O5 0.539317 0.558635 0.384822
O O6 0.717814 0.504665 0.193806
O O7 0.803104 0.609494 0.558124
O O8 0.889406 0.295300 0.470315
O O9 0.392013 0.801184 0.808930
O O10 0.192558 0.829974 0.834913
O O11 0.397096 0.778175 0.121032
O O12 0.028381 0.852125 0.227733
O O13 0.127886 0.670073 0.063242
O O14 0.953983 0.543817 0.310083
#
# Coordination Sequence:
#
# PCOD9113184 Si02
#       8
#     2   1   2   2   2   1   2   2
#     4  12  24  41  70 100 129 177 231 280 327 397
#     4  12  26  44  68  94 132 186 222 286 328 394
#     4  10  20  43  65  97 134 174 222 280 333 397
#     4  10  21  43  67  93 135 178 215 275 338 391
#     4  10  21  42  66 100 133 173 231 272 332 403
#     4   8  18  40  68  98 130 174 216 270 354 390
#     4  11  25  45  65  97 136 177 228 274 336 401
#     4   9  20  38  73  92 129 185 214 270 346 393
#
# _framework density 22.60163
#
# number of rings (size 3 to 8) (size 9 to 14) (size 15 to 20)
#    0.000    1.714    2.857    0.429    6.000    0.000 
#    7.714    5.714    0.000    0.000    0.000    0.000 
#    0.000    0.000    0.000    0.000    0.000    0.000 
#
# Total GULP energy -77956.580546 kJ/mol
# GULP energy per Si atom -5568.327182 kJ/mol
# Density = 2.255019 g / cm^3
# Si number density = 22.601630 Si / 1000 Ang^3
#
#
#
# Elastic Constant Matrix: (Units=GPa)
#
#
# Indices 1 2 3 4 5 6 
#
# 1 190.3395 47.0379 29.4583 0.0000 21.2312 0.0000
# 2 47.0379 61.2550 18.5611 0.0000 12.1724 0.0000
# 3 29.4583 18.5611 75.6828 0.0000 18.1112 0.0000
# 4 0.0000 0.0000 0.0000 -7.2485 0.0000 -32.8218
# 5 21.2312 12.1724 18.1112 0.0000 31.8110 0.0000
# 6 0.0000 0.0000 0.0000 -32.8218 0.0000 -102.6205
#
#
#
# Elastic Compliance Matrix: (Units=1/GPa)
#
#
# Indices 1 2 3 4 5 6 
#
# 1 0.006756 -0.004438 -0.001006 0.000000 -0.002238 0.000000
# 2 -0.004438 0.021255 -0.002602 0.000000 -0.003689 0.000000
# 3 -0.001006 -0.002602 0.016027 0.000000 -0.007458 0.000000
# 4 0.000000 0.000000 0.000000 0.307777 0.000000 -0.098438
# 5 -0.002238 -0.003689 -0.007458 0.000000 0.038587 0.000000
# 6 0.000000 0.000000 0.000000 -0.098438 0.000000 0.021740
#
#
# Mechanical properties :
#
#
# Convention : Reuss Voigt Hill
#
# Bulk Modulus (GPa) = 35.78341 57.48800 46.63570
# Shear Modulus (GPa) = 11.42727 -0.13027 5.64850
#
# Velocity S-wave (km/s) = 2.25098 -0.24034 1.58259
# Velocity P-wave (km/s) = 4.75631 5.04118 4.90082
#
# Compressibility (1/GPa) = 0.02794591
#
# Stress axis : x y z
#
# Youngs Moduli (GPa) = 148.01890 47.04736 62.39320
#
# Poissons Ratio (x) = 0.20882 0.06274
# Poissons Ratio (y) = 0.65697 0.16237
# Poissons Ratio (z) = 0.14883 0.12243
#
# Static dielectric constant tensor:
#      x y z
#    x 2.310210 0.000000 0.197440 
#    y 0.000000 1.806590 0.000000 
#    z 0.197440 0.000000 1.988400 
# 
# From -- ./inp_files/8112.got.cif
#   From: 2010.05.17/outbox.cif.g08.bks.cpg/sg3_5_cif.got.tgz:8112.got - 2010.06.03 18:33:08.
