data_PCOD9113080
_publ_section_title
;
Structure prediction by ZEFSAII (Michael W. Deem and Ramdas Pophale) SiO2 
 PCOD9113080
Probable space group: P 2
;
_chemical_formula_sum "Si O2"
_cell_formula_units_Z 16
_cell_length_a 9.553845
_cell_length_b 18.376823
_cell_length_c 8.485060
_cell_angle_alpha 90.000000
_cell_angle_beta 32.513684
_cell_angle_gamma 90.000000
_cell_volume 800.723979
_symmetry_space_group_name_H-M "P 2"
_symmetry_group_IT_number 3
_symmetry_cell_setting 'monoclinic'
loop_
_space_group_symop_operation_xyz
x,y,z
-x,y,-z
loop_
_atom_site_type_symbol
_atom_site_label
_atom_site_fract_x
_atom_site_fract_y
_atom_site_fract_z
Si Si1 0.955327 0.785170 0.720372
Si Si2 0.726435 0.511067 0.165805
Si Si3 0.005835 0.278969 0.684462
Si Si4 0.778485 0.620516 0.827215
Si Si5 0.500609 0.027110 0.689107
Si Si6 0.007784 0.112783 0.302712
Si Si7 0.468543 0.860433 0.343787
Si Si8 0.489744 0.372184 0.819023
O O1 0.884579 0.699976 0.776653
O O2 0.000000 0.810841 0.500000
O O3 0.219127 0.809674 0.553008
O O4 0.714845 0.823807 0.029573
O O5 0.500000 0.535670 0.500000
O O6 0.605722 0.441009 0.190351
O O7 0.762715 0.570882 0.995692
O O8 0.000000 0.498322 0.000000
O O9 0.240501 0.335504 0.493963
O O10 0.000000 0.274581 0.500000
O O11 0.018339 0.196260 0.731057
O O12 0.732935 0.312432 0.993307
O O13 0.000000 0.589335 0.500000
O O14 0.500000 0.625931 0.000000
O O15 0.500000 0.026286 0.500000
O O16 0.753031 0.070877 0.495564
O O17 0.538034 0.943711 0.709545
O O18 0.253672 0.068896 0.998747
O O19 0.000000 0.114292 0.500000
O O20 0.500000 0.865015 0.500000
O O21 0.500000 0.388499 0.000000
#
# Coordination Sequence:
#
# PCOD9113080 Si02
#       8
#     2   2   2   2   2   2   2   2
#     4  11  23  41  65  94 122 154 206 264 306 356
#     4  12  26  42  63  97 132 161 204 265 312 361
#     4   9  19  36  61  90 117 154 207 257 303 365
#     4  11  24  45  68  92 125 168 209 251 310 382
#     4  11  24  41  59  87 127 167 204 247 309 379
#     4  11  22  39  64  92 120 156 210 265 306 357
#     4  11  24  41  62  88 125 168 205 246 308 381
#     4  10  20  39  64  86 118 166 207 245 306 377
#
# _framework density 19.981916999999999
#
# number of rings (size 3 to 8) (size 9 to 14) (size 15 to 20)
#    0.000    1.250    0.000    6.375    0.000   10.000 
#    0.000    6.250    0.000    0.000    0.000    0.000 
#    0.000    0.000    0.000    0.000    0.000    0.000 
#
# Total GULP energy -89368.333879 kJ/mol
# GULP energy per Si atom -5585.520867 kJ/mol
# Density = 1.993644 g / cm^3
# Si number density = 19.981917 Si / 1000 Ang^3
#
#
#
# Elastic Constant Matrix: (Units=GPa)
#
#
# Indices 1 2 3 4 5 6 
#
# 1 103.4331 71.9439 55.1580 0.0000 -21.6539 0.0000
# 2 71.9439 127.3055 53.5936 0.0000 -7.8959 0.0000
# 3 55.1580 53.5936 155.4801 0.0000 -13.1193 0.0000
# 4 0.0000 0.0000 0.0000 23.5556 0.0000 11.4693
# 5 -21.6539 -7.8959 -13.1193 0.0000 47.0231 0.0000
# 6 0.0000 0.0000 0.0000 11.4693 0.0000 75.5827
#
#
#
# Elastic Compliance Matrix: (Units=1/GPa)
#
#
# Indices 1 2 3 4 5 6 
#
# 1 0.018878 -0.008985 -0.003066 0.000000 0.006329 0.000000
# 2 -0.008985 0.013486 -0.001658 0.000000 -0.002336 0.000000
# 3 -0.003066 -0.001658 0.008140 0.000000 0.000581 0.000000
# 4 0.000000 0.000000 0.000000 0.045840 0.000000 -0.006956
# 5 0.006329 -0.002336 0.000581 0.000000 0.023950 0.000000
# 6 0.000000 0.000000 0.000000 -0.006956 0.000000 0.014286
#
#
# Mechanical properties :
#
#
# Convention : Reuss Voigt Hill
#
# Bulk Modulus (GPa) = 76.42090 83.06775 79.74433
# Shear Modulus (GPa) = 31.97754 42.93382 37.45568
#
# Velocity S-wave (km/s) = 4.00475 4.64036 4.33422
# Velocity P-wave (km/s) = 7.72736 8.38882 8.06487
#
# Compressibility (1/GPa) = 0.01308543
#
# Stress axis : x y z
#
# Youngs Moduli (GPa) = 52.97274 74.15092 122.85168
#
# Poissons Ratio (x) = 0.66625 0.37665
# Poissons Ratio (y) = 0.47596 0.20371
# Poissons Ratio (z) = 0.16241 0.12295
#
# Static dielectric constant tensor:
#      x y z
#    x 1.720420 0.000000 -0.009540 
#    y 0.000000 1.697930 0.000000 
#    z -0.009540 0.000000 1.664090 
# 
# From -- ./inp_files/6219.got.cif
#   From: 2010.05.17/outbox.cif.g08.bks.cpg/sg3_4_cif.got.tgz:6219.got - 2010.06.03 18:33:08.
