data_PCOD9113397
_publ_section_title
;
Structure prediction by ZEFSAII (Michael W. Deem and Ramdas Pophale) SiO2 
 PCOD9113397
Probable space group: P 2
;
_chemical_formula_sum "Si O2"
_cell_formula_units_Z 14
_cell_length_a 7.971237
_cell_length_b 9.896822
_cell_length_c 7.839913
_cell_angle_alpha 90.000000
_cell_angle_beta 81.791972
_cell_angle_gamma 90.000000
_cell_volume 612.154394
_symmetry_space_group_name_H-M "P 2"
_symmetry_group_IT_number 3
_symmetry_cell_setting 'monoclinic'
loop_
_space_group_symop_operation_xyz
x,y,z
-x,y,-z
loop_
_atom_site_type_symbol
_atom_site_label
_atom_site_fract_x
_atom_site_fract_y
_atom_site_fract_z
Si Si1 0.739441 0.458760 0.812832
Si Si2 0.000000 0.311819 0.000000
Si Si3 0.000000 0.574814 0.500000
Si Si4 0.735464 0.745423 0.926842
Si Si5 0.526341 0.231917 0.682898
Si Si6 0.118936 0.786525 0.738345
Si Si7 0.828086 0.085937 0.197033
Si Si8 0.334503 0.029797 0.124889
O O1 0.843889 0.400472 0.958896
O O2 0.669286 0.604257 0.871889
O O3 0.591409 0.355288 0.787131
O O4 0.880759 0.485781 0.642783
O O5 0.052045 0.216166 0.833462
O O6 0.124329 0.678969 0.584540
O O7 0.930297 0.758620 0.836977
O O8 0.643592 0.871652 0.852542
O O9 0.748114 0.756396 0.129612
O O10 0.500000 0.289500 0.500000
O O11 0.352473 0.148098 0.727462
O O12 0.670889 0.118680 0.705511
O O13 0.130387 0.948986 0.706867
O O14 0.809268 0.041825 0.998548
O O15 0.500000 0.082663 0.000000
#
# Coordination Sequence:
#
# PCOD9113397 Si02
#       8
#     2   1   1   2   2   2   2   2
#     4  11  24  40  63  96 131 177 209 269 324 398
#     4  12  22  40  70  98 120 170 228 274 316 380
#     4  10  22  40  60  98 138 168 224 262 338 394
#     4   9  18  38  63  90 119 159 225 271 316 369
#     4  11  25  42  57  91 139 175 204 260 339 399
#     4   9  18  36  65  94 122 162 214 285 312 373
#     4  10  21  40  67  96 122 166 220 274 321 373
#     4   9  18  39  61  86 118 159 221 264 304 378
#
# _framework density 22.870048000000001
#
# number of rings (size 3 to 8) (size 9 to 14) (size 15 to 20)
#    0.000    2.000    1.429    3.429    2.000    2.286 
#    2.571    3.571    0.000    0.000    0.000    0.000 
#    0.000    0.000    0.000    0.000    0.000    0.000 
#
# Total GULP energy -78019.479991 kJ/mol
# GULP energy per Si atom -5572.819999 kJ/mol
# Density = 2.281799 g / cm^3
# Si number density = 22.870048 Si / 1000 Ang^3
#
#
#
# Elastic Constant Matrix: (Units=GPa)
#
#
# Indices 1 2 3 4 5 6 
#
# 1 53.7424 24.4260 10.2307 0.0000 10.0533 0.0000
# 2 24.4260 160.1224 21.9048 0.0000 17.2791 0.0000
# 3 10.2307 21.9048 35.6459 0.0000 12.7013 0.0000
# 4 0.0000 0.0000 0.0000 20.6030 0.0000 2.4263
# 5 10.0533 17.2791 12.7013 0.0000 27.2010 0.0000
# 6 0.0000 0.0000 0.0000 2.4263 0.0000 18.3679
#
#
#
# Elastic Compliance Matrix: (Units=1/GPa)
#
#
# Indices 1 2 3 4 5 6 
#
# 1 0.021133 -0.002290 -0.002871 0.000000 -0.005015 0.000000
# 2 -0.002290 0.007256 -0.002952 0.000000 -0.002384 0.000000
# 3 -0.002871 -0.002952 0.035562 0.000000 -0.013669 0.000000
# 4 0.000000 0.000000 0.000000 0.049304 0.000000 -0.006513
# 5 -0.005015 -0.002384 -0.013669 0.000000 0.046514 0.000000
# 6 0.000000 0.000000 0.000000 -0.006513 0.000000 0.055303
#
#
# Mechanical properties :
#
#
# Convention : Reuss Voigt Hill
#
# Bulk Modulus (GPa) = 20.95335 40.29263 30.62299
# Shear Modulus (GPa) = 20.22607 26.09766 23.16186
#
# Velocity S-wave (km/s) = 2.97710 3.38172 3.18584
# Velocity P-wave (km/s) = 4.58250 5.73624 5.19152
#
# Compressibility (1/GPa) = 0.04772507
#
# Stress axis : x y z
#
# Youngs Moduli (GPa) = 47.31994 137.82397 28.11963
#
# Poissons Ratio (x) = 0.31558 0.08074
# Poissons Ratio (y) = 0.10835 0.08301
# Poissons Ratio (z) = 0.13587 0.40684
#
# Static dielectric constant tensor:
#      x y z
#    x 1.991820 0.000000 -0.018700 
#    y 0.000000 1.872960 0.000000 
#    z -0.018700 0.000000 1.968960 
# 
# From -- ./inp_files/5282.got.cif
#   From: 2010.05.17/outbox.cif.g08.bks.cpg/sg3_3_cif.got.tgz:5282.got - 2010.06.03 18:33:08.
