data_PCOD9113684
_publ_section_title
;
Structure prediction by ZEFSAII (Michael W. Deem and Ramdas Pophale) SiO2 
 PCOD9113684
Probable space group: P 2
;
_chemical_formula_sum "Si O2"
_cell_formula_units_Z 12
_cell_length_a 8.597729
_cell_length_b 4.986955
_cell_length_c 16.193741
_cell_angle_alpha 90.000000
_cell_angle_beta 41.018318
_cell_angle_gamma 90.000000
_cell_volume 455.689458
_symmetry_space_group_name_H-M "P 2"
_symmetry_group_IT_number 3
_symmetry_cell_setting 'monoclinic'
loop_
_space_group_symop_operation_xyz
x,y,z
-x,y,-z
loop_
_atom_site_type_symbol
_atom_site_label
_atom_site_fract_x
_atom_site_fract_y
_atom_site_fract_z
Si Si1 0.000000 0.828780 0.500000
Si Si2 0.722759 0.625590 0.851205
Si Si3 0.545098 0.633881 0.612487
Si Si4 0.673456 0.127347 0.761761
Si Si5 0.500000 0.110428 0.500000
Si Si6 0.215346 0.919650 0.857836
Si Si7 0.150656 0.285590 0.728489
O O1 0.185191 0.636743 0.472297
O O2 0.160664 0.014985 0.377293
O O3 0.702676 0.430468 0.780120
O O4 0.965065 0.525965 0.797830
O O5 0.710655 0.930582 0.825734
O O6 0.500000 0.574527 0.000000
O O7 0.496966 0.889556 0.577552
O O8 0.366036 0.672897 0.760508
O O9 0.435439 0.381857 0.608444
O O10 0.406511 0.082908 0.834892
O O11 0.193532 0.153516 0.623281
O O12 0.118161 0.105396 0.821694
O O13 0.000000 0.827916 0.000000
#
# Coordination Sequence:
#
# PCOD9113684 Si02
#       7
#     1   2   2   2   1   2   2
#     4  10  24  46  68 102 144 180 242 290 366 422
#     4  12  28  47  74 106 149 189 245 293 364 426
#     4  10  23  41  67  97 133 178 229 289 350 416
#     4  11  27  47  74 107 144 195 232 309 356 428
#     4  10  22  42  64 100 132 176 232 290 348 428
#     4  10  24  44  69  97 141 182 240 286 354 424
#     4  11  25  41  72  99 137 188 234 290 356 425
#
# _framework density 26.333721000000001
#
# number of rings (size 3 to 8) (size 9 to 14) (size 15 to 20)
#    0.000    1.333    0.000    3.000   16.333    1.333 
#    0.000    0.000    0.000    0.000    0.000    0.000 
#    0.000    0.000    0.000    0.000    0.000    0.000 
#
# Total GULP energy -67131.185705 kJ/mol
# GULP energy per Si atom -5594.265475 kJ/mol
# Density = 2.627378 g / cm^3
# Si number density = 26.333721 Si / 1000 Ang^3
#
#
#
# Elastic Constant Matrix: (Units=GPa)
#
#
# Indices 1 2 3 4 5 6 
#
# 1 90.8847 12.2981 27.0752 0.0000 -19.7851 0.0000
# 2 12.2981 103.7897 14.3368 0.0000 -2.8436 0.0000
# 3 27.0752 14.3368 188.9395 0.0000 -20.4068 0.0000
# 4 0.0000 0.0000 0.0000 27.0112 0.0000 -5.1244
# 5 -19.7851 -2.8436 -20.4068 0.0000 32.6512 0.0000
# 6 0.0000 0.0000 0.0000 -5.1244 0.0000 49.8724
#
#
#
# Elastic Compliance Matrix: (Units=1/GPa)
#
#
# Indices 1 2 3 4 5 6 
#
# 1 0.013024 -0.001209 -0.001001 0.000000 0.007161 0.000000
# 2 -0.001209 0.009854 -0.000602 0.000000 -0.000250 0.000000
# 3 -0.001001 -0.000602 0.005802 0.000000 0.002967 0.000000
# 4 0.000000 0.000000 0.000000 0.037758 0.000000 0.003880
# 5 0.007161 -0.000250 0.002967 0.000000 0.036799 0.000000
# 6 0.000000 0.000000 0.000000 0.003880 0.000000 0.020450
#
#
# Mechanical properties :
#
#
# Convention : Reuss Voigt Hill
#
# Bulk Modulus (GPa) = 43.37001 54.55934 48.96468
# Shear Modulus (GPa) = 36.49767 43.90054 40.19911
#
# Velocity S-wave (km/s) = 3.72690 4.08742 3.91132
# Velocity P-wave (km/s) = 5.91818 6.56045 6.24757
#
# Compressibility (1/GPa) = 0.02305741
#
# Stress axis : x y z
#
# Youngs Moduli (GPa) = 76.78360 101.47823 172.34509
#
# Poissons Ratio (x) = 0.12266 0.17255
# Poissons Ratio (y) = 0.09281 0.10368
# Poissons Ratio (z) = 0.07687 0.06105
#
# Static dielectric constant tensor:
#      x y z
#    x 1.893180 0.000000 -0.226120 
#    y 0.000000 2.101260 0.000000 
#    z -0.226120 0.000000 2.103580 
# 
# From -- ./inp_files/6508.got.cif
#   From: 2010.05.17/outbox.cif.g08.bks.cpg/sg3_4_cif.got.tgz:6508.got - 2010.06.03 18:33:08.
