data_PCOD9113498
_publ_section_title
;
Structure prediction by ZEFSAII (Michael W. Deem and Ramdas Pophale) SiO2 
 PCOD9113498
Probable space group: P 2
;
_chemical_formula_sum "Si O2"
_cell_formula_units_Z 16
_cell_length_a 8.781875
_cell_length_b 5.273961
_cell_length_c 14.839866
_cell_angle_alpha 90.000000
_cell_angle_beta 70.395494
_cell_angle_gamma 90.000000
_cell_volume 647.469583
_symmetry_space_group_name_H-M "P 2"
_symmetry_group_IT_number 3
_symmetry_cell_setting 'monoclinic'
loop_
_space_group_symop_operation_xyz
x,y,z
-x,y,-z
loop_
_atom_site_type_symbol
_atom_site_label
_atom_site_fract_x
_atom_site_fract_y
_atom_site_fract_z
Si Si1 0.238945 0.020420 0.017289
Si Si2 0.906614 0.100685 0.126924
Si Si3 0.323743 0.105098 0.542932
Si Si4 0.260204 0.751424 0.702996
Si Si5 0.963432 0.372201 0.290680
Si Si6 0.837953 0.312204 0.582571
Si Si7 0.445183 0.977783 0.150590
Si Si8 0.550004 0.489752 0.733645
O O1 0.324771 0.070975 0.095134
O O2 0.060867 0.916213 0.076801
O O3 0.173592 0.206242 0.949110
O O4 0.386952 0.897898 0.932977
O O5 0.775613 0.951482 0.211450
O O6 0.977228 0.299196 0.184010
O O7 0.500000 0.225044 0.500000
O O8 0.197023 0.259740 0.629427
O O9 0.231779 0.086822 0.465698
O O10 0.349499 0.857983 0.598140
O O11 0.083527 0.666539 0.702187
O O12 0.374277 0.548686 0.728246
O O13 0.104593 0.274220 0.326285
O O14 0.681577 0.484325 0.627499
O O15 0.000000 0.409849 0.500000
O O16 0.397235 0.721871 0.212082
O O17 0.458538 0.218517 0.214550
#
# Coordination Sequence:
#
# PCOD9113498 Si02
#       8
#     2   2   2   2   2   2   2   2
#     4  10  22  43  71 103 152 190 254 308 370 451
#     4  10  21  44  66 104 143 195 243 308 374 443
#     4  10  23  43  68 102 141 188 249 304 371 447
#     4  11  24  41  73 101 147 192 253 301 382 443
#     4  10  22  44  67 101 141 191 245 312 373 449
#     4  10  24  47  70 108 146 193 251 310 376 444
#     4  11  26  47  73 110 149 197 251 308 379 438
#     4  12  26  48  77 107 154 198 248 310 376 451
#
# _framework density 24.711586
#
# number of rings (size 3 to 8) (size 9 to 14) (size 15 to 20)
#    0.000    1.500    1.250    2.250    5.250    4.500 
#    4.500    3.750    0.000    0.000    0.000    0.000 
#    0.000    0.000    0.000    0.000    0.000    0.000 
#
# Total GULP energy -89081.823098 kJ/mol
# GULP energy per Si atom -5567.613944 kJ/mol
# Density = 2.465534 g / cm^3
# Si number density = 24.711586 Si / 1000 Ang^3
#
#
#
# Elastic Constant Matrix: (Units=GPa)
#
#
# Indices 1 2 3 4 5 6 
#
# 1 126.5540 10.3059 55.3640 0.0000 18.7257 0.0000
# 2 10.3059 66.9229 39.0794 0.0000 5.1098 0.0000
# 3 55.3640 39.0794 121.9646 0.0000 17.0055 0.0000
# 4 0.0000 0.0000 0.0000 9.2406 0.0000 -2.9683
# 5 18.7257 5.1098 17.0055 0.0000 69.2460 0.0000
# 6 0.0000 0.0000 0.0000 -2.9683 0.0000 10.4640
#
#
#
# Elastic Compliance Matrix: (Units=1/GPa)
#
#
# Indices 1 2 3 4 5 6 
#
# 1 0.010141 0.001375 -0.004812 0.000000 -0.001662 0.000000
# 2 0.001375 0.018569 -0.006556 0.000000 -0.000132 0.000000
# 3 -0.004812 -0.006556 0.012669 0.000000 -0.001326 0.000000
# 4 0.000000 0.000000 0.000000 0.119068 0.000000 0.033776
# 5 -0.001662 -0.000132 -0.001326 0.000000 0.015226 0.000000
# 6 0.000000 0.000000 0.000000 0.033776 0.000000 0.105147
#
#
# Mechanical properties :
#
#
# Convention : Reuss Voigt Hill
#
# Bulk Modulus (GPa) = 46.74264 58.32667 52.53466
# Shear Modulus (GPa) = 16.23712 31.83627 24.03669
#
# Velocity S-wave (km/s) = 2.56611 3.59320 3.12218
# Velocity P-wave (km/s) = 5.26652 6.39289 5.85684
#
# Compressibility (1/GPa) = 0.02139374
#
# Stress axis : x y z
#
# Youngs Moduli (GPa) = 98.61036 53.85302 78.93270
#
# Poissons Ratio (x) = -0.07407 0.37985
# Poissons Ratio (y) = -0.13562 0.51746
# Poissons Ratio (z) = 0.47454 0.35304
#
# Static dielectric constant tensor:
#      x y z
#    x 2.015170 0.000000 -0.034500 
#    y 0.000000 2.044630 0.000000 
#    z -0.034500 0.000000 2.036990 
# 
# From -- ./inp_files/13357.got.cif
#   From: 2010.05.17/outbox.cif.g08.bks.cpg/sg3_7_cif.got.tgz:13357.got - 2010.06.03 18:33:08.
