data_PCOD9113091
_publ_section_title
;
Structure prediction by ZEFSAII (Michael W. Deem and Ramdas Pophale) SiO2 
 PCOD9113091
Probable space group: P 2
;
_chemical_formula_sum "Si O2"
_cell_formula_units_Z 14
_cell_length_a 10.844433
_cell_length_b 8.775428
_cell_length_c 10.458052
_cell_angle_alpha 90.000000
_cell_angle_beta 44.167587
_cell_angle_gamma 90.000000
_cell_volume 693.439867
_symmetry_space_group_name_H-M "P 2"
_symmetry_group_IT_number 3
_symmetry_cell_setting 'monoclinic'
loop_
_space_group_symop_operation_xyz
x,y,z
-x,y,-z
loop_
_atom_site_type_symbol
_atom_site_label
_atom_site_fract_x
_atom_site_fract_y
_atom_site_fract_z
Si Si1 0.040139 0.838870 0.828099
Si Si2 0.849343 0.055019 0.776755
Si Si3 0.446188 0.143097 0.838388
Si Si4 0.299087 0.117025 0.687463
Si Si5 0.131744 0.626315 0.521197
Si Si6 0.815901 0.272702 0.473210
Si Si7 0.614760 0.843311 0.789748
O O1 0.081754 0.713067 0.689631
O O2 0.193755 0.961785 0.743014
O O3 0.896386 0.946174 0.862692
O O4 0.000000 0.776342 0.000000
O O5 0.018350 0.160183 0.622976
O O6 0.782462 0.942205 0.715779
O O7 0.676493 0.153678 0.945060
O O8 0.313933 0.176624 0.820041
O O9 0.631906 0.230821 0.682805
O O10 0.504880 0.965223 0.789655
O O11 0.500000 0.087683 0.500000
O O12 0.223434 0.241083 0.646506
O O13 0.138408 0.446374 0.535730
O O14 0.316932 0.700078 0.338456
O O15 0.000000 0.655393 0.500000
O O16 0.500000 0.802805 0.000000
#
# Coordination Sequence:
#
# PCOD9113091 Si02
#       7
#     2   2   2   2   2   2   2
#     4  11  21  40  69  97 127 170 220 270 324 379
#     4  10  20  41  68  97 120 169 224 280 310 378
#     4  10  20  39  67  93 122 160 223 274 312 373
#     4   9  18  38  64  91 122 161 221 269 314 371
#     4  12  25  43  62  94 141 174 209 262 337 399
#     4  10  24  38  61  92 133 173 205 263 334 388
#     4  10  22  41  69  96 125 165 226 274 321 379
#
# _framework density 20.189204
#
# number of rings (size 3 to 8) (size 9 to 14) (size 15 to 20)
#    0.000    1.714    2.857    2.571    2.000    0.000 
#    5.143    6.429    0.000    0.000    0.000    0.000 
#    0.000    0.000    0.000    0.000    0.000    0.000 
#
# Total GULP energy -78090.774586 kJ/mol
# GULP energy per Si atom -5577.912470 kJ/mol
# Density = 2.014325 g / cm^3
# Si number density = 20.189204 Si / 1000 Ang^3
#
#
#
# Elastic Constant Matrix: (Units=GPa)
#
#
# Indices 1 2 3 4 5 6 
#
# 1 105.2312 37.7414 37.2702 0.0000 7.2467 0.0000
# 2 37.7414 96.6883 66.3994 0.0000 5.4132 0.0000
# 3 37.2702 66.3994 92.8993 0.0000 8.7646 0.0000
# 4 0.0000 0.0000 0.0000 8.7188 0.0000 -5.2679
# 5 7.2467 5.4132 8.7646 0.0000 41.7172 0.0000
# 6 0.0000 0.0000 0.0000 -5.2679 0.0000 10.5169
#
#
#
# Elastic Compliance Matrix: (Units=1/GPa)
#
#
# Indices 1 2 3 4 5 6 
#
# 1 0.011442 -0.002599 -0.002629 0.000000 -0.001098 0.000000
# 2 -0.002599 0.020911 -0.013967 0.000000 0.000672 0.000000
# 3 -0.002629 -0.013967 0.022024 0.000000 -0.002358 0.000000
# 4 0.000000 0.000000 0.000000 0.164472 0.000000 0.082384
# 5 -0.001098 0.000672 -0.002358 0.000000 0.024570 0.000000
# 6 0.000000 0.000000 0.000000 0.082384 0.000000 0.136351
#
#
# Mechanical properties :
#
#
# Convention : Reuss Voigt Hill
#
# Bulk Modulus (GPa) = 62.55030 64.18231 63.36631
# Shear Modulus (GPa) = 11.80668 22.41775 17.11222
#
# Velocity S-wave (km/s) = 2.42089 3.33586 2.91450
# Velocity P-wave (km/s) = 6.23407 6.83350 6.54065
#
# Compressibility (1/GPa) = 0.01598713
#
# Stress axis : x y z
#
# Youngs Moduli (GPa) = 87.39842 47.82205 45.40498
#
# Poissons Ratio (x) = 0.12431 0.11936
# Poissons Ratio (y) = 0.22719 0.63415
# Poissons Ratio (z) = 0.22976 0.66791
#
# Static dielectric constant tensor:
#      x y z
#    x 1.794320 0.000000 0.034380 
#    y 0.000000 1.666150 0.000000 
#    z 0.034380 0.000000 1.792860 
# 
# From -- ./inp_files/11670.got.cif
#   From: 2010.05.17/outbox.cif.g08.bks.cpg/sg3_6_cif.got.tgz:11670.got - 2010.06.03 18:33:08.
