data_PCOD9113693
_publ_section_title
;
Structure prediction by ZEFSAII (Michael W. Deem and Ramdas Pophale) SiO2 
 PCOD9113693
Probable space group: P 2
;
_chemical_formula_sum "Si O2"
_cell_formula_units_Z 16
_cell_length_a 9.227299
_cell_length_b 6.715820
_cell_length_c 20.858723
_cell_angle_alpha 90.000000
_cell_angle_beta 140.002661
_cell_angle_gamma 90.000000
_cell_volume 830.815931
_symmetry_space_group_name_H-M "P 2"
_symmetry_group_IT_number 3
_symmetry_cell_setting 'monoclinic'
loop_
_space_group_symop_operation_xyz
x,y,z
-x,y,-z
loop_
_atom_site_type_symbol
_atom_site_label
_atom_site_fract_x
_atom_site_fract_y
_atom_site_fract_z
Si Si1 0.248633 0.907350 0.066743
Si Si2 0.846115 0.455271 0.767186
Si Si3 0.335559 0.170481 0.745088
Si Si4 0.410034 0.781512 0.398792
Si Si5 0.749043 0.762605 0.076448
Si Si6 0.018163 0.065809 0.752647
Si Si7 0.456981 0.563053 0.221010
Si Si8 0.737159 0.886830 0.396222
O O1 0.306586 0.703285 0.124609
O O2 0.443619 0.058338 0.153260
O O3 0.245112 0.863299 0.990716
O O4 0.000000 0.980774 0.000000
O O5 0.682617 0.577739 0.663920
O O6 0.703867 0.442558 0.784551
O O7 0.059221 0.597074 0.852899
O O8 0.935365 0.252764 0.766649
O O9 0.131195 0.126913 0.724083
O O10 0.391281 0.402978 0.763457
O O11 0.288882 0.081169 0.658213
O O12 0.500000 0.745265 0.500000
O O13 0.593552 0.881482 0.413290
O O14 0.198564 0.928772 0.331488
O O15 0.803851 0.931336 0.147600
O O16 0.500000 0.675899 0.000000
O O17 0.622153 0.710313 0.315932
O O18 0.000000 0.854509 0.500000
#
# Coordination Sequence:
#
# PCOD9113693 Si02
#       8
#     2   2   2   2   2   2   2   2
#     4  11  23  41  61  87 120 164 204 246 300 350
#     4  10  23  40  61  88 122 158 198 249 297 354
#     4  11  24  39  61  91 123 157 201 248 295 356
#     4  10  22  42  66  89 119 157 196 244 303 358
#     4  11  23  41  59  87 124 160 204 248 298 352
#     4  11  24  39  61  91 123 159 198 247 299 354
#     4  10  23  40  61  90 119 157 203 246 297 353
#     4  10  22  42  66  89 120 155 196 248 299 356
#
# _framework density 19.258175999999999
#
# number of rings (size 3 to 8) (size 9 to 14) (size 15 to 20)
#    0.000    1.500    2.500    1.500    5.250    5.000 
#    0.000    2.500    0.000    0.000    0.000    0.000 
#    0.000    0.000    0.000    0.000    0.000    0.000 
#
# Total GULP energy -89388.090411 kJ/mol
# GULP energy per Si atom -5586.755651 kJ/mol
# Density = 1.921434 g / cm^3
# Si number density = 19.258176 Si / 1000 Ang^3
#
#
#
# Elastic Constant Matrix: (Units=GPa)
#
#
# Indices 1 2 3 4 5 6 
#
# 1 76.0724 -8.1027 22.5168 0.0000 11.4029 0.0000
# 2 -8.1027 41.1506 -4.7750 0.0000 3.8352 0.0000
# 3 22.5168 -4.7750 91.7176 0.0000 1.6906 0.0000
# 4 0.0000 0.0000 0.0000 4.5139 0.0000 2.6746
# 5 11.4029 3.8352 1.6906 0.0000 33.3954 0.0000
# 6 0.0000 0.0000 0.0000 2.6746 0.0000 30.5742
#
#
#
# Elastic Compliance Matrix: (Units=1/GPa)
#
#
# Indices 1 2 3 4 5 6 
#
# 1 0.015325 0.003116 -0.003500 0.000000 -0.005413 0.000000
# 2 0.003116 0.025361 0.000629 0.000000 -0.004008 0.000000
# 3 -0.003500 0.000629 0.011785 0.000000 0.000526 0.000000
# 4 0.000000 0.000000 0.000000 0.233647 0.000000 -0.020440
# 5 -0.005413 -0.004008 0.000526 0.000000 0.032226 0.000000
# 6 0.000000 0.000000 0.000000 -0.020440 0.000000 0.034495
#
#
# Mechanical properties :
#
#
# Convention : Reuss Voigt Hill
#
# Bulk Modulus (GPa) = 18.88181 25.35763 22.11972
# Shear Modulus (GPa) = 13.51338 26.98348 20.24843
#
# Velocity S-wave (km/s) = 2.65183 3.74725 3.24608
# Velocity P-wave (km/s) = 4.38202 5.64963 5.05571
#
# Compressibility (1/GPa) = 0.05296103
#
# Stress axis : x y z
#
# Youngs Moduli (GPa) = 65.25410 39.43044 84.85073
#
# Poissons Ratio (x) = -0.12286 0.29700
# Poissons Ratio (y) = -0.20332 -0.05340
# Poissons Ratio (z) = 0.22840 -0.02481
#
# Static dielectric constant tensor:
#      x y z
#    x 1.718210 0.000000 0.008850 
#    y 0.000000 1.646960 0.000000 
#    z 0.008850 0.000000 1.646610 
# 
# From -- ./inp_files/8882.got.cif
#   From: 2010.05.17/outbox.cif.g08.bks.cpg/sg3_5_cif.got.tgz:8882.got - 2010.06.03 18:33:08.
