data_PCOD9113135
_publ_section_title
;
Structure prediction by ZEFSAII (Michael W. Deem and Ramdas Pophale) SiO2 
 PCOD9113135
Probable space group: P 2
;
_chemical_formula_sum "Si O2"
_cell_formula_units_Z 14
_cell_length_a 9.594652
_cell_length_b 8.012909
_cell_length_c 9.229513
_cell_angle_alpha 90.000000
_cell_angle_beta 74.261937
_cell_angle_gamma 90.000000
_cell_volume 682.974158
_symmetry_space_group_name_H-M "P 2"
_symmetry_group_IT_number 3
_symmetry_cell_setting 'monoclinic'
loop_
_space_group_symop_operation_xyz
x,y,z
-x,y,-z
loop_
_atom_site_type_symbol
_atom_site_label
_atom_site_fract_x
_atom_site_fract_y
_atom_site_fract_z
Si Si1 0.000000 0.920070 0.000000
Si Si2 0.735585 0.766713 0.925365
Si Si3 0.410630 0.814124 0.739511
Si Si4 0.000000 0.858611 0.500000
Si Si5 0.422268 0.095678 0.161801
Si Si6 0.712842 0.642582 0.630956
Si Si7 0.342797 0.289367 0.467675
Si Si8 0.168664 0.016015 0.691900
O O1 0.101613 0.803582 0.070146
O O2 0.894384 0.029850 0.129131
O O3 0.674381 0.941804 0.874142
O O4 0.715083 0.630429 0.806495
O O5 0.647403 0.728212 0.097246
O O6 0.457023 0.998179 0.779201
O O7 0.556092 0.727044 0.644205
O O8 0.279050 0.856982 0.670182
O O9 0.855737 0.751757 0.564394
O O10 0.965340 0.971867 0.372530
O O11 0.349584 0.209774 0.303617
O O12 0.500000 0.176426 0.000000
O O13 0.718875 0.473264 0.539865
O O14 0.500000 0.299755 0.500000
O O15 0.248489 0.170610 0.596939
#
# Coordination Sequence:
#
# PCOD9113135 Si02
#       8
#     1   2   2   1   2   2   2   2
#     4  10  20  40  72 100 132 170 242 286 336 398
#     4   9  18  39  68 100 122 176 230 287 328 397
#     4   9  19  39  73  93 126 169 244 281 316 401
#     4  12  26  40  68  96 132 180 234 276 344 400
#     4   9  18  37  64  96 127 169 228 280 330 393
#     4  11  24  41  61  98 140 179 219 279 351 401
#     4  12  26  41  65 103 145 178 227 282 350 408
#     4  11  23  42  70 101 130 180 236 286 336 405
#
# _framework density 20.498577999999998
#
# number of rings (size 3 to 8) (size 9 to 14) (size 15 to 20)
#    0.000    1.714    2.857    3.000    2.000    1.714 
#    0.000    0.000    0.000    1.714    0.000    0.000 
#    0.000    0.000    0.000    0.000    0.000    0.000 
#
# Total GULP energy -78084.572237 kJ/mol
# GULP energy per Si atom -5577.469445 kJ/mol
# Density = 2.045192 g / cm^3
# Si number density = 20.498578 Si / 1000 Ang^3
#
#
#
# Elastic Constant Matrix: (Units=GPa)
#
#
# Indices 1 2 3 4 5 6 
#
# 1 119.1462 27.3830 39.4377 0.0000 10.6953 0.0000
# 2 27.3830 56.3701 38.8144 0.0000 -1.5731 0.0000
# 3 39.4377 38.8144 96.1730 0.0000 -3.7779 0.0000
# 4 0.0000 0.0000 0.0000 18.6879 0.0000 6.5828
# 5 10.6953 -1.5731 -3.7779 0.0000 43.9845 0.0000
# 6 0.0000 0.0000 0.0000 6.5828 0.0000 18.9949
#
#
#
# Elastic Compliance Matrix: (Units=1/GPa)
#
#
# Indices 1 2 3 4 5 6 
#
# 1 0.010382 -0.002928 -0.003190 0.000000 -0.002903 0.000000
# 2 -0.002928 0.025393 -0.009014 0.000000 0.000846 0.000000
# 3 -0.003190 -0.009014 0.015414 0.000000 0.001777 0.000000
# 4 0.000000 0.000000 0.000000 0.060951 0.000000 -0.021123
# 5 -0.002903 0.000846 0.001777 0.000000 0.023624 0.000000
# 6 0.000000 0.000000 0.000000 -0.021123 0.000000 0.059966
#
#
# Mechanical properties :
#
#
# Convention : Reuss Voigt Hill
#
# Bulk Modulus (GPa) = 47.79053 53.66215 50.72634
# Shear Modulus (GPa) = 21.46202 27.40374 24.43288
#
# Velocity S-wave (km/s) = 3.23925 3.66028 3.45618
# Velocity P-wave (km/s) = 6.11187 6.64069 6.38176
#
# Compressibility (1/GPa) = 0.02092465
#
# Stress axis : x y z
#
# Youngs Moduli (GPa) = 96.31617 39.38113 64.87654
#
# Poissons Ratio (x) = 0.11531 0.20694
# Poissons Ratio (y) = 0.28203 0.58482
# Poissons Ratio (z) = 0.30723 0.35499
#
# Static dielectric constant tensor:
#      x y z
#    x 1.761870 0.000000 -0.003210 
#    y 0.000000 1.709150 0.000000 
#    z -0.003210 0.000000 1.807320 
# 
# From -- ./inp_files/5303.got.cif
#   From: 2010.05.17/outbox.cif.g08.bks.cpg/sg3_3_cif.got.tgz:5303.got - 2010.06.03 18:33:08.
