data_PCOD9113776
_publ_section_title
;
Structure prediction by ZEFSAII (Michael W. Deem and Ramdas Pophale) SiO2 
 PCOD9113776
Probable space group: P 2
;
_chemical_formula_sum "Si O2"
_cell_formula_units_Z 14
_cell_length_a 8.441426
_cell_length_b 6.248338
_cell_length_c 16.004043
_cell_angle_alpha 90.000000
_cell_angle_beta 50.631193
_cell_angle_gamma 90.000000
_cell_volume 652.580254
_symmetry_space_group_name_H-M "P 2"
_symmetry_group_IT_number 3
_symmetry_cell_setting 'monoclinic'
loop_
_space_group_symop_operation_xyz
x,y,z
-x,y,-z
loop_
_atom_site_type_symbol
_atom_site_label
_atom_site_fract_x
_atom_site_fract_y
_atom_site_fract_z
Si Si1 0.935244 0.476860 0.340203
Si Si2 0.500000 0.279715 0.500000
Si Si3 0.553318 0.335590 0.158351
Si Si4 0.274786 0.720053 0.304903
Si Si5 0.000000 0.497212 0.000000
Si Si6 0.033919 0.794826 0.827987
Si Si7 0.473528 0.016956 0.678513
Si Si8 0.221726 0.092287 0.186444
O O1 0.702611 0.423422 0.438098
O O2 0.948124 0.639950 0.258341
O O3 0.069974 0.577596 0.369997
O O4 0.047024 0.259788 0.272781
O O5 0.490516 0.129731 0.584222
O O6 0.453474 0.567079 0.209019
O O7 0.507169 0.196467 0.256293
O O8 0.432454 0.224716 0.122396
O O9 0.794485 0.358023 0.067283
O O10 0.356767 0.834027 0.360694
O O11 0.240098 0.910171 0.250711
O O12 0.003437 0.648659 0.079717
O O13 0.250020 0.913987 0.763583
O O14 0.855261 0.967823 0.869585
#
# Coordination Sequence:
#
# PCOD9113776 Si02
#       8
#     2   1   2   2   1   2   2   2
#     4  10  22  44  68  96 136 176 226 285 337 407
#     4  12  24  40  72 106 132 182 234 274 352 402
#     4  10  22  44  68  96 136 176 226 285 337 407
#     4   9  20  44  69  92 136 177 216 289 344 396
#     4  12  24  40  72 106 132 182 234 274 352 402
#     4  11  23  43  70  97 137 179 226 284 337 408
#     4  11  23  43  70  97 137 179 226 284 337 408
#     4   9  20  44  69  92 136 177 216 289 344 396
#
# _framework density 21.453302999999998
#
# number of rings (size 3 to 8) (size 9 to 14) (size 15 to 20)
#    0.000    1.714    2.857    0.857    0.000    1.143 
#    0.000   15.714    0.000    0.000    0.000    0.000 
#    0.000    0.000    0.000    0.000    0.000    0.000 
#
# Total GULP energy -78266.637986 kJ/mol
# GULP energy per Si atom -5590.474142 kJ/mol
# Density = 2.140447 g / cm^3
# Si number density = 21.453303 Si / 1000 Ang^3
#
#
#
# Elastic Constant Matrix: (Units=GPa)
#
#
# Indices 1 2 3 4 5 6 
#
# 1 131.4114 27.7998 31.8153 0.0000 -23.6777 0.0000
# 2 27.7998 75.9689 3.3650 0.0000 -12.1923 0.0000
# 3 31.8153 3.3650 52.6514 0.0000 -6.1623 0.0000
# 4 0.0000 0.0000 0.0000 16.2950 0.0000 -18.3610
# 5 -23.6777 -12.1923 -6.1623 0.0000 36.2683 0.0000
# 6 0.0000 0.0000 0.0000 -18.3610 0.0000 81.8432
#
#
#
# Elastic Compliance Matrix: (Units=1/GPa)
#
#
# Indices 1 2 3 4 5 6 
#
# 1 0.010429 -0.002779 -0.005547 0.000000 0.004932 0.000000
# 2 -0.002779 0.014661 0.001129 0.000000 0.003306 0.000000
# 3 -0.005547 0.001129 0.022337 0.000000 0.000553 0.000000
# 4 0.000000 0.000000 0.000000 0.082130 0.000000 0.018425
# 5 0.004932 0.003306 0.000553 0.000000 0.031998 0.000000
# 6 0.000000 0.000000 0.000000 0.018425 0.000000 0.016352
#
#
# Mechanical properties :
#
#
# Convention : Reuss Voigt Hill
#
# Bulk Modulus (GPa) = 30.27241 42.88800 36.58020
# Shear Modulus (GPa) = 24.59269 40.01807 32.30538
#
# Velocity S-wave (km/s) = 3.38943 4.32366 3.88473
# Velocity P-wave (km/s) = 5.42763 6.70523 6.09997
#
# Compressibility (1/GPa) = 0.03303338
#
# Stress axis : x y z
#
# Youngs Moduli (GPa) = 95.88410 68.20888 44.76800
#
# Poissons Ratio (x) = 0.18957 0.24834
# Poissons Ratio (y) = 0.26648 -0.05056
# Poissons Ratio (z) = 0.53188 -0.07703
#
# Static dielectric constant tensor:
#      x y z
#    x 1.800700 0.000000 -0.002120 
#    y 0.000000 1.767870 0.000000 
#    z -0.002120 0.000000 1.728300 
# 
# From -- ./inp_files/6646.got.cif
#   From: 2010.05.17/outbox.cif.g08.bks.cpg/sg3_4_cif.got.tgz:6646.got - 2010.06.03 18:33:08.
