data_PCOD9113812
_publ_section_title
;
Structure prediction by ZEFSAII (Michael W. Deem and Ramdas Pophale) SiO2 
 PCOD9113812
Probable space group: P 2
;
_chemical_formula_sum "Si O2"
_cell_formula_units_Z 10
_cell_length_a 7.433303
_cell_length_b 9.758411
_cell_length_c 5.394493
_cell_angle_alpha 90.000000
_cell_angle_beta 88.544151
_cell_angle_gamma 90.000000
_cell_volume 391.175244
_symmetry_space_group_name_H-M "P 2"
_symmetry_group_IT_number 3
_symmetry_cell_setting 'monoclinic'
loop_
_space_group_symop_operation_xyz
x,y,z
-x,y,-z
loop_
_atom_site_type_symbol
_atom_site_label
_atom_site_fract_x
_atom_site_fract_y
_atom_site_fract_z
Si Si1 0.855599 0.800450 0.191140
Si Si2 0.361443 0.169930 0.308063
Si Si3 0.000000 0.044565 0.500000
Si Si4 0.792702 0.544706 0.499007
Si Si5 0.780742 0.405782 0.998577
Si Si6 0.500000 0.922718 0.000000
O O1 0.803016 0.704003 0.423683
O O2 0.672843 0.834989 0.059657
O O3 0.947434 0.940379 0.281338
O O4 0.000000 0.730631 0.000000
O O5 0.500000 0.231913 0.500000
O O6 0.308682 0.262410 0.074560
O O7 0.171231 0.137436 0.441421
O O8 0.445350 0.025862 0.221026
O O9 0.724727 0.504878 0.771288
O O10 0.000000 0.498463 0.500000
O O11 0.716941 0.467819 0.260847
O O12 0.000000 0.390902 0.000000
#
# Coordination Sequence:
#
# PCOD9113812 Si02
#       6
#     2   2   1   2   2   1
#     4  12  24  46  76 105 147 193 244 310 380 439
#     4  12  28  47  73 107 153 195 255 310 369 449
#     4  12  26  44  76 104 142 202 244 304 386 440
#     4  10  22  45  75 108 143 193 249 307 369 445
#     4  10  25  44  75 107 145 195 252 302 371 442
#     4  12  28  46  70 116 146 192 252 310 368 458
#
# _framework density 25.563991000000001
#
# number of rings (size 3 to 8) (size 9 to 14) (size 15 to 20)
#    0.000    0.800    5.000    1.800    9.800    0.000 
#    3.600    0.000    0.000    0.000    0.000    0.000 
#    0.000    0.000    0.000    0.000    0.000    0.000 
#
# Total GULP energy -56064.486517 kJ/mol
# GULP energy per Si atom -5606.448652 kJ/mol
# Density = 2.550581 g / cm^3
# Si number density = 25.563991 Si / 1000 Ang^3
#
#
#
# Elastic Constant Matrix: (Units=GPa)
#
#
# Indices 1 2 3 4 5 6 
#
# 1 149.3456 35.1177 47.3565 0.0000 20.1301 0.0000
# 2 35.1177 89.6629 48.6039 0.0000 11.9649 0.0000
# 3 47.3565 48.6039 164.3321 0.0000 24.9730 0.0000
# 4 0.0000 0.0000 0.0000 52.5202 0.0000 24.0456
# 5 20.1301 11.9649 24.9730 0.0000 31.4073 0.0000
# 6 0.0000 0.0000 0.0000 24.0456 0.0000 -46.7800
#
#
#
# Elastic Compliance Matrix: (Units=1/GPa)
#
#
# Indices 1 2 3 4 5 6 
#
# 1 0.008012 -0.002039 -0.001187 0.000000 -0.003415 0.000000
# 2 -0.002039 0.013937 -0.003328 0.000000 -0.001356 0.000000
# 3 -0.001187 -0.003328 0.008080 0.000000 -0.004396 0.000000
# 4 0.000000 0.000000 0.000000 0.015413 0.000000 0.007923
# 5 -0.003415 -0.001356 -0.004396 0.000000 0.038040 0.000000
# 6 0.000000 0.000000 0.000000 0.007923 0.000000 -0.017304
#
#
# Mechanical properties :
#
#
# Convention : Reuss Voigt Hill
#
# Bulk Modulus (GPa) = 59.10202 73.94410 66.52306
# Shear Modulus (GPa) = 58.87522 25.58035 42.22778
#
# Velocity S-wave (km/s) = 4.80422 3.16672 4.06870
# Velocity P-wave (km/s) = 7.34462 6.50836 6.93910
#
# Compressibility (1/GPa) = 0.01691990
#
# Stress axis : x y z
#
# Youngs Moduli (GPa) = 124.81384 71.75345 123.76710
#
# Poissons Ratio (x) = 0.14630 0.14690
# Poissons Ratio (y) = 0.25449 0.41194
# Poissons Ratio (z) = 0.14814 0.23882
#
# Static dielectric constant tensor:
#      x y z
#    x 2.007540 0.000000 -0.090840 
#    y 0.000000 1.983410 0.000000 
#    z -0.090840 0.000000 2.117900 
# 
# From -- ./inp_files/1043.got.cif
#   From: 2010.05.17/outbox.cif.g08.bks.cpg/sg3_1_cif.got.tgz:1043.got - 2010.06.03 18:33:08.
