data_PCOD9113202
_publ_section_title
;
Structure prediction by ZEFSAII (Michael W. Deem and Ramdas Pophale) SiO2 
 PCOD9113202
Probable space group: P 2
;
_chemical_formula_sum "Si O2"
_cell_formula_units_Z 16
_cell_length_a 9.920013
_cell_length_b 5.410319
_cell_length_c 25.762411
_cell_angle_alpha 90.000000
_cell_angle_beta 32.854498
_cell_angle_gamma 90.000000
_cell_volume 750.114143
_symmetry_space_group_name_H-M "P 2"
_symmetry_group_IT_number 3
_symmetry_cell_setting 'monoclinic'
loop_
_space_group_symop_operation_xyz
x,y,z
-x,y,-z
loop_
_atom_site_type_symbol
_atom_site_label
_atom_site_fract_x
_atom_site_fract_y
_atom_site_fract_z
Si Si1 0.702421 0.151150 0.097122
Si Si2 0.793189 0.560104 0.397092
Si Si3 0.752706 0.065964 0.449688
Si Si4 0.707431 0.234748 0.580573
Si Si5 0.620399 0.160447 0.904491
Si Si6 0.449301 0.650102 0.213685
Si Si7 0.137857 0.660820 0.207253
Si Si8 0.277787 0.731823 0.384136
O O1 0.578480 0.155029 0.079073
O O2 0.604837 0.397106 0.157715
O O3 0.610084 0.900051 0.154806
O O4 0.000000 0.154101 0.000000
O O5 0.500000 0.522729 0.500000
O O6 0.906467 0.290839 0.374373
O O7 0.856407 0.632192 0.317846
O O8 0.863518 0.793322 0.410242
O O9 0.500000 0.035303 0.500000
O O10 0.695773 0.151758 0.525417
O O11 0.597159 0.504013 0.625949
O O12 0.000000 0.264001 0.500000
O O13 0.608897 0.004272 0.645381
O O14 0.766762 0.420281 0.853506
O O15 0.795759 0.921299 0.839432
O O16 0.500000 0.141346 0.000000
O O17 0.275400 0.652905 0.218887
O O18 0.310043 0.657073 0.313884
O O19 0.000000 0.756596 0.500000
#
# Coordination Sequence:
#
# PCOD9113202 Si02
#       8
#     2   2   2   2   2   2   2   2
#     4  10  21  40  67  89 116 154 196 245 307 361
#     4  10  21  36  59  84 117 162 202 237 282 336
#     4  10  21  36  55  74 109 160 199 233 279 337
#     4  10  21  32  53  80 105 152 199 231 287 321
#     4  10  21  40  65  93 118 148 192 255 309 351
#     4  10  21  36  61  92 116 155 206 239 287 364
#     4  10  21  35  63  92 114 156 206 240 285 364
#     4  10  21  35  53  86 122 153 190 245 287 324
#
# _framework density 21.330088
#
# number of rings (size 3 to 8) (size 9 to 14) (size 15 to 20)
#    0.000    2.000    0.000    3.000    7.000    0.000 
#    0.000    0.000   33.000    0.000    0.000    0.000 
#    0.000    0.000    0.000    0.000    0.000    0.000 
#
# Total GULP energy -89257.288218 kJ/mol
# GULP energy per Si atom -5578.580514 kJ/mol
# Density = 2.128154 g / cm^3
# Si number density = 21.330088 Si / 1000 Ang^3
#
#
#
# Elastic Constant Matrix: (Units=GPa)
#
#
# Indices 1 2 3 4 5 6 
#
# 1 52.5195 3.1564 24.5337 0.0000 1.7089 0.0000
# 2 3.1564 138.8910 20.7366 0.0000 -17.0244 0.0000
# 3 24.5337 20.7366 124.7965 0.0000 8.3008 0.0000
# 4 0.0000 0.0000 0.0000 40.6414 0.0000 13.7242
# 5 1.7089 -17.0244 8.3008 0.0000 22.1624 0.0000
# 6 0.0000 0.0000 0.0000 13.7242 0.0000 12.7814
#
#
#
# Elastic Compliance Matrix: (Units=1/GPa)
#
#
# Indices 1 2 3 4 5 6 
#
# 1 0.020969 0.000150 -0.004151 0.000000 0.000053 0.000000
# 2 0.000150 0.008350 -0.001890 0.000000 0.007111 0.000000
# 3 -0.004151 -0.001890 0.009454 0.000000 -0.004673 0.000000
# 4 0.000000 0.000000 0.000000 0.038603 0.000000 -0.041451
# 5 0.000053 0.007111 -0.004673 0.000000 0.052330 0.000000
# 6 0.000000 0.000000 0.000000 -0.041451 0.000000 0.122747
#
#
# Mechanical properties :
#
#
# Convention : Reuss Voigt Hill
#
# Bulk Modulus (GPa) = 37.04929 45.89560 41.47244
# Shear Modulus (GPa) = 18.29954 32.96905 25.63429
#
# Velocity S-wave (km/s) = 2.93221 3.93575 3.47045
# Velocity P-wave (km/s) = 5.37317 6.49747 5.96188
#
# Compressibility (1/GPa) = 0.02699107
#
# Stress axis : x y z
#
# Youngs Moduli (GPa) = 47.69006 119.75713 105.77713
#
# Poissons Ratio (x) = -0.01792 0.43904
# Poissons Ratio (y) = -0.00714 0.19991
# Poissons Ratio (z) = 0.19794 0.22633
#
# Static dielectric constant tensor:
#      x y z
#    x 1.781830 0.000000 -0.065900 
#    y 0.000000 1.859490 0.000000 
#    z -0.065900 0.000000 1.800280 
# 
# From -- ./inp_files/16291.got.cif
#   From: 2010.05.17/outbox.cif.g08.bks.cpg/sg3_9_cif.got.tgz:16291.got - 2010.06.03 18:33:08.
