data_PCOD9113475
_publ_section_title
;
Structure prediction by ZEFSAII (Michael W. Deem and Ramdas Pophale) SiO2 
 PCOD9113475
Probable space group: P 2
;
_chemical_formula_sum "Si O2"
_cell_formula_units_Z 15
_cell_length_a 5.984435
_cell_length_b 11.609022
_cell_length_c 12.778552
_cell_angle_alpha 90.000000
_cell_angle_beta 52.136576
_cell_angle_gamma 90.000000
_cell_volume 700.873116
_symmetry_space_group_name_H-M "P 2"
_symmetry_group_IT_number 3
_symmetry_cell_setting 'monoclinic'
loop_
_space_group_symop_operation_xyz
x,y,z
-x,y,-z
loop_
_atom_site_type_symbol
_atom_site_label
_atom_site_fract_x
_atom_site_fract_y
_atom_site_fract_z
Si Si1 0.291898 0.377920 0.474871
Si Si2 0.041418 0.167781 0.682902
Si Si3 0.583714 0.342081 0.791557
Si Si4 0.000000 0.413621 0.000000
Si Si5 0.191906 0.806263 0.143827
Si Si6 0.163614 0.020715 0.843942
Si Si7 0.182216 0.944030 0.352388
Si Si8 0.817269 0.542625 0.861282
O O1 0.500000 0.440984 0.500000
O O2 0.458887 0.347208 0.321056
O O3 0.000000 0.422525 0.500000
O O4 0.201597 0.263892 0.566998
O O5 0.737612 0.226518 0.778935
O O6 0.015731 0.050799 0.625567
O O7 0.126498 0.125659 0.772969
O O8 0.771048 0.451120 0.780551
O O9 0.283221 0.344435 0.932444
O O10 0.978024 0.490993 0.109568
O O11 0.211118 0.848911 0.255888
O O12 0.092245 0.674217 0.179013
O O13 0.991853 0.901197 0.146636
O O14 0.500000 0.811250 0.000000
O O15 0.498241 0.993379 0.736469
O O16 0.000000 0.048419 0.000000
O O17 0.000000 0.894227 0.500000
O O18 0.500000 0.550006 0.000000
#
# Coordination Sequence:
#
# PCOD9113475 Si02
#       8
#     2   2   2   1   2   2   2   2
#     4  10  23  41  68  91 130 187 234 276 334 426
#     4  10  25  41  64  92 135 181 231 277 358 416
#     4  10  22  43  62  96 136 175 231 283 352 420
#     4  10  22  38  64  98 134 178 232 284 360 414
#     4  10  21  42  70  97 133 172 235 292 358 425
#     4  11  24  42  69 101 132 182 239 288 353 425
#     4  11  24  43  67  97 136 182 225 294 356 424
#     4   9  21  40  64  98 131 178 227 293 348 423
#
# _framework density 21.401876000000001
#
# number of rings (size 3 to 8) (size 9 to 14) (size 15 to 20)
#    0.000    1.867    1.333    1.200   10.267    2.667 
#    9.600    2.000    0.000    1.600    0.000    0.000 
#    0.000    0.000    0.000    0.000    0.000    0.000 
#
# Total GULP energy -83555.429678 kJ/mol
# GULP energy per Si atom -5570.361979 kJ/mol
# Density = 2.135316 g / cm^3
# Si number density = 21.401876 Si / 1000 Ang^3
#
#
#
# Elastic Constant Matrix: (Units=GPa)
#
#
# Indices 1 2 3 4 5 6 
#
# 1 89.7425 10.1268 39.3841 0.0000 12.3102 0.0000
# 2 10.1268 70.5582 31.9745 0.0000 13.5843 0.0000
# 3 39.3841 31.9745 130.7973 0.0000 20.7903 0.0000
# 4 0.0000 0.0000 0.0000 -142.0845 0.0000 51.1421
# 5 12.3102 13.5843 20.7903 0.0000 38.4227 0.0000
# 6 0.0000 0.0000 0.0000 51.1421 0.0000 7.4553
#
#
#
# Elastic Compliance Matrix: (Units=1/GPa)
#
#
# Indices 1 2 3 4 5 6 
#
# 1 0.013016 0.000207 -0.003606 0.000000 -0.002293 0.000000
# 2 0.000207 0.016482 -0.003452 0.000000 -0.004026 0.000000
# 3 -0.003606 -0.003452 0.010063 0.000000 -0.003069 0.000000
# 4 0.000000 0.000000 0.000000 -0.002029 0.000000 0.013917
# 5 -0.002293 -0.004026 -0.003069 0.000000 0.029845 0.000000
# 6 0.000000 0.000000 0.000000 0.013917 0.000000 0.038665
#
#
# Mechanical properties :
#
#
# Convention : Reuss Voigt Hill
#
# Bulk Modulus (GPa) = 38.66790 50.45209 44.55999
# Shear Modulus (GPa) = 38.95207 -5.26712 16.84247
#
# Velocity S-wave (km/s) = 4.27081 -1.57048 2.80833
# Velocity P-wave (km/s) = 6.51356 4.50958 5.60191
#
# Compressibility (1/GPa) = 0.02586124
#
# Stress axis : x y z
#
# Youngs Moduli (GPa) = 76.82600 60.67129 99.37634
#
# Poissons Ratio (x) = -0.01257 0.35831
# Poissons Ratio (y) = -0.01591 0.34301
# Poissons Ratio (z) = 0.27700 0.20942
#
# Static dielectric constant tensor:
#      x y z
#    x 1.918790 0.000000 -0.076240 
#    y 0.000000 1.744500 0.000000 
#    z -0.076240 0.000000 1.942170 
# 
# From -- ./inp_files/9985.got.cif
#   From: 2010.05.17/outbox.cif.g08.bks.cpg/sg3_5_cif.got.tgz:9985.got - 2010.06.03 18:33:08.
