data_PCOD9113103
_publ_section_title
;
Structure prediction by ZEFSAII (Michael W. Deem and Ramdas Pophale) SiO2 
 PCOD9113103
Probable space group: P 2
;
_chemical_formula_sum "Si O2"
_cell_formula_units_Z 12
_cell_length_a 7.435830
_cell_length_b 13.853784
_cell_length_c 7.114898
_cell_angle_alpha 90.000000
_cell_angle_beta 42.663778
_cell_angle_gamma 90.000000
_cell_volume 496.707568
_symmetry_space_group_name_H-M "P 2"
_symmetry_group_IT_number 3
_symmetry_cell_setting 'monoclinic'
loop_
_space_group_symop_operation_xyz
x,y,z
-x,y,-z
loop_
_atom_site_type_symbol
_atom_site_label
_atom_site_fract_x
_atom_site_fract_y
_atom_site_fract_z
Si Si1 0.500000 0.911581 0.000000
Si Si2 0.696043 0.233255 0.673661
Si Si3 0.500000 0.883204 0.500000
Si Si4 0.770174 0.029375 0.513065
Si Si5 0.919697 0.557343 0.839776
Si Si6 0.208278 0.772442 0.011963
Si Si7 0.426147 0.450273 0.339408
O O1 0.242306 0.845876 0.158504
O O2 0.519049 0.984639 0.813608
O O3 0.710098 0.141338 0.523100
O O4 0.616651 0.337238 0.658164
O O5 0.000000 0.245210 0.500000
O O6 0.500000 0.210313 0.000000
O O7 0.470251 0.807210 0.695586
O O8 0.750631 0.955316 0.352760
O O9 0.000000 0.026958 0.500000
O O10 0.166639 0.518347 0.529847
O O11 0.821864 0.666135 0.882019
O O12 0.672144 0.485177 0.025527
O O13 0.000000 0.558280 0.000000
O O14 0.000000 0.780432 0.000000
O O15 0.500000 0.461954 0.500000
#
# Coordination Sequence:
#
# PCOD9113103 Si02
#       7
#     1   2   1   2   2   2   2
#     4  10  20  40  58  90 124 166 206 264 314 380
#     4  11  23  41  66  90 128 170 205 265 329 375
#     4  10  22  36  64  94 120 176 206 264 306 400
#     4  10  21  39  61  89 130 161 213 260 324 371
#     4   9  20  37  63  89 125 162 206 263 318 371
#     4  10  21  36  63  87 126 163 215 250 324 374
#     4  10  21  40  64  90 122 162 213 262 314 378
#
# _framework density 24.159084
#
# number of rings (size 3 to 8) (size 9 to 14) (size 15 to 20)
#    0.000    2.000    0.833    2.000    7.000    0.000 
#    4.500    0.000    0.000    0.000    0.000    0.000 
#    0.000    0.000    0.000    0.000    0.000    0.000 
#
# Total GULP energy -66845.907655 kJ/mol
# GULP energy per Si atom -5570.492305 kJ/mol
# Density = 2.410410 g / cm^3
# Si number density = 24.159084 Si / 1000 Ang^3
#
#
#
# Elastic Constant Matrix: (Units=GPa)
#
#
# Indices 1 2 3 4 5 6 
#
# 1 119.3148 32.3781 -5.3843 0.0000 -15.3345 0.0000
# 2 32.3781 212.6668 32.1916 0.0000 -28.1867 0.0000
# 3 -5.3843 32.1916 87.8531 0.0000 -16.8311 0.0000
# 4 0.0000 0.0000 0.0000 28.2633 0.0000 -8.8201
# 5 -15.3345 -28.1867 -16.8311 0.0000 26.7595 0.0000
# 6 0.0000 0.0000 0.0000 -8.8201 0.0000 60.9713
#
#
#
# Elastic Compliance Matrix: (Units=1/GPa)
#
#
# Indices 1 2 3 4 5 6 
#
# 1 0.009470 -0.001000 0.002029 0.000000 0.005650 0.000000
# 2 -0.001000 0.005653 -0.001253 0.000000 0.004593 0.000000
# 3 0.002029 -0.001253 0.013571 0.000000 0.008379 0.000000
# 4 0.000000 0.000000 0.000000 0.037054 0.000000 0.005360
# 5 0.005650 0.004593 0.008379 0.000000 0.050716 0.000000
# 6 0.000000 0.000000 0.000000 0.005360 0.000000 0.017177
#
#
# Mechanical properties :
#
#
# Convention : Reuss Voigt Hill
#
# Bulk Modulus (GPa) = 35.40142 59.80063 47.60102
# Shear Modulus (GPa) = 34.84208 47.24211 41.04209
#
# Velocity S-wave (km/s) = 3.80174 4.42686 4.12615
# Velocity P-wave (km/s) = 5.82720 7.13695 6.51507
#
# Compressibility (1/GPa) = 0.02824746
#
# Stress axis : x y z
#
# Youngs Moduli (GPa) = 105.59320 176.90109 73.68452
#
# Poissons Ratio (x) = 0.17694 -0.14953
# Poissons Ratio (y) = 0.10561 0.09230
# Poissons Ratio (z) = -0.21428 0.22160
#
# Static dielectric constant tensor:
#      x y z
#    x 2.225790 0.000000 0.163760 
#    y 0.000000 1.895090 0.000000 
#    z 0.163760 0.000000 2.094600 
# 
# From -- ./inp_files/5886.got.cif
#   From: 2010.05.17/outbox.cif.g08.bks.cpg/sg3_3_cif.got.tgz:5886.got - 2010.06.03 18:33:08.
