data_PCOD9113248
_publ_section_title
;
Structure prediction by ZEFSAII (Michael W. Deem and Ramdas Pophale) SiO2 
 PCOD9113248
Probable space group: P 2
;
_chemical_formula_sum "Si O2"
_cell_formula_units_Z 9
_cell_length_a 11.672311
_cell_length_b 5.119724
_cell_length_c 8.566565
_cell_angle_alpha 90.000000
_cell_angle_beta 48.198692
_cell_angle_gamma 90.000000
_cell_volume 381.623329
_symmetry_space_group_name_H-M "P 2"
_symmetry_group_IT_number 3
_symmetry_cell_setting 'monoclinic'
loop_
_space_group_symop_operation_xyz
x,y,z
-x,y,-z
loop_
_atom_site_type_symbol
_atom_site_label
_atom_site_fract_x
_atom_site_fract_y
_atom_site_fract_z
Si Si1 0.690923 0.831680 0.266711
Si Si2 0.259117 0.318207 0.586293
Si Si3 0.652938 0.698643 0.963593
Si Si4 0.183749 0.216088 0.306514
Si Si5 0.000000 0.080319 0.000000
O O1 0.693228 0.586967 0.379312
O O2 0.866213 0.898656 0.054839
O O3 0.654463 0.084310 0.403523
O O4 0.607913 0.771618 0.181265
O O5 0.264240 0.296272 0.397244
O O6 0.082273 0.256851 0.796649
O O7 0.753323 0.433594 0.870579
O O8 0.754745 0.932867 0.798972
O O9 0.500000 0.667911 0.000000
O O10 0.000000 0.219037 0.500000
#
# Coordination Sequence:
#
# PCOD9113248 Si02
#       5
#     2   2   2   2   1
#     4  10  21  37  64  90 124 179 217 261 326 407
#     4  10  21  37  62  97 123 167 220 282 315 388
#     4  12  27  47  66  98 145 185 213 272 356 410
#     4  12  26  43  71 105 135 170 235 288 326 385
#     4   8  20  32  68  88 130 160 226 264 336 378
#
# _framework density 23.583462999999998
#
# number of rings (size 3 to 8) (size 9 to 14) (size 15 to 20)
#    1.333    0.000    0.000    6.000    6.222    0.000 
#    0.000    6.667    0.000    0.000    0.000    0.000 
#    0.000    0.000    0.000    0.000    0.000    0.000 
#
# Total GULP energy -50327.829611 kJ/mol
# GULP energy per Si atom -5591.981068 kJ/mol
# Density = 2.352979 g / cm^3
# Si number density = 23.583463 Si / 1000 Ang^3
#
#
#
# Elastic Constant Matrix: (Units=GPa)
#
#
# Indices 1 2 3 4 5 6 
#
# 1 108.3255 -1.2141 25.4298 0.0000 -14.9431 0.0000
# 2 -1.2141 108.0773 11.6396 0.0000 -39.0703 0.0000
# 3 25.4298 11.6396 77.6557 0.0000 -15.9874 0.0000
# 4 0.0000 0.0000 0.0000 21.9846 0.0000 14.7311
# 5 -14.9431 -39.0703 -15.9874 0.0000 40.4593 0.0000
# 6 0.0000 0.0000 0.0000 14.7311 0.0000 5.8565
#
#
#
# Elastic Compliance Matrix: (Units=1/GPa)
#
#
# Indices 1 2 3 4 5 6 
#
# 1 0.010591 0.002205 -0.002781 0.000000 0.004942 0.000000
# 2 0.002205 0.014715 0.000180 0.000000 0.015095 0.000000
# 3 -0.002781 0.000180 0.014789 0.000000 0.004990 0.000000
# 4 0.000000 0.000000 0.000000 -0.066361 0.000000 0.166920
# 5 0.004942 0.015095 0.004990 0.000000 0.043091 0.000000
# 6 0.000000 0.000000 0.000000 0.166920 0.000000 -0.249111
#
#
# Mechanical properties :
#
#
# Convention : Reuss Voigt Hill
#
# Bulk Modulus (GPa) = 25.44391 40.64101 33.04246
# Shear Modulus (GPa) = -22.89439 30.87364 3.98962
#
# Velocity S-wave (km/s) = -3.11912 3.62210 1.30207
# Velocity P-wave (km/s) = 1.46954 5.89602 4.03755
#
# Compressibility (1/GPa) = 0.03930214
#
# Stress axis : x y z
#
# Youngs Moduli (GPa) = 94.42196 67.95753 67.62004
#
# Poissons Ratio (x) = -0.14985 0.18807
# Poissons Ratio (y) = -0.20820 -0.01218
# Poissons Ratio (z) = 0.26261 -0.01224
#
# Static dielectric constant tensor:
#      x y z
#    x 1.904060 0.000000 -0.023500 
#    y 0.000000 1.816160 0.000000 
#    z -0.023500 0.000000 1.965470 
# 
# From -- ./inp_files/6351.got.cif
#   From: 2010.05.17/outbox.cif.g08.bks.cpg/sg3_4_cif.got.tgz:6351.got - 2010.06.03 18:33:08.
