data_PCOD9113555
_publ_section_title
;
Structure prediction by ZEFSAII (Michael W. Deem and Ramdas Pophale) SiO2 
 PCOD9113555
Probable space group: P 2
;
_chemical_formula_sum "Si O2"
_cell_formula_units_Z 16
_cell_length_a 21.344335
_cell_length_b 5.060156
_cell_length_c 18.787111
_cell_angle_alpha 90.000000
_cell_angle_beta 24.003548
_cell_angle_gamma 90.000000
_cell_volume 825.429972
_symmetry_space_group_name_H-M "P 2"
_symmetry_group_IT_number 3
_symmetry_cell_setting 'monoclinic'
loop_
_space_group_symop_operation_xyz
x,y,z
-x,y,-z
loop_
_atom_site_type_symbol
_atom_site_label
_atom_site_fract_x
_atom_site_fract_y
_atom_site_fract_z
Si Si1 0.282852 0.607870 0.839800
Si Si2 0.454014 0.691811 0.214354
Si Si3 0.110773 0.107394 0.077565
Si Si4 0.540446 0.372113 0.665513
Si Si5 0.707015 0.048082 0.982651
Si Si6 0.176056 0.531512 0.795962
Si Si7 0.206996 0.027057 0.670656
Si Si8 0.507033 0.184108 0.075934
O O1 0.445826 0.529408 0.704172
O O2 0.228251 0.898570 0.919111
O O3 0.277016 0.573459 0.761368
O O4 0.160379 0.398232 0.000014
O O5 0.376823 0.571983 0.364820
O O6 0.630070 0.757503 0.058291
O O7 0.452667 0.472377 0.154970
O O8 0.411275 0.966760 0.221157
O O9 0.320948 0.150103 0.068458
O O10 0.942387 0.042070 0.224328
O O11 0.137850 0.071103 0.134081
O O12 0.650152 0.153054 0.518731
O O13 0.414497 0.216045 0.843833
O O14 0.180568 0.232366 0.763334
O O15 0.223990 0.735242 0.684645
O O16 0.000000 0.596325 0.000000
O O17 0.500000 0.136922 0.000000
#
# Coordination Sequence:
#
# PCOD9113555 Si02
#       8
#     2   2   2   2   2   2   2   2
#     4  11  21  37  59  70 109 145 183 232 305 344
#     4   9  17  31  51  75 114 146 174 220 274 336
#     4  11  19  36  57  81  99 151 185 238 279 338
#     4  10  22  38  54  83 110 148 187 238 288 344
#     4   8  19  33  55  76 114 143 182 217 287 333
#     4  12  23  40  56  79 108 145 193 244 304 352
#     4  12  25  36  60  82 109 140 200 248 287 350
#     4   9  16  28  50  84 115 141 177 223 267 326
#
# _framework density 19.383838000000001
#
# number of rings (size 3 to 8) (size 9 to 14) (size 15 to 20)
#    0.750    1.000    3.750    1.500    1.750    0.500 
#    0.000    1.250    0.000    0.000    0.000    3.500 
#    3.750    0.000    0.000    0.000    0.000    0.000 
#
# Total GULP energy -89190.405884 kJ/mol
# GULP energy per Si atom -5574.400368 kJ/mol
# Density = 1.933972 g / cm^3
# Si number density = 19.383838 Si / 1000 Ang^3
#
#
#
# Elastic Constant Matrix: (Units=GPa)
#
#
# Indices 1 2 3 4 5 6 
#
# 1 137.9880 -2.7637 14.0946 0.0000 -2.7198 0.0000
# 2 -2.7637 78.3773 -2.2498 0.0000 2.4224 0.0000
# 3 14.0946 -2.2498 33.0446 0.0000 -4.2815 0.0000
# 4 0.0000 0.0000 0.0000 19.3450 0.0000 2.3252
# 5 -2.7198 2.4224 -4.2815 0.0000 11.6271 0.0000
# 6 0.0000 0.0000 0.0000 2.3252 0.0000 31.0278
#
#
#
# Elastic Compliance Matrix: (Units=1/GPa)
#
#
# Indices 1 2 3 4 5 6 
#
# 1 0.007583 0.000159 -0.003148 0.000000 0.000581 0.000000
# 2 0.000159 0.012854 0.000488 0.000000 -0.002461 0.000000
# 3 -0.003148 0.000488 0.033109 0.000000 0.011354 0.000000
# 4 0.000000 0.000000 0.000000 0.052163 0.000000 -0.003909
# 5 0.000581 -0.002461 0.011354 0.000000 0.090836 0.000000
# 6 0.000000 0.000000 0.000000 -0.003909 0.000000 0.032522
#
#
# Mechanical properties :
#
#
# Convention : Reuss Voigt Hill
#
# Bulk Modulus (GPa) = 20.59921 29.73021 25.16471
# Shear Modulus (GPa) = 19.97991 28.42189 24.20090
#
# Velocity S-wave (km/s) = 3.21401 3.83334 3.53726
# Velocity P-wave (km/s) = 4.94199 5.91300 5.44917
#
# Compressibility (1/GPa) = 0.04854555
#
# Stress axis : x y z
#
# Youngs Moduli (GPa) = 131.86991 77.79381 30.20289
#
# Poissons Ratio (x) = -0.01237 0.09509
# Poissons Ratio (y) = -0.02097 -0.01475
# Poissons Ratio (z) = 0.41517 -0.03800
#
# Static dielectric constant tensor:
#      x y z
#    x 1.725410 0.000000 -0.006440 
#    y 0.000000 1.713850 0.000000 
#    z -0.006440 0.000000 1.685970 
# 
# From -- ./inp_files/15441.got.cif
#   From: 2010.05.17/outbox.cif.g08.bks.cpg/sg3_8_cif.got.tgz:15441.got - 2010.06.03 18:33:08.
