data_PCOD9113914
_publ_section_title
;
Structure prediction by ZEFSAII (Michael W. Deem and Ramdas Pophale) SiO2 
 PCOD9113914
Probable space group: P 2
;
_chemical_formula_sum "Si O2"
_cell_formula_units_Z 12
_cell_length_a 15.486118
_cell_length_b 5.043976
_cell_length_c 10.382533
_cell_angle_alpha 90.000000
_cell_angle_beta 36.167440
_cell_angle_gamma 90.000000
_cell_volume 478.607053
_symmetry_space_group_name_H-M "P 2"
_symmetry_group_IT_number 3
_symmetry_cell_setting 'monoclinic'
loop_
_space_group_symop_operation_xyz
x,y,z
-x,y,-z
loop_
_atom_site_type_symbol
_atom_site_label
_atom_site_fract_x
_atom_site_fract_y
_atom_site_fract_z
Si Si1 0.157538 0.700490 0.327315
Si Si2 0.211049 0.323385 0.014645
Si Si3 0.680665 0.534483 0.382690
Si Si4 0.500982 0.014346 0.312079
Si Si5 0.883991 0.376715 0.359409
Si Si6 0.631785 0.053261 0.779883
O O1 0.130220 0.549803 0.494517
O O2 0.284030 0.900501 0.211156
O O3 0.000000 0.841776 0.500000
O O4 0.197002 0.498364 0.163266
O O5 0.271032 0.488162 0.821445
O O6 0.326391 0.081936 0.889062
O O7 0.045988 0.255323 0.167779
O O8 0.573358 0.298329 0.561559
O O9 0.823702 0.524071 0.304552
O O10 0.590192 0.803754 0.496927
O O11 0.458647 0.902993 0.220972
O O12 0.761173 0.164000 0.538181
O O13 0.500000 0.230667 0.000000
#
# Coordination Sequence:
#
# PCOD9113914 Si02
#       6
#     2   2   2   2   2   2
#     4  10  23  44  71 111 149 201 266 334 394 476
#     4  11  25  46  79 115 158 205 268 339 397 475
#     4  11  25  51  75 110 158 209 261 318 402 475
#     4  11  26  48  74 111 157 208 258 323 393 479
#     4  10  23  50  74 110 156 205 266 324 405 481
#     4  11  24  43  75 106 151 210 258 326 402 477
#
# _framework density 25.072762000000001
#
# number of rings (size 3 to 8) (size 9 to 14) (size 15 to 20)
#    0.000    1.333    1.667    2.000    2.333    6.667 
#   15.000    1.667    0.000    0.000    0.000    0.000 
#    0.000    0.000    0.000    0.000    0.000    0.000 
#
# Total GULP energy -66964.141115 kJ/mol
# GULP energy per Si atom -5580.345093 kJ/mol
# Density = 2.501570 g / cm^3
# Si number density = 25.072762 Si / 1000 Ang^3
#
#
#
# Elastic Constant Matrix: (Units=GPa)
#
#
# Indices 1 2 3 4 5 6 
#
# 1 189.1157 42.4430 68.4896 0.0000 -21.7871 0.0000
# 2 42.4430 48.9096 49.3619 0.0000 -17.5065 0.0000
# 3 68.4896 49.3619 137.9520 0.0000 -46.0880 0.0000
# 4 0.0000 0.0000 0.0000 44.7522 0.0000 -6.1994
# 5 -21.7871 -17.5065 -46.0880 0.0000 60.8796 0.0000
# 6 0.0000 0.0000 0.0000 -6.1994 0.0000 37.6303
#
#
#
# Elastic Compliance Matrix: (Units=1/GPa)
#
#
# Indices 1 2 3 4 5 6 
#
# 1 0.006908 -0.003974 -0.002093 0.000000 -0.000255 0.000000
# 2 -0.003974 0.034312 -0.010017 0.000000 0.000862 0.000000
# 3 -0.002093 -0.010017 0.014268 0.000000 0.007172 0.000000
# 4 0.000000 0.000000 0.000000 0.022867 0.000000 0.003767
# 5 -0.000255 0.000862 0.007172 0.000000 0.022012 0.000000
# 6 0.000000 0.000000 0.000000 0.003767 0.000000 0.027195
#
#
# Mechanical properties :
#
#
# Convention : Reuss Voigt Hill
#
# Bulk Modulus (GPa) = 42.87889 77.39627 60.13758
# Shear Modulus (GPa) = 29.85008 43.03130 36.44069
#
# Velocity S-wave (km/s) = 3.45416 4.14727 3.81648
# Velocity P-wave (km/s) = 5.74867 7.33954 6.59227
#
# Compressibility (1/GPa) = 0.02332150
#
# Stress axis : x y z
#
# Youngs Moduli (GPa) = 144.75500 29.14429 70.08487
#
# Poissons Ratio (x) = 0.11581 0.14669
# Poissons Ratio (y) = 0.57521 0.70203
# Poissons Ratio (z) = 0.30298 0.29193
#
# Static dielectric constant tensor:
#      x y z
#    x 2.066830 0.000000 0.088910 
#    y 0.000000 2.362500 0.000000 
#    z 0.088910 0.000000 2.001610 
# 
# From -- ./inp_files/12287.got.cif
#   From: 2010.05.17/outbox.cif.g08.bks.cpg/sg3_7_cif.got.tgz:12287.got - 2010.06.03 18:33:08.
