data_PCOD9113665
_publ_section_title
;
Structure prediction by ZEFSAII (Michael W. Deem and Ramdas Pophale) SiO2 
 PCOD9113665
Probable space group: P 2
;
_chemical_formula_sum "Si O2"
_cell_formula_units_Z 15
_cell_length_a 12.248930
_cell_length_b 8.318016
_cell_length_c 9.353273
_cell_angle_alpha 90.000000
_cell_angle_beta 136.285964
_cell_angle_gamma 90.000000
_cell_volume 658.562437
_symmetry_space_group_name_H-M "P 2"
_symmetry_group_IT_number 3
_symmetry_cell_setting 'monoclinic'
loop_
_space_group_symop_operation_xyz
x,y,z
-x,y,-z
loop_
_atom_site_type_symbol
_atom_site_label
_atom_site_fract_x
_atom_site_fract_y
_atom_site_fract_z
Si Si1 0.190139 0.313650 0.156260
Si Si2 0.246028 0.535340 0.451837
Si Si3 0.115448 0.523420 0.839663
Si Si4 0.315513 0.693254 0.797089
Si Si5 0.666828 0.854821 0.612449
Si Si6 0.150729 0.986558 0.477767
Si Si7 0.000000 0.262579 0.500000
Si Si8 0.125909 0.979276 0.990417
O O1 0.261249 0.372457 0.374279
O O2 0.213527 0.453710 0.063999
O O3 0.000000 0.309624 0.000000
O O4 0.221929 0.144727 0.108267
O O5 0.299485 0.547303 0.666402
O O6 0.337529 0.680602 0.462929
O O7 0.058092 0.582707 0.273069
O O8 0.218258 0.642287 0.843360
O O9 0.068148 0.374911 0.689682
O O10 0.222500 0.843920 0.640236
O O11 0.500000 0.726995 0.000000
O O12 0.500000 0.918708 0.500000
O O13 0.744906 0.973345 0.568093
O O14 0.761615 0.839004 0.850981
O O15 0.971796 0.966413 0.246454
O O16 0.132363 0.148459 0.551801
O O17 0.000000 0.977011 0.000000
#
# Coordination Sequence:
#
# PCOD9113665 Si02
#       8
#     2   2   2   2   2   2   1   2
#     4   9  19  36  65  98 126 163 231 296 346 393
#     4  10  22  41  66  97 132 182 235 291 346 421
#     4  11  22  42  71  99 131 183 239 303 346 420
#     4  11  25  45  63 102 147 189 229 290 364 432
#     4  10  23  42  62  99 143 181 226 294 365 425
#     4  10  24  42  68  98 137 187 238 295 344 424
#     4  12  22  42  72 102 134 180 250 302 338 420
#     4   9  18  39  66  94 127 171 231 295 340 412
#
# _framework density 22.776883000000002
#
# number of rings (size 3 to 8) (size 9 to 14) (size 15 to 20)
#    0.000    1.867    2.667    0.000    5.600   10.133 
#    4.800    4.000    0.000    0.000    0.000    0.000 
#    0.000    0.000    0.000    0.000    0.000    0.000 
#
# Total GULP energy -83700.474302 kJ/mol
# GULP energy per Si atom -5580.031620 kJ/mol
# Density = 2.272504 g / cm^3
# Si number density = 22.776883 Si / 1000 Ang^3
#
#
#
# Elastic Constant Matrix: (Units=GPa)
#
#
# Indices 1 2 3 4 5 6 
#
# 1 94.6027 32.9923 29.4253 0.0000 -6.3528 0.0000
# 2 32.9923 80.4060 18.4824 0.0000 -3.9862 0.0000
# 3 29.4253 18.4824 73.8806 0.0000 -14.6039 0.0000
# 4 0.0000 0.0000 0.0000 18.9457 0.0000 -21.6676
# 5 -6.3528 -3.9862 -14.6039 0.0000 23.7936 0.0000
# 6 0.0000 0.0000 0.0000 -21.6676 0.0000 19.6949
#
#
#
# Elastic Compliance Matrix: (Units=1/GPa)
#
#
# Indices 1 2 3 4 5 6 
#
# 1 0.013476 -0.004557 -0.004173 0.000000 0.000273 0.000000
# 2 -0.004557 0.014737 -0.001849 0.000000 0.000118 0.000000
# 3 -0.004173 -0.001849 0.017502 0.000000 0.009318 0.000000
# 4 0.000000 0.000000 0.000000 -0.204414 0.000000 -0.224887
# 5 0.000273 0.000118 0.009318 0.000000 0.047840 0.000000
# 6 0.000000 0.000000 0.000000 -0.224887 0.000000 -0.196637
#
#
# Mechanical properties :
#
#
# Convention : Reuss Voigt Hill
#
# Bulk Modulus (GPa) = 40.72000 45.63215 43.17608
# Shear Modulus (GPa) = -17.97580 23.68614 2.85517
#
# Velocity S-wave (km/s) = -2.81234 3.22828 1.12083
# Velocity P-wave (km/s) = 2.71494 5.82869 4.54668
#
# Compressibility (1/GPa) = 0.02455795
#
# Stress axis : x y z
#
# Youngs Moduli (GPa) = 74.20559 67.85480 57.13657
#
# Poissons Ratio (x) = 0.30919 0.23845
# Poissons Ratio (y) = 0.33813 0.10563
# Poissons Ratio (z) = 0.30969 0.12544
#
# Static dielectric constant tensor:
#      x y z
#    x 1.861500 0.000000 -0.007160 
#    y 0.000000 1.929930 0.000000 
#    z -0.007160 0.000000 1.994520 
# 
# From -- ./inp_files/7388.got.cif
#   From: 2010.05.17/outbox.cif.g08.bks.cpg/sg3_4_cif.got.tgz:7388.got - 2010.06.03 18:33:08.
