data_PCOD9113770
_publ_section_title
;
Structure prediction by ZEFSAII (Michael W. Deem and Ramdas Pophale) SiO2 
 PCOD9113770
Probable space group: P 2
;
_chemical_formula_sum "Si O2"
_cell_formula_units_Z 12
_cell_length_a 15.558628
_cell_length_b 6.091679
_cell_length_c 6.187334
_cell_angle_alpha 90.000000
_cell_angle_beta 112.254841
_cell_angle_gamma 90.000000
_cell_volume 542.740566
_symmetry_space_group_name_H-M "P 2"
_symmetry_group_IT_number 3
_symmetry_cell_setting 'monoclinic'
loop_
_space_group_symop_operation_xyz
x,y,z
-x,y,-z
loop_
_atom_site_type_symbol
_atom_site_label
_atom_site_fract_x
_atom_site_fract_y
_atom_site_fract_z
Si Si1 0.500000 0.802021 0.500000
Si Si2 0.831564 0.533945 0.564533
Si Si3 0.000000 0.473925 0.000000
Si Si4 0.749477 0.862147 0.155062
Si Si5 0.672098 0.518468 0.730470
Si Si6 0.910239 0.187245 0.291247
Si Si7 0.577789 0.139838 0.918583
O O1 0.588974 0.650801 0.536043
O O2 0.527115 0.957114 0.724677
O O3 0.786715 0.737871 0.399559
O O4 0.751657 0.440798 0.643860
O O5 0.864244 0.357001 0.418178
O O6 0.921503 0.600151 0.790795
O O7 0.946317 0.322730 0.121099
O O8 0.834219 0.010342 0.153199
O O9 0.718609 0.684388 0.947401
O O10 0.661473 0.016224 0.119192
O O11 0.624880 0.320008 0.812467
O O12 0.000000 0.089084 0.500000
O O13 0.500000 0.239357 0.000000
#
# Coordination Sequence:
#
# PCOD9113770 Si02
#       7
#     1   2   1   2   2   2   2
#     4  10  24  42  64  96 128 170 214 258 316 374
#     4  11  23  42  65  94 129 165 212 262 316 376
#     4  10  22  44  66  92 130 168 208 262 320 372
#     4  11  24  41  65  96 127 168 213 260 317 377
#     4  11  25  42  66  96 129 168 212 263 316 374
#     4  10  24  43  65  93 128 167 210 263 318 375
#     4  11  24  43  65  93 131 169 211 263 316 374
#
# _framework density 22.110011
#
# number of rings (size 3 to 8) (size 9 to 14) (size 15 to 20)
#    0.000    1.333    0.000    4.500    0.000   16.667 
#    0.000    1.667    0.000    0.000    0.000    0.000 
#    0.000    0.000    0.000    0.000    0.000    0.000 
#
# Total GULP energy -67189.520832 kJ/mol
# GULP energy per Si atom -5599.126736 kJ/mol
# Density = 2.205969 g / cm^3
# Si number density = 22.110011 Si / 1000 Ang^3
#
#
#
# Elastic Constant Matrix: (Units=GPa)
#
#
# Indices 1 2 3 4 5 6 
#
# 1 186.0623 62.1938 72.5345 0.0000 -6.2238 0.0000
# 2 62.1938 81.6381 46.7138 0.0000 12.8163 0.0000
# 3 72.5345 46.7138 108.8910 0.0000 26.5419 0.0000
# 4 0.0000 0.0000 0.0000 23.8932 0.0000 15.6945
# 5 -6.2238 12.8163 26.5419 0.0000 55.6718 0.0000
# 6 0.0000 0.0000 0.0000 15.6945 0.0000 35.7412
#
#
#
# Elastic Compliance Matrix: (Units=1/GPa)
#
#
# Indices 1 2 3 4 5 6 
#
# 1 0.009113 -0.004704 -0.005165 0.000000 0.004564 0.000000
# 2 -0.004704 0.018673 -0.004188 0.000000 -0.002828 0.000000
# 3 -0.005165 -0.004188 0.016210 0.000000 -0.007342 0.000000
# 4 0.000000 0.000000 0.000000 0.058818 0.000000 -0.025828
# 5 0.004564 -0.002828 -0.007342 0.000000 0.022624 0.000000
# 6 0.000000 0.000000 0.000000 -0.025828 0.000000 0.039320
#
#
# Mechanical properties :
#
#
# Convention : Reuss Voigt Hill
#
# Bulk Modulus (GPa) = 62.96206 82.16397 72.56301
# Shear Modulus (GPa) = 25.23135 36.07117 30.65126
#
# Velocity S-wave (km/s) = 3.38179 4.04349 3.72735
# Velocity P-wave (km/s) = 6.61719 7.68387 7.17039
#
# Compressibility (1/GPa) = 0.01588258
#
# Stress axis : x y z
#
# Youngs Moduli (GPa) = 109.73396 53.55356 61.68939
#
# Poissons Ratio (x) = 0.25189 0.31863
# Poissons Ratio (y) = 0.51614 0.25837
# Poissons Ratio (z) = 0.56678 0.22429
#
# Static dielectric constant tensor:
#      x y z
#    x 1.797750 0.000000 0.013970 
#    y 0.000000 1.785130 0.000000 
#    z 0.013970 0.000000 1.812600 
# 
# From -- ./inp_files/2784.got.cif
#   From: 2010.05.17/outbox.cif.g08.bks.cpg/sg3_2_cif.got.tgz:2784.got - 2010.06.03 18:33:08.
