data_PCOD9113832
_publ_section_title
;
Structure prediction by ZEFSAII (Michael W. Deem and Ramdas Pophale) SiO2 
 PCOD9113832
Probable space group: P 2
;
_chemical_formula_sum "Si O2"
_cell_formula_units_Z 11
_cell_length_a 5.131205
_cell_length_b 7.812495
_cell_length_c 11.919308
_cell_angle_alpha 90.000000
_cell_angle_beta 76.763662
_cell_angle_gamma 90.000000
_cell_volume 465.121719
_symmetry_space_group_name_H-M "P 2"
_symmetry_group_IT_number 3
_symmetry_cell_setting 'monoclinic'
loop_
_space_group_symop_operation_xyz
x,y,z
-x,y,-z
loop_
_atom_site_type_symbol
_atom_site_label
_atom_site_fract_x
_atom_site_fract_y
_atom_site_fract_z
Si Si1 0.169934 0.250000 0.873194
Si Si2 0.441456 0.665575 0.381321
Si Si3 0.775131 0.828844 0.926327
Si Si4 0.837041 0.961238 0.283490
Si Si5 0.000000 0.936380 0.500000
Si Si6 0.309565 0.464239 0.177770
O O1 0.416052 0.369976 0.881602
O O2 0.952372 0.351053 0.819099
O O3 0.293744 0.098114 0.786180
O O4 0.000000 0.196587 0.000000
O O5 0.500000 0.595174 0.500000
O O6 0.689530 0.777494 0.308191
O O7 0.345512 0.526034 0.302696
O O8 0.219691 0.811056 0.424649
O O9 0.721441 0.637538 0.889548
O O10 0.886089 0.929294 0.808569
O O11 0.500000 0.903497 0.000000
O O12 0.000000 0.822362 0.000000
O O13 0.872663 0.029933 0.406133
#
# Coordination Sequence:
#
# PCOD9113832 Si02
#       6
#     2   2   2   2   1   2
#     4  12  28  45  67 105 153 187 224 287 361 426
#     4  10  23  45  76 103 134 185 246 302 344 417
#     4  12  24  41  75 108 137 186 247 289 344 425
#     4  11  25  45  72 102 142 187 240 294 353 413
#     4  10  22  46  76  98 134 180 250 306 340 408
#     4  12  25  46  68 104 144 184 230 289 357 417
#
# _framework density 23.649725
#
# number of rings (size 3 to 8) (size 9 to 14) (size 15 to 20)
#    0.000    0.727    1.818    6.000    5.091    1.455 
#    3.273    0.000    0.000    0.000    0.000    0.000 
#    0.000    0.000    0.000    0.000    0.000    0.000 
#
# Total GULP energy -61609.827189 kJ/mol
# GULP energy per Si atom -5600.893381 kJ/mol
# Density = 2.359590 g / cm^3
# Si number density = 23.649725 Si / 1000 Ang^3
#
#
#
# Elastic Constant Matrix: (Units=GPa)
#
#
# Indices 1 2 3 4 5 6 
#
# 1 127.6321 18.6854 45.6700 0.0000 9.6266 0.0000
# 2 18.6854 61.9076 32.2886 0.0000 19.9432 0.0000
# 3 45.6700 32.2886 150.3532 0.0000 30.1356 0.0000
# 4 0.0000 0.0000 0.0000 22.4445 0.0000 -2.2988
# 5 9.6266 19.9432 30.1356 0.0000 57.7503 0.0000
# 6 0.0000 0.0000 0.0000 -2.2988 0.0000 17.5075
#
#
#
# Elastic Compliance Matrix: (Units=1/GPa)
#
#
# Indices 1 2 3 4 5 6 
#
# 1 0.008907 -0.001515 -0.002443 0.000000 0.000313 0.000000
# 2 -0.001515 0.019689 -0.002743 0.000000 -0.005115 0.000000
# 3 -0.002443 -0.002743 0.008611 0.000000 -0.003139 0.000000
# 4 0.000000 0.000000 0.000000 0.045162 0.000000 0.005930
# 5 0.000313 -0.005115 -0.003139 0.000000 0.020668 0.000000
# 6 0.000000 0.000000 0.000000 0.005930 0.000000 0.057897
#
#
# Mechanical properties :
#
#
# Convention : Reuss Voigt Hill
#
# Bulk Modulus (GPa) = 42.00681 59.24234 50.62458
# Shear Modulus (GPa) = 27.43156 35.75703 31.59429
#
# Velocity S-wave (km/s) = 3.40944 3.89259 3.65900
# Velocity P-wave (km/s) = 5.77059 6.73107 6.26925
#
# Compressibility (1/GPa) = 0.02380566
#
# Stress axis : x y z
#
# Youngs Moduli (GPa) = 112.26622 50.79022 116.12693
#
# Poissons Ratio (x) = 0.07696 0.28370
# Poissons Ratio (y) = 0.17011 0.31850
# Poissons Ratio (z) = 0.27427 0.13930
#
# Static dielectric constant tensor:
#      x y z
#    x 1.977750 0.000000 -0.001680 
#    y 0.000000 1.897610 0.000000 
#    z -0.001680 0.000000 1.910410 
# 
# From -- ./inp_files/9726.got.cif
#   From: 2010.05.17/outbox.cif.g08.bks.cpg/sg3_5_cif.got.tgz:9726.got - 2010.06.03 18:33:08.
