data_PCOD9113102
_publ_section_title
;
Structure prediction by ZEFSAII (Michael W. Deem and Ramdas Pophale) SiO2 
 PCOD9113102
Probable space group: P 2
;
_chemical_formula_sum "Si O2"
_cell_formula_units_Z 15
_cell_length_a 7.550034
_cell_length_b 5.888285
_cell_length_c 16.425546
_cell_angle_alpha 90.000000
_cell_angle_beta 123.963770
_cell_angle_gamma 90.000000
_cell_volume 605.643226
_symmetry_space_group_name_H-M "P 2"
_symmetry_group_IT_number 3
_symmetry_cell_setting 'monoclinic'
loop_
_space_group_symop_operation_xyz
x,y,z
-x,y,-z
loop_
_atom_site_type_symbol
_atom_site_label
_atom_site_fract_x
_atom_site_fract_y
_atom_site_fract_z
Si Si1 0.000000 0.406371 0.000000
Si Si2 0.757016 0.678481 0.823342
Si Si3 0.230458 0.088342 0.853101
Si Si4 0.750796 0.252135 0.412290
Si Si5 0.754519 0.759616 0.471170
Si Si6 0.698738 0.019247 0.945495
Si Si7 0.692153 0.476323 0.231435
Si Si8 0.903677 0.800752 0.687552
O O1 0.956347 0.529007 0.904297
O O2 0.781460 0.271516 0.953202
O O3 0.528613 0.582627 0.793730
O O4 0.774915 0.711467 0.732332
O O5 0.789912 0.891167 0.891557
O O6 0.448402 0.972987 0.878220
O O7 0.294408 0.349358 0.852060
O O8 0.015300 0.029654 0.749941
O O9 0.221184 0.990042 0.941718
O O10 0.674864 0.498848 0.431149
O O11 0.731668 0.285385 0.310850
O O12 0.000000 0.239586 0.500000
O O13 0.659275 0.999721 0.411066
O O14 0.000000 0.753085 0.500000
O O15 0.766382 0.803888 0.570867
O O16 0.890925 0.646887 0.282456
#
# Coordination Sequence:
#
# PCOD9113102 Si02
#       8
#     1   2   2   2   2   2   2   2
#     4  12  22  46  62  94 150 186 236 318 380 422
#     4  12  27  45  71 107 147 193 250 320 380 452
#     4  11  23  42  69  99 135 195 244 299 374 453
#     4  10  20  39  73 102 147 187 241 312 380 440
#     4  10  20  40  70 108 138 196 239 304 385 458
#     4  11  24  43  67  99 140 188 249 305 372 447
#     4  12  24  45  73 105 142 191 260 306 376 475
#     4  12  24  43  73 103 144 191 246 307 391 455
#
# _framework density 24.767057000000001
#
# number of rings (size 3 to 8) (size 9 to 14) (size 15 to 20)
#    0.000    0.800    5.333    4.400    0.000    0.000 
#    0.000    0.667    0.000    3.200    0.000    0.000 
#    0.000    0.000    0.000    0.000    0.000    0.000 
#
# Total GULP energy -83642.159184 kJ/mol
# GULP energy per Si atom -5576.143946 kJ/mol
# Density = 2.471069 g / cm^3
# Si number density = 24.767057 Si / 1000 Ang^3
#
#
#
# Elastic Constant Matrix: (Units=GPa)
#
#
# Indices 1 2 3 4 5 6 
#
# 1 119.8004 37.7542 41.0630 0.0000 -17.4614 0.0000
# 2 37.7542 101.7901 29.3461 0.0000 -7.7295 0.0000
# 3 41.0630 29.3461 101.9122 0.0000 -26.0356 0.0000
# 4 0.0000 0.0000 0.0000 31.3414 0.0000 -1.4293
# 5 -17.4614 -7.7295 -26.0356 0.0000 33.4298 0.0000
# 6 0.0000 0.0000 0.0000 -1.4293 0.0000 28.1942
#
#
#
# Elastic Compliance Matrix: (Units=1/GPa)
#
#
# Indices 1 2 3 4 5 6 
#
# 1 0.010608 -0.002940 -0.002729 0.000000 0.002736 0.000000
# 2 -0.002940 0.011529 -0.002305 0.000000 -0.000665 0.000000
# 3 -0.002729 -0.002305 0.013826 0.000000 0.008810 0.000000
# 4 0.000000 0.000000 0.000000 0.031981 0.000000 0.001621
# 5 0.002736 -0.000665 0.008810 0.000000 0.038050 0.000000
# 6 0.000000 0.000000 0.000000 0.001621 0.000000 0.035550
#
#
# Mechanical properties :
#
#
# Convention : Reuss Voigt Hill
#
# Bulk Modulus (GPa) = 49.96198 59.98101 54.97149
# Shear Modulus (GPa) = 30.45756 32.94903 31.70329
#
# Velocity S-wave (km/s) = 3.51060 3.65136 3.58167
# Velocity P-wave (km/s) = 6.05384 6.48438 6.27281
#
# Compressibility (1/GPa) = 0.02001522
#
# Stress axis : x y z
#
# Youngs Moduli (GPa) = 94.27044 86.74046 72.32638
#
# Poissons Ratio (x) = 0.25502 0.19735
# Poissons Ratio (y) = 0.27716 0.16672
# Poissons Ratio (z) = 0.25723 0.19994
#
# Static dielectric constant tensor:
#      x y z
#    x 1.928040 0.000000 0.036150 
#    y 0.000000 2.109540 0.000000 
#    z 0.036150 0.000000 1.987750 
# 
# From -- ./inp_files/13376.got.cif
#   From: 2010.05.17/outbox.cif.g08.bks.cpg/sg3_7_cif.got.tgz:13376.got - 2010.06.03 18:33:08.
