data_PCOD9113228
_publ_section_title
;
Structure prediction by ZEFSAII (Michael W. Deem and Ramdas Pophale) SiO2 
 PCOD9113228
Probable space group: P 2
;
_chemical_formula_sum "Si O2"
_cell_formula_units_Z 14
_cell_length_a 9.589802
_cell_length_b 7.265475
_cell_length_c 18.532742
_cell_angle_alpha 90.000000
_cell_angle_beta 23.582698
_cell_angle_gamma 90.000000
_cell_volume 516.596916
_symmetry_space_group_name_H-M "P 2"
_symmetry_group_IT_number 3
_symmetry_cell_setting 'monoclinic'
loop_
_space_group_symop_operation_xyz
x,y,z
-x,y,-z
loop_
_atom_site_type_symbol
_atom_site_label
_atom_site_fract_x
_atom_site_fract_y
_atom_site_fract_z
Si Si1 0.778842 0.379610 0.690215
Si Si2 0.879070 0.026643 0.287538
Si Si3 0.225451 0.368867 0.078472
Si Si4 0.023171 0.739770 0.645281
Si Si5 0.745035 0.470961 0.182578
Si Si6 0.685192 0.886357 0.239880
Si Si7 0.736124 0.983060 0.681227
O O1 0.628219 0.438561 0.681984
O O2 0.003259 0.532117 0.626882
O O3 0.918145 0.171727 0.617501
O O4 0.455359 0.348925 0.897889
O O5 0.500000 0.077367 0.500000
O O6 0.963632 0.825943 0.281637
O O7 0.914992 0.000750 0.184927
O O8 0.127923 0.201702 0.178917
O O9 0.854769 0.417846 0.213273
O O10 0.500000 0.484934 0.000000
O O11 0.361039 0.832652 0.447227
O O12 0.691624 0.842613 0.766658
O O13 0.805398 0.689617 0.157171
O O14 0.000000 0.394546 0.000000
O O15 0.589801 0.006622 0.215586
O O16 0.000000 0.884666 0.500000
#
# Coordination Sequence:
#
# PCOD9113228 Si02
#       7
#     2   2   2   2   2   2   2
#     4  11  23  41  69 102 140 180 234 289 353 418
#     4  10  23  46  69  97 143 190 239 291 356 427
#     4  11  25  46  65 102 138 181 242 289 358 425
#     4  10  22  42  66 102 141 178 233 291 345 423
#     4  10  23  41  63  96 139 176 230 288 343 424
#     4  10  21  41  66  98 137 189 232 282 362 415
#     4  10  21  36  66 101 132 180 229 284 349 411
#
# _framework density 27.100431
#
# number of rings (size 3 to 8) (size 9 to 14) (size 15 to 20)
#    0.000    1.714    1.429    1.714    4.000    1.143 
#    7.714    0.000    0.000    0.000    0.000    0.000 
#    0.000    0.000    0.000    0.000    0.000    0.000 
#
# Total GULP energy -77980.749165 kJ/mol
# GULP energy per Si atom -5570.053512 kJ/mol
# Density = 2.703875 g / cm^3
# Si number density = 27.100431 Si / 1000 Ang^3
#
#
#
# Elastic Constant Matrix: (Units=GPa)
#
#
# Indices 1 2 3 4 5 6 
#
# 1 183.4369 27.1905 4.6548 0.0000 -3.7956 0.0000
# 2 27.1905 121.4462 1.4889 0.0000 -2.9841 0.0000
# 3 4.6548 1.4889 62.7674 0.0000 -6.2006 0.0000
# 4 0.0000 0.0000 0.0000 29.3815 0.0000 0.4231
# 5 -3.7956 -2.9841 -6.2006 0.0000 29.2691 0.0000
# 6 0.0000 0.0000 0.0000 0.4231 0.0000 44.2376
#
#
#
# Elastic Compliance Matrix: (Units=1/GPa)
#
#
# Indices 1 2 3 4 5 6 
#
# 1 0.005656 -0.001249 -0.000337 0.000000 0.000535 0.000000
# 2 -0.001249 0.008531 -0.000041 0.000000 0.000699 0.000000
# 3 -0.000337 -0.000041 0.016294 0.000000 0.003404 0.000000
# 4 0.000000 0.000000 0.000000 0.034040 0.000000 -0.000326
# 5 0.000535 0.000699 0.003404 0.000000 0.035028 0.000000
# 6 0.000000 0.000000 0.000000 -0.000326 0.000000 0.022608
#
#
# Mechanical properties :
#
#
# Convention : Reuss Voigt Hill
#
# Bulk Modulus (GPa) = 36.72665 48.25767 42.49216
# Shear Modulus (GPa) = 37.17836 42.86540 40.02188
#
# Velocity S-wave (km/s) = 3.70790 3.98140 3.84708
# Velocity P-wave (km/s) = 5.64914 6.24348 5.95373
#
# Compressibility (1/GPa) = 0.02722818
#
# Stress axis : x y z
#
# Youngs Moduli (GPa) = 176.79604 117.21356 61.37204
#
# Poissons Ratio (x) = 0.14641 0.02068
# Poissons Ratio (y) = 0.22084 0.00250
# Poissons Ratio (z) = 0.05958 0.00477
#
# Static dielectric constant tensor:
#      x y z
#    x 2.397870 0.000000 -0.112920 
#    y 0.000000 2.107300 0.000000 
#    z -0.112920 0.000000 2.274130 
# 
# From -- ./inp_files/15028.got.cif
#   From: 2010.05.17/outbox.cif.g08.bks.cpg/sg3_8_cif.got.tgz:15028.got - 2010.06.03 18:33:08.
