data_PCOD9113055
_publ_section_title
;
Structure prediction by ZEFSAII (Michael W. Deem and Ramdas Pophale) SiO2 
 PCOD9113055
Probable space group: P 2
;
_chemical_formula_sum "Si O2"
_cell_formula_units_Z 14
_cell_length_a 8.582759
_cell_length_b 15.512376
_cell_length_c 9.683935
_cell_angle_alpha 90.000000
_cell_angle_beta 149.665813
_cell_angle_gamma 90.000000
_cell_volume 651.156238
_symmetry_space_group_name_H-M "P 2"
_symmetry_group_IT_number 3
_symmetry_cell_setting 'monoclinic'
loop_
_space_group_symop_operation_xyz
x,y,z
-x,y,-z
loop_
_atom_site_type_symbol
_atom_site_label
_atom_site_fract_x
_atom_site_fract_y
_atom_site_fract_z
Si Si1 0.027146 0.071580 0.854618
Si Si2 0.096575 0.233314 0.421484
Si Si3 0.690137 0.994508 0.359143
Si Si4 0.397251 0.358287 0.069211
Si Si5 0.220817 0.631772 0.537367
Si Si6 0.641552 0.805031 0.255296
Si Si7 0.837489 0.533121 0.019211
O O1 0.867201 0.155161 0.658520
O O2 0.831024 0.999607 0.621622
O O3 0.000000 0.072257 0.000000
O O4 0.397486 0.058889 0.108695
O O5 0.342377 0.311165 0.638110
O O6 0.000000 0.200631 0.500000
O O7 0.803796 0.279215 0.133698
O O8 0.538102 0.900232 0.218685
O O9 0.000000 0.006643 0.500000
O O10 0.500000 0.398618 0.000000
O O11 0.183889 0.430888 0.972562
O O12 0.375333 0.726600 0.649483
O O13 0.000000 0.634456 0.500000
O O14 0.015967 0.595361 0.258987
O O15 0.486515 0.562493 0.756931
O O16 0.000000 0.818456 0.500000
O O17 0.500000 0.777894 0.000000
O O18 0.000000 0.547787 0.000000
#
# Coordination Sequence:
#
# PCOD9113055 Si02
#       7
#     2   2   2   2   2   2   2
#     4  12  25  42  63  97 136 170 212 269 336 396
#     4  10  22  40  65  91 119 160 216 267 315 377
#     4  11  23  42  68  94 127 174 224 272 322 386
#     4  10  21  40  65  91 118 160 215 266 313 377
#     4  11  22  41  67  93 125 170 221 267 315 382
#     4  10  20  38  65  98 125 164 227 280 316 370
#     4  12  25  41  62  96 135 168 207 263 333 394
#
# _framework density 21.500216999999999
#
# number of rings (size 3 to 8) (size 9 to 14) (size 15 to 20)
#    0.000    1.143    0.000    8.143    0.000    4.000 
#    0.000    5.714    0.000    0.000    0.000    0.000 
#    0.000    0.000    0.000    0.000    0.000    0.000 
#
# Total GULP energy -78023.696846 kJ/mol
# GULP energy per Si atom -5573.121203 kJ/mol
# Density = 2.145128 g / cm^3
# Si number density = 21.500217 Si / 1000 Ang^3
#
#
#
# Elastic Constant Matrix: (Units=GPa)
#
#
# Indices 1 2 3 4 5 6 
#
# 1 83.4856 29.6405 16.8222 0.0000 -18.1082 0.0000
# 2 29.6405 97.9214 26.1533 0.0000 -24.3890 0.0000
# 3 16.8222 26.1533 123.9648 0.0000 -11.7389 0.0000
# 4 0.0000 0.0000 0.0000 11.3329 0.0000 -25.6592
# 5 -18.1082 -24.3890 -11.7389 0.0000 34.0707 0.0000
# 6 0.0000 0.0000 0.0000 -25.6592 0.0000 182.7277
#
#
#
# Elastic Compliance Matrix: (Units=1/GPa)
#
#
# Indices 1 2 3 4 5 6 
#
# 1 0.014287 -0.002774 -0.000850 0.000000 0.005315 0.000000
# 2 -0.002774 0.013386 -0.001737 0.000000 0.007510 0.000000
# 3 -0.000850 -0.001737 0.008671 0.000000 0.001293 0.000000
# 4 0.000000 0.000000 0.000000 0.129370 0.000000 0.018167
# 5 0.005315 0.007510 0.001293 0.000000 0.037997 0.000000
# 6 0.000000 0.000000 0.000000 0.018167 0.000000 0.008024
#
#
# Mechanical properties :
#
#
# Convention : Reuss Voigt Hill
#
# Bulk Modulus (GPa) = 39.02770 50.06710 44.54740
# Shear Modulus (GPa) = 21.64534 61.14332 41.39433
#
# Velocity S-wave (km/s) = 3.17637 5.33856 4.39258
# Velocity P-wave (km/s) = 5.62531 7.83183 6.81842
#
# Compressibility (1/GPa) = 0.02562283
#
# Stress axis : x y z
#
# Youngs Moduli (GPa) = 69.99338 74.70431 115.32754
#
# Poissons Ratio (x) = 0.20721 0.09806
# Poissons Ratio (y) = 0.19415 0.20027
# Poissons Ratio (z) = 0.05951 0.12973
#
# Static dielectric constant tensor:
#      x y z
#    x 1.190500 0.000000 -0.160160 
#    y 0.000000 1.894950 0.000000 
#    z -0.160160 0.000000 1.728160 
# 
# From -- ./inp_files/6243.got.cif
#   From: 2010.05.17/outbox.cif.g08.bks.cpg/sg3_4_cif.got.tgz:6243.got - 2010.06.03 18:33:08.
