data_PCOD9113407
_publ_section_title
;
Structure prediction by ZEFSAII (Michael W. Deem and Ramdas Pophale) SiO2 
 PCOD9113407
Probable space group: P 2
;
_chemical_formula_sum "Si O2"
_cell_formula_units_Z 16
_cell_length_a 23.453009
_cell_length_b 5.295948
_cell_length_c 9.737888
_cell_angle_alpha 90.000000
_cell_angle_beta 38.926680
_cell_angle_gamma 90.000000
_cell_volume 759.961622
_symmetry_space_group_name_H-M "P 2"
_symmetry_group_IT_number 3
_symmetry_cell_setting 'monoclinic'
loop_
_space_group_symop_operation_xyz
x,y,z
-x,y,-z
loop_
_atom_site_type_symbol
_atom_site_label
_atom_site_fract_x
_atom_site_fract_y
_atom_site_fract_z
Si Si1 0.737805 0.837820 0.468668
Si Si2 0.297443 0.206167 0.678221
Si Si3 0.570211 0.518238 0.754897
Si Si4 0.549664 0.659039 0.263823
Si Si5 0.660971 0.163249 0.084235
Si Si6 0.816385 0.973183 0.595179
Si Si7 0.078577 0.446388 0.656942
Si Si8 0.119588 0.476191 0.891451
O O1 0.656535 0.652439 0.665736
O O2 0.759071 0.009180 0.560067
O O3 0.835924 0.736798 0.240323
O O4 0.703672 0.931356 0.385322
O O5 0.380215 0.326710 0.439704
O O6 0.310216 0.218589 0.814191
O O7 0.202065 0.330144 0.809181
O O8 0.511591 0.681480 0.757565
O O9 0.500000 0.417787 0.000000
O O10 0.500000 0.583770 0.500000
O O11 0.620838 0.428525 0.103152
O O12 0.589069 0.936181 0.217240
O O13 0.744670 0.038139 0.846766
O O14 0.861174 0.691569 0.500745
O O15 0.892133 0.189044 0.470795
O O16 0.095436 0.374113 0.785651
O O17 0.971373 0.501423 0.850422
#
# Coordination Sequence:
#
# PCOD9113407 Si02
#       8
#     2   2   2   2   2   2   2   2
#     4  10  22  40  66  95 129 169 220 271 335 383
#     4  11  23  42  64  94 128 177 216 266 331 393
#     4  11  25  41  65  98 132 169 225 283 328 383
#     4  12  25  46  65  96 126 178 224 268 320 397
#     4  12  27  43  68  89 140 175 220 266 327 393
#     4  11  23  42  66  99 131 174 213 270 328 389
#     4  10  21  40  69 102 130 165 222 266 328 388
#     4   9  21  38  68  98 131 167 212 278 321 392
#
# _framework density 21.053697
#
# number of rings (size 3 to 8) (size 9 to 14) (size 15 to 20)
#    0.000    1.250    2.500    2.625    7.000    1.500 
#    0.000    0.625    0.000    0.000    0.000    0.000 
#    0.000    0.000    0.000    0.000    0.000    0.000 
#
# Total GULP energy -89140.247553 kJ/mol
# GULP energy per Si atom -5571.265472 kJ/mol
# Density = 2.100578 g / cm^3
# Si number density = 21.053697 Si / 1000 Ang^3
#
#
#
# Elastic Constant Matrix: (Units=GPa)
#
#
# Indices 1 2 3 4 5 6 
#
# 1 73.8792 9.3443 35.3197 0.0000 -0.5198 0.0000
# 2 9.3443 61.0346 14.7591 0.0000 -4.7912 0.0000
# 3 35.3197 14.7591 120.3559 0.0000 -4.2286 0.0000
# 4 0.0000 0.0000 0.0000 7.9002 0.0000 5.7237
# 5 -0.5198 -4.7912 -4.2286 0.0000 17.2983 0.0000
# 6 0.0000 0.0000 0.0000 5.7237 0.0000 13.0163
#
#
#
# Elastic Compliance Matrix: (Units=1/GPa)
#
#
# Indices 1 2 3 4 5 6 
#
# 1 0.015868 -0.001417 -0.004519 0.000000 -0.001020 0.000000
# 2 -0.001417 0.017320 -0.001555 0.000000 0.004375 0.000000
# 3 -0.004519 -0.001555 0.009890 0.000000 0.001851 0.000000
# 4 0.000000 0.000000 0.000000 0.185758 0.000000 -0.081684
# 5 -0.001020 0.004375 0.001851 0.000000 0.059443 0.000000
# 6 0.000000 0.000000 0.000000 -0.081684 0.000000 0.112746
#
#
# Mechanical properties :
#
#
# Convention : Reuss Voigt Hill
#
# Bulk Modulus (GPa) = 35.58876 41.56843 38.57860
# Shear Modulus (GPa) = 11.75445 20.69942 16.22694
#
# Velocity S-wave (km/s) = 2.36542 3.13896 2.77923
# Velocity P-wave (km/s) = 4.93971 5.73797 5.35374
#
# Compressibility (1/GPa) = 0.02809876
#
# Stress axis : x y z
#
# Youngs Moduli (GPa) = 63.02035 57.73549 101.10791
#
# Poissons Ratio (x) = 0.08180 0.45688
# Poissons Ratio (y) = 0.08928 0.15717
# Poissons Ratio (z) = 0.28477 0.08975
#
# Static dielectric constant tensor:
#      x y z
#    x 1.858600 0.000000 -0.055460 
#    y 0.000000 1.874370 0.000000 
#    z -0.055460 0.000000 1.776940 
# 
# From -- ./inp_files/9338.got.cif
#   From: 2010.05.17/outbox.cif.g08.bks.cpg/sg3_5_cif.got.tgz:9338.got - 2010.06.03 18:33:08.
