data_PCOD9113365
_publ_section_title
;
Structure prediction by ZEFSAII (Michael W. Deem and Ramdas Pophale) SiO2 
 PCOD9113365
Probable space group: P 2
;
_chemical_formula_sum "Si O2"
_cell_formula_units_Z 14
_cell_length_a 5.148826
_cell_length_b 5.352517
_cell_length_c 20.380151
_cell_angle_alpha 90.000000
_cell_angle_beta 72.598373
_cell_angle_gamma 90.000000
_cell_volume 535.954066
_symmetry_space_group_name_H-M "P 2"
_symmetry_group_IT_number 3
_symmetry_cell_setting 'monoclinic'
loop_
_space_group_symop_operation_xyz
x,y,z
-x,y,-z
loop_
_atom_site_type_symbol
_atom_site_label
_atom_site_fract_x
_atom_site_fract_y
_atom_site_fract_z
Si Si1 0.011773 0.329750 0.801570
Si Si2 0.313101 0.056238 0.952104
Si Si3 0.448455 0.051875 0.241022
Si Si4 0.480687 0.541884 0.694053
Si Si5 0.805627 0.177275 0.450800
Si Si6 0.029844 0.680265 0.419634
Si Si7 0.173374 0.559732 0.920096
O O1 0.242506 0.123284 0.799518
O O2 0.160989 0.504081 0.735163
O O3 0.997470 0.490469 0.869532
O O4 0.763385 0.169950 0.793757
O O5 0.332342 0.818712 0.903487
O O6 0.370675 0.327776 0.918907
O O7 0.500000 0.007479 0.000000
O O8 0.000000 0.077437 0.000000
O O9 0.413276 0.255849 0.303715
O O10 0.428554 0.760780 0.260782
O O11 0.653575 0.640694 0.619813
O O12 0.500000 0.150917 0.500000
O O13 0.857294 0.438994 0.411010
O O14 0.000000 0.192456 0.500000
O O15 0.901642 0.936627 0.402608
O O16 0.000000 0.699197 0.500000
O O17 0.000000 0.585376 0.000000
#
# Coordination Sequence:
#
# PCOD9113365 Si02
#       7
#     2   2   2   2   2   2   2
#     4  10  26  45  70  99 138 184 230 285 346 415
#     4  10  22  39  60  92 129 166 209 266 331 389
#     4  10  25  43  69  98 134 183 232 281 345 415
#     4  10  24  46  67 102 135 183 231 285 343 422
#     4  10  21  40  59  93 128 165 207 264 328 391
#     4  10  21  43  67  99 131 174 221 280 337 399
#     4  10  23  42  67  99 132 174 223 280 337 400
#
# _framework density 26.121638000000001
#
# number of rings (size 3 to 8) (size 9 to 14) (size 15 to 20)
#    0.857    1.143    0.000    1.714    4.000    4.571 
#   15.429    0.000    0.000    0.000    0.000    0.000 
#    0.000    0.000    0.000    0.000    0.000    0.000 
#
# Total GULP energy -78149.727168 kJ/mol
# GULP energy per Si atom -5582.123369 kJ/mol
# Density = 2.606218 g / cm^3
# Si number density = 26.121638 Si / 1000 Ang^3
#
#
#
# Elastic Constant Matrix: (Units=GPa)
#
#
# Indices 1 2 3 4 5 6 
#
# 1 141.4425 15.5614 5.1358 0.0000 -9.1090 0.0000
# 2 15.5614 212.3469 -13.7889 0.0000 -7.5727 0.0000
# 3 5.1358 -13.7889 79.8026 0.0000 -20.6856 0.0000
# 4 0.0000 0.0000 0.0000 31.0015 0.0000 1.9840
# 5 -9.1090 -7.5727 -20.6856 0.0000 29.4347 0.0000
# 6 0.0000 0.0000 0.0000 1.9840 0.0000 26.7240
#
#
#
# Elastic Compliance Matrix: (Units=1/GPa)
#
#
# Indices 1 2 3 4 5 6 
#
# 1 0.007257 -0.000455 0.000007 0.000000 0.002134 0.000000
# 2 -0.000455 0.004911 0.001429 0.000000 0.002127 0.000000
# 3 0.000007 0.001429 0.015741 0.000000 0.011432 0.000000
# 4 0.000000 0.000000 0.000000 0.032410 0.000000 -0.002406
# 5 0.002134 0.002127 0.011432 0.000000 0.043215 0.000000
# 6 0.000000 0.000000 0.000000 -0.002406 0.000000 0.037598
#
#
# Mechanical properties :
#
#
# Convention : Reuss Voigt Hill
#
# Bulk Modulus (GPa) = 33.47597 49.71207 41.59402
# Shear Modulus (GPa) = 33.52835 45.87762 39.70298
#
# Velocity S-wave (km/s) = 3.58655 4.19538 3.90285
# Velocity P-wave (km/s) = 5.47671 6.52231 6.02225
#
# Compressibility (1/GPa) = 0.02987218
#
# Stress axis : x y z
#
# Youngs Moduli (GPa) = 137.79318 203.61178 63.52958
#
# Poissons Ratio (x) = 0.09269 -0.00047
# Poissons Ratio (y) = 0.06273 -0.09080
# Poissons Ratio (z) = -0.00102 -0.29102
#
# Static dielectric constant tensor:
#      x y z
#    x 1.975210 0.000000 -0.060560 
#    y 0.000000 2.152630 0.000000 
#    z -0.060560 0.000000 2.080920 
# 
# From -- ./inp_files/14567.got.cif
#   From: 2010.05.17/outbox.cif.g08.bks.cpg/sg3_8_cif.got.tgz:14567.got - 2010.06.03 18:33:08.
