data_PCOD9113259
_publ_section_title
;
Structure prediction by ZEFSAII (Michael W. Deem and Ramdas Pophale) SiO2 
 PCOD9113259
Probable space group: P 2
;
_chemical_formula_sum "Si O2"
_cell_formula_units_Z 13
_cell_length_a 11.169400
_cell_length_b 5.054375
_cell_length_c 9.179630
_cell_angle_alpha 90.000000
_cell_angle_beta 93.587759
_cell_angle_gamma 90.000000
_cell_volume 517.214249
_symmetry_space_group_name_H-M "P 2"
_symmetry_group_IT_number 3
_symmetry_cell_setting 'monoclinic'
loop_
_space_group_symop_operation_xyz
x,y,z
-x,y,-z
loop_
_atom_site_type_symbol
_atom_site_label
_atom_site_fract_x
_atom_site_fract_y
_atom_site_fract_z
Si Si1 0.617569 0.223430 0.055601
Si Si2 0.500000 0.536484 0.500000
Si Si3 0.243107 0.897964 0.134814
Si Si4 0.171544 0.581740 0.873553
Si Si5 0.117951 0.297367 0.584577
Si Si6 0.334542 0.919621 0.675278
Si Si7 0.264506 0.395971 0.338542
O O1 0.748724 0.350629 0.051229
O O2 0.600934 0.136803 0.219841
O O3 0.500000 0.379626 0.000000
O O4 0.637609 0.981715 0.945723
O O5 0.398716 0.360292 0.412929
O O6 0.422208 0.738348 0.591426
O O7 0.270912 0.645183 0.233906
O O8 0.217997 0.140469 0.244581
O O9 0.146570 0.787168 0.004708
O O10 0.092943 0.438636 0.739831
O O11 0.268678 0.729882 0.783513
O O12 0.222155 0.078460 0.600788
O O13 0.176782 0.480936 0.464630
O O14 0.000000 0.186406 0.500000
#
# Coordination Sequence:
#
# PCOD9113259 Si02
#       7
#     2   1   2   2   2   2   2
#     4  10  21  37  68 100 148 200 247 293 381 463
#     4  12  24  44  70 114 164 190 254 324 396 468
#     4  11  24  45  69 103 153 186 255 310 378 459
#     4  10  22  46  71 105 149 205 253 312 384 465
#     4  11  26  50  78 108 149 206 271 318 380 462
#     4  10  23  43  70 108 148 203 247 316 383 455
#     4  12  26  44  75 113 146 199 245 322 385 447
#
# _framework density 25.134651000000002
#
# number of rings (size 3 to 8) (size 9 to 14) (size 15 to 20)
#    0.000    1.231    3.077    1.846    2.154    5.538 
#    0.000    0.769    6.769    0.000    0.000    0.000 
#    0.000    0.000    0.000    0.000    0.000    0.000 
#
# Total GULP energy -72515.141791 kJ/mol
# GULP energy per Si atom -5578.087830 kJ/mol
# Density = 2.507744 g / cm^3
# Si number density = 25.134651 Si / 1000 Ang^3
#
#
#
# Elastic Constant Matrix: (Units=GPa)
#
#
# Indices 1 2 3 4 5 6 
#
# 1 69.9209 7.6498 37.3005 0.0000 27.1425 0.0000
# 2 7.6498 101.3047 41.8061 0.0000 10.5865 0.0000
# 3 37.3005 41.8061 134.1426 0.0000 20.6804 0.0000
# 4 0.0000 0.0000 0.0000 2.0324 0.0000 13.8189
# 5 27.1425 10.5865 20.6804 0.0000 30.4961 0.0000
# 6 0.0000 0.0000 0.0000 13.8189 0.0000 -1.3539
#
#
#
# Elastic Compliance Matrix: (Units=1/GPa)
#
#
# Indices 1 2 3 4 5 6 
#
# 1 0.023699 0.001952 -0.004290 0.000000 -0.018861 0.000000
# 2 0.001952 0.011570 -0.003642 0.000000 -0.003284 0.000000
# 3 -0.004290 -0.003642 0.010050 0.000000 -0.001732 0.000000
# 4 0.000000 0.000000 0.000000 0.006989 0.000000 0.071337
# 5 -0.018861 -0.003284 -0.001732 0.000000 0.051892 0.000000
# 6 0.000000 0.000000 0.000000 0.071337 0.000000 -0.010492
#
#
# Mechanical properties :
#
#
# Convention : Reuss Voigt Hill
#
# Bulk Modulus (GPa) = 29.97864 53.20899 41.59382
# Shear Modulus (GPa) = 42.81221 20.80904 31.81063
#
# Velocity S-wave (km/s) = 4.13160 2.88045 3.56140
# Velocity P-wave (km/s) = 5.89180 5.68139 5.78755
#
# Compressibility (1/GPa) = 0.03335708
#
# Stress axis : x y z
#
# Youngs Moduli (GPa) = 42.19647 86.42963 99.50261
#
# Poissons Ratio (x) = -0.16871 0.42691
# Poissons Ratio (y) = -0.08237 0.36243
# Poissons Ratio (z) = 0.18104 0.31481
#
# Static dielectric constant tensor:
#      x y z
#    x 2.016160 0.000000 0.069870 
#    y 0.000000 2.233340 0.000000 
#    z 0.069870 0.000000 2.395310 
# 
# From -- ./inp_files/6710.got.cif
#   From: 2010.05.17/outbox.cif.g08.bks.cpg/sg3_4_cif.got.tgz:6710.got - 2010.06.03 18:33:08.
