data_PCOD9113996
_publ_section_title
;
Structure prediction by ZEFSAII (Michael W. Deem and Ramdas Pophale) SiO2 
 PCOD9113996
Probable space group: P 2
;
_chemical_formula_sum "Si O2"
_cell_formula_units_Z 12
_cell_length_a 13.553207
_cell_length_b 7.236142
_cell_length_c 7.229671
_cell_angle_alpha 90.000000
_cell_angle_beta 136.866369
_cell_angle_gamma 90.000000
_cell_volume 484.768832
_symmetry_space_group_name_H-M "P 2"
_symmetry_group_IT_number 3
_symmetry_cell_setting 'monoclinic'
loop_
_space_group_symop_operation_xyz
x,y,z
-x,y,-z
loop_
_atom_site_type_symbol
_atom_site_label
_atom_site_fract_x
_atom_site_fract_y
_atom_site_fract_z
Si Si1 0.171880 0.890070 0.846602
Si Si2 0.500000 0.352267 0.500000
Si Si3 0.726115 0.083351 0.645198
Si Si4 0.102424 0.812556 0.297278
Si Si5 0.000000 0.222072 0.500000
Si Si6 0.857086 0.400399 0.611027
Si Si7 0.370339 0.561821 0.967938
O O1 0.015254 0.812376 0.700904
O O2 0.134225 0.081218 0.690443
O O3 0.266774 0.737429 0.872220
O O4 0.252655 0.963617 0.140471
O O5 0.588355 0.209882 0.492046
O O6 0.420288 0.479654 0.235750
O O7 0.834753 0.245924 0.732303
O O8 0.753053 0.933785 0.519252
O O9 0.137480 0.603049 0.296803
O O10 0.000000 0.898403 0.000000
O O11 0.007143 0.345949 0.329045
O O12 0.728277 0.418290 0.283528
O O13 0.500000 0.605359 0.000000
#
# Coordination Sequence:
#
# PCOD9113996 Si02
#       7
#     2   1   2   2   1   2   2
#     4  11  25  47  73 118 153 201 261 324 397 465
#     4  12  28  54  80 110 158 210 276 324 394 468
#     4  11  26  47  76 110 153 203 267 320 388 464
#     4  10  24  43  78 114 154 199 252 320 399 470
#     4  12  24  44  74 110 160 202 262 324 402 462
#     4  12  25  46  78 111 158 206 261 326 388 475
#     4  12  28  51  80 114 158 216 268 324 395 474
#
# _framework density 24.754066000000002
#
# number of rings (size 3 to 8) (size 9 to 14) (size 15 to 20)
#    0.000    0.667    3.333    3.000    7.000    2.000 
#    0.000    0.000    0.000    0.000    0.000    0.000 
#    0.000    0.000    0.000    0.000    0.000    0.000 
#
# Total GULP energy -66944.816570 kJ/mol
# GULP energy per Si atom -5578.734714 kJ/mol
# Density = 2.469772 g / cm^3
# Si number density = 24.754066 Si / 1000 Ang^3
#
#
#
# Elastic Constant Matrix: (Units=GPa)
#
#
# Indices 1 2 3 4 5 6 
#
# 1 145.4037 77.7819 30.1546 0.0000 3.2654 0.0000
# 2 77.7819 189.7062 23.7386 0.0000 23.3544 0.0000
# 3 30.1546 23.7386 91.6645 0.0000 -12.1254 0.0000
# 4 0.0000 0.0000 0.0000 21.0038 0.0000 -13.8683
# 5 3.2654 23.3544 -12.1254 0.0000 28.4694 0.0000
# 6 0.0000 0.0000 0.0000 -13.8683 0.0000 37.0271
#
#
#
# Elastic Compliance Matrix: (Units=1/GPa)
#
#
# Indices 1 2 3 4 5 6 
#
# 1 0.009220 -0.003679 -0.001930 0.000000 0.001139 0.000000
# 2 -0.003679 0.007820 -0.001704 0.000000 -0.006719 0.000000
# 3 -0.001930 -0.001704 0.012928 0.000000 0.007125 0.000000
# 4 0.000000 0.000000 0.000000 0.063253 0.000000 0.023691
# 5 0.001139 -0.006719 0.007125 0.000000 0.043541 0.000000
# 6 0.000000 0.000000 0.000000 0.023691 0.000000 0.035881
#
#
# Mechanical properties :
#
#
# Convention : Reuss Voigt Hill
#
# Bulk Modulus (GPa) = 65.17548 76.68051 70.92799
# Shear Modulus (GPa) = 25.98993 36.97333 31.48163
#
# Velocity S-wave (km/s) = 3.24377 3.86894 3.57007
# Velocity P-wave (km/s) = 6.35734 7.14160 6.76085
#
# Compressibility (1/GPa) = 0.01534319
#
# Stress axis : x y z
#
# Youngs Moduli (GPa) = 108.45878 127.87605 77.35235
#
# Poissons Ratio (x) = 0.47046 0.14927
# Poissons Ratio (y) = 0.39903 0.13178
# Poissons Ratio (z) = 0.20929 0.21785
#
# Static dielectric constant tensor:
#      x y z
#    x 2.216490 0.000000 -0.089340 
#    y 0.000000 1.913580 0.000000 
#    z -0.089340 0.000000 2.123110 
# 
# From -- ./inp_files/8027.got.cif
#   From: 2010.05.17/outbox.cif.g08.bks.cpg/sg3_5_cif.got.tgz:8027.got - 2010.06.03 18:33:08.
