data_PCOD9113291
_publ_section_title
;
Structure prediction by ZEFSAII (Michael W. Deem and Ramdas Pophale) SiO2 
 PCOD9113291
Probable space group: P 2
;
_chemical_formula_sum "Si O2"
_cell_formula_units_Z 15
_cell_length_a 19.924984
_cell_length_b 6.786570
_cell_length_c 7.068466
_cell_angle_alpha 90.000000
_cell_angle_beta 127.676360
_cell_angle_gamma 90.000000
_cell_volume 756.503805
_symmetry_space_group_name_H-M "P 2"
_symmetry_group_IT_number 3
_symmetry_cell_setting 'monoclinic'
loop_
_space_group_symop_operation_xyz
x,y,z
-x,y,-z
loop_
_atom_site_type_symbol
_atom_site_label
_atom_site_fract_x
_atom_site_fract_y
_atom_site_fract_z
Si Si1 0.813996 0.678170 0.052598
Si Si2 0.122386 0.007508 0.105769
Si Si3 0.915951 0.290208 0.258047
Si Si4 0.500000 0.075485 0.500000
Si Si5 0.551902 0.380720 0.278058
Si Si6 0.699995 0.088137 0.446884
Si Si7 0.163076 0.977123 0.589975
Si Si8 0.628538 0.767378 0.578995
O O1 0.869318 0.810477 0.002525
O O2 0.848674 0.459861 0.108642
O O3 0.825965 0.774848 0.279280
O O4 0.716471 0.698184 0.822677
O O5 0.890585 0.959857 0.696491
O O6 0.066538 0.169016 0.904037
O O7 0.218535 0.098699 0.273111
O O8 0.000000 0.374142 0.500000
O O9 0.878387 0.130462 0.338765
O O10 0.579833 0.927720 0.623531
O O11 0.503789 0.220018 0.325910
O O12 0.572972 0.577863 0.430376
O O13 0.639176 0.272715 0.366216
O O14 0.500000 0.426118 0.000000
O O15 0.745600 0.057017 0.324753
O O16 0.651162 0.891005 0.427909
#
# Coordination Sequence:
#
# PCOD9113291 Si02
#       8
#     2   2   2   1   2   2   2   2
#     4  10  21  38  64  90 119 159 205 253 300 364
#     4   8  19  41  61  82 118 158 199 248 298 359
#     4  11  23  38  60  94 127 154 198 256 310 364
#     4  10  24  42  54  86 124 162 208 254 306 350
#     4  11  23  39  61  88 121 164 202 255 309 362
#     4   8  19  40  63  83 116 154 212 249 294 360
#     4   9  21  41  63  89 112 165 203 244 304 361
#     4  10  21  41  62  88 124 162 206 257 304 357
#
# _framework density 19.828057000000001
#
# number of rings (size 3 to 8) (size 9 to 14) (size 15 to 20)
#    0.800    1.600    0.000    1.200    1.867    8.000 
#    4.800    0.000    0.000    0.000    0.000    0.000 
#    0.000    0.000    0.000    0.000    0.000    0.000 
#
# Total GULP energy -83620.240301 kJ/mol
# GULP energy per Si atom -5574.682687 kJ/mol
# Density = 1.978293 g / cm^3
# Si number density = 19.828057 Si / 1000 Ang^3
#
#
#
# Elastic Constant Matrix: (Units=GPa)
#
#
# Indices 1 2 3 4 5 6 
#
# 1 66.8527 22.6453 15.2387 0.0000 -13.8819 0.0000
# 2 22.6453 93.9919 48.3214 0.0000 -10.5244 0.0000
# 3 15.2387 48.3214 77.2859 0.0000 -18.6442 0.0000
# 4 0.0000 0.0000 0.0000 23.1393 0.0000 0.6697
# 5 -13.8819 -10.5244 -18.6442 0.0000 33.1689 0.0000
# 6 0.0000 0.0000 0.0000 0.6697 0.0000 14.7927
#
#
#
# Elastic Compliance Matrix: (Units=1/GPa)
#
#
# Indices 1 2 3 4 5 6 
#
# 1 0.017438 -0.003699 0.000407 0.000000 0.006353 0.000000
# 2 -0.003699 0.016475 -0.010046 0.000000 -0.001968 0.000000
# 3 0.000407 -0.010046 0.021300 0.000000 0.008956 0.000000
# 4 0.000000 0.000000 0.000000 0.043273 0.000000 -0.001959
# 5 0.006353 -0.001968 0.008956 0.000000 0.037217 0.000000
# 6 0.000000 0.000000 0.000000 -0.001959 0.000000 0.067690
#
#
# Mechanical properties :
#
#
# Convention : Reuss Voigt Hill
#
# Bulk Modulus (GPa) = 35.04218 45.61567 40.32892
# Shear Modulus (GPa) = 20.86985 24.34854 22.60920
#
# Velocity S-wave (km/s) = 3.24781 3.50806 3.38044
# Velocity P-wave (km/s) = 5.63700 6.28206 5.96825
#
# Compressibility (1/GPa) = 0.02853704
#
# Stress axis : x y z
#
# Youngs Moduli (GPa) = 57.34695 60.69935 46.94844
#
# Poissons Ratio (x) = 0.22454 -0.01912
# Poissons Ratio (y) = 0.21214 0.47163
# Poissons Ratio (z) = -0.02335 0.60977
#
# Static dielectric constant tensor:
#      x y z
#    x 1.716770 0.000000 0.009680 
#    y 0.000000 1.656740 0.000000 
#    z 0.009680 0.000000 1.713820 
# 
# From -- ./inp_files/9395.got.cif
#   From: 2010.05.17/outbox.cif.g08.bks.cpg/sg3_5_cif.got.tgz:9395.got - 2010.06.03 18:33:08.
