data_PCOD9113998
_publ_section_title
;
Structure prediction by ZEFSAII (Michael W. Deem and Ramdas Pophale) SiO2 
 PCOD9113998
Probable space group: P 2
;
_chemical_formula_sum "Si O2"
_cell_formula_units_Z 14
_cell_length_a 15.870996
_cell_length_b 5.119520
_cell_length_c 23.143124
_cell_angle_alpha 90.000000
_cell_angle_beta 160.604948
_cell_angle_gamma 90.000000
_cell_volume 624.450049
_symmetry_space_group_name_H-M "P 2"
_symmetry_group_IT_number 3
_symmetry_cell_setting 'monoclinic'
loop_
_space_group_symop_operation_xyz
x,y,z
-x,y,-z
loop_
_atom_site_type_symbol
_atom_site_label
_atom_site_fract_x
_atom_site_fract_y
_atom_site_fract_z
Si Si1 0.760415 0.084660 0.886396
Si Si2 0.602861 0.613746 0.850514
Si Si3 0.938291 0.454640 0.523338
Si Si4 0.906520 0.511613 0.154173
Si Si5 0.778479 0.670714 0.193431
Si Si6 0.750920 0.062678 0.500461
Si Si7 0.235653 0.040702 0.361634
O O1 0.690110 0.362899 0.869196
O O2 0.526362 0.969647 0.697361
O O3 0.771952 0.862234 0.942334
O O4 0.000000 0.108434 0.000000
O O5 0.299494 0.648524 0.643895
O O6 0.666875 0.562678 0.958436
O O7 0.829247 0.259645 0.500785
O O8 0.000000 0.341080 0.500000
O O9 0.179806 0.562675 0.714904
O O10 0.046521 0.263136 0.216898
O O11 0.822897 0.476835 0.167297
O O12 0.093535 0.762466 0.272623
O O13 0.500000 0.784283 0.000000
O O14 0.015398 0.865708 0.343859
O O15 0.710371 0.155713 0.539369
O O16 0.500000 0.016922 0.500000
#
# Coordination Sequence:
#
# PCOD9113998 Si02
#       7
#     2   2   2   2   2   2   2
#     4  11  24  43  70  98 141 184 228 283 348 403
#     4  11  24  44  66 104 136 176 236 283 333 421
#     4  11  23  45  69  98 135 184 226 289 349 404
#     4  11  24  44  66 104 136 176 236 283 333 421
#     4  11  23  45  69  98 135 184 226 289 349 404
#     4  10  24  44  66 102 140 176 238 286 330 426
#     4  11  24  43  70  98 141 184 228 283 348 403
#
# _framework density 22.419730000000001
#
# number of rings (size 3 to 8) (size 9 to 14) (size 15 to 20)
#    0.000    1.143    2.857    2.571    4.000    1.143 
#   10.286    0.000    0.000    0.000    0.000    0.000 
#    0.000    0.000    0.000    0.000    0.000    0.000 
#
# Total GULP energy -78068.715800 kJ/mol
# GULP energy per Si atom -5576.336843 kJ/mol
# Density = 2.236870 g / cm^3
# Si number density = 22.419730 Si / 1000 Ang^3
#
#
#
# Elastic Constant Matrix: (Units=GPa)
#
#
# Indices 1 2 3 4 5 6 
#
# 1 122.9736 13.3220 74.4619 0.0000 -2.0850 0.0000
# 2 13.3220 71.5040 7.6559 0.0000 7.1892 0.0000
# 3 74.4619 7.6559 135.6689 0.0000 -13.9787 0.0000
# 4 0.0000 0.0000 0.0000 -16.8709 0.0000 -61.8725
# 5 -2.0850 7.1892 -13.9787 0.0000 40.1490 0.0000
# 6 0.0000 0.0000 0.0000 -61.8725 0.0000 -65.7148
#
#
#
# Elastic Compliance Matrix: (Units=1/GPa)
#
#
# Indices 1 2 3 4 5 6 
#
# 1 0.012440 -0.001428 -0.006902 0.000000 -0.001501 0.000000
# 2 -0.001428 0.014567 -0.000326 0.000000 -0.002796 0.000000
# 3 -0.006902 -0.000326 0.011561 0.000000 0.003725 0.000000
# 4 0.000000 0.000000 0.000000 0.024164 0.000000 -0.022751
# 5 -0.001501 -0.002796 0.003725 0.000000 0.026627 0.000000
# 6 0.000000 0.000000 0.000000 -0.022751 0.000000 0.006204
#
#
# Mechanical properties :
#
#
# Convention : Reuss Voigt Hill
#
# Bulk Modulus (GPa) = 47.04478 57.89178 52.46828
# Shear Modulus (GPa) = 41.68004 7.15979 24.41991
#
# Velocity S-wave (km/s) = 4.31638 1.78898 3.30391
# Velocity P-wave (km/s) = 6.77279 5.49046 6.16506
#
# Compressibility (1/GPa) = 0.02125634
#
# Stress axis : x y z
#
# Youngs Moduli (GPa) = 80.38420 68.64664 86.49554
#
# Poissons Ratio (x) = 0.09802 0.59699
# Poissons Ratio (y) = 0.11477 0.02824
# Poissons Ratio (z) = 0.55481 0.02241
#
# Static dielectric constant tensor:
#      x y z
#    x 1.889080 0.000000 -0.100760 
#    y 0.000000 1.884980 0.000000 
#    z -0.100760 0.000000 1.968630 
# 
# From -- ./inp_files/6625.got.cif
#   From: 2010.05.17/outbox.cif.g08.bks.cpg/sg3_4_cif.got.tgz:6625.got - 2010.06.03 18:33:08.
