data_PCOD9113949
_publ_section_title
;
Structure prediction by ZEFSAII (Michael W. Deem and Ramdas Pophale) SiO2 
 PCOD9113949
Probable space group: P 2
;
_chemical_formula_sum "Si O2"
_cell_formula_units_Z 8
_cell_length_a 7.434146
_cell_length_b 6.809933
_cell_length_c 7.188434
_cell_angle_alpha 90.000000
_cell_angle_beta 90.499119
_cell_angle_gamma 90.000000
_cell_volume 363.908111
_symmetry_space_group_name_H-M "P 2"
_symmetry_group_IT_number 3
_symmetry_cell_setting 'monoclinic'
loop_
_space_group_symop_operation_xyz
x,y,z
-x,y,-z
loop_
_atom_site_type_symbol
_atom_site_label
_atom_site_fract_x
_atom_site_fract_y
_atom_site_fract_z
Si Si1 0.713467 0.598820 0.554147
Si Si2 0.146162 0.922534 0.704222
Si Si3 0.230908 0.147483 0.375412
Si Si4 0.680243 0.868887 0.906023
O O1 0.500000 0.603345 0.500000
O O2 0.772841 0.377110 0.592307
O O3 0.738440 0.717909 0.746675
O O4 0.172853 0.709844 0.606044
O O5 0.279950 0.049063 0.573532
O O6 0.960395 0.044455 0.681077
O O7 0.191047 0.903758 0.919021
O O8 0.351940 0.071669 0.206699
O O9 0.500000 0.793461 0.000000
#
# Coordination Sequence:
#
# PCOD9113949 Si02
#       4
#     2   2   2   2
#     4  11  24  43  71 104 133 177 231 276 333 400
#     4  10  23  47  65  98 140 177 218 282 340 395
#     4  10  25  41  70  99 135 177 224 277 335 402
#     4  11  23  42  70  99 139 178 220 281 337 395
#
# _framework density 21.983571000000001
#
# number of rings (size 3 to 8) (size 9 to 14) (size 15 to 20)
#    0.000    1.500    2.500    0.750    3.500   11.000 
#    0.000    7.500    0.000    0.000    0.000    0.000 
#    0.000    0.000    0.000    0.000    0.000    0.000 
#
# Total GULP energy -44632.562524 kJ/mol
# GULP energy per Si atom -5579.070315 kJ/mol
# Density = 2.193354 g / cm^3
# Si number density = 21.983571 Si / 1000 Ang^3
#
#
#
# Elastic Constant Matrix: (Units=GPa)
#
#
# Indices 1 2 3 4 5 6 
#
# 1 97.3765 27.6720 48.2907 0.0000 23.6538 0.0000
# 2 27.6720 202.3234 75.4882 0.0000 13.9574 0.0000
# 3 48.2907 75.4882 201.6201 0.0000 21.1770 0.0000
# 4 0.0000 0.0000 0.0000 11.5897 0.0000 -3.8092
# 5 23.6538 13.9574 21.1770 0.0000 41.7775 0.0000
# 6 0.0000 0.0000 0.0000 -3.8092 0.0000 21.8541
#
#
#
# Elastic Compliance Matrix: (Units=1/GPa)
#
#
# Indices 1 2 3 4 5 6 
#
# 1 0.013018 -0.000508 -0.002293 0.000000 -0.006038 0.000000
# 2 -0.000508 0.005795 -0.001980 0.000000 -0.000645 0.000000
# 3 -0.002293 -0.001980 0.006385 0.000000 -0.001276 0.000000
# 4 0.000000 0.000000 0.000000 0.091527 0.000000 0.015953
# 5 -0.006038 -0.000645 -0.001276 0.000000 0.028217 0.000000
# 6 0.000000 0.000000 0.000000 0.015953 0.000000 0.048539
#
#
# Mechanical properties :
#
#
# Convention : Reuss Voigt Hill
#
# Bulk Modulus (GPa) = 63.96380 89.35798 76.66089
# Shear Modulus (GPa) = 24.00883 38.36887 31.18885
#
# Velocity S-wave (km/s) = 3.30832 4.18226 3.77070
# Velocity P-wave (km/s) = 6.61458 8.00360 7.34201
#
# Compressibility (1/GPa) = 0.01563384
#
# Stress axis : x y z
#
# Youngs Moduli (GPa) = 76.81693 172.54838 156.62486
#
# Poissons Ratio (x) = 0.08769 0.35921
# Poissons Ratio (y) = 0.03904 0.31019
# Poissons Ratio (z) = 0.17618 0.34172
#
# Static dielectric constant tensor:
#      x y z
#    x 2.032230 0.000000 -0.060350 
#    y 0.000000 1.783740 0.000000 
#    z -0.060350 0.000000 1.850400 
# 
# From -- ./inp_files/4738.got.cif
#   From: 2010.05.17/outbox.cif.g08.bks.cpg/sg3_3_cif.got.tgz:4738.got - 2010.06.03 18:33:08.
