data_PCOD9113537
_publ_section_title
;
Structure prediction by ZEFSAII (Michael W. Deem and Ramdas Pophale) SiO2 
 PCOD9113537
Probable space group: P 2
;
_chemical_formula_sum "Si O2"
_cell_formula_units_Z 14
_cell_length_a 15.143828
_cell_length_b 8.613462
_cell_length_c 11.775628
_cell_angle_alpha 90.000000
_cell_angle_beta 26.533284
_cell_angle_gamma 90.000000
_cell_volume 686.168173
_symmetry_space_group_name_H-M "P 2"
_symmetry_group_IT_number 3
_symmetry_cell_setting 'monoclinic'
loop_
_space_group_symop_operation_xyz
x,y,z
-x,y,-z
loop_
_atom_site_type_symbol
_atom_site_label
_atom_site_fract_x
_atom_site_fract_y
_atom_site_fract_z
Si Si1 0.526097 0.505700 0.195008
Si Si2 0.074277 0.029245 0.038085
Si Si3 0.164664 0.183315 0.499460
Si Si4 0.696527 0.345757 0.205362
Si Si5 0.058927 0.498088 0.709220
Si Si6 0.812923 0.774032 0.909765
Si Si7 0.000000 0.956706 0.500000
Si Si8 0.500000 0.358842 0.000000
O O1 0.620870 0.372406 0.164154
O O2 0.287918 0.506434 0.480894
O O3 0.618602 0.667735 0.130590
O O4 0.591434 0.472391 0.989878
O O5 0.885923 0.099143 0.324400
O O6 0.170778 0.897913 0.006811
O O7 0.226043 0.174038 0.855035
O O8 0.000000 0.977841 0.000000
O O9 0.047829 0.346714 0.640528
O O10 0.100668 0.067679 0.475635
O O11 0.378025 0.244543 0.221282
O O12 0.500000 0.387610 0.500000
O O13 0.888568 0.457767 0.997368
O O14 0.992377 0.653424 0.724031
O O15 0.848264 0.856076 0.748685
#
# Coordination Sequence:
#
# PCOD9113537 Si02
#       8
#     2   2   2   2   2   2   1   1
#     4  10  23  43  65  99 131 173 231 270 344 391
#     4  10  23  46  65  95 139 180 223 278 342 396
#     4   9  21  39  64  96 121 175 218 282 324 387
#     4  10  23  41  72  97 125 174 230 289 327 394
#     4   9  21  43  67  92 131 170 226 276 330 392
#     4  10  23  43  62  95 136 181 216 274 343 411
#     4  10  22  36  62  92 136 170 218 268 342 400
#     4  10  22  36  70  98 126 166 226 284 324 404
#
# _framework density 20.403161000000001
#
# number of rings (size 3 to 8) (size 9 to 14) (size 15 to 20)
#    0.000    2.286    0.000    0.000   18.000    0.000 
#   12.857    0.714    0.000    0.000    0.000    0.000 
#    0.000    0.000    0.000    0.000    0.000    0.000 
#
# Total GULP energy -77973.609021 kJ/mol
# GULP energy per Si atom -5569.543501 kJ/mol
# Density = 2.035672 g / cm^3
# Si number density = 20.403161 Si / 1000 Ang^3
#
#
#
# Elastic Constant Matrix: (Units=GPa)
#
#
# Indices 1 2 3 4 5 6 
#
# 1 103.4593 22.6853 41.4438 0.0000 7.9065 0.0000
# 2 22.6853 69.3433 21.8764 0.0000 -5.7801 0.0000
# 3 41.4438 21.8764 113.3528 0.0000 -16.1203 0.0000
# 4 0.0000 0.0000 0.0000 -3.6966 0.0000 -0.1004
# 5 7.9065 -5.7801 -16.1203 0.0000 35.8014 0.0000
# 6 0.0000 0.0000 0.0000 -0.1004 0.0000 18.3292
#
#
#
# Elastic Compliance Matrix: (Units=1/GPa)
#
#
# Indices 1 2 3 4 5 6 
#
# 1 0.012693 -0.003087 -0.004823 0.000000 -0.005473 0.000000
# 2 -0.003087 0.016157 -0.001626 0.000000 0.002558 0.000000
# 3 -0.004823 -0.001626 0.011767 0.000000 0.006101 0.000000
# 4 0.000000 0.000000 0.000000 -0.270481 0.000000 -0.001481
# 5 -0.005473 0.002558 0.006101 0.000000 0.032301 0.000000
# 6 0.000000 0.000000 0.000000 -0.001481 0.000000 0.054550
#
#
# Mechanical properties :
#
#
# Convention : Reuss Voigt Hill
#
# Bulk Modulus (GPa) = 46.41512 50.90737 48.66124
# Shear Modulus (GPa) = -42.82304 23.43013 -9.69646
#
# Velocity S-wave (km/s) = -4.58628 3.39242 -2.18237
# Velocity P-wave (km/s) = 2.29063 6.35213 4.18943
#
# Compressibility (1/GPa) = 0.02154470
#
# Stress axis : x y z
#
# Youngs Moduli (GPa) = 78.78389 61.89258 84.98383
#
# Poissons Ratio (x) = 0.19106 0.40991
# Poissons Ratio (y) = 0.24320 0.13816
# Poissons Ratio (z) = 0.38001 0.10062
#
# Static dielectric constant tensor:
#      x y z
#    x 1.764310 0.000000 0.035980 
#    y 0.000000 1.738320 0.000000 
#    z 0.035980 0.000000 1.827050 
# 
# From -- ./inp_files/12209.got.cif
#   From: 2010.05.17/outbox.cif.g08.bks.cpg/sg3_7_cif.got.tgz:12209.got - 2010.06.03 18:33:08.
