data_PCOD9113669
_publ_section_title
;
Structure prediction by ZEFSAII (Michael W. Deem and Ramdas Pophale) SiO2 
 PCOD9113669
Probable space group: P 2
;
_chemical_formula_sum "Si O2"
_cell_formula_units_Z 16
_cell_length_a 18.024182
_cell_length_b 5.133328
_cell_length_c 8.847798
_cell_angle_alpha 90.000000
_cell_angle_beta 65.274380
_cell_angle_gamma 90.000000
_cell_volume 743.582646
_symmetry_space_group_name_H-M "P 2"
_symmetry_group_IT_number 3
_symmetry_cell_setting 'monoclinic'
loop_
_space_group_symop_operation_xyz
x,y,z
-x,y,-z
loop_
_atom_site_type_symbol
_atom_site_label
_atom_site_fract_x
_atom_site_fract_y
_atom_site_fract_z
Si Si1 0.406539 0.566030 0.536705
Si Si2 0.790762 0.173053 0.239689
Si Si3 0.251300 0.249874 0.227668
Si Si4 0.135245 0.482318 0.583145
Si Si5 0.292157 0.511033 0.908471
Si Si6 0.146191 0.913783 0.075836
Si Si7 0.027107 0.980209 0.647801
Si Si8 0.662763 0.044020 0.564289
O O1 0.500000 0.521846 0.500000
O O2 0.358475 0.627448 0.736377
O O3 0.371689 0.312819 0.478004
O O4 0.394824 0.808244 0.433302
O O5 0.813676 0.433831 0.308615
O O6 0.726733 0.242498 0.163430
O O7 0.747371 0.997575 0.400682
O O8 0.861694 0.054184 0.080153
O O9 0.193305 0.413114 0.391204
O O10 0.310056 0.081773 0.286231
O O11 0.190413 0.082724 0.171621
O O12 0.306168 0.428794 0.069704
O O13 0.095840 0.760821 0.599589
O O14 0.065675 0.257875 0.658834
O O15 0.208343 0.676411 0.992457
O O16 0.053669 0.870079 0.203051
O O17 0.000000 0.015665 0.500000
#
# Coordination Sequence:
#
# PCOD9113669 Si02
#       8
#     2   2   2   2   2   2   2   2
#     4  11  23  44  72  99 137 172 208 264 332 396
#     4   9  22  40  62  92 121 167 221 268 315 387
#     4  10  23  40  69  94 127 176 221 274 319 388
#     4  11  25  42  62  89 124 170 218 275 325 379
#     4  10  22  41  67  93 128 168 219 261 324 396
#     4  11  22  40  63  87 127 170 214 273 329 383
#     4  12  25  40  60  86 125 167 218 271 335 380
#     4  10  22  42  70 100 128 171 224 259 317 400
#
# _framework density 21.517448000000002
#
# number of rings (size 3 to 8) (size 9 to 14) (size 15 to 20)
#    0.000    1.500    2.500    1.500    7.000    2.500 
#    0.000    0.625    0.000    0.000    0.000    0.000 
#    0.000    0.000    0.000    0.000    0.000    0.000 
#
# Total GULP energy -89266.555895 kJ/mol
# GULP energy per Si atom -5579.159743 kJ/mol
# Density = 2.146847 g / cm^3
# Si number density = 21.517448 Si / 1000 Ang^3
#
#
#
# Elastic Constant Matrix: (Units=GPa)
#
#
# Indices 1 2 3 4 5 6 
#
# 1 92.4213 26.1512 26.9396 0.0000 7.9707 0.0000
# 2 26.1512 76.9019 3.7497 0.0000 7.8156 0.0000
# 3 26.9396 3.7497 97.6802 0.0000 19.2759 0.0000
# 4 0.0000 0.0000 0.0000 18.5666 0.0000 1.0244
# 5 7.9707 7.8156 19.2759 0.0000 34.1360 0.0000
# 6 0.0000 0.0000 0.0000 1.0244 0.0000 28.8624
#
#
#
# Elastic Compliance Matrix: (Units=1/GPa)
#
#
# Indices 1 2 3 4 5 6 
#
# 1 0.013026 -0.004249 -0.003400 0.000000 -0.000149 0.000000
# 2 -0.004249 0.014700 0.001211 0.000000 -0.003057 0.000000
# 3 -0.003400 0.001211 0.012410 0.000000 -0.006491 0.000000
# 4 0.000000 0.000000 0.000000 0.053966 0.000000 -0.001915
# 5 -0.000149 -0.003057 -0.006491 0.000000 0.033694 0.000000
# 6 0.000000 0.000000 0.000000 -0.001915 0.000000 0.034715
#
#
# Mechanical properties :
#
#
# Convention : Reuss Voigt Hill
#
# Bulk Modulus (GPa) = 36.68407 42.29826 39.49117
# Shear Modulus (GPa) = 27.10411 30.32386 28.71398
#
# Velocity S-wave (km/s) = 3.55298 3.75810 3.65698
# Velocity P-wave (km/s) = 5.82384 6.20736 6.01866
#
# Compressibility (1/GPa) = 0.02725979
#
# Stress axis : x y z
#
# Youngs Moduli (GPa) = 76.76873 68.02680 80.58295
#
# Poissons Ratio (x) = 0.28903 0.27399
# Poissons Ratio (y) = 0.32617 -0.09757
# Poissons Ratio (z) = 0.26102 -0.08237
#
# Static dielectric constant tensor:
#      x y z
#    x 1.800190 0.000000 0.000970 
#    y 0.000000 1.846060 0.000000 
#    z 0.000970 0.000000 1.822560 
# 
# From -- ./inp_files/8897.got.cif
#   From: 2010.05.17/outbox.cif.g08.bks.cpg/sg3_5_cif.got.tgz:8897.got - 2010.06.03 18:33:08.
