data_PCOD9113499
_publ_section_title
;
Structure prediction by ZEFSAII (Michael W. Deem and Ramdas Pophale) SiO2 
 PCOD9113499
Probable space group: P 2
;
_chemical_formula_sum "Si O2"
_cell_formula_units_Z 14
_cell_length_a 24.531860
_cell_length_b 5.352497
_cell_length_c 8.362841
_cell_angle_alpha 90.000000
_cell_angle_beta 33.091689
_cell_angle_gamma 90.000000
_cell_volume 599.539546
_symmetry_space_group_name_H-M "P 2"
_symmetry_group_IT_number 3
_symmetry_cell_setting 'monoclinic'
loop_
_space_group_symop_operation_xyz
x,y,z
-x,y,-z
loop_
_atom_site_type_symbol
_atom_site_label
_atom_site_fract_x
_atom_site_fract_y
_atom_site_fract_z
Si Si1 0.119497 0.754070 0.693744
Si Si2 0.801039 0.392086 0.236631
Si Si3 0.608822 0.120250 0.662703
Si Si4 0.820686 0.257387 0.638952
Si Si5 0.608355 0.347306 0.306396
Si Si6 0.296136 0.733165 0.753587
Si Si7 0.894953 0.065834 0.771113
O O1 0.162257 0.627854 0.752296
O O2 0.154443 0.531308 0.490209
O O3 0.155571 0.026142 0.541194
O O4 0.000000 0.763469 0.000000
O O5 0.698560 0.252642 0.540873
O O6 0.766347 0.497704 0.151531
O O7 0.882575 0.191990 0.976894
O O8 0.604961 0.220583 0.489795
O O9 0.640705 0.834407 0.551897
O O10 0.500000 0.150091 0.000000
O O11 0.891622 0.233704 0.620091
O O12 0.702863 0.251457 0.973023
O O13 0.500000 0.314572 0.500000
O O14 0.633274 0.639945 0.279823
O O15 0.207496 0.920111 0.005501
O O16 0.000000 0.923443 0.500000
#
# Coordination Sequence:
#
# PCOD9113499 Si02
#       7
#     2   2   2   2   2   2   2
#     4  12  29  47  74 108 158 198 247 306 389 445
#     4  10  24  44  67  99 145 187 246 305 368 459
#     4  10  23  44  69  99 140 188 254 305 378 450
#     4  12  26  49  71 114 150 192 259 316 362 461
#     4  11  25  46  70 103 149 190 248 311 391 439
#     4  10  21  44  67 101 140 180 259 302 356 462
#     4  11  23  42  75 100 143 193 249 307 376 443
#
# _framework density 23.351254000000001
#
# number of rings (size 3 to 8) (size 9 to 14) (size 15 to 20)
#    0.000    1.143    4.286    2.143    8.000    3.429 
#    0.000    0.000    0.000    0.000    0.000    0.000 
#    0.000    0.000    0.000    0.000    0.000    0.000 
#
# Total GULP energy -78052.540033 kJ/mol
# GULP energy per Si atom -5575.181431 kJ/mol
# Density = 2.329811 g / cm^3
# Si number density = 23.351254 Si / 1000 Ang^3
#
#
#
# Elastic Constant Matrix: (Units=GPa)
#
#
# Indices 1 2 3 4 5 6 
#
# 1 82.3929 4.6073 48.9801 0.0000 -14.0488 0.0000
# 2 4.6073 74.5330 44.6349 0.0000 -4.2400 0.0000
# 3 48.9801 44.6349 204.6322 0.0000 -38.5828 0.0000
# 4 0.0000 0.0000 0.0000 19.3378 0.0000 6.0785
# 5 -14.0488 -4.2400 -38.5828 0.0000 34.2005 0.0000
# 6 0.0000 0.0000 0.0000 6.0785 0.0000 36.8953
#
#
#
# Elastic Compliance Matrix: (Units=1/GPa)
#
#
# Indices 1 2 3 4 5 6 
#
# 1 0.014416 0.001198 -0.003261 0.000000 0.002392 0.000000
# 2 0.001198 0.015688 -0.004127 0.000000 -0.002219 0.000000
# 3 -0.003261 -0.004127 0.007899 0.000000 0.007060 0.000000
# 4 0.000000 0.000000 0.000000 0.054536 0.000000 -0.008985
# 5 0.002392 -0.002219 0.007060 0.000000 0.037911 0.000000
# 6 0.000000 0.000000 0.000000 -0.008985 0.000000 0.028584
#
#
# Mechanical properties :
#
#
# Convention : Reuss Voigt Hill
#
# Bulk Modulus (GPa) = 39.02799 62.00030 50.51414
# Shear Modulus (GPa) = 27.78466 35.64244 31.71355
#
# Velocity S-wave (km/s) = 3.45317 3.91111 3.68925
# Velocity P-wave (km/s) = 5.71392 6.85598 6.31084
#
# Compressibility (1/GPa) = 0.02562264
#
# Stress axis : x y z
#
# Youngs Moduli (GPa) = 69.36574 63.74265 126.60486
#
# Poissons Ratio (x) = -0.07635 0.41286
# Poissons Ratio (y) = -0.08308 0.52249
# Poissons Ratio (z) = 0.22620 0.26306
#
# Static dielectric constant tensor:
#      x y z
#    x 1.922660 0.000000 0.078610 
#    y 0.000000 2.099340 0.000000 
#    z 0.078610 0.000000 1.878660 
# 
# From -- ./inp_files/9596.got.cif
#   From: 2010.05.17/outbox.cif.g08.bks.cpg/sg3_5_cif.got.tgz:9596.got - 2010.06.03 18:33:08.
