data_PCOD9113584
_publ_section_title
;
Structure prediction by ZEFSAII (Michael W. Deem and Ramdas Pophale) SiO2 
 PCOD9113584
Probable space group: P 2
;
_chemical_formula_sum "Si O2"
_cell_formula_units_Z 10
_cell_length_a 18.056446
_cell_length_b 6.084924
_cell_length_c 13.135000
_cell_angle_alpha 90.000000
_cell_angle_beta 20.095453
_cell_angle_gamma 90.000000
_cell_volume 495.851824
_symmetry_space_group_name_H-M "P 2"
_symmetry_group_IT_number 3
_symmetry_cell_setting 'monoclinic'
loop_
_space_group_symop_operation_xyz
x,y,z
-x,y,-z
loop_
_atom_site_type_symbol
_atom_site_label
_atom_site_fract_x
_atom_site_fract_y
_atom_site_fract_z
Si Si1 0.420813 0.734910 0.315269
Si Si2 0.768598 0.369670 0.902554
Si Si3 0.785355 0.986486 0.725580
Si Si4 0.397649 0.988298 0.739402
Si Si5 0.026356 0.724510 0.689063
O O1 0.428553 0.884667 0.406489
O O2 0.191483 0.669638 0.565719
O O3 0.562257 0.522962 0.157162
O O4 0.572365 0.865263 0.038436
O O5 0.963640 0.522441 0.694111
O O6 0.781049 0.229562 0.780594
O O7 0.714180 0.189781 0.058193
O O8 0.846594 0.925432 0.532081
O O9 0.000000 0.885304 0.500000
O O10 0.500000 0.046324 0.500000
O O11 0.204072 0.812927 0.976354
#
# Coordination Sequence:
#
# PCOD9113584 Si02
#       5
#     2   2   2   2   2
#     4  10  23  41  61  93 122 156 203 247 303 359
#     4  10  22  39  63  89 126 156 206 243 302 357
#     4  11  20  39  62  89 126 160 195 238 302 363
#     4  10  23  43  65  85 120 162 203 254 304 353
#     4  11  23  41  64  90 123 163 199 248 300 357
#
# _framework density 20.167314999999999
#
# number of rings (size 3 to 8) (size 9 to 14) (size 15 to 20)
#    0.000    1.600    6.000    0.600    2.800    7.200 
#    3.600    0.000    0.000    0.000    0.000    0.000 
#    0.000    0.000    0.000    0.000    0.000    0.000 
#
# Total GULP energy -55676.092912 kJ/mol
# GULP energy per Si atom -5567.609291 kJ/mol
# Density = 2.012141 g / cm^3
# Si number density = 20.167315 Si / 1000 Ang^3
#
#
#
# Elastic Constant Matrix: (Units=GPa)
#
#
# Indices 1 2 3 4 5 6 
#
# 1 99.0578 36.5121 37.7955 0.0000 -31.7783 0.0000
# 2 36.5121 103.6216 25.7306 0.0000 -7.3594 0.0000
# 3 37.7955 25.7306 41.2311 0.0000 -14.6362 0.0000
# 4 0.0000 0.0000 0.0000 16.0716 0.0000 2.1922
# 5 -31.7783 -7.3594 -14.6362 0.0000 51.0440 0.0000
# 6 0.0000 0.0000 0.0000 2.1922 0.0000 9.7498
#
#
#
# Elastic Compliance Matrix: (Units=1/GPa)
#
#
# Indices 1 2 3 4 5 6 
#
# 1 0.018204 -0.002837 -0.012290 0.000000 0.007400 0.000000
# 2 -0.002837 0.011871 -0.005374 0.000000 -0.001596 0.000000
# 3 -0.012290 -0.005374 0.039948 0.000000 0.003029 0.000000
# 4 0.000000 0.000000 0.000000 0.064190 0.000000 -0.014433
# 5 0.007400 -0.001596 0.003029 0.000000 0.024836 0.000000
# 6 0.000000 0.000000 0.000000 -0.014433 0.000000 0.105812
#
#
# Mechanical properties :
#
#
# Convention : Reuss Voigt Hill
#
# Bulk Modulus (GPa) = 34.45714 49.33188 41.89451
# Shear Modulus (GPa) = 15.84595 24.96456 20.40526
#
# Velocity S-wave (km/s) = 2.80612 3.52216 3.18433
# Velocity P-wave (km/s) = 5.25564 6.40743 5.85991
#
# Compressibility (1/GPa) = 0.02902156
#
# Stress axis : x y z
#
# Youngs Moduli (GPa) = 54.93274 84.23668 25.03244
#
# Poissons Ratio (x) = 0.23899 0.30764
# Poissons Ratio (y) = 0.15585 0.13453
# Poissons Ratio (z) = 0.67511 0.45270
#
# Static dielectric constant tensor:
#      x y z
#    x 1.769800 0.000000 0.014870 
#    y 0.000000 1.750880 0.000000 
#    z 0.014870 0.000000 1.707670 
# 
# From -- ./inp_files/6523.got.cif
#   From: 2010.05.17/outbox.cif.g08.bks.cpg/sg3_4_cif.got.tgz:6523.got - 2010.06.03 18:33:08.
