data_PCOD9113752
_publ_section_title
;
Structure prediction by ZEFSAII (Michael W. Deem and Ramdas Pophale) SiO2 
 PCOD9113752
Probable space group: P 2
;
_chemical_formula_sum "Si O2"
_cell_formula_units_Z 15
_cell_length_a 8.868106
_cell_length_b 9.219000
_cell_length_c 10.779889
_cell_angle_alpha 90.000000
_cell_angle_beta 55.176720
_cell_angle_gamma 90.000000
_cell_volume 723.483053
_symmetry_space_group_name_H-M "P 2"
_symmetry_group_IT_number 3
_symmetry_cell_setting 'monoclinic'
loop_
_space_group_symop_operation_xyz
x,y,z
-x,y,-z
loop_
_atom_site_type_symbol
_atom_site_label
_atom_site_fract_x
_atom_site_fract_y
_atom_site_fract_z
Si Si1 0.569922 0.021700 0.258444
Si Si2 0.500000 0.796117 0.500000
Si Si3 0.804428 0.953075 0.906369
Si Si4 0.905583 0.185770 0.166746
Si Si5 0.705013 0.645847 0.855940
Si Si6 0.955341 0.399178 0.695332
Si Si7 0.814158 0.661120 0.527636
Si Si8 0.808141 0.122531 0.650833
O O1 0.695395 0.154747 0.241500
O O2 0.361015 0.074256 0.352653
O O3 0.584149 0.894598 0.351393
O O4 0.653369 0.973685 0.085775
O O5 0.673796 0.718823 0.488475
O O6 0.808375 0.786712 0.862167
O O7 0.763887 0.046571 0.802563
O O8 0.992062 0.029968 0.863127
O O9 0.940361 0.286194 0.267064
O O10 0.000000 0.250863 0.000000
O O11 0.814900 0.500370 0.836935
O O12 0.700603 0.647151 0.708097
O O13 0.500000 0.648212 0.000000
O O14 0.835745 0.293897 0.662527
O O15 0.094818 0.513960 0.568726
O O16 0.000000 0.739125 0.500000
O O17 0.000000 0.074565 0.500000
#
# Coordination Sequence:
#
# PCOD9113752 Si02
#       8
#     2   1   2   2   2   2   2   2
#     4  11  25  42  69 105 136 173 239 292 348 412
#     4  12  26  42  70 114 132 184 236 296 352 416
#     4  10  22  43  70  97 137 177 224 289 347 407
#     4   9  22  45  65  97 139 177 228 284 344 409
#     4  11  22  40  70 102 130 179 232 277 350 418
#     4  10  24  46  64  96 136 188 225 273 352 414
#     4  10  24  47  67  96 148 178 229 282 351 412
#     4  11  23  42  73  98 132 182 234 283 350 414
#
# _framework density 20.733032999999999
#
# number of rings (size 3 to 8) (size 9 to 14) (size 15 to 20)
#    0.000    1.600    0.000    4.000    7.467    5.333 
#   12.000    0.000    0.000    0.000    0.000    0.000 
#    0.000    0.000    0.000    0.000    0.000    0.000 
#
# Total GULP energy -83655.512006 kJ/mol
# GULP energy per Si atom -5577.034134 kJ/mol
# Density = 2.068584 g / cm^3
# Si number density = 20.733033 Si / 1000 Ang^3
#
#
#
# Elastic Constant Matrix: (Units=GPa)
#
#
# Indices 1 2 3 4 5 6 
#
# 1 143.8604 38.3646 47.2145 0.0000 -7.5217 0.0000
# 2 38.3646 105.2112 35.4124 0.0000 2.1456 0.0000
# 3 47.2145 35.4124 116.6664 0.0000 -8.6091 0.0000
# 4 0.0000 0.0000 0.0000 12.9381 0.0000 15.9139
# 5 -7.5217 2.1456 -8.6091 0.0000 26.4963 0.0000
# 6 0.0000 0.0000 0.0000 15.9139 0.0000 30.2127
#
#
#
# Elastic Compliance Matrix: (Units=1/GPa)
#
#
# Indices 1 2 3 4 5 6 
#
# 1 0.008506 -0.002252 -0.002630 0.000000 0.001742 0.000000
# 2 -0.002252 0.011281 -0.002692 0.000000 -0.002428 0.000000
# 3 -0.002630 -0.002692 0.010670 0.000000 0.002938 0.000000
# 4 0.000000 0.000000 0.000000 0.219503 0.000000 -0.115619
# 5 0.001742 -0.002428 0.002938 0.000000 0.039387 0.000000
# 6 0.000000 0.000000 0.000000 -0.115619 0.000000 0.093999
#
#
# Mechanical properties :
#
#
# Convention : Reuss Voigt Hill
#
# Bulk Modulus (GPa) = 65.32184 67.52456 66.42320
# Shear Modulus (GPa) = 12.38857 30.24585 21.31721
#
# Velocity S-wave (km/s) = 2.44709 3.82360 3.21000
# Velocity P-wave (km/s) = 6.28959 7.22028 6.77095
#
# Compressibility (1/GPa) = 0.01530882
#
# Stress axis : x y z
#
# Youngs Moduli (GPa) = 117.56312 88.64094 93.72184
#
# Poissons Ratio (x) = 0.19961 0.24651
# Poissons Ratio (y) = 0.26474 0.25231
# Poissons Ratio (z) = 0.30922 0.23863
#
# Static dielectric constant tensor:
#      x y z
#    x 1.790650 0.000000 0.013030 
#    y 0.000000 1.751220 0.000000 
#    z 0.013030 0.000000 1.761490 
# 
# From -- ./inp_files/10714.got.cif
#   From: 2010.05.17/outbox.cif.g08.bks.cpg/sg3_6_cif.got.tgz:10714.got - 2010.06.03 18:33:08.
