data_PCOD9113621
_publ_section_title
;
Structure prediction by ZEFSAII (Michael W. Deem and Ramdas Pophale) SiO2 
 PCOD9113621
Probable space group: P 2
;
_chemical_formula_sum "Si O2"
_cell_formula_units_Z 11
_cell_length_a 15.508617
_cell_length_b 5.235869
_cell_length_c 6.401493
_cell_angle_alpha 90.000000
_cell_angle_beta 76.468308
_cell_angle_gamma 90.000000
_cell_volume 505.378650
_symmetry_space_group_name_H-M "P 2"
_symmetry_group_IT_number 3
_symmetry_cell_setting 'monoclinic'
loop_
_space_group_symop_operation_xyz
x,y,z
-x,y,-z
loop_
_atom_site_type_symbol
_atom_site_label
_atom_site_fract_x
_atom_site_fract_y
_atom_site_fract_z
Si Si1 0.582267 0.290550 0.577232
Si Si2 0.500000 0.965192 0.000000
Si Si3 0.100485 0.472649 0.376451
Si Si4 0.189494 0.969865 0.214755
Si Si5 0.659001 0.914120 0.175631
Si Si6 0.741542 0.637404 0.476998
O O1 0.500000 0.422601 0.500000
O O2 0.658050 0.481852 0.611892
O O3 0.545256 0.137429 0.795750
O O4 0.621219 0.097007 0.379126
O O5 0.421797 0.820935 0.922984
O O6 0.136928 0.703062 0.210566
O O7 0.167046 0.489837 0.538178
O O8 0.000000 0.510720 0.500000
O O9 0.120134 0.197045 0.271354
O O10 0.239939 0.896981 0.403253
O O11 0.266177 0.040871 0.010162
O O12 0.711605 0.690592 0.261050
#
# Coordination Sequence:
#
# PCOD9113621 Si02
#       6
#     2   1   2   2   2   2
#     4  10  23  40  62  95 141 179 230 273 331 395
#     4  10  22  40  64  96 140 184 228 272 332 396
#     4  10  22  45  72  98 134 179 222 276 341 403
#     4  10  24  41  73  96 136 178 219 277 339 395
#     4  11  22  40  64  97 136 178 229 271 336 390
#     4  10  23  39  67  96 133 179 217 286 324 401
#
# _framework density 21.765858999999999
#
# number of rings (size 3 to 8) (size 9 to 14) (size 15 to 20)
#    1.091    0.727    0.000    3.818    2.545    5.091 
#    0.000    2.727    0.000    0.000    0.000    0.000 
#    0.000    0.000    0.000    0.000    0.000    0.000 
#
# Total GULP energy -61353.178516 kJ/mol
# GULP energy per Si atom -5577.561683 kJ/mol
# Density = 2.171632 g / cm^3
# Si number density = 21.765859 Si / 1000 Ang^3
#
#
#
# Elastic Constant Matrix: (Units=GPa)
#
#
# Indices 1 2 3 4 5 6 
#
# 1 127.6281 24.5776 39.9443 0.0000 -23.5602 0.0000
# 2 24.5776 78.9665 19.2122 0.0000 -3.5815 0.0000
# 3 39.9443 19.2122 93.5524 0.0000 -15.4077 0.0000
# 4 0.0000 0.0000 0.0000 20.5196 0.0000 -3.9747
# 5 -23.5602 -3.5815 -15.4077 0.0000 25.0026 0.0000
# 6 0.0000 0.0000 0.0000 -3.9747 0.0000 -4.2998
#
#
#
# Elastic Compliance Matrix: (Units=1/GPa)
#
#
# Indices 1 2 3 4 5 6 
#
# 1 0.010605 -0.002270 -0.002748 0.000000 0.007974 0.000000
# 2 -0.002270 0.013817 -0.002109 0.000000 -0.001459 0.000000
# 3 -0.002748 -0.002109 0.013154 0.000000 0.005215 0.000000
# 4 0.000000 0.000000 0.000000 0.041333 0.000000 -0.038208
# 5 0.007974 -0.001459 0.005215 0.000000 0.050514 0.000000
# 6 0.000000 0.000000 0.000000 -0.038208 0.000000 -0.197251
#
#
# Mechanical properties :
#
#
# Convention : Reuss Voigt Hill
#
# Bulk Modulus (GPa) = 42.87833 51.95722 47.41777
# Shear Modulus (GPa) = -109.17032 22.67202 -43.24915
#
# Velocity S-wave (km/s) = -7.08982 3.23093 -4.46243
# Velocity P-wave (km/s) = 6.87591 6.15153 2.17219
#
# Compressibility (1/GPa) = 0.02332181
#
# Stress axis : x y z
#
# Youngs Moduli (GPa) = 94.29861 72.37459 76.01962
#
# Poissons Ratio (x) = 0.16431 0.20893
# Poissons Ratio (y) = 0.21408 0.16029
# Poissons Ratio (z) = 0.25917 0.15260
#
# Static dielectric constant tensor:
#      x y z
#    x 1.813370 0.000000 -0.000020 
#    y 0.000000 1.844620 0.000000 
#    z -0.000020 0.000000 1.827080 
# 
# From -- ./inp_files/2630.got.cif
#   From: 2010.05.17/outbox.cif.g08.bks.cpg/sg3_2_cif.got.tgz:2630.got - 2010.06.03 18:33:08.
