data_PCOD9113787
_publ_section_title
;
Structure prediction by ZEFSAII (Michael W. Deem and Ramdas Pophale) SiO2 
 PCOD9113787
Probable space group: P 2
;
_chemical_formula_sum "Si O2"
_cell_formula_units_Z 8
_cell_length_a 4.930650
_cell_length_b 4.568956
_cell_length_c 10.457721
_cell_angle_alpha 90.000000
_cell_angle_beta 102.991011
_cell_angle_gamma 90.000000
_cell_volume 229.560869
_symmetry_space_group_name_H-M "P 2"
_symmetry_group_IT_number 3
_symmetry_cell_setting 'monoclinic'
loop_
_space_group_symop_operation_xyz
x,y,z
-x,y,-z
loop_
_atom_site_type_symbol
_atom_site_label
_atom_site_fract_x
_atom_site_fract_y
_atom_site_fract_z
Si Si1 0.642517 0.068850 0.637181
Si Si2 0.663879 0.106598 0.924547
Si Si3 0.857483 0.665876 0.362819
Si Si4 0.836121 0.628122 0.075453
O O1 0.500000 0.218334 0.500000
O O2 0.641248 0.213306 0.776149
O O3 0.442679 0.788183 0.636255
O O4 0.942678 0.946542 0.636255
O O5 0.500000 0.412003 0.000000
O O6 0.669289 0.953913 0.085629
O O7 0.830711 0.780808 0.914371
O O8 0.858752 0.521419 0.223851
O O9 0.000000 0.516391 0.500000
O O10 0.000000 0.322717 0.000000
#
# Coordination Sequence:
#
# PCOD9113787 Si02
#       4
#     2   2   2   2
#     4  10  22  44  72 105 145 190 240 298 363 431
#     4  12  25  44  72 108 145 191 244 299 362 431
#     4  10  22  44  72 105 145 190 240 298 363 431
#     4  12  25  44  72 108 145 191 244 299 362 431
#
# _framework density 34.849145
#
# number of rings (size 3 to 8) (size 9 to 14) (size 15 to 20)
#    0.000    1.000    5.000    1.500    0.000    0.000 
#    0.000    5.000    0.000    0.000    0.000    0.000 
#    0.000    0.000    0.000    0.000    0.000    0.000 
#
# Total GULP energy -44703.088892 kJ/mol
# GULP energy per Si atom -5587.886111 kJ/mol
# Density = 3.476983 g / cm^3
# Si number density = 34.849145 Si / 1000 Ang^3
#
#
#
# Elastic Constant Matrix: (Units=GPa)
#
#
# Indices 1 2 3 4 5 6 
#
# 1 232.3103 108.3234 69.9263 0.0000 -25.2703 0.0000
# 2 108.3234 299.1570 106.3090 0.0000 4.7733 0.0000
# 3 69.9263 106.3090 425.3764 0.0000 -8.5477 0.0000
# 4 0.0000 0.0000 0.0000 65.2063 0.0000 9.2179
# 5 -25.2703 4.7733 -8.5477 0.0000 71.3660 0.0000
# 6 0.0000 0.0000 0.0000 9.2179 0.0000 66.0187
#
#
#
# Elastic Compliance Matrix: (Units=1/GPa)
#
#
# Indices 1 2 3 4 5 6 
#
# 1 0.005528 -0.001894 -0.000394 0.000000 0.002037 0.000000
# 2 -0.001894 0.004326 -0.000791 0.000000 -0.001055 0.000000
# 3 -0.000394 -0.000791 0.002618 0.000000 0.000227 0.000000
# 4 0.000000 0.000000 0.000000 0.015645 0.000000 -0.002184
# 5 0.002037 -0.001055 0.000227 0.000000 0.014831 0.000000
# 6 0.000000 0.000000 0.000000 -0.002184 0.000000 0.015452
#
#
# Mechanical properties :
#
#
# Convention : Reuss Voigt Hill
#
# Bulk Modulus (GPa) = 158.39439 169.55124 163.97282
# Shear Modulus (GPa) = 75.00265 85.33720 80.16992
#
# Velocity S-wave (km/s) = 4.64422 4.95386 4.80154
# Velocity P-wave (km/s) = 8.62024 9.02660 8.82576
#
# Compressibility (1/GPa) = 0.00631335
#
# Stress axis : x y z
#
# Youngs Moduli (GPa) = 180.89603 231.13396 381.97472
#
# Poissons Ratio (x) = 0.43777 0.15068
# Poissons Ratio (y) = 0.34262 0.30219
# Poissons Ratio (z) = 0.07136 0.18285
#
# Static dielectric constant tensor:
#      x y z
#    x 4.706330 0.000000 0.518380 
#    y 0.000000 3.110670 0.000000 
#    z 0.518380 0.000000 2.627310 
# 
# From -- ./inp_files/9705.got.cif
#   From: 2010.05.17/outbox.cif.g08.bks.cpg/sg3_5_cif.got.tgz:9705.got - 2010.06.03 18:33:08.
