data_PCOD9113585
_publ_section_title
;
Structure prediction by ZEFSAII (Michael W. Deem and Ramdas Pophale) SiO2 
 PCOD9113585
Probable space group: P 2
;
_chemical_formula_sum "Si O2"
_cell_formula_units_Z 15
_cell_length_a 17.012308
_cell_length_b 5.342657
_cell_length_c 8.899126
_cell_angle_alpha 90.000000
_cell_angle_beta 130.320132
_cell_angle_gamma 90.000000
_cell_volume 616.700272
_symmetry_space_group_name_H-M "P 2"
_symmetry_group_IT_number 3
_symmetry_cell_setting 'monoclinic'
loop_
_space_group_symop_operation_xyz
x,y,z
-x,y,-z
loop_
_atom_site_type_symbol
_atom_site_label
_atom_site_fract_x
_atom_site_fract_y
_atom_site_fract_z
Si Si1 0.492224 0.986960 0.141418
Si Si2 0.184309 0.964194 0.095623
Si Si3 0.500000 0.611283 0.500000
Si Si4 0.354868 0.262821 0.489052
Si Si5 0.995877 0.309837 0.176108
Si Si6 0.672768 0.722049 0.955125
Si Si7 0.321954 0.601092 0.715070
Si Si8 0.113133 0.811712 0.328994
O O1 0.369695 0.969098 0.014120
O O2 0.573290 0.759123 0.196124
O O3 0.543844 0.106852 0.349548
O O4 0.500000 0.154940 0.000000
O O5 0.277009 0.105077 0.294828
O O6 0.231667 0.775178 0.032792
O O7 0.127376 0.822520 0.163459
O O8 0.115284 0.181282 0.934249
O O9 0.399343 0.491967 0.452924
O O10 0.566199 0.688340 0.730368
O O11 0.313459 0.362946 0.595063
O O12 0.035775 0.582684 0.275703
O O13 0.071631 0.085368 0.319890
O O14 0.000000 0.319149 0.000000
O O15 0.685550 0.549150 0.116247
O O16 0.223042 0.761980 0.540262
#
# Coordination Sequence:
#
# PCOD9113585 Si02
#       8
#     2   2   1   2   2   2   2   2
#     4  10  22  39  63  91 135 183 231 280 347 434
#     4  11  23  43  71 104 145 181 243 312 372 436
#     4  12  24  36  66  96 140 194 236 302 354 430
#     4  12  23  39  65  98 137 188 246 293 360 431
#     4  10  22  40  72 101 134 179 240 302 371 435
#     4  11  24  44  64 102 146 187 236 300 367 436
#     4  11  23  42  68  95 140 189 239 288 361 446
#     4  11  22  43  70 103 133 184 242 301 365 442
#
# _framework density 24.323
#
# number of rings (size 3 to 8) (size 9 to 14) (size 15 to 20)
#    0.000    1.067    2.667    5.200    1.867    1.067 
#    0.000    0.667    0.000    4.800    0.000    0.000 
#    0.000    0.000    0.000    0.000    0.000    0.000 
#
# Total GULP energy -83589.804533 kJ/mol
# GULP energy per Si atom -5572.653636 kJ/mol
# Density = 2.426764 g / cm^3
# Si number density = 24.323000 Si / 1000 Ang^3
#
#
#
# Elastic Constant Matrix: (Units=GPa)
#
#
# Indices 1 2 3 4 5 6 
#
# 1 62.8326 9.0368 14.8961 0.0000 -14.2429 0.0000
# 2 9.0368 72.7967 27.4472 0.0000 -0.8116 0.0000
# 3 14.8961 27.4472 76.0012 0.0000 2.8332 0.0000
# 4 0.0000 0.0000 0.0000 14.1305 0.0000 1.1087
# 5 -14.2429 -0.8116 2.8332 0.0000 36.3887 0.0000
# 6 0.0000 0.0000 0.0000 1.1087 0.0000 -7.3446
#
#
#
# Elastic Compliance Matrix: (Units=1/GPa)
#
#
# Indices 1 2 3 4 5 6 
#
# 1 0.018607 -0.000862 -0.003617 0.000000 0.007545 0.000000
# 2 -0.000862 0.015966 -0.005614 0.000000 0.000456 0.000000
# 3 -0.003617 -0.005614 0.015998 0.000000 -0.002787 0.000000
# 4 0.000000 0.000000 0.000000 0.069941 0.000000 0.010558
# 5 0.007545 0.000456 -0.002787 0.000000 0.030662 0.000000
# 6 0.000000 0.000000 0.000000 0.010558 0.000000 -0.134560
#
#
# Mechanical properties :
#
#
# Convention : Reuss Voigt Hill
#
# Bulk Modulus (GPa) = 32.91094 34.93228 33.92161
# Shear Modulus (GPa) = 106.54890 19.31827 62.93358
#
# Velocity S-wave (km/s) = 6.62578 2.82128 5.09218
# Velocity P-wave (km/s) = 8.49086 5.00058 6.96780
#
# Compressibility (1/GPa) = 0.03038503
#
# Stress axis : x y z
#
# Youngs Moduli (GPa) = 53.74270 62.63451 62.50825
#
# Poissons Ratio (x) = 0.05399 0.22609
# Poissons Ratio (y) = 0.04633 0.35091
# Poissons Ratio (z) = 0.19438 0.35162
#
# Static dielectric constant tensor:
#      x y z
#    x 2.234590 0.000000 -0.093290 
#    y 0.000000 2.125210 0.000000 
#    z -0.093290 0.000000 2.034640 
# 
# From -- ./inp_files/8943.got.cif
#   From: 2010.05.17/outbox.cif.g08.bks.cpg/sg3_5_cif.got.tgz:8943.got - 2010.06.03 18:33:08.
