data_PCOD9113910
_publ_section_title
;
Structure prediction by ZEFSAII (Michael W. Deem and Ramdas Pophale) SiO2 
 PCOD9113910
Probable space group: P 2
;
_chemical_formula_sum "Si O2"
_cell_formula_units_Z 12
_cell_length_a 21.531179
_cell_length_b 5.149062
_cell_length_c 9.103845
_cell_angle_alpha 90.000000
_cell_angle_beta 30.082536
_cell_angle_gamma 90.000000
_cell_volume 505.909208
_symmetry_space_group_name_H-M "P 2"
_symmetry_group_IT_number 3
_symmetry_cell_setting 'monoclinic'
loop_
_space_group_symop_operation_xyz
x,y,z
-x,y,-z
loop_
_atom_site_type_symbol
_atom_site_label
_atom_site_fract_x
_atom_site_fract_y
_atom_site_fract_z
Si Si1 0.966709 0.592180 0.238827
Si Si2 0.059690 0.091251 0.215514
Si Si3 0.472598 0.127127 0.701491
Si Si4 0.290662 0.544468 0.101089
Si Si5 0.535458 0.737315 0.765099
Si Si6 0.289477 0.456324 0.785729
O O1 0.820975 0.626233 0.567035
O O2 0.992003 0.306783 0.253257
O O3 0.042430 0.810045 0.176087
O O4 0.000000 0.607526 0.000000
O O5 0.000000 0.085876 0.500000
O O6 0.195032 0.222992 0.950240
O O7 0.500000 0.950671 0.500000
O O8 0.529133 0.041442 0.743115
O O9 0.578164 0.337206 0.444838
O O10 0.335167 0.240995 0.006950
O O11 0.415193 0.672940 0.908996
O O12 0.250925 0.605158 0.014208
O O13 0.667308 0.631997 0.439308
O O14 0.500000 0.662185 0.000000
#
# Coordination Sequence:
#
# PCOD9113910 Si02
#       6
#     2   2   2   2   2   2
#     4  12  29  50  74 113 156 205 250 322 392 451
#     4  12  27  49  79 112 149 204 267 314 371 465
#     4   9  20  40  68  98 132 189 244 305 371 442
#     4  10  23  45  70  98 142 192 253 302 379 450
#     4  11  24  39  68 106 144 189 241 315 387 450
#     4  10  23  44  69 102 137 190 253 311 361 457
#
# _framework density 23.719670000000001
#
# number of rings (size 3 to 8) (size 9 to 14) (size 15 to 20)
#    0.000    1.333    1.667    3.500    7.000    2.667 
#    0.000    0.000    0.000    0.000    0.000    0.000 
#    0.000    0.000    0.000    0.000    0.000    0.000 
#
# Total GULP energy -66861.267952 kJ/mol
# GULP energy per Si atom -5571.772329 kJ/mol
# Density = 2.366568 g / cm^3
# Si number density = 23.719670 Si / 1000 Ang^3
#
#
#
# Elastic Constant Matrix: (Units=GPa)
#
#
# Indices 1 2 3 4 5 6 
#
# 1 68.1474 9.8192 46.1449 0.0000 32.9453 0.0000
# 2 9.8192 41.3617 21.2935 0.0000 21.5318 0.0000
# 3 46.1449 21.2935 174.8573 0.0000 27.5934 0.0000
# 4 0.0000 0.0000 0.0000 27.7707 0.0000 -17.2487
# 5 32.9453 21.5318 27.5934 0.0000 58.8565 0.0000
# 6 0.0000 0.0000 0.0000 -17.2487 0.0000 -6.5239
#
#
#
# Elastic Compliance Matrix: (Units=1/GPa)
#
#
# Indices 1 2 3 4 5 6 
#
# 1 0.023092 0.003076 -0.004591 0.000000 -0.011899 0.000000
# 2 0.003076 0.030981 -0.002726 0.000000 -0.011778 0.000000
# 3 -0.004591 -0.002726 0.007235 0.000000 0.000175 0.000000
# 4 0.000000 0.000000 0.000000 0.013629 0.000000 -0.036033
# 5 -0.011899 -0.011778 0.000175 0.000000 0.027878 0.000000
# 6 0.000000 0.000000 0.000000 -0.036033 0.000000 -0.058014
#
#
# Mechanical properties :
#
#
# Convention : Reuss Voigt Hill
#
# Bulk Modulus (GPa) = 18.93015 48.76461 33.84738
# Shear Modulus (GPa) = 70.53103 29.82791 50.17947
#
# Velocity S-wave (km/s) = 5.45892 3.55000 4.60447
# Velocity P-wave (km/s) = 6.90878 6.11610 6.52449
#
# Compressibility (1/GPa) = 0.05282578
#
# Stress axis : x y z
#
# Youngs Moduli (GPa) = 43.30534 32.27754 138.22139
#
# Poissons Ratio (x) = -0.09927 0.63455
# Poissons Ratio (y) = -0.13319 0.37677
# Poissons Ratio (z) = 0.19881 0.08798
#
# Static dielectric constant tensor:
#      x y z
#    x 2.293800 0.000000 0.221010 
#    y 0.000000 3.222090 0.000000 
#    z 0.221010 0.000000 2.023650 
# 
# From -- ./inp_files/8789.got.cif
#   From: 2010.05.17/outbox.cif.g08.bks.cpg/sg3_5_cif.got.tgz:8789.got - 2010.06.03 18:33:08.
