data_PCOD9113751
_publ_section_title
;
Structure prediction by ZEFSAII (Michael W. Deem and Ramdas Pophale) SiO2 
 PCOD9113751
Probable space group: P 2
;
_chemical_formula_sum "Si O2"
_cell_formula_units_Z 15
_cell_length_a 11.519127
_cell_length_b 7.619787
_cell_length_c 8.752502
_cell_angle_alpha 90.000000
_cell_angle_beta 53.829242
_cell_angle_gamma 90.000000
_cell_volume 620.167394
_symmetry_space_group_name_H-M "P 2"
_symmetry_group_IT_number 3
_symmetry_cell_setting 'monoclinic'
loop_
_space_group_symop_operation_xyz
x,y,z
-x,y,-z
loop_
_atom_site_type_symbol
_atom_site_label
_atom_site_fract_x
_atom_site_fract_y
_atom_site_fract_z
Si Si1 0.726500 0.029160 0.131787
Si Si2 0.204051 0.405791 0.930987
Si Si3 0.000000 0.519691 0.500000
Si Si4 0.112731 0.745971 0.164856
Si Si5 0.178369 0.906463 0.611463
Si Si6 0.214828 0.496293 0.581126
Si Si7 0.430041 0.052017 0.212082
Si Si8 0.518300 0.450264 0.823600
O O1 0.811563 0.202690 0.006700
O O2 0.772715 0.996922 0.269915
O O3 0.555657 0.052818 0.242717
O O4 0.760791 0.856503 0.007165
O O5 0.208832 0.397751 0.744578
O O6 0.361923 0.447591 0.872194
O O7 0.104972 0.567943 0.063654
O O8 0.887006 0.648362 0.673010
O O9 0.902370 0.424910 0.450277
O O10 0.993335 0.901869 0.276703
O O11 0.183653 0.698429 0.637444
O O12 0.285287 0.967679 0.393320
O O13 0.370989 0.513921 0.386645
O O14 0.410927 0.259194 0.194544
O O15 0.500000 0.979880 0.000000
O O16 0.500000 0.544303 0.000000
#
# Coordination Sequence:
#
# PCOD9113751 Si02
#       8
#     2   2   1   2   2   2   2   2
#     4  11  24  45  75 103 138 192 240 304 363 434
#     4  11  24  45  75 105 145 191 245 309 364 436
#     4  10  26  44  68 100 148 192 232 302 354 442
#     4  11  25  48  67 104 148 182 247 290 369 445
#     4  11  24  43  65 105 140 184 238 297 362 432
#     4  11  23  41  71 101 144 193 241 304 366 435
#     4  10  24  43  70 103 143 185 244 304 360 439
#     4  10  22  43  70 107 145 186 250 308 368 437
#
# _framework density 24.187017999999998
#
# number of rings (size 3 to 8) (size 9 to 14) (size 15 to 20)
#    0.000    1.333    1.333    2.800    7.467    3.733 
#   14.400    0.667    0.000    0.000    0.000    0.000 
#    0.000    0.000    0.000    0.000    0.000    0.000 
#
# Total GULP energy -83624.648892 kJ/mol
# GULP energy per Si atom -5574.976593 kJ/mol
# Density = 2.413197 g / cm^3
# Si number density = 24.187018 Si / 1000 Ang^3
#
#
#
# Elastic Constant Matrix: (Units=GPa)
#
#
# Indices 1 2 3 4 5 6 
#
# 1 89.3768 11.5449 35.8725 0.0000 21.2046 0.0000
# 2 11.5449 49.2724 17.2835 0.0000 -7.8674 0.0000
# 3 35.8725 17.2835 112.0982 0.0000 -4.7083 0.0000
# 4 0.0000 0.0000 0.0000 83.6098 0.0000 20.0943
# 5 21.2046 -7.8674 -4.7083 0.0000 33.7073 0.0000
# 6 0.0000 0.0000 0.0000 20.0943 0.0000 36.2871
#
#
#
# Elastic Compliance Matrix: (Units=1/GPa)
#
#
# Indices 1 2 3 4 5 6 
#
# 1 0.016697 -0.004020 -0.005235 0.000000 -0.012173 0.000000
# 2 -0.004020 0.023148 -0.001961 0.000000 0.007658 0.000000
# 3 -0.005235 -0.001961 0.011082 0.000000 0.004383 0.000000
# 4 0.000000 0.000000 0.000000 0.013796 0.000000 -0.007640
# 5 -0.012173 0.007658 0.004383 0.000000 0.039725 0.000000
# 6 0.000000 0.000000 0.000000 -0.007640 0.000000 0.031789
#
#
# Mechanical properties :
#
#
# Convention : Reuss Voigt Hill
#
# Bulk Modulus (GPa) = 35.09235 42.23878 38.66557
# Shear Modulus (GPa) = 29.73250 43.12395 36.42822
#
# Velocity S-wave (km/s) = 3.50991 4.22707 3.88507
# Velocity P-wave (km/s) = 5.56473 6.42849 6.01214
#
# Compressibility (1/GPa) = 0.02849624
#
# Stress axis : x y z
#
# Youngs Moduli (GPa) = 59.89138 43.20075 90.23354
#
# Poissons Ratio (x) = 0.17365 0.47234
# Poissons Ratio (y) = 0.24075 0.17695
# Poissons Ratio (z) = 0.31351 0.08472
#
# Static dielectric constant tensor:
#      x y z
#    x 1.478880 0.000000 -0.214090 
#    y 0.000000 1.938900 0.000000 
#    z -0.214090 0.000000 2.035180 
# 
# From -- ./inp_files/7407.got.cif
#   From: 2010.05.17/outbox.cif.g08.bks.cpg/sg3_4_cif.got.tgz:7407.got - 2010.06.03 18:33:08.
