data_PCOD9113736
_publ_section_title
;
Structure prediction by ZEFSAII (Michael W. Deem and Ramdas Pophale) SiO2 
 PCOD9113736
Probable space group: P 2
;
_chemical_formula_sum "Si O2"
_cell_formula_units_Z 13
_cell_length_a 19.580506
_cell_length_b 5.230549
_cell_length_c 14.763956
_cell_angle_alpha 90.000000
_cell_angle_beta 20.258329
_cell_angle_gamma 90.000000
_cell_volume 523.561883
_symmetry_space_group_name_H-M "P 2"
_symmetry_group_IT_number 3
_symmetry_cell_setting 'monoclinic'
loop_
_space_group_symop_operation_xyz
x,y,z
-x,y,-z
loop_
_atom_site_type_symbol
_atom_site_label
_atom_site_fract_x
_atom_site_fract_y
_atom_site_fract_z
Si Si1 0.424197 0.256540 0.500941
Si Si2 0.701295 0.876942 0.082020
Si Si3 0.017750 0.229872 0.381698
Si Si4 0.064084 0.718753 0.736736
Si Si5 0.265344 0.227101 0.416077
Si Si6 0.000000 0.026655 0.000000
Si Si7 0.597609 0.485031 0.097210
O O1 0.500000 0.379871 0.500000
O O2 0.507657 0.387581 0.305893
O O3 0.542651 0.989698 0.347053
O O4 0.192642 0.198416 0.782401
O O5 0.584008 0.782283 0.138808
O O6 0.853378 0.700878 0.948017
O O7 0.854047 0.080750 0.851916
O O8 0.000000 0.093642 0.500000
O O9 0.814312 0.286133 0.585261
O O10 0.168458 0.461046 0.211437
O O11 0.150438 0.433798 0.623072
O O12 0.204732 0.934417 0.513328
O O13 0.038399 0.840889 0.867105
O O14 0.485043 0.323999 0.162137
#
# Coordination Sequence:
#
# PCOD9113736 Si02
#       7
#     2   2   2   2   2   1   2
#     4  11  23  39  61  96 136 181 236 277 336 405
#     4  10  22  43  65  97 136 183 223 291 347 411
#     4  10  24  45  72 100 132 175 233 291 357 424
#     4  11  23  43  67  99 139 184 227 284 336 402
#     4  11  24  45  69  99 139 180 226 284 351 407
#     4  12  22  40  66  98 140 186 242 276 334 410
#     4  11  23  42  69  93 140 182 226 285 355 411
#
# _framework density 24.829923999999998
#
# number of rings (size 3 to 8) (size 9 to 14) (size 15 to 20)
#    0.000    1.231    4.615    0.923    2.154    2.462 
#    5.538    0.000    0.000    0.000    0.000    0.000 
#    0.000    0.000    0.000    0.000    0.000    0.000 
#
# Total GULP energy -72507.804505 kJ/mol
# GULP energy per Si atom -5577.523423 kJ/mol
# Density = 2.477341 g / cm^3
# Si number density = 24.829924 Si / 1000 Ang^3
#
#
#
# Elastic Constant Matrix: (Units=GPa)
#
#
# Indices 1 2 3 4 5 6 
#
# 1 159.5051 -1.2773 41.4190 0.0000 -27.1398 0.0000
# 2 -1.2773 45.4548 5.0837 0.0000 -17.9096 0.0000
# 3 41.4190 5.0837 76.5298 0.0000 -8.7661 0.0000
# 4 0.0000 0.0000 0.0000 10.1348 0.0000 -14.3875
# 5 -27.1398 -17.9096 -8.7661 0.0000 33.0069 0.0000
# 6 0.0000 0.0000 0.0000 -14.3875 0.0000 23.4624
#
#
#
# Elastic Compliance Matrix: (Units=1/GPa)
#
#
# Indices 1 2 3 4 5 6 
#
# 1 0.008763 0.003961 -0.004058 0.000000 0.008277 0.000000
# 2 0.003961 0.029774 -0.001958 0.000000 0.018893 0.000000
# 3 -0.004058 -0.001958 0.015356 0.000000 -0.000320 0.000000
# 4 0.000000 0.000000 0.000000 0.762119 0.000000 0.467343
# 5 0.008277 0.018893 -0.000320 0.000000 0.047269 0.000000
# 6 0.000000 0.000000 0.000000 0.467343 0.000000 0.329203
#
#
# Mechanical properties :
#
#
# Convention : Reuss Voigt Hill
#
# Bulk Modulus (GPa) = 20.08622 41.32672 30.70647
# Shear Modulus (GPa) = 4.12137 29.07175 16.59656
#
# Velocity S-wave (km/s) = 1.28975 3.42546 2.58817
# Velocity P-wave (km/s) = 3.21326 5.68551 4.61790
#
# Compressibility (1/GPa) = 0.04978537
#
# Stress axis : x y z
#
# Youngs Moduli (GPa) = 114.11380 33.58624 65.11994
#
# Poissons Ratio (x) = -0.13305 0.26424
# Poissons Ratio (y) = -0.45205 0.12749
# Poissons Ratio (z) = 0.46305 0.06575
#
# Static dielectric constant tensor:
#      x y z
#    x 2.114290 0.000000 -0.064590 
#    y 0.000000 2.131170 0.000000 
#    z -0.064590 0.000000 2.005280 
# 
# From -- ./inp_files/14271.got.cif
#   From: 2010.05.17/outbox.cif.g08.bks.cpg/sg3_8_cif.got.tgz:14271.got - 2010.06.03 18:33:08.
