data_PCOD9113350
_publ_section_title
;
Structure prediction by ZEFSAII (Michael W. Deem and Ramdas Pophale) SiO2 
 PCOD9113350
Probable space group: P 2
;
_chemical_formula_sum "Si O2"
_cell_formula_units_Z 14
_cell_length_a 17.354240
_cell_length_b 7.579130
_cell_length_c 8.859184
_cell_angle_alpha 90.000000
_cell_angle_beta 143.175066
_cell_angle_gamma 90.000000
_cell_volume 698.417530
_symmetry_space_group_name_H-M "P 2"
_symmetry_group_IT_number 3
_symmetry_cell_setting 'monoclinic'
loop_
_space_group_symop_operation_xyz
x,y,z
-x,y,-z
loop_
_atom_site_type_symbol
_atom_site_label
_atom_site_fract_x
_atom_site_fract_y
_atom_site_fract_z
Si Si1 0.351719 0.786040 0.747116
Si Si2 0.059088 0.644777 0.848833
Si Si3 0.232486 0.142883 0.489107
Si Si4 0.500000 0.589663 0.500000
Si Si5 0.883100 0.353065 0.423662
Si Si6 0.289939 0.494488 0.404381
Si Si7 0.000000 0.933455 0.000000
Si Si8 0.263636 0.660884 0.928815
O O1 0.300570 0.659624 0.534841
O O2 0.281721 0.751201 0.796200
O O3 0.334374 0.988965 0.675668
O O4 0.500000 0.739146 0.000000
O O5 0.140208 0.716587 0.833379
O O6 0.948760 0.511709 0.622880
O O7 0.009394 0.804676 0.871272
O O8 0.161285 0.530958 0.106573
O O9 0.169848 0.205845 0.548316
O O10 0.284245 0.317273 0.490896
O O11 0.123137 0.055905 0.213616
O O12 0.410805 0.489483 0.480658
O O13 0.607754 0.688512 0.770242
O O14 0.768749 0.452957 0.153995
O O15 0.000000 0.291494 0.500000
#
# Coordination Sequence:
#
# PCOD9113350 Si02
#       8
#     2   2   2   1   2   2   1   2
#     4  12  24  42  67  93 128 170 217 265 321 376
#     4  10  21  40  69  92 130 173 213 256 323 383
#     4  12  25  38  65 100 130 168 213 261 321 386
#     4  10  22  40  74  88 118 178 214 264 326 366
#     4  10  21  39  64  95 131 169 213 261 318 383
#     4  11  22  45  66  92 131 168 213 264 317 386
#     4  12  22  38  62 100 132 172 208 260 322 382
#     4  10  21  40  66  94 121 171 219 264 318 375
#
# _framework density 20.045317000000001
#
# number of rings (size 3 to 8) (size 9 to 14) (size 15 to 20)
#    0.000    1.143    4.286    2.571    0.000    2.857 
#    0.000    2.143    0.000    0.000    0.000    0.000 
#    0.000    0.000    0.000    0.000    0.000    0.000 
#
# Total GULP energy -78226.862925 kJ/mol
# GULP energy per Si atom -5587.633066 kJ/mol
# Density = 1.999969 g / cm^3
# Si number density = 20.045317 Si / 1000 Ang^3
#
#
#
# Elastic Constant Matrix: (Units=GPa)
#
#
# Indices 1 2 3 4 5 6 
#
# 1 104.8374 49.1546 4.9751 0.0000 -22.1064 0.0000
# 2 49.1546 85.1781 4.6825 0.0000 -9.2592 0.0000
# 3 4.9751 4.6825 83.4750 0.0000 -1.8052 0.0000
# 4 0.0000 0.0000 0.0000 12.2794 0.0000 -6.0864
# 5 -22.1064 -9.2592 -1.8052 0.0000 27.7101 0.0000
# 6 0.0000 0.0000 0.0000 -6.0864 0.0000 6.2580
#
#
#
# Elastic Compliance Matrix: (Units=1/GPa)
#
#
# Indices 1 2 3 4 5 6 
#
# 1 0.015169 -0.007706 -0.000266 0.000000 0.009510 0.000000
# 2 -0.007706 0.016126 -0.000462 0.000000 -0.000789 0.000000
# 3 -0.000266 -0.000462 0.012030 0.000000 0.000417 0.000000
# 4 0.000000 0.000000 0.000000 0.157238 0.000000 0.152928
# 5 0.009510 -0.000789 0.000417 0.000000 0.043438 0.000000
# 6 0.000000 0.000000 0.000000 0.152928 0.000000 0.308532
#
#
# Mechanical properties :
#
#
# Convention : Reuss Voigt Hill
#
# Bulk Modulus (GPa) = 37.79585 43.45720 40.62653
# Shear Modulus (GPa) = 8.64720 23.56137 16.10428
#
# Velocity S-wave (km/s) = 2.07923 3.43214 2.83750
# Velocity P-wave (km/s) = 4.96592 6.11822 5.57194
#
# Compressibility (1/GPa) = 0.02645793
#
# Stress axis : x y z
#
# Youngs Moduli (GPa) = 65.92263 62.00982 83.12242
#
# Poissons Ratio (x) = 0.47782 0.02213
# Poissons Ratio (y) = 0.50797 0.03844
# Poissons Ratio (z) = 0.01755 0.02867
#
# Static dielectric constant tensor:
#      x y z
#    x 1.727100 0.000000 -0.016030 
#    y 0.000000 1.661440 0.000000 
#    z -0.016030 0.000000 1.735790 
# 
# From -- ./inp_files/8987.got.cif
#   From: 2010.05.17/outbox.cif.g08.bks.cpg/sg3_5_cif.got.tgz:8987.got - 2010.06.03 18:33:08.
