data_PCOD9113759
_publ_section_title
;
Structure prediction by ZEFSAII (Michael W. Deem and Ramdas Pophale) SiO2 
 PCOD9113759
Probable space group: P 2
;
_chemical_formula_sum "Si O2"
_cell_formula_units_Z 16
_cell_length_a 8.204327
_cell_length_b 10.361849
_cell_length_c 9.888522
_cell_angle_alpha 90.000000
_cell_angle_beta 127.807927
_cell_angle_gamma 90.000000
_cell_volume 664.166996
_symmetry_space_group_name_H-M "P 2"
_symmetry_group_IT_number 3
_symmetry_cell_setting 'monoclinic'
loop_
_space_group_symop_operation_xyz
x,y,z
-x,y,-z
loop_
_atom_site_type_symbol
_atom_site_label
_atom_site_fract_x
_atom_site_fract_y
_atom_site_fract_z
Si Si1 0.955527 0.200630 0.636529
Si Si2 0.315641 0.809489 0.009868
Si Si3 0.452512 0.064094 0.136652
Si Si4 0.182709 0.450967 0.493778
Si Si5 0.699866 0.964837 0.508140
Si Si6 0.688349 0.325023 0.997071
Si Si7 0.884310 0.699316 0.689143
Si Si8 0.373391 0.561896 0.203797
O O1 0.143358 0.259574 0.819049
O O2 0.000000 0.172595 0.500000
O O3 0.874279 0.063551 0.647834
O O4 0.383474 0.208600 0.138138
O O5 0.094889 0.760888 0.849111
O O6 0.500000 0.836986 0.000000
O O7 0.409411 0.689244 0.136022
O O8 0.290270 0.947249 0.070321
O O9 0.635937 0.011821 0.324933
O O10 0.500000 0.082236 0.000000
O O11 0.211988 0.315823 0.430730
O O12 0.070945 0.576728 0.378911
O O13 0.406963 0.498172 0.651342
O O14 0.000000 0.407554 0.500000
O O15 0.500000 0.979778 0.500000
O O16 0.767629 0.815945 0.554447
O O17 0.500000 0.366599 0.000000
O O18 0.748824 0.451605 0.942264
O O19 0.746651 0.626177 0.732047
#
# Coordination Sequence:
#
# PCOD9113759 Si02
#       8
#     2   2   2   2   2   2   2   2
#     4  11  24  44  72 107 140 182 239 296 352 421
#     4  11  23  42  67 100 136 182 233 287 348 419
#     4  10  22  43  72 106 141 183 235 294 354 422
#     4  11  23  42  66  98 135 180 234 293 348 414
#     4  12  26  46  70 102 146 192 234 291 356 423
#     4  11  22  43  72 106 143 185 233 296 355 419
#     4  12  26  44  68 102 141 185 234 291 353 422
#     4  12  24  42  67  99 144 189 231 288 355 422
#
# _framework density 24.090326000000001
#
# number of rings (size 3 to 8) (size 9 to 14) (size 15 to 20)
#    0.000    0.750    0.000    9.375    0.000    4.500 
#    0.000    3.125    0.000    0.000    0.000    0.000 
#    0.000    0.000    0.000    0.000    0.000    0.000 
#
# Total GULP energy -89297.662945 kJ/mol
# GULP energy per Si atom -5581.103934 kJ/mol
# Density = 2.403550 g / cm^3
# Si number density = 24.090326 Si / 1000 Ang^3
#
#
#
# Elastic Constant Matrix: (Units=GPa)
#
#
# Indices 1 2 3 4 5 6 
#
# 1 49.7065 11.7835 11.9939 0.0000 13.2337 0.0000
# 2 11.7835 160.4757 12.7317 0.0000 -15.4657 0.0000
# 3 11.9939 12.7317 79.6873 0.0000 14.2739 0.0000
# 4 0.0000 0.0000 0.0000 47.8937 0.0000 5.9164
# 5 13.2337 -15.4657 14.2739 0.0000 22.6165 0.0000
# 6 0.0000 0.0000 0.0000 5.9164 0.0000 -31.9164
#
#
#
# Elastic Compliance Matrix: (Units=1/GPa)
#
#
# Indices 1 2 3 4 5 6 
#
# 1 0.025599 -0.003528 -0.000196 0.000000 -0.017268 0.000000
# 2 -0.003528 0.007492 -0.002202 0.000000 0.008578 0.000000
# 3 -0.000196 -0.002202 0.014860 0.000000 -0.010770 0.000000
# 4 0.000000 0.000000 0.000000 0.020412 0.000000 0.003784
# 5 -0.017268 0.008578 -0.010770 0.000000 0.066982 0.000000
# 6 0.000000 0.000000 0.000000 0.003784 0.000000 -0.030630
#
#
# Mechanical properties :
#
#
# Convention : Reuss Voigt Hill
#
# Bulk Modulus (GPa) = 27.70321 40.32086 34.01203
# Shear Modulus (GPa) = 38.88002 24.60947 31.74474
#
# Velocity S-wave (km/s) = 4.02173 3.19964 3.63400
# Velocity P-wave (km/s) = 5.75243 5.51579 5.63535
#
# Compressibility (1/GPa) = 0.03609690
#
# Stress axis : x y z
#
# Youngs Moduli (GPa) = 39.06365 133.47646 67.29683
#
# Poissons Ratio (x) = 0.47095 0.01320
# Poissons Ratio (y) = 0.13783 0.14822
# Poissons Ratio (z) = 0.00766 0.29397
#
# Static dielectric constant tensor:
#      x y z
#    x 1.806970 0.000000 -0.083820 
#    y 0.000000 2.297980 0.000000 
#    z -0.083820 0.000000 2.113140 
# 
# From -- ./inp_files/6088.got.cif
#   From: 2010.05.17/outbox.cif.g08.bks.cpg/sg3_4_cif.got.tgz:6088.got - 2010.06.03 18:33:08.
