data_PCOD9113110
_publ_section_title
;
Structure prediction by ZEFSAII (Michael W. Deem and Ramdas Pophale) SiO2 
 PCOD9113110
Probable space group: P 2
;
_chemical_formula_sum "Si O2"
_cell_formula_units_Z 10
_cell_length_a 11.886949
_cell_length_b 6.294532
_cell_length_c 6.232791
_cell_angle_alpha 90.000000
_cell_angle_beta 96.880938
_cell_angle_gamma 90.000000
_cell_volume 462.995721
_symmetry_space_group_name_H-M "P 2"
_symmetry_group_IT_number 3
_symmetry_cell_setting 'monoclinic'
loop_
_space_group_symop_operation_xyz
x,y,z
-x,y,-z
loop_
_atom_site_type_symbol
_atom_site_label
_atom_site_fract_x
_atom_site_fract_y
_atom_site_fract_z
Si Si1 0.000000 0.212040 0.000000
Si Si2 0.157319 0.429158 0.369367
Si Si3 0.636617 0.192289 0.812387
Si Si4 0.700769 0.809088 0.549208
Si Si5 0.500000 0.484310 0.500000
Si Si6 0.209627 0.145364 0.772050
O O1 0.946765 0.354659 0.798263
O O2 0.105675 0.090186 0.910974
O O3 0.188892 0.675057 0.356137
O O4 0.261888 0.308386 0.286535
O O5 0.163458 0.337404 0.612031
O O6 0.642819 0.953657 0.720384
O O7 0.530824 0.327220 0.704129
O O8 0.679226 0.201845 0.064138
O O9 0.605181 0.637044 0.465358
O O10 0.747350 0.958028 0.371599
#
# Coordination Sequence:
#
# PCOD9113110 Si02
#       6
#     1   2   2   2   1   2
#     4  10  20  40  64  86 126 168 194 246 310 352
#     4   9  20  39  60  87 121 158 203 248 297 359
#     4   9  20  39  60  86 124 159 197 252 301 354
#     4  10  21  40  63  91 122 157 206 251 296 364
#     4  10  20  40  64  88 124 164 198 246 310 358
#     4  10  21  40  62  90 125 160 202 251 299 358
#
# _framework density 21.598472999999998
#
# number of rings (size 3 to 8) (size 9 to 14) (size 15 to 20)
#    0.000    2.400    0.000    1.200    0.000    4.800 
#    0.000   48.000    0.000    0.000    0.000    0.000 
#    0.000    0.000    0.000    0.000    0.000    0.000 
#
# Total GULP energy -55709.276442 kJ/mol
# GULP energy per Si atom -5570.927644 kJ/mol
# Density = 2.154931 g / cm^3
# Si number density = 21.598473 Si / 1000 Ang^3
#
#
#
# Elastic Constant Matrix: (Units=GPa)
#
#
# Indices 1 2 3 4 5 6 
#
# 1 105.7132 39.0399 42.2920 0.0000 0.8838 0.0000
# 2 39.0399 95.4540 55.4175 0.0000 11.2827 0.0000
# 3 42.2920 55.4175 127.5493 0.0000 27.5872 0.0000
# 4 0.0000 0.0000 0.0000 10.4451 0.0000 7.3886
# 5 0.8838 11.2827 27.5872 0.0000 37.6694 0.0000
# 6 0.0000 0.0000 0.0000 7.3886 0.0000 22.7542
#
#
#
# Elastic Compliance Matrix: (Units=1/GPa)
#
#
# Indices 1 2 3 4 5 6 
#
# 1 0.011953 -0.003431 -0.003130 0.000000 0.003040 0.000000
# 2 -0.003431 0.014998 -0.005257 0.000000 -0.000562 0.000000
# 3 -0.003130 -0.005257 0.012839 0.000000 -0.007755 0.000000
# 4 0.000000 0.000000 0.000000 0.124286 0.000000 -0.040357
# 5 0.003040 -0.000562 -0.007755 0.000000 0.032323 0.000000
# 6 0.000000 0.000000 0.000000 -0.040357 0.000000 0.057052
#
#
# Mechanical properties :
#
#
# Convention : Reuss Voigt Hill
#
# Bulk Modulus (GPa) = 61.90344 66.91282 64.40813
# Shear Modulus (GPa) = 17.70077 26.97154 22.33616
#
# Velocity S-wave (km/s) = 2.86586 3.53763 3.21932
# Velocity P-wave (km/s) = 6.29874 6.90898 6.61091
#
# Compressibility (1/GPa) = 0.01615419
#
# Stress axis : x y z
#
# Youngs Moduli (GPa) = 83.65782 66.67542 77.88473
#
# Poissons Ratio (x) = 0.22875 0.24380
# Poissons Ratio (y) = 0.28702 0.40946
# Poissons Ratio (z) = 0.26187 0.35053
#
# Static dielectric constant tensor:
#      x y z
#    x 1.842740 0.000000 0.016520 
#    y 0.000000 1.832360 0.000000 
#    z 0.016520 0.000000 1.848970 
# 
# From -- ./inp_files/1954.got.cif
#   From: 2010.05.17/outbox.cif.g08.bks.cpg/sg3_1_cif.got.tgz:1954.got - 2010.06.03 18:33:08.
