data_PCOD9113659
_publ_section_title
;
Structure prediction by ZEFSAII (Michael W. Deem and Ramdas Pophale) SiO2 
 PCOD9113659
Probable space group: P 2
;
_chemical_formula_sum "Si O2"
_cell_formula_units_Z 15
_cell_length_a 11.931869
_cell_length_b 9.621519
_cell_length_c 9.332270
_cell_angle_alpha 90.000000
_cell_angle_beta 142.532905
_cell_angle_gamma 90.000000
_cell_volume 651.720382
_symmetry_space_group_name_H-M "P 2"
_symmetry_group_IT_number 3
_symmetry_cell_setting 'monoclinic'
loop_
_space_group_symop_operation_xyz
x,y,z
-x,y,-z
loop_
_atom_site_type_symbol
_atom_site_label
_atom_site_fract_x
_atom_site_fract_y
_atom_site_fract_z
Si Si1 0.000000 0.578280 0.500000
Si Si2 0.357365 0.253729 0.724834
Si Si3 0.780489 0.702278 0.779158
Si Si4 0.207040 0.002560 0.266859
Si Si5 0.714465 0.505976 0.979275
Si Si6 0.963956 0.051383 0.611377
Si Si7 0.681767 0.185283 0.867350
Si Si8 0.684848 0.567164 0.381523
O O1 0.119599 0.499420 0.740576
O O2 0.166750 0.640612 0.572087
O O3 0.173644 0.173371 0.580215
O O4 0.484130 0.164643 0.743731
O O5 0.285851 0.399930 0.590619
O O6 0.500000 0.279512 0.000000
O O7 0.709252 0.859595 0.706932
O O8 0.711888 0.625509 0.567711
O O9 0.740924 0.613143 0.878261
O O10 0.000000 0.714012 0.000000
O O11 0.160769 0.985504 0.388745
O O12 0.302362 0.129247 0.278314
O O13 0.000000 0.018141 0.000000
O O14 0.697701 0.352123 0.896366
O O15 0.532466 0.565435 0.872517
O O16 0.000000 0.968502 0.500000
O O17 0.152387 0.109570 0.875335
#
# Coordination Sequence:
#
# PCOD9113659 Si02
#       8
#     1   2   2   2   2   2   2   2
#     4  12  22  42  68 104 140 178 228 282 350 412
#     4  11  22  38  65 101 138 166 224 276 346 408
#     4  11  23  47  69  95 137 186 232 283 341 406
#     4   9  23  45  69  97 132 179 228 276 340 409
#     4  11  24  41  71 102 138 175 229 286 348 407
#     4  11  22  40  69  96 132 175 213 274 346 401
#     4  10  22  41  65  98 134 167 217 284 334 404
#     4  11  24  40  66 101 135 178 223 283 342 405
#
# _framework density 23.016005
#
# number of rings (size 3 to 8) (size 9 to 14) (size 15 to 20)
#    0.000    1.333    2.667    3.200    3.733    1.067 
#    6.000    0.000    0.000    0.800    0.000    0.000 
#    0.000    0.000    0.000    0.000    0.000    0.000 
#
# Total GULP energy -83629.178876 kJ/mol
# GULP energy per Si atom -5575.278592 kJ/mol
# Density = 2.296362 g / cm^3
# Si number density = 23.016005 Si / 1000 Ang^3
#
#
#
# Elastic Constant Matrix: (Units=GPa)
#
#
# Indices 1 2 3 4 5 6 
#
# 1 172.2785 43.9300 52.1471 0.0000 -5.5030 0.0000
# 2 43.9300 48.9688 22.6814 0.0000 -13.7405 0.0000
# 3 52.1471 22.6814 119.7987 0.0000 6.5124 0.0000
# 4 0.0000 0.0000 0.0000 143.6056 0.0000 247.0172
# 5 -5.5030 -13.7405 6.5124 0.0000 54.0006 0.0000
# 6 0.0000 0.0000 0.0000 247.0172 0.0000 465.7218
#
#
#
# Elastic Compliance Matrix: (Units=1/GPa)
#
#
# Indices 1 2 3 4 5 6 
#
# 1 0.008102 -0.006348 -0.002297 0.000000 -0.000513 0.000000
# 2 -0.006348 0.029669 -0.003250 0.000000 0.007294 0.000000
# 3 -0.002297 -0.003250 0.010086 0.000000 -0.002278 0.000000
# 4 0.000000 0.000000 0.000000 0.079438 0.000000 -0.042134
# 5 -0.000513 0.007294 -0.002278 0.000000 0.020597 0.000000
# 6 0.000000 0.000000 0.000000 -0.042134 0.000000 0.024495
#
#
# Mechanical properties :
#
#
# Convention : Reuss Voigt Hill
#
# Bulk Modulus (GPa) = 41.55279 64.28478 52.91879
# Shear Modulus (GPa) = 24.48581 147.48475 85.98528
#
# Velocity S-wave (km/s) = 3.26523 8.01363 6.11882
# Velocity P-wave (km/s) = 5.68407 10.65906 8.54179
#
# Compressibility (1/GPa) = 0.02406577
#
# Stress axis : x y z
#
# Youngs Moduli (GPa) = 123.42190 33.70570 99.14365
#
# Poissons Ratio (x) = 0.21398 0.22773
# Poissons Ratio (y) = 0.78354 0.32224
# Poissons Ratio (z) = 0.28350 0.10955
#
# Static dielectric constant tensor:
#      x y z
#    x 1.933710 0.000000 0.037700 
#    y 0.000000 1.850500 0.000000 
#    z 0.037700 0.000000 1.672860 
# 
# From -- ./inp_files/7751.got.cif
#   From: 2010.05.17/outbox.cif.g08.bks.cpg/sg3_4_cif.got.tgz:7751.got - 2010.06.03 18:33:08.
