data_PCOD9113399
_publ_section_title
;
Structure prediction by ZEFSAII (Michael W. Deem and Ramdas Pophale) SiO2 
 PCOD9113399
Probable space group: P 2
;
_chemical_formula_sum "Si O2"
_cell_formula_units_Z 12
_cell_length_a 13.268917
_cell_length_b 5.410932
_cell_length_c 7.187647
_cell_angle_alpha 90.000000
_cell_angle_beta 104.865583
_cell_angle_gamma 90.000000
_cell_volume 498.780877
_symmetry_space_group_name_H-M "P 2"
_symmetry_group_IT_number 3
_symmetry_cell_setting 'monoclinic'
loop_
_space_group_symop_operation_xyz
x,y,z
-x,y,-z
loop_
_atom_site_type_symbol
_atom_site_label
_atom_site_fract_x
_atom_site_fract_y
_atom_site_fract_z
Si Si1 0.235410 0.250000 0.601204
Si Si2 0.364692 0.711885 0.959580
Si Si3 0.612712 0.596701 0.463061
Si Si4 0.109730 0.750393 0.451787
Si Si5 0.336974 0.214776 0.052081
Si Si6 0.779753 0.846641 0.821470
O O1 0.377709 0.700682 0.744910
O O2 0.341740 0.318794 0.540089
O O3 0.274213 0.239280 0.830513
O O4 0.175893 0.996585 0.534616
O O5 0.162343 0.489087 0.531674
O O6 0.402757 0.464398 0.081636
O O7 0.405561 0.967640 0.065126
O O8 0.500000 0.608070 0.500000
O O9 0.692138 0.734885 0.640407
O O10 0.750408 0.134936 0.839146
O O11 0.113855 0.775940 0.228220
O O12 0.000000 0.766566 0.500000
O O13 0.245908 0.731264 0.987834
#
# Coordination Sequence:
#
# PCOD9113399 Si02
#       6
#     2   2   2   2   2   2
#     4  10  21  41  65  91 135 172 209 280 325 384
#     4   9  20  37  60  88 126 165 211 262 319 378
#     4  10  21  40  67  96 131 177 224 267 332 388
#     4  11  23  40  68  98 130 172 223 268 334 397
#     4   9  18  37  63  84 121 169 206 255 333 367
#     4   9  22  37  68  85 132 167 214 266 327 376
#
# _framework density 24.058662999999999
#
# number of rings (size 3 to 8) (size 9 to 14) (size 15 to 20)
#    1.000    1.333    0.000    3.500    4.667    0.667 
#    0.000   14.167   11.000    0.000    0.000    0.000 
#    0.000    0.000    0.000    0.000    0.000    0.000 
#
# Total GULP energy -66830.255723 kJ/mol
# GULP energy per Si atom -5569.187977 kJ/mol
# Density = 2.400390 g / cm^3
# Si number density = 24.058663 Si / 1000 Ang^3
#
#
#
# Elastic Constant Matrix: (Units=GPa)
#
#
# Indices 1 2 3 4 5 6 
#
# 1 130.2245 30.3277 30.1324 0.0000 -54.1895 0.0000
# 2 30.3277 177.2001 32.8761 0.0000 -5.2490 0.0000
# 3 30.1324 32.8761 113.2173 0.0000 -40.7169 0.0000
# 4 0.0000 0.0000 0.0000 53.7840 0.0000 -5.4673
# 5 -54.1895 -5.2490 -40.7169 0.0000 44.1461 0.0000
# 6 0.0000 0.0000 0.0000 -5.4673 0.0000 2.5222
#
#
#
# Elastic Compliance Matrix: (Units=1/GPa)
#
#
# Indices 1 2 3 4 5 6 
#
# 1 0.019001 -0.003572 0.006308 0.000000 0.028717 0.000000
# 2 -0.003572 0.006689 -0.003415 0.000000 -0.006739 0.000000
# 3 0.006308 -0.003415 0.016136 0.000000 0.022220 0.000000
# 4 0.000000 0.000000 0.000000 0.023848 0.000000 0.051695
# 5 0.028717 -0.006739 0.022220 0.000000 0.077595 0.000000
# 6 0.000000 0.000000 0.000000 0.051695 0.000000 0.508542
#
#
# Mechanical properties :
#
#
# Convention : Reuss Voigt Hill
#
# Bulk Modulus (GPa) = 24.71093 67.47937 46.09515
# Shear Modulus (GPa) = 7.50010 41.91084 24.70547
#
# Velocity S-wave (km/s) = 1.76754 4.17829 3.20798
# Velocity P-wave (km/s) = 3.80250 7.16842 5.73782
#
# Compressibility (1/GPa) = 0.04046792
#
# Stress axis : x y z
#
# Youngs Moduli (GPa) = 52.62848 149.50750 61.97140
#
# Poissons Ratio (x) = 0.53399 -0.39090
# Poissons Ratio (y) = 0.18797 0.21164
# Poissons Ratio (z) = -0.33196 0.51060
#
# Static dielectric constant tensor:
#      x y z
#    x 1.962420 0.000000 -0.073750 
#    y 0.000000 2.117220 0.000000 
#    z -0.073750 0.000000 1.989480 
# 
# From -- ./inp_files/6551.got.cif
#   From: 2010.05.17/outbox.cif.g08.bks.cpg/sg3_4_cif.got.tgz:6551.got - 2010.06.03 18:33:08.
