data_PCOD9113719
_publ_section_title
;
Structure prediction by ZEFSAII (Michael W. Deem and Ramdas Pophale) SiO2 
 PCOD9113719
Probable space group: P 2
;
_chemical_formula_sum "Si O2"
_cell_formula_units_Z 15
_cell_length_a 11.481405
_cell_length_b 5.401637
_cell_length_c 15.617805
_cell_angle_alpha 90.000000
_cell_angle_beta 140.032578
_cell_angle_gamma 90.000000
_cell_volume 622.176304
_symmetry_space_group_name_H-M "P 2"
_symmetry_group_IT_number 3
_symmetry_cell_setting 'monoclinic'
loop_
_space_group_symop_operation_xyz
x,y,z
-x,y,-z
loop_
_atom_site_type_symbol
_atom_site_label
_atom_site_fract_x
_atom_site_fract_y
_atom_site_fract_z
Si Si1 0.357122 0.437520 0.480538
Si Si2 0.131084 0.882943 0.755022
Si Si3 0.766940 0.628800 0.956217
Si Si4 0.559289 0.927649 0.194742
Si Si5 0.000000 0.004543 0.000000
Si Si6 0.380384 0.257211 0.240727
Si Si7 0.145694 0.669141 0.521627
Si Si8 0.032880 0.369963 0.797463
O O1 0.500000 0.580896 0.500000
O O2 0.489916 0.240301 0.603512
O O3 0.252812 0.543834 0.504526
O O4 0.184468 0.382093 0.323684
O O5 0.077226 0.104064 0.785654
O O6 0.322915 0.967120 0.823334
O O7 0.109230 0.607190 0.784516
O O8 0.981127 0.874600 0.594416
O O9 0.611900 0.757793 0.923561
O O10 0.669603 0.539235 0.814252
O O11 0.862827 0.399242 0.054782
O O12 0.924778 0.821927 0.030048
O O13 0.700076 0.774417 0.331392
O O14 0.484447 0.142632 0.215710
O O15 0.817550 0.135257 0.864004
O O16 0.000000 0.522889 0.500000
#
# Coordination Sequence:
#
# PCOD9113719 Si02
#       8
#     2   2   2   2   1   2   2   2
#     4  11  25  42  72 110 144 191 248 318 376 446
#     4  10  24  45  72 106 147 196 238 313 371 440
#     4  11  25  44  69 102 142 191 243 306 375 455
#     4  10  22  42  71 106 134 196 251 302 360 460
#     4  10  26  44  72  96 136 194 254 304 374 456
#     4  11  24  43  73  98 139 188 254 301 371 454
#     4   9  19  43  72 104 148 191 250 305 372 448
#     4  11  27  46  69 106 152 188 239 304 388 435
#
# _framework density 24.108923000000001
#
# number of rings (size 3 to 8) (size 9 to 14) (size 15 to 20)
#    0.000    1.600    1.333    1.200    9.333    1.600 
#    0.000    6.667    0.000    0.000    0.000    0.000 
#    0.000    0.000    0.000    0.000    0.000    0.000 
#
# Total GULP energy -83700.384537 kJ/mol
# GULP energy per Si atom -5580.025636 kJ/mol
# Density = 2.405405 g / cm^3
# Si number density = 24.108923 Si / 1000 Ang^3
#
#
#
# Elastic Constant Matrix: (Units=GPa)
#
#
# Indices 1 2 3 4 5 6 
#
# 1 147.2810 29.4503 42.8403 0.0000 46.2176 0.0000
# 2 29.4503 44.7257 6.3802 0.0000 17.4389 0.0000
# 3 42.8403 6.3802 132.1569 0.0000 17.7828 0.0000
# 4 0.0000 0.0000 0.0000 15.9212 0.0000 -6.5457
# 5 46.2176 17.4389 17.7828 0.0000 44.8983 0.0000
# 6 0.0000 0.0000 0.0000 -6.5457 0.0000 33.8608
#
#
#
# Elastic Compliance Matrix: (Units=1/GPa)
#
#
# Indices 1 2 3 4 5 6 
#
# 1 0.010947 -0.003347 -0.002161 0.000000 -0.009113 0.000000
# 2 -0.003347 0.027374 0.000772 0.000000 -0.007493 0.000000
# 3 -0.002161 0.000772 0.008420 0.000000 -0.001410 0.000000
# 4 0.000000 0.000000 0.000000 0.068232 0.000000 0.013190
# 5 -0.009113 -0.007493 -0.001410 0.000000 0.035122 0.000000
# 6 0.000000 0.000000 0.000000 0.013190 0.000000 0.032083
#
#
# Mechanical properties :
#
#
# Convention : Reuss Voigt Hill
#
# Bulk Modulus (GPa) = 26.83239 53.50057 40.16648
# Shear Modulus (GPa) = 24.50108 35.30225 29.90167
#
# Velocity S-wave (km/s) = 3.19135 3.83074 3.52557
# Velocity P-wave (km/s) = 4.97327 6.46572 5.76797
#
# Compressibility (1/GPa) = 0.03726840
#
# Stress axis : x y z
#
# Youngs Moduli (GPa) = 91.34683 36.53150 118.76863
#
# Poissons Ratio (x) = 0.12227 0.25664
# Poissons Ratio (y) = 0.30572 -0.09164
# Poissons Ratio (z) = 0.19739 -0.02819
#
# Static dielectric constant tensor:
#      x y z
#    x 2.050960 0.000000 -0.050420 
#    y 0.000000 1.937460 0.000000 
#    z -0.050420 0.000000 1.957750 
# 
# From -- ./inp_files/15229.got.cif
#   From: 2010.05.17/outbox.cif.g08.bks.cpg/sg3_8_cif.got.tgz:15229.got - 2010.06.03 18:33:08.
