data_PCOD9113185
_publ_section_title
;
Structure prediction by ZEFSAII (Michael W. Deem and Ramdas Pophale) SiO2 
 PCOD9113185
Probable space group: P 2
;
_chemical_formula_sum "Si O2"
_cell_formula_units_Z 13
_cell_length_a 17.666785
_cell_length_b 5.367237
_cell_length_c 9.090311
_cell_angle_alpha 90.000000
_cell_angle_beta 40.857458
_cell_angle_gamma 90.000000
_cell_volume 563.876391
_symmetry_space_group_name_H-M "P 2"
_symmetry_group_IT_number 3
_symmetry_cell_setting 'monoclinic'
loop_
_space_group_symop_operation_xyz
x,y,z
-x,y,-z
loop_
_atom_site_type_symbol
_atom_site_label
_atom_site_fract_x
_atom_site_fract_y
_atom_site_fract_z
Si Si1 0.067077 0.776540 0.057863
Si Si2 0.500000 0.515488 0.000000
Si Si3 0.023172 0.283495 0.789010
Si Si4 0.323066 0.621919 0.742070
Si Si5 0.385689 0.845781 0.947206
Si Si6 0.587752 0.109973 0.532489
Si Si7 0.713056 0.145671 0.648713
O O1 0.003189 0.554579 0.236904
O O2 0.196260 0.669758 0.860216
O O3 0.057815 0.052078 0.139726
O O4 0.000000 0.805293 0.000000
O O5 0.513471 0.686462 0.122746
O O6 0.382982 0.357033 0.177625
O O7 0.154530 0.221065 0.558993
O O8 0.000000 0.309645 0.000000
O O9 0.324149 0.674303 0.916046
O O10 0.376396 0.362259 0.605662
O O11 0.394547 0.859352 0.583696
O O12 0.455133 0.088047 0.783011
O O13 0.305125 0.939662 0.198504
O O14 0.673956 0.075434 0.542600
#
# Coordination Sequence:
#
# PCOD9113185 Si02
#       7
#     2   1   2   2   2   2   2
#     4  10  20  43  67 105 134 185 246 309 379 433
#     4  12  24  48  74 104 152 214 256 302 388 486
#     4  10  22  40  72 105 136 184 257 317 361 440
#     4  12  28  45  76 107 158 190 258 327 380 441
#     4  12  28  45  71 112 155 207 256 316 391 467
#     4  12  24  46  71 111 144 205 247 317 376 466
#     4  12  25  45  76 107 152 203 259 306 389 469
#
# _framework density 23.0547
#
# number of rings (size 3 to 8) (size 9 to 14) (size 15 to 20)
#    0.000    0.615    3.077    6.000    4.308    2.462 
#    0.000    0.769    0.000    0.000    0.000    0.000 
#    0.000    0.000    0.000    0.000    0.000    0.000 
#
# Total GULP energy -72606.287783 kJ/mol
# GULP energy per Si atom -5585.099060 kJ/mol
# Density = 2.300223 g / cm^3
# Si number density = 23.054700 Si / 1000 Ang^3
#
#
#
# Elastic Constant Matrix: (Units=GPa)
#
#
# Indices 1 2 3 4 5 6 
#
# 1 93.9871 7.4159 24.9532 0.0000 10.3242 0.0000
# 2 7.4159 120.8196 19.6451 0.0000 19.7300 0.0000
# 3 24.9532 19.6451 85.6273 0.0000 -0.4862 0.0000
# 4 0.0000 0.0000 0.0000 -237.9741 0.0000 -95.3521
# 5 10.3242 19.7300 -0.4862 0.0000 36.4628 0.0000
# 6 0.0000 0.0000 0.0000 -95.3521 0.0000 -8.7277
#
#
#
# Elastic Compliance Matrix: (Units=1/GPa)
#
#
# Indices 1 2 3 4 5 6 
#
# 1 0.011968 0.000454 -0.003613 0.000000 -0.003682 0.000000
# 2 0.000454 0.009495 -0.002341 0.000000 -0.005297 0.000000
# 3 -0.003613 -0.002341 0.013282 0.000000 0.002467 0.000000
# 4 0.000000 0.000000 0.000000 0.001244 0.000000 -0.013593
# 5 -0.003682 -0.005297 0.002467 0.000000 0.031367 0.000000
# 6 0.000000 0.000000 0.000000 -0.013593 0.000000 0.033923
#
#
# Mechanical properties :
#
#
# Convention : Reuss Voigt Hill
#
# Bulk Modulus (GPa) = 42.11223 44.94028 43.52625
# Shear Modulus (GPa) = 41.59978 -25.48648 8.05665
#
# Velocity S-wave (km/s) = 4.25243 -3.32848 1.87141
# Velocity P-wave (km/s) = 6.51281 2.18254 4.85696
#
# Compressibility (1/GPa) = 0.02374607
#
# Stress axis : x y z
#
# Youngs Moduli (GPa) = 83.55917 105.32320 75.28799
#
# Poissons Ratio (x) = -0.04784 0.27199
# Poissons Ratio (y) = -0.03795 0.17623
# Poissons Ratio (z) = 0.30187 0.24653
#
# Static dielectric constant tensor:
#      x y z
#    x 1.844130 0.000000 -0.020440 
#    y 0.000000 1.942870 0.000000 
#    z -0.020440 0.000000 1.948580 
# 
# From -- ./inp_files/8807.got.cif
#   From: 2010.05.17/outbox.cif.g08.bks.cpg/sg3_5_cif.got.tgz:8807.got - 2010.06.03 18:33:08.
