data_PCOD9113716
_publ_section_title
;
Structure prediction by ZEFSAII (Michael W. Deem and Ramdas Pophale) SiO2 
 PCOD9113716
Probable space group: P 2
;
_chemical_formula_sum "Si O2"
_cell_formula_units_Z 14
_cell_length_a 8.690603
_cell_length_b 5.488460
_cell_length_c 18.840521
_cell_angle_alpha 90.000000
_cell_angle_beta 140.455295
_cell_angle_gamma 90.000000
_cell_volume 572.156175
_symmetry_space_group_name_H-M "P 2"
_symmetry_group_IT_number 3
_symmetry_cell_setting 'monoclinic'
loop_
_space_group_symop_operation_xyz
x,y,z
-x,y,-z
loop_
_atom_site_type_symbol
_atom_site_label
_atom_site_fract_x
_atom_site_fract_y
_atom_site_fract_z
Si Si1 0.702804 0.175790 0.466547
Si Si2 0.441544 0.302815 0.122235
Si Si3 0.013103 0.684867 0.220360
Si Si4 0.637923 0.689635 0.783993
Si Si5 0.000000 0.024853 0.000000
Si Si6 0.782785 0.042797 0.347897
Si Si7 0.165497 0.188005 0.332767
Si Si8 0.500000 0.604571 0.000000
O O1 0.732988 0.240320 0.394067
O O2 0.418677 0.147746 0.379833
O O3 0.774859 0.296835 0.567410
O O4 0.932196 0.986634 0.551969
O O5 0.378014 0.468321 0.167646
O O6 0.660800 0.138740 0.231469
O O7 0.187459 0.170225 0.018009
O O8 0.496410 0.453543 0.071762
O O9 0.239586 0.657541 0.247848
O O10 0.006067 0.406126 0.245125
O O11 0.061605 0.912646 0.289833
O O12 0.755239 0.743915 0.092658
O O13 0.378546 0.815423 0.686871
O O14 0.822034 0.873334 0.887862
#
# Coordination Sequence:
#
# PCOD9113716 Si02
#       8
#     2   2   2   2   1   2   2   1
#     4  10  22  45  73 105 144 195 245 310 373 435
#     4  11  24  44  67 105 142 194 249 309 367 451
#     4  12  27  48  74 110 152 199 244 307 371 450
#     4  11  23  43  70 101 143 198 245 307 361 457
#     4  10  22  42  70  94 144 192 254 292 372 440
#     4  10  22  45  70 104 143 188 253 308 368 444
#     4  11  26  48  74 108 154 192 251 304 377 437
#     4  12  28  44  74 112 150 196 246 314 380 440
#
# _framework density 24.468844000000001
#
# number of rings (size 3 to 8) (size 9 to 14) (size 15 to 20)
#    0.000    1.143    1.429    3.857    6.000    2.857 
#    5.143    1.429    0.000    0.000    0.000    0.000 
#    0.000    0.000    0.000    0.000    0.000    0.000 
#
# Total GULP energy -77972.423545 kJ/mol
# GULP energy per Si atom -5569.458825 kJ/mol
# Density = 2.441315 g / cm^3
# Si number density = 24.468844 Si / 1000 Ang^3
#
#
#
# Elastic Constant Matrix: (Units=GPa)
#
#
# Indices 1 2 3 4 5 6 
#
# 1 57.5010 25.4507 24.1448 0.0000 1.7293 0.0000
# 2 25.4507 76.7566 23.5540 0.0000 8.8985 0.0000
# 3 24.1448 23.5540 112.3579 0.0000 26.9375 0.0000
# 4 0.0000 0.0000 0.0000 4.5671 0.0000 20.5477
# 5 1.7293 8.8985 26.9375 0.0000 59.5578 0.0000
# 6 0.0000 0.0000 0.0000 20.5477 0.0000 18.6729
#
#
#
# Elastic Compliance Matrix: (Units=1/GPa)
#
#
# Indices 1 2 3 4 5 6 
#
# 1 0.021713 -0.006257 -0.003844 0.000000 0.002043 0.000000
# 2 -0.006257 0.015766 -0.001614 0.000000 -0.001444 0.000000
# 3 -0.003844 -0.001614 0.011194 0.000000 -0.004710 0.000000
# 4 0.000000 0.000000 0.000000 -0.055421 0.000000 0.060985
# 5 0.002043 -0.001444 -0.004710 0.000000 0.019077 0.000000
# 6 0.000000 0.000000 0.000000 0.060985 0.000000 -0.013555
#
#
# Mechanical properties :
#
#
# Convention : Reuss Voigt Hill
#
# Bulk Modulus (GPa) = 39.61655 43.65716 41.63685
# Shear Modulus (GPa) = 163.30105 28.12395 95.71250
#
# Velocity S-wave (km/s) = 8.17822 3.39393 6.26107
# Velocity P-wave (km/s) = 10.26662 5.76533 8.32594
#
# Compressibility (1/GPa) = 0.02524198
#
# Stress axis : x y z
#
# Youngs Moduli (GPa) = 46.05520 63.42941 89.33470
#
# Poissons Ratio (x) = 0.39686 0.34342
# Poissons Ratio (y) = 0.28816 0.14422
# Poissons Ratio (z) = 0.17704 0.10240
#
# Static dielectric constant tensor:
#      x y z
#    x 1.980730 0.000000 -0.117820 
#    y 0.000000 2.000990 0.000000 
#    z -0.117820 0.000000 2.008480 
# 
# From -- ./inp_files/6769.got.cif
#   From: 2010.05.17/outbox.cif.g08.bks.cpg/sg3_4_cif.got.tgz:6769.got - 2010.06.03 18:33:08.
