data_PCOD9113797
_publ_section_title
;
Structure prediction by ZEFSAII (Michael W. Deem and Ramdas Pophale) SiO2 
 PCOD9113797
Probable space group: P 2
;
_chemical_formula_sum "Si O2"
_cell_formula_units_Z 16
_cell_length_a 7.126583
_cell_length_b 5.463143
_cell_length_c 20.007797
_cell_angle_alpha 90.000000
_cell_angle_beta 78.929382
_cell_angle_gamma 90.000000
_cell_volume 764.478675
_symmetry_space_group_name_H-M "P 2"
_symmetry_group_IT_number 3
_symmetry_cell_setting 'monoclinic'
loop_
_space_group_symop_operation_xyz
x,y,z
-x,y,-z
loop_
_atom_site_type_symbol
_atom_site_label
_atom_site_fract_x
_atom_site_fract_y
_atom_site_fract_z
Si Si1 0.961191 0.704740 0.712272
Si Si2 0.373573 0.448405 0.205119
Si Si3 0.099706 0.793354 0.564599
Si Si4 0.705883 0.362599 0.285165
Si Si5 0.333430 0.289051 0.564260
Si Si6 0.046057 0.104089 0.189879
Si Si7 0.591023 0.654014 0.067865
Si Si8 0.832643 0.152051 0.065145
O O1 0.777711 0.527577 0.726827
O O2 0.965378 0.826357 0.639264
O O3 0.178999 0.614348 0.709539
O O4 0.916028 0.838279 0.784934
O O5 0.560259 0.365960 0.233824
O O6 0.246167 0.244909 0.176603
O O7 0.448973 0.625411 0.141025
O O8 0.190767 0.521174 0.565476
O O9 0.000000 0.802875 0.500000
O O10 0.242578 0.023223 0.557423
O O11 0.609045 0.290790 0.361432
O O12 0.890207 0.198055 0.254938
O O13 0.500000 0.328625 0.500000
O O14 0.938680 0.131181 0.128434
O O15 0.724946 0.412030 0.065612
O O16 0.698018 0.914354 0.066500
O O17 0.500000 0.643316 0.000000
O O18 0.000000 0.139990 0.000000
#
# Coordination Sequence:
#
# PCOD9113797 Si02
#       8
#     2   2   2   2   2   2   2   2
#     4  10  24  41  68  97 137 180 225 283 339 407
#     4  11  25  41  72 103 133 179 230 280 338 406
#     4  11  24  44  66  97 138 177 225 281 339 404
#     4  10  22  45  64  99 138 177 225 285 338 400
#     4  11  24  43  67  98 135 179 226 279 340 404
#     4  11  23  43  70  99 138 177 228 277 346 398
#     4  12  27  47  70 104 141 179 232 280 334 408
#     4  12  27  46  73  99 143 185 221 284 342 398
#
# _framework density 20.929296000000001
#
# number of rings (size 3 to 8) (size 9 to 14) (size 15 to 20)
#    0.000    1.000    2.500    3.000    7.000    2.000 
#    0.000    0.000    0.000    0.000    0.000    0.000 
#    0.000    0.000    0.000    0.000    0.000    0.000 
#
# Total GULP energy -89188.131648 kJ/mol
# GULP energy per Si atom -5574.258228 kJ/mol
# Density = 2.088166 g / cm^3
# Si number density = 20.929296 Si / 1000 Ang^3
#
#
#
# Elastic Constant Matrix: (Units=GPa)
#
#
# Indices 1 2 3 4 5 6 
#
# 1 99.7771 20.0464 44.5205 0.0000 7.8643 0.0000
# 2 20.0464 58.0918 0.9836 0.0000 9.1982 0.0000
# 3 44.5205 0.9836 130.8416 0.0000 6.9484 0.0000
# 4 0.0000 0.0000 0.0000 26.4636 0.0000 0.2998
# 5 7.8643 9.1982 6.9484 0.0000 46.5285 0.0000
# 6 0.0000 0.0000 0.0000 0.2998 0.0000 -5.7752
#
#
#
# Elastic Compliance Matrix: (Units=1/GPa)
#
#
# Indices 1 2 3 4 5 6 
#
# 1 0.012852 -0.004253 -0.004304 0.000000 -0.000689 0.000000
# 2 -0.004253 0.019178 0.001478 0.000000 -0.003293 0.000000
# 3 -0.004304 0.001478 0.009146 0.000000 -0.000930 0.000000
# 4 0.000000 0.000000 0.000000 0.037766 0.000000 0.001961
# 5 -0.000689 -0.003293 -0.000930 0.000000 0.022399 0.000000
# 6 0.000000 0.000000 0.000000 0.001961 0.000000 -0.173052
#
#
# Mechanical properties :
#
#
# Convention : Reuss Voigt Hill
#
# Bulk Modulus (GPa) = 37.01435 46.64573 41.83004
# Shear Modulus (GPa) = -102.99180 28.32070 -37.33555
#
# Velocity S-wave (km/s) = -7.02255 3.68252 -4.22819
# Velocity P-wave (km/s) = 6.93045 6.35744 1.95117
#
# Compressibility (1/GPa) = 0.02701655
#
# Stress axis : x y z
#
# Youngs Moduli (GPa) = 77.81052 52.14261 109.34021
#
# Poissons Ratio (x) = 0.22176 0.47065
# Poissons Ratio (y) = 0.33093 -0.16159
# Poissons Ratio (z) = 0.33493 -0.07706
#
# Static dielectric constant tensor:
#      x y z
#    x 1.750130 0.000000 -0.045580 
#    y 0.000000 1.930290 0.000000 
#    z -0.045580 0.000000 1.793310 
# 
# From -- ./inp_files/15577.got.cif
#   From: 2010.05.17/outbox.cif.g08.bks.cpg/sg3_8_cif.got.tgz:15577.got - 2010.06.03 18:33:08.
