data_PCOD9113889
_publ_section_title
;
Structure prediction by ZEFSAII (Michael W. Deem and Ramdas Pophale) SiO2 
 PCOD9113889
Probable space group: P 2
;
_chemical_formula_sum "Si O2"
_cell_formula_units_Z 11
_cell_length_a 7.367564
_cell_length_b 12.581408
_cell_length_c 5.334624
_cell_angle_alpha 90.000000
_cell_angle_beta 107.477652
_cell_angle_gamma 90.000000
_cell_volume 471.660876
_symmetry_space_group_name_H-M "P 2"
_symmetry_group_IT_number 3
_symmetry_cell_setting 'monoclinic'
loop_
_space_group_symop_operation_xyz
x,y,z
-x,y,-z
loop_
_atom_site_type_symbol
_atom_site_label
_atom_site_fract_x
_atom_site_fract_y
_atom_site_fract_z
Si Si1 0.885425 0.201010 0.216411
Si Si2 0.500000 0.065871 0.000000
Si Si3 0.500000 0.924732 0.500000
Si Si4 0.500000 0.563687 0.000000
Si Si5 0.398506 0.355854 0.708239
Si Si6 0.077816 0.613335 0.789167
Si Si7 0.914509 0.851860 0.714908
O O1 0.699489 0.130014 0.080386
O O2 0.808195 0.310737 0.316977
O O3 0.000000 0.151567 0.500000
O O4 0.000000 0.215942 0.000000
O O5 0.509090 0.995837 0.255233
O O6 0.689424 0.855785 0.605975
O O7 0.444641 0.481396 0.752715
O O8 0.303251 0.626520 0.930656
O O9 0.500000 0.315030 0.500000
O O10 0.500000 0.316075 0.000000
O O11 0.000000 0.563060 0.500000
O O12 0.983547 0.729746 0.747156
O O13 0.000000 0.552072 0.000000
O O14 0.000000 0.901133 0.500000
O O15 0.000000 0.903854 0.000000
#
# Coordination Sequence:
#
# PCOD9113889 Si02
#       7
#     2   1   1   1   2   2   2
#     4  12  26  45  74 102 141 184 231 282 351 416
#     4  12  27  46  69 106 138 176 234 286 348 416
#     4  12  26  42  72  96 142 182 220 300 344 400
#     4  10  25  42  69  96 146 178 230 292 330 394
#     4  10  23  43  68  98 143 180 232 276 342 415
#     4  10  24  40  66  97 131 177 234 282 340 405
#     4  10  23  43  65  97 131 175 233 278 347 415
#
# _framework density 23.321840999999999
#
# number of rings (size 3 to 8) (size 9 to 14) (size 15 to 20)
#    0.545    0.727    0.909    3.273    3.818   11.636 
#    0.000    0.000    0.000    0.000    0.000    0.000 
#    0.000    0.000    0.000    0.000    0.000    0.000 
#
# Total GULP energy -61298.579334 kJ/mol
# GULP energy per Si atom -5572.598121 kJ/mol
# Density = 2.326876 g / cm^3
# Si number density = 23.321841 Si / 1000 Ang^3
#
#
#
# Elastic Constant Matrix: (Units=GPa)
#
#
# Indices 1 2 3 4 5 6 
#
# 1 217.2764 54.2004 104.4940 0.0000 15.9305 0.0000
# 2 54.2004 74.7014 34.1736 0.0000 8.1385 0.0000
# 3 104.4940 34.1736 197.1581 0.0000 -18.5967 0.0000
# 4 0.0000 0.0000 0.0000 -38.9558 0.0000 -111.5584
# 5 15.9305 8.1385 -18.5967 0.0000 71.1528 0.0000
# 6 0.0000 0.0000 0.0000 -111.5584 0.0000 -265.2616
#
#
#
# Elastic Compliance Matrix: (Units=1/GPa)
#
#
# Indices 1 2 3 4 5 6 
#
# 1 0.007292 -0.003472 -0.003465 0.000000 -0.002141 0.000000
# 2 -0.003472 0.016597 -0.001171 0.000000 -0.001427 0.000000
# 3 -0.003465 -0.001171 0.007379 0.000000 0.002838 0.000000
# 4 0.000000 0.000000 0.000000 0.125610 0.000000 -0.052826
# 5 -0.002141 -0.001427 0.002838 0.000000 0.015439 0.000000
# 6 0.000000 0.000000 0.000000 -0.052826 0.000000 0.018447
#
#
# Mechanical properties :
#
#
# Convention : Reuss Voigt Hill
#
# Bulk Modulus (GPa) = 66.43730 97.20799 81.82265
# Shear Modulus (GPa) = 23.58521 -26.86172 -1.63825
#
# Velocity S-wave (km/s) = 3.18353 -3.39748 -0.83904
# Velocity P-wave (km/s) = 6.48554 5.13626 5.84993
#
# Compressibility (1/GPa) = 0.01505179
#
# Stress axis : x y z
#
# Youngs Moduli (GPa) = 137.13777 60.25085 135.51768
#
# Poissons Ratio (x) = 0.20922 0.46954
# Poissons Ratio (y) = 0.47620 0.15869
# Poissons Ratio (z) = 0.47515 0.07056
#
# Static dielectric constant tensor:
#      x y z
#    x 1.881290 0.000000 -0.131790 
#    y 0.000000 2.031840 0.000000 
#    z -0.131790 0.000000 1.786370 
# 
# From -- ./inp_files/515.got.cif
#   From: 2010.05.17/outbox.cif.g08.bks.cpg/sg3_1_cif.got.tgz:515.got - 2010.06.03 18:33:08.
