data_PCOD9113211
_publ_section_title
;
Structure prediction by ZEFSAII (Michael W. Deem and Ramdas Pophale) SiO2 
 PCOD9113211
Probable space group: P 2
;
_chemical_formula_sum "Si O2"
_cell_formula_units_Z 11
_cell_length_a 8.775383
_cell_length_b 5.741672
_cell_length_c 17.829979
_cell_angle_alpha 90.000000
_cell_angle_beta 148.013300
_cell_angle_gamma 90.000000
_cell_volume 475.886762
_symmetry_space_group_name_H-M "P 2"
_symmetry_group_IT_number 3
_symmetry_cell_setting 'monoclinic'
loop_
_space_group_symop_operation_xyz
x,y,z
-x,y,-z
loop_
_atom_site_type_symbol
_atom_site_label
_atom_site_fract_x
_atom_site_fract_y
_atom_site_fract_z
Si Si1 0.748079 0.277290 0.692414
Si Si2 0.652104 0.291925 0.984471
Si Si3 0.167377 0.047977 0.428961
Si Si4 0.653983 0.567898 0.849742
Si Si5 0.564401 0.067165 0.247141
Si Si6 0.500000 0.662355 0.500000
O O1 0.480385 0.105282 0.594365
O O2 0.866267 0.215774 0.657372
O O3 0.601430 0.522293 0.615109
O O4 0.010480 0.279557 0.857574
O O5 0.500000 0.280533 0.000000
O O6 0.564351 0.519286 0.899365
O O7 0.570287 0.086353 0.893395
O O8 0.906318 0.064940 0.376372
O O9 0.222899 0.803617 0.412308
O O10 0.536773 0.323261 0.764342
O O11 0.539457 0.811925 0.769462
O O12 0.000000 0.570262 0.000000
#
# Coordination Sequence:
#
# PCOD9113211 Si02
#       6
#     2   2   2   2   2   1
#     4   9  17  33  47  80 122 150 180 234 293 340
#     4  10  21  35  58  91 119 145 191 245 290 339
#     4   9  18  30  50  83 114 155 186 229 288 344
#     4  10  23  40  61  86 115 156 193 239 290 345
#     4  10  22  36  62  84 113 148 202 234 282 342
#     4   8  18  26  54  70 128 148 184 216 300 344
#
# _framework density 23.114743000000001
#
# number of rings (size 3 to 8) (size 9 to 14) (size 15 to 20)
#    1.091    1.818    1.818    0.545    7.636    3.636 
#    0.000    0.000    0.000    1.091    0.000    0.000 
#    0.000    0.000    0.000    0.000    0.000    0.000 
#
# Total GULP energy -61256.193514 kJ/mol
# GULP energy per Si atom -5568.744865 kJ/mol
# Density = 2.306213 g / cm^3
# Si number density = 23.114743 Si / 1000 Ang^3
#
#
#
# Elastic Constant Matrix: (Units=GPa)
#
#
# Indices 1 2 3 4 5 6 
#
# 1 58.2383 25.7954 24.1750 0.0000 1.1273 0.0000
# 2 25.7954 143.8348 22.6403 0.0000 18.5902 0.0000
# 3 24.1750 22.6403 103.2108 0.0000 19.7774 0.0000
# 4 0.0000 0.0000 0.0000 2.4568 0.0000 5.2929
# 5 1.1273 18.5902 19.7774 0.0000 49.8992 0.0000
# 6 0.0000 0.0000 0.0000 5.2929 0.0000 19.8274
#
#
#
# Elastic Compliance Matrix: (Units=1/GPa)
#
#
# Indices 1 2 3 4 5 6 
#
# 1 0.020472 -0.003285 -0.004567 0.000000 0.002572 0.000000
# 2 -0.003285 0.007964 -0.000458 0.000000 -0.002711 0.000000
# 3 -0.004567 -0.000458 0.011695 0.000000 -0.004361 0.000000
# 4 0.000000 0.000000 0.000000 0.957959 0.000000 -0.255725
# 5 0.002572 -0.002711 -0.004361 0.000000 0.022721 0.000000
# 6 0.000000 0.000000 0.000000 -0.255725 0.000000 0.118700
#
#
# Mechanical properties :
#
#
# Convention : Reuss Voigt Hill
#
# Bulk Modulus (GPa) = 42.53433 50.05617 46.29525
# Shear Modulus (GPa) = 4.29565 29.94822 17.12193
#
# Velocity S-wave (km/s) = 1.36471 3.60340 2.72460
# Velocity P-wave (km/s) = 4.57434 6.24621 5.47447
#
# Compressibility (1/GPa) = 0.02351042
#
# Stress axis : x y z
#
# Youngs Moduli (GPa) = 48.84726 125.56406 85.50712
#
# Poissons Ratio (x) = 0.41247 0.39054
# Poissons Ratio (y) = 0.16046 0.03916
# Poissons Ratio (z) = 0.22310 0.05751
#
# Static dielectric constant tensor:
#      x y z
#    x 1.946790 0.000000 0.015730 
#    y 0.000000 1.915860 0.000000 
#    z 0.015730 0.000000 1.906240 
# 
# From -- ./inp_files/11056.got.cif
#   From: 2010.05.17/outbox.cif.g08.bks.cpg/sg3_6_cif.got.tgz:11056.got - 2010.06.03 18:33:08.
