data_PCOD9113179
_publ_section_title
;
Structure prediction by ZEFSAII (Michael W. Deem and Ramdas Pophale) SiO2 
 PCOD9113179
Probable space group: P 2
;
_chemical_formula_sum "Si O2"
_cell_formula_units_Z 14
_cell_length_a 12.502771
_cell_length_b 7.604748
_cell_length_c 8.915758
_cell_angle_alpha 90.000000
_cell_angle_beta 53.539039
_cell_angle_gamma 90.000000
_cell_volume 681.784157
_symmetry_space_group_name_H-M "P 2"
_symmetry_group_IT_number 3
_symmetry_cell_setting 'monoclinic'
loop_
_space_group_symop_operation_xyz
x,y,z
-x,y,-z
loop_
_atom_site_type_symbol
_atom_site_label
_atom_site_fract_x
_atom_site_fract_y
_atom_site_fract_z
Si Si1 0.858690 0.088420 0.319044
Si Si2 0.496456 0.618581 0.176408
Si Si3 0.699549 0.342006 0.974676
Si Si4 0.235994 0.658694 0.892842
Si Si5 0.138452 0.381861 0.455370
Si Si6 0.786701 0.699815 0.442112
Si Si7 0.836548 0.035194 0.993429
O O1 0.812626 0.251009 0.456055
O O2 0.017789 0.103022 0.170044
O O3 0.821538 0.904077 0.426936
O O4 0.806045 0.078256 0.192875
O O5 0.612334 0.702234 0.183277
O O6 0.357133 0.655156 0.368792
O O7 0.500000 0.680659 0.000000
O O8 0.551277 0.416378 0.123569
O O9 0.752919 0.388607 0.766233
O O10 0.729621 0.140782 0.985263
O O11 0.786227 0.468649 0.013938
O O12 0.214236 0.654846 0.733835
O O13 0.156197 0.824152 0.024621
O O14 0.116096 0.571128 0.549018
O O15 0.000000 0.317113 0.500000
#
# Coordination Sequence:
#
# PCOD9113179 Si02
#       7
#     2   2   2   2   2   2   2
#     4  10  24  38  65  91 128 162 212 263 310 383
#     4  10  21  42  61  90 124 162 208 259 309 372
#     4  10  22  39  62  87 127 161 204 258 313 373
#     4   9  22  39  68  91 121 166 208 262 311 372
#     4  12  24  39  61  94 130 165 208 258 320 385
#     4  11  22  43  64  92 125 165 217 257 315 373
#     4  10  20  43  61  94 124 163 209 258 319 371
#
# _framework density 20.534355999999999
#
# number of rings (size 3 to 8) (size 9 to 14) (size 15 to 20)
#    0.857    0.857    2.857    1.286    2.000    2.857 
#    2.571    0.714    3.143    0.000    0.000    0.000 
#    0.000    0.000    0.000    0.000    0.000    0.000 
#
# Total GULP energy -78061.709124 kJ/mol
# GULP energy per Si atom -5575.836366 kJ/mol
# Density = 2.048762 g / cm^3
# Si number density = 20.534356 Si / 1000 Ang^3
#
#
#
# Elastic Constant Matrix: (Units=GPa)
#
#
# Indices 1 2 3 4 5 6 
#
# 1 30.6940 -5.2599 -4.0292 0.0000 5.5815 0.0000
# 2 -5.2599 72.2817 33.7095 0.0000 4.2305 0.0000
# 3 -4.0292 33.7095 70.0102 0.0000 -3.0393 0.0000
# 4 0.0000 0.0000 0.0000 29.9661 0.0000 -1.4552
# 5 5.5815 4.2305 -3.0393 0.0000 21.9146 0.0000
# 6 0.0000 0.0000 0.0000 -1.4552 0.0000 22.0113
#
#
#
# Elastic Compliance Matrix: (Units=1/GPa)
#
#
# Indices 1 2 3 4 5 6 
#
# 1 0.034832 0.003022 0.000140 0.000000 -0.009435 0.000000
# 2 0.003022 0.018590 -0.009020 0.000000 -0.005609 0.000000
# 3 0.000140 -0.009020 0.018822 0.000000 0.004316 0.000000
# 4 0.000000 0.000000 0.000000 0.033479 0.000000 0.002213
# 5 -0.009435 -0.005609 0.004316 0.000000 0.049716 0.000000
# 6 0.000000 0.000000 0.000000 0.002213 0.000000 0.045578
#
#
# Mechanical properties :
#
#
# Convention : Reuss Voigt Hill
#
# Bulk Modulus (GPa) = 16.52176 24.64739 20.58457
# Shear Modulus (GPa) = 21.46761 24.68276 23.07518
#
# Velocity S-wave (km/s) = 3.23685 3.47078 3.35585
# Velocity P-wave (km/s) = 4.69393 5.30008 5.00618
#
# Compressibility (1/GPa) = 0.06052625
#
# Stress axis : x y z
#
# Youngs Moduli (GPa) = 28.70954 53.79302 53.12822
#
# Poissons Ratio (x) = -0.16254 -0.00745
# Poissons Ratio (y) = -0.08675 0.47924
# Poissons Ratio (z) = -0.00402 0.48524
#
# Static dielectric constant tensor:
#      x y z
#    x 1.764990 0.000000 0.013690 
#    y 0.000000 1.748770 0.000000 
#    z 0.013690 0.000000 1.705220 
# 
# From -- ./inp_files/8046.got.cif
#   From: 2010.05.17/outbox.cif.g08.bks.cpg/sg3_5_cif.got.tgz:8046.got - 2010.06.03 18:33:08.
