data_PCOD9113425
_publ_section_title
;
Structure prediction by ZEFSAII (Michael W. Deem and Ramdas Pophale) SiO2 
 PCOD9113425
Probable space group: P 2
;
_chemical_formula_sum "Si O2"
_cell_formula_units_Z 10
_cell_length_a 8.179684
_cell_length_b 5.060735
_cell_length_c 10.476465
_cell_angle_alpha 90.000000
_cell_angle_beta 76.369169
_cell_angle_gamma 90.000000
_cell_volume 421.460740
_symmetry_space_group_name_H-M "P 2"
_symmetry_group_IT_number 3
_symmetry_cell_setting 'monoclinic'
loop_
_space_group_symop_operation_xyz
x,y,z
-x,y,-z
loop_
_atom_site_type_symbol
_atom_site_label
_atom_site_fract_x
_atom_site_fract_y
_atom_site_fract_z
Si Si1 0.628125 0.609140 0.819933
Si Si2 0.878929 0.892221 0.270354
Si Si3 0.541157 0.106802 0.214792
Si Si4 0.343241 0.813334 0.449915
Si Si5 0.048264 0.371074 0.136464
O O1 0.478894 0.399926 0.830165
O O2 0.709549 0.641770 0.662756
O O3 0.551432 0.895283 0.858514
O O4 0.233874 0.490963 0.113709
O O5 0.805005 0.876789 0.426240
O O6 0.930228 0.602751 0.214312
O O7 0.726849 0.009337 0.212647
O O8 0.027532 0.103053 0.221859
O O9 0.433392 0.064298 0.365524
O O10 0.500000 0.687393 0.500000
O O11 0.000000 0.316220 0.000000
#
# Coordination Sequence:
#
# PCOD9113425 Si02
#       5
#     2   2   2   2   2
#     4  10  21  41  64  93 134 160 205 264 324 374
#     4  11  23  42  69  93 128 170 216 257 331 377
#     4   9  20  39  66  97 124 157 207 262 324 384
#     4   8  20  37  68  96 128 153 198 274 323 382
#     4  12  27  45  61  90 137 178 216 263 306 372
#
# _framework density 23.727003
#
# number of rings (size 3 to 8) (size 9 to 14) (size 15 to 20)
#    1.200    0.800    0.000    3.000    2.800    1.600 
#    0.000    6.000    0.000    0.000    0.000    0.000 
#    0.000    0.000    0.000    0.000    0.000    0.000 
#
# Total GULP energy -55877.163079 kJ/mol
# GULP energy per Si atom -5587.716308 kJ/mol
# Density = 2.367300 g / cm^3
# Si number density = 23.727003 Si / 1000 Ang^3
#
#
#
# Elastic Constant Matrix: (Units=GPa)
#
#
# Indices 1 2 3 4 5 6 
#
# 1 49.6221 -10.9590 13.5033 0.0000 13.8368 0.0000
# 2 -10.9590 90.7006 29.8794 0.0000 -6.5944 0.0000
# 3 13.5033 29.8794 139.2744 0.0000 3.8344 0.0000
# 4 0.0000 0.0000 0.0000 -93.0390 0.0000 23.9122
# 5 13.8368 -6.5944 3.8344 0.0000 24.9174 0.0000
# 6 0.0000 0.0000 0.0000 23.9122 0.0000 27.4910
#
#
#
# Elastic Compliance Matrix: (Units=1/GPa)
#
#
# Indices 1 2 3 4 5 6 
#
# 1 0.025108 0.003007 -0.002729 0.000000 -0.012727 0.000000
# 2 0.003007 0.012544 -0.003041 0.000000 0.002118 0.000000
# 3 -0.002729 -0.003041 0.008112 0.000000 -0.000538 0.000000
# 4 0.000000 0.000000 0.000000 -0.008784 0.000000 0.007641
# 5 -0.012727 0.002118 -0.000538 0.000000 0.047843 0.000000
# 6 0.000000 0.000000 0.000000 0.007641 0.000000 0.029729
#
#
# Mechanical properties :
#
#
# Convention : Reuss Voigt Hill
#
# Bulk Modulus (GPa) = 24.85170 38.27158 31.56164
# Shear Modulus (GPa) = 37.45575 8.35212 22.90394
#
# Velocity S-wave (km/s) = 3.97749 1.87823 3.11032
# Velocity P-wave (km/s) = 5.62055 4.56822 5.12149
#
# Compressibility (1/GPa) = 0.04023869
#
# Stress axis : x y z
#
# Youngs Moduli (GPa) = 39.82806 79.71631 123.27552
#
# Poissons Ratio (x) = -0.23975 0.33644
# Poissons Ratio (y) = -0.11978 0.37490
# Poissons Ratio (z) = 0.10870 0.24243
#
# Static dielectric constant tensor:
#      x y z
#    x 2.054900 0.000000 -0.068460 
#    y 0.000000 1.841920 0.000000 
#    z -0.068460 0.000000 1.958320 
# 
# From -- ./inp_files/11095.got.cif
#   From: 2010.05.17/outbox.cif.g08.bks.cpg/sg3_6_cif.got.tgz:11095.got - 2010.06.03 18:33:08.
