data_PCOD9113878
_publ_section_title
;
Structure prediction by ZEFSAII (Michael W. Deem and Ramdas Pophale) SiO2 
 PCOD9113878
Probable space group: P 2
;
_chemical_formula_sum "Si O2"
_cell_formula_units_Z 14
_cell_length_a 5.382837
_cell_length_b 15.540181
_cell_length_c 8.278684
_cell_angle_alpha 90.000000
_cell_angle_beta 62.968206
_cell_angle_gamma 90.000000
_cell_volume 616.860007
_symmetry_space_group_name_H-M "P 2"
_symmetry_group_IT_number 3
_symmetry_cell_setting 'monoclinic'
loop_
_space_group_symop_operation_xyz
x,y,z
-x,y,-z
loop_
_atom_site_type_symbol
_atom_site_label
_atom_site_fract_x
_atom_site_fract_y
_atom_site_fract_z
Si Si1 0.177767 0.819650 0.790216
Si Si2 0.673903 0.345280 0.116945
Si Si3 0.491513 0.667160 0.191938
Si Si4 0.730952 0.000216 0.302933
Si Si5 0.000000 0.770440 0.500000
Si Si6 0.000000 0.081538 0.500000
Si Si7 0.341162 0.494151 0.383280
Si Si8 0.537832 0.155454 0.180717
O O1 0.260824 0.720216 0.795761
O O2 0.070006 0.822459 0.639675
O O3 0.361189 0.906413 0.732994
O O4 0.000000 0.839501 0.000000
O O5 0.490667 0.406012 0.287117
O O6 0.674789 0.247360 0.180411
O O7 0.500000 0.347342 0.000000
O O8 0.000000 0.373243 0.000000
O O9 0.442900 0.566353 0.225218
O O10 0.242891 0.709677 0.365446
O O11 0.500000 0.690834 0.000000
O O12 0.500000 0.025488 0.500000
O O13 0.721948 0.072945 0.171816
O O14 0.990904 0.018070 0.344656
O O15 0.252356 0.143905 0.367705
O O16 0.500000 0.522248 0.500000
O O17 0.000000 0.490735 0.500000
O O18 0.500000 0.155047 0.000000
#
# Coordination Sequence:
#
# PCOD9113878 Si02
#       8
#     2   2   2   2   1   1   2   2
#     4  12  26  42  72 106 143 201 251 318 382 456
#     4  11  26  48  75 112 154 199 253 314 385 465
#     4  12  26  47  73 105 146 192 250 310 387 457
#     4  10  23  43  64 100 142 190 251 309 376 448
#     4  12  23  48  67 100 148 186 245 312 367 456
#     4  10  23  42  67 102 136 202 239 326 365 460
#     4  12  27  48  80 116 153 201 254 318 389 463
#     4  10  25  42  72 101 145 191 249 306 387 443
#
# _framework density 22.695585999999999
#
# number of rings (size 3 to 8) (size 9 to 14) (size 15 to 20)
#    0.000    0.857    2.143    3.857    7.000    4.000 
#    0.000    0.000    0.000    0.000    0.000    0.000 
#    0.000    0.000    0.000    0.000    0.000    0.000 
#
# Total GULP energy -77944.990349 kJ/mol
# GULP energy per Si atom -5567.499311 kJ/mol
# Density = 2.264393 g / cm^3
# Si number density = 22.695586 Si / 1000 Ang^3
#
#
#
# Elastic Constant Matrix: (Units=GPa)
#
#
# Indices 1 2 3 4 5 6 
#
# 1 83.1008 10.1412 36.6854 0.0000 -0.2898 0.0000
# 2 10.1412 100.3819 8.7603 0.0000 12.4081 0.0000
# 3 36.6854 8.7603 129.9899 0.0000 8.3177 0.0000
# 4 0.0000 0.0000 0.0000 44.9193 0.0000 26.4122
# 5 -0.2898 12.4081 8.3177 0.0000 29.2602 0.0000
# 6 0.0000 0.0000 0.0000 26.4122 0.0000 17.0666
#
#
#
# Elastic Compliance Matrix: (Units=1/GPa)
#
#
# Indices 1 2 3 4 5 6 
#
# 1 0.013947 -0.001287 -0.003965 0.000000 0.001811 0.000000
# 2 -0.001287 0.010656 -0.000066 0.000000 -0.004513 0.000000
# 3 -0.003965 -0.000066 0.008981 0.000000 -0.002564 0.000000
# 4 0.000000 0.000000 0.000000 0.247286 0.000000 -0.382699
# 5 0.001811 -0.004513 -0.002564 0.000000 0.036836 0.000000
# 6 0.000000 0.000000 0.000000 -0.382699 0.000000 0.650857
#
#
# Mechanical properties :
#
#
# Convention : Reuss Voigt Hill
#
# Bulk Modulus (GPa) = 43.57931 47.18295 45.38113
# Shear Modulus (GPa) = 5.06663 35.44159 20.25411
#
# Velocity S-wave (km/s) = 1.49575 3.95600 2.99059
# Velocity P-wave (km/s) = 4.71449 6.45765 5.65366
#
# Compressibility (1/GPa) = 0.02294667
#
# Stress axis : x y z
#
# Youngs Moduli (GPa) = 71.69754 93.84798 111.35194
#
# Poissons Ratio (x) = 0.12077 0.44155
# Poissons Ratio (y) = 0.09227 0.00737
# Poissons Ratio (z) = 0.28431 0.00621
#
# Static dielectric constant tensor:
#      x y z
#    x 3.038260 0.000000 0.233080 
#    y 0.000000 1.874780 0.000000 
#    z 0.233080 0.000000 1.790030 
# 
# From -- ./inp_files/4432.got.cif
#   From: 2010.05.17/outbox.cif.g08.bks.cpg/sg3_3_cif.got.tgz:4432.got - 2010.06.03 18:33:08.
