data_PCOD9113158
_publ_section_title
;
Structure prediction by ZEFSAII (Michael W. Deem and Ramdas Pophale) SiO2 
 PCOD9113158
Probable space group: P 2
;
_chemical_formula_sum "Si O2"
_cell_formula_units_Z 15
_cell_length_a 23.906461
_cell_length_b 5.234707
_cell_length_c 5.567825
_cell_angle_alpha 90.000000
_cell_angle_beta 122.734252
_cell_angle_gamma 90.000000
_cell_volume 586.119463
_symmetry_space_group_name_H-M "P 2"
_symmetry_group_IT_number 3
_symmetry_cell_setting 'monoclinic'
loop_
_space_group_symop_operation_xyz
x,y,z
-x,y,-z
loop_
_atom_site_type_symbol
_atom_site_label
_atom_site_fract_x
_atom_site_fract_y
_atom_site_fract_z
Si Si1 0.199070 0.852980 0.341725
Si Si2 0.244554 0.349333 0.693448
Si Si3 0.923026 0.007454 0.744937
Si Si4 0.500000 0.084150 0.500000
Si Si5 0.372499 0.095951 0.986051
Si Si6 0.041480 0.509905 0.350915
Si Si7 0.434762 0.714120 0.741682
Si Si8 0.303307 0.707762 0.201568
O O1 0.206922 0.564523 0.453295
O O2 0.122017 0.929105 0.131629
O O3 0.254260 0.863378 0.264395
O O4 0.215064 0.068313 0.580937
O O5 0.320278 0.304360 0.778406
O O6 0.258421 0.485195 0.979607
O O7 0.918895 0.773517 0.551284
O O8 0.910452 0.271938 0.580926
O O9 0.000000 0.029773 0.000000
O O10 0.468291 0.899386 0.624272
O O11 0.562946 0.230522 0.750421
O O12 0.400811 0.903986 0.854636
O O13 0.333526 0.912186 0.082906
O O14 0.000000 0.476331 0.500000
O O15 0.000000 0.528168 0.000000
O O16 0.370087 0.586940 0.472798
O O17 0.500000 0.570663 0.000000
#
# Coordination Sequence:
#
# PCOD9113158 Si02
#       8
#     2   2   2   1   2   2   2   2
#     4  12  27  47  71 106 149 191 251 304 375 461
#     4  12  25  45  67 108 138 195 244 301 369 445
#     4  10  23  48  72 106 144 189 243 309 378 445
#     4   8  18  32  68 100 134 190 238 306 370 434
#     4  10  20  42  64 103 139 188 247 303 372 435
#     4  10  21  44  74 108 146 194 241 303 376 454
#     4   9  17  37  69 102 144 188 250 309 371 445
#     4  11  23  43  71 102 147 198 243 311 373 447
#
# _framework density 25.592054000000001
#
# number of rings (size 3 to 8) (size 9 to 14) (size 15 to 20)
#    0.000    1.600    2.667    1.200    1.867    0.000 
#   14.400    5.333    0.000    8.000    0.000    0.000 
#    0.000    0.000    0.000    0.000    0.000    0.000 
#
# Total GULP energy -83718.341735 kJ/mol
# GULP energy per Si atom -5581.222782 kJ/mol
# Density = 2.553381 g / cm^3
# Si number density = 25.592054 Si / 1000 Ang^3
#
#
#
# Elastic Constant Matrix: (Units=GPa)
#
#
# Indices 1 2 3 4 5 6 
#
# 1 160.8496 29.7248 37.4701 0.0000 -18.4270 0.0000
# 2 29.7248 140.9121 2.2342 0.0000 -14.9065 0.0000
# 3 37.4701 2.2342 45.6255 0.0000 -6.5864 0.0000
# 4 0.0000 0.0000 0.0000 12.2287 0.0000 -7.9503
# 5 -18.4270 -14.9065 -6.5864 0.0000 35.6944 0.0000
# 6 0.0000 0.0000 0.0000 -7.9503 0.0000 43.0675
#
#
#
# Elastic Compliance Matrix: (Units=1/GPa)
#
#
# Indices 1 2 3 4 5 6 
#
# 1 0.008233 -0.001371 -0.006332 0.000000 0.002509 0.000000
# 2 -0.001371 0.007653 0.001141 0.000000 0.002699 0.000000
# 3 -0.006332 0.001141 0.027388 0.000000 0.002261 0.000000
# 4 0.000000 0.000000 0.000000 0.092927 0.000000 0.017154
# 5 0.002509 0.002699 0.002261 0.000000 0.030855 0.000000
# 6 0.000000 0.000000 0.000000 0.017154 0.000000 0.026386
#
#
# Mechanical properties :
#
#
# Convention : Reuss Voigt Hill
#
# Bulk Modulus (GPa) = 33.16735 54.02728 43.59731
# Shear Modulus (GPa) = 23.08222 36.72867 29.90545
#
# Velocity S-wave (km/s) = 3.00647 3.79246 3.42211
# Velocity P-wave (km/s) = 5.00400 6.35089 5.71724
#
# Compressibility (1/GPa) = 0.03015013
#
# Stress axis : x y z
#
# Youngs Moduli (GPa) = 121.46548 130.66411 36.51206
#
# Poissons Ratio (x) = 0.17912 0.23119
# Poissons Ratio (y) = 0.16651 -0.04165
# Poissons Ratio (z) = 0.76910 -0.14904
#
# Static dielectric constant tensor:
#      x y z
#    x 2.060460 0.000000 0.095070 
#    y 0.000000 2.050660 0.000000 
#    z 0.095070 0.000000 2.250780 
# 
# From -- ./inp_files/3989.got.cif
#   From: 2010.05.17/outbox.cif.g08.bks.cpg/sg3_2_cif.got.tgz:3989.got - 2010.06.03 18:33:08.
