data_PCOD9113600
_publ_section_title
;
Structure prediction by ZEFSAII (Michael W. Deem and Ramdas Pophale) SiO2 
 PCOD9113600
Probable space group: P 2
;
_chemical_formula_sum "Si O2"
_cell_formula_units_Z 15
_cell_length_a 25.681717
_cell_length_b 5.472812
_cell_length_c 8.631805
_cell_angle_alpha 90.000000
_cell_angle_beta 144.429700
_cell_angle_gamma 90.000000
_cell_volume 705.726334
_symmetry_space_group_name_H-M "P 2"
_symmetry_group_IT_number 3
_symmetry_cell_setting 'monoclinic'
loop_
_space_group_symop_operation_xyz
x,y,z
-x,y,-z
loop_
_atom_site_type_symbol
_atom_site_label
_atom_site_fract_x
_atom_site_fract_y
_atom_site_fract_z
Si Si1 0.500000 0.814291 0.500000
Si Si2 0.646556 0.486332 0.691208
Si Si3 0.369968 0.930974 0.932532
Si Si4 0.744962 0.537708 0.454773
Si Si5 0.222101 0.252508 0.737838
Si Si6 0.191604 0.712012 0.086440
Si Si7 0.597389 0.245668 0.271477
Si Si8 0.106358 0.205878 0.747674
O O1 0.566539 0.640051 0.567412
O O2 0.555429 0.968238 0.758221
O O3 0.710533 0.676114 0.753417
O O4 0.612218 0.276492 0.490298
O O5 0.707309 0.372898 0.972437
O O6 0.279917 0.054304 0.782909
O O7 0.404589 0.011616 0.847036
O O8 0.339286 0.654535 0.838690
O O9 0.806627 0.432090 0.469945
O O10 0.795809 0.708857 0.697948
O O11 0.691677 0.352328 0.436013
O O12 0.141572 0.183783 0.655719
O O13 0.140045 0.465139 0.903110
O O14 0.148081 0.966589 0.930695
O O15 0.500000 0.366947 0.000000
O O16 0.000000 0.198726 0.500000
#
# Coordination Sequence:
#
# PCOD9113600 Si02
#       8
#     1   2   2   2   2   2   2   2
#     4  12  22  36  62  92 130 172 236 284 336 380
#     4  10  22  40  61  88 130 174 224 273 331 396
#     4  11  24  37  61  89 128 175 225 281 330 393
#     4  10  22  43  61  90 133 176 222 268 342 399
#     4  10  23  40  66  91 127 175 216 275 341 401
#     4  10  24  43  72  98 136 178 219 270 342 411
#     4  10  23  37  56  86 125 174 226 283 325 383
#     4  11  24  46  75 104 133 167 222 275 341 413
#
# _framework density 21.254695999999999
#
# number of rings (size 3 to 8) (size 9 to 14) (size 15 to 20)
#    0.000    1.600    1.333    2.000   13.067    2.667 
#    0.000    0.667    0.000    0.000    0.000    0.000 
#    0.000    0.000    0.000    0.000    0.000    0.000 
#
# Total GULP energy -83630.832657 kJ/mol
# GULP energy per Si atom -5575.388844 kJ/mol
# Density = 2.120632 g / cm^3
# Si number density = 21.254696 Si / 1000 Ang^3
#
#
#
# Elastic Constant Matrix: (Units=GPa)
#
#
# Indices 1 2 3 4 5 6 
#
# 1 146.8525 36.0931 71.2018 0.0000 3.4374 0.0000
# 2 36.0931 57.6211 23.0735 0.0000 -0.4462 0.0000
# 3 71.2018 23.0735 68.5917 0.0000 6.1436 0.0000
# 4 0.0000 0.0000 0.0000 25.0469 0.0000 2.8772
# 5 3.4374 -0.4462 6.1436 0.0000 37.0572 0.0000
# 6 0.0000 0.0000 0.0000 2.8772 0.0000 13.9289
#
#
#
# Elastic Compliance Matrix: (Units=1/GPa)
#
#
# Indices 1 2 3 4 5 6 
#
# 1 0.014319 -0.003441 -0.013789 0.000000 0.000916 0.000000
# 2 -0.003441 0.020953 -0.003581 0.000000 0.001165 0.000000
# 3 -0.013789 -0.003581 0.030438 0.000000 -0.003810 0.000000
# 4 0.000000 0.000000 0.000000 0.040896 0.000000 -0.008447
# 5 0.000916 0.001165 -0.003810 0.000000 0.027546 0.000000
# 6 0.000000 0.000000 0.000000 -0.008447 0.000000 0.073538
#
#
# Mechanical properties :
#
#
# Convention : Reuss Voigt Hill
#
# Bulk Modulus (GPa) = 41.51184 59.31135 50.41159
# Shear Modulus (GPa) = 19.42945 24.71974 22.07459
#
# Velocity S-wave (km/s) = 3.02673 3.41401 3.22619
# Velocity P-wave (km/s) = 5.63807 6.59593 6.13572
#
# Compressibility (1/GPa) = 0.02408951
#
# Stress axis : x y z
#
# Youngs Moduli (GPa) = 69.83569 47.72591 32.85323
#
# Poissons Ratio (x) = 0.16422 0.45301
# Poissons Ratio (y) = 0.24029 0.11765
# Poissons Ratio (z) = 0.96295 0.17090
#
# Static dielectric constant tensor:
#      x y z
#    x 1.809550 0.000000 -0.039920 
#    y 0.000000 1.885280 0.000000 
#    z -0.039920 0.000000 1.774800 
# 
# From -- ./inp_files/8952.got.cif
#   From: 2010.05.17/outbox.cif.g08.bks.cpg/sg3_5_cif.got.tgz:8952.got - 2010.06.03 18:33:08.
