data_PCOD9113247
_publ_section_title
;
Structure prediction by ZEFSAII (Michael W. Deem and Ramdas Pophale) SiO2 
 PCOD9113247
Probable space group: P 2
;
_chemical_formula_sum "Si O2"
_cell_formula_units_Z 13
_cell_length_a 15.558031
_cell_length_b 5.098438
_cell_length_c 11.852533
_cell_angle_alpha 90.000000
_cell_angle_beta 30.600540
_cell_angle_gamma 90.000000
_cell_volume 478.589303
_symmetry_space_group_name_H-M "P 2"
_symmetry_group_IT_number 3
_symmetry_cell_setting 'monoclinic'
loop_
_space_group_symop_operation_xyz
x,y,z
-x,y,-z
loop_
_atom_site_type_symbol
_atom_site_label
_atom_site_fract_x
_atom_site_fract_y
_atom_site_fract_z
Si Si1 0.828260 0.295870 0.781570
Si Si2 0.500000 0.710192 0.500000
Si Si3 0.072891 0.566813 0.639520
Si Si4 0.194596 0.988458 0.968621
Si Si5 0.110864 0.214083 0.809911
Si Si6 0.636612 0.812418 0.942276
Si Si7 0.629589 0.796084 0.570969
O O1 0.782850 0.220780 0.965796
O O2 0.704505 0.517551 0.874235
O O3 0.788798 0.022234 0.764291
O O4 0.013665 0.419565 0.593912
O O5 0.598525 0.590103 0.499143
O O6 0.363313 0.875586 0.723563
O O7 0.106444 0.340493 0.690162
O O8 0.245995 0.719646 0.465871
O O9 0.922283 0.768371 0.840800
O O10 0.089180 0.082019 0.976390
O O11 0.275353 0.030996 0.599367
O O12 0.000000 0.458519 0.000000
O O13 0.539794 0.856795 0.169958
O O14 0.500000 0.853863 0.000000
#
# Coordination Sequence:
#
# PCOD9113247 Si02
#       7
#     2   1   2   2   2   2   2
#     4  11  22  49  74 101 143 194 240 304 373 438
#     4  12  20  38  66 106 156 184 260 300 378 430
#     4  10  23  41  70  98 148 199 247 294 365 451
#     4  10  21  40  64  96 142 194 236 297 358 442
#     4  10  21  37  62  96 148 192 241 290 363 436
#     4  12  27  49  80 109 146 188 249 314 378 432
#     4  11  25  42  68 106 147 194 251 302 371 440
#
# _framework density 27.163164999999999
#
# number of rings (size 3 to 8) (size 9 to 14) (size 15 to 20)
#    0.000    1.231    4.615    0.462    4.308    0.000 
#    0.000    4.615    6.769    0.000    0.000    0.000 
#    0.000    0.000    0.000    0.000    0.000    0.000 
#
# Total GULP energy -72396.622219 kJ/mol
# GULP energy per Si atom -5568.970940 kJ/mol
# Density = 2.710134 g / cm^3
# Si number density = 27.163165 Si / 1000 Ang^3
#
#
#
# Elastic Constant Matrix: (Units=GPa)
#
#
# Indices 1 2 3 4 5 6 
#
# 1 187.0953 34.3326 -12.0945 0.0000 12.3463 0.0000
# 2 34.3326 117.7056 16.2603 0.0000 -4.9902 0.0000
# 3 -12.0945 16.2603 129.7069 0.0000 -5.0336 0.0000
# 4 0.0000 0.0000 0.0000 -15.6143 0.0000 -2.5381
# 5 12.3463 -4.9902 -5.0336 0.0000 41.6581 0.0000
# 6 0.0000 0.0000 0.0000 -2.5381 0.0000 48.5394
#
#
#
# Elastic Compliance Matrix: (Units=1/GPa)
#
#
# Indices 1 2 3 4 5 6 
#
# 1 0.005861 -0.001887 0.000710 0.000000 -0.001877 0.000000
# 2 -0.001887 0.009288 -0.001281 0.000000 0.001517 0.000000
# 3 0.000710 -0.001281 0.007960 0.000000 0.000598 0.000000
# 4 0.000000 0.000000 0.000000 -0.063504 0.000000 -0.003321
# 5 -0.001877 0.001517 0.000598 0.000000 0.024815 0.000000
# 6 0.000000 0.000000 0.000000 -0.003321 0.000000 0.020428
#
#
# Mechanical properties :
#
#
# Convention : Reuss Voigt Hill
#
# Bulk Modulus (GPa) = 54.97077 56.83385 55.90231
# Shear Modulus (GPa) = 315.88976 41.31727 178.60352
#
# Velocity S-wave (km/s) = 10.79564 3.90433 8.11756
# Velocity P-wave (km/s) = 13.25427 6.42601 10.41560
#
# Compressibility (1/GPa) = 0.01819148
#
# Stress axis : x y z
#
# Youngs Moduli (GPa) = 170.61995 107.67065 125.63204
#
# Poissons Ratio (x) = 0.20320 -0.08923
# Poissons Ratio (y) = 0.32200 0.16099
# Poissons Ratio (z) = -0.12118 0.13797
#
# Static dielectric constant tensor:
#      x y z
#    x 2.376870 0.000000 -0.044340 
#    y 0.000000 2.154650 0.000000 
#    z -0.044340 0.000000 2.202800 
# 
# From -- ./inp_files/12035.got.cif
#   From: 2010.05.17/outbox.cif.g08.bks.cpg/sg3_7_cif.got.tgz:12035.got - 2010.06.03 18:33:08.
