data_PCOD9113520
_publ_section_title
;
Structure prediction by ZEFSAII (Michael W. Deem and Ramdas Pophale) SiO2 
 PCOD9113520
Probable space group: P 2
;
_chemical_formula_sum "Si O2"
_cell_formula_units_Z 15
_cell_length_a 5.255756
_cell_length_b 5.770105
_cell_length_c 19.893122
_cell_angle_alpha 90.000000
_cell_angle_beta 90.874702
_cell_angle_gamma 90.000000
_cell_volume 603.213769
_symmetry_space_group_name_H-M "P 2"
_symmetry_group_IT_number 3
_symmetry_cell_setting 'monoclinic'
loop_
_space_group_symop_operation_xyz
x,y,z
-x,y,-z
loop_
_atom_site_type_symbol
_atom_site_label
_atom_site_fract_x
_atom_site_fract_y
_atom_site_fract_z
Si Si1 0.000000 0.730350 0.000000
Si Si2 0.972222 0.234159 0.573297
Si Si3 0.559905 0.861511 0.809276
Si Si4 0.532527 0.490390 0.384549
Si Si5 0.954739 0.476323 0.869260
Si Si6 0.199721 0.860133 0.326346
Si Si7 0.626421 0.099511 0.938220
Si Si8 0.810921 0.523551 0.259954
O O1 0.909382 0.597000 0.066778
O O2 0.230764 0.888787 0.025323
O O3 0.700122 0.358029 0.582256
O O4 0.000000 0.122381 0.500000
O O5 0.205179 0.418750 0.578036
O O6 0.966156 0.040009 0.631707
O O7 0.747739 0.660163 0.839204
O O8 0.705258 0.963047 0.744528
O O9 0.316568 0.743888 0.775908
O O10 0.475881 0.010540 0.872819
O O11 0.434334 0.754965 0.371781
O O12 0.604555 0.413064 0.308411
O O13 0.827268 0.262387 0.904280
O O14 0.100782 0.385425 0.804342
O O15 0.038023 0.630622 0.305257
O O16 0.500000 0.229145 0.000000
#
# Coordination Sequence:
#
# PCOD9113520 Si02
#       8
#     1   2   2   2   2   2   2   2
#     4  10  22  42  58  86 138 178 234 298 362 436
#     4  12  28  49  75 115 154 196 250 302 375 461
#     4   9  22  39  64  98 136 176 243 303 364 433
#     4  11  25  48  75 109 152 193 245 310 369 443
#     4  10  22  39  62  95 132 180 237 302 367 433
#     4  10  24  47  75 107 145 200 246 310 375 443
#     4  11  23  38  62  95 130 183 237 296 367 436
#     4  10  21  46  70  99 139 187 241 304 370 428
#
# _framework density 24.866803999999998
#
# number of rings (size 3 to 8) (size 9 to 14) (size 15 to 20)
#    0.000    1.600    1.333    1.600    5.600    4.800 
#    2.400    0.000    0.000    0.000    0.000    0.000 
#    0.000    0.000    0.000    0.000    0.000    0.000 
#
# Total GULP energy -83782.620733 kJ/mol
# GULP energy per Si atom -5585.508049 kJ/mol
# Density = 2.481021 g / cm^3
# Si number density = 24.866804 Si / 1000 Ang^3
#
#
#
# Elastic Constant Matrix: (Units=GPa)
#
#
# Indices 1 2 3 4 5 6 
#
# 1 100.9170 3.0629 31.6134 0.0000 -13.0462 0.0000
# 2 3.0629 9.0634 12.1024 0.0000 -2.3609 0.0000
# 3 31.6134 12.1024 141.9706 0.0000 -34.6742 0.0000
# 4 0.0000 0.0000 0.0000 58.9203 0.0000 -24.2205
# 5 -13.0462 -2.3609 -34.6742 0.0000 43.6369 0.0000
# 6 0.0000 0.0000 0.0000 -24.2205 0.0000 67.6483
#
#
#
# Elastic Compliance Matrix: (Units=1/GPa)
#
#
# Indices 1 2 3 4 5 6 
#
# 1 0.010747 -0.000614 -0.001941 0.000000 0.001638 0.000000
# 2 -0.000614 0.124697 -0.011031 0.000000 -0.002202 0.000000
# 3 -0.001941 -0.011031 0.010086 0.000000 0.006837 0.000000
# 4 0.000000 0.000000 0.000000 0.019901 0.000000 0.007125
# 5 0.001638 -0.002202 0.006837 0.000000 0.028720 0.000000
# 6 0.000000 0.000000 0.000000 0.007125 0.000000 0.017333
#
#
# Mechanical properties :
#
#
# Convention : Reuss Voigt Hill
#
# Bulk Modulus (GPa) = 8.44884 38.38980 23.41932
# Shear Modulus (GPa) = 17.97849 47.71927 32.84888
#
# Velocity S-wave (km/s) = 2.69177 4.38539 3.63849
# Velocity P-wave (km/s) = 3.61467 6.41201 5.20479
#
# Compressibility (1/GPa) = 0.11835950
#
# Stress axis : x y z
#
# Youngs Moduli (GPa) = 93.04503 8.01942 99.14517
#
# Poissons Ratio (x) = 0.00492 0.19243
# Poissons Ratio (y) = 0.05710 1.09369
# Poissons Ratio (z) = 0.18059 0.08846
#
# Static dielectric constant tensor:
#      x y z
#    x 2.069970 0.000000 0.012840 
#    y 0.000000 2.004280 0.000000 
#    z 0.012840 0.000000 2.309880 
# 
# From -- ./inp_files/15584.got.cif
#   From: 2010.05.17/outbox.cif.g08.bks.cpg/sg3_8_cif.got.tgz:15584.got - 2010.06.03 18:33:08.
