data_PCOD9113359
_publ_section_title
;
Structure prediction by ZEFSAII (Michael W. Deem and Ramdas Pophale) SiO2 
 PCOD9113359
Probable space group: P 2
;
_chemical_formula_sum "Si O2"
_cell_formula_units_Z 13
_cell_length_a 8.200563
_cell_length_b 10.155748
_cell_length_c 8.548417
_cell_angle_alpha 90.000000
_cell_angle_beta 59.835409
_cell_angle_gamma 90.000000
_cell_volume 615.530015
_symmetry_space_group_name_H-M "P 2"
_symmetry_group_IT_number 3
_symmetry_cell_setting 'monoclinic'
loop_
_space_group_symop_operation_xyz
x,y,z
-x,y,-z
loop_
_atom_site_type_symbol
_atom_site_label
_atom_site_fract_x
_atom_site_fract_y
_atom_site_fract_z
Si Si1 0.994927 0.431260 0.814499
Si Si2 0.532165 0.633290 0.173370
Si Si3 0.187278 0.852029 0.995340
Si Si4 0.363920 0.398369 0.446766
Si Si5 0.165775 0.200613 0.308039
Si Si6 0.500000 0.027357 0.000000
Si Si7 0.146352 0.679943 0.295622
O O1 0.196348 0.455960 0.634539
O O2 0.925130 0.287134 0.789402
O O3 0.863783 0.545425 0.803499
O O4 0.000000 0.438373 0.000000
O O5 0.715303 0.719470 0.123931
O O6 0.493021 0.503149 0.291644
O O7 0.339658 0.713023 0.292404
O O8 0.500000 0.615280 0.000000
O O9 0.368038 0.942806 0.945229
O O10 0.109884 0.799714 0.198183
O O11 0.000000 0.903419 0.000000
O O12 0.500000 0.322353 0.500000
O O13 0.262638 0.309096 0.370742
O O14 0.000000 0.141083 0.500000
O O15 0.336827 0.110441 0.166298
O O16 0.000000 0.658443 0.500000
#
# Coordination Sequence:
#
# PCOD9113359 Si02
#       7
#     2   2   2   2   2   1   2
#     4  11  23  39  66 105 139 178 218 282 355 429
#     4  10  21  39  67  96 143 176 213 274 360 418
#     4  11  26  46  67 100 134 177 246 289 339 422
#     4  11  24  38  64 107 142 167 224 274 352 442
#     4  10  25  48  69  97 138 182 235 294 343 413
#     4  12  26  48  78  88 134 198 242 292 356 378
#     4  11  19  39  69  98 142 178 212 279 357 424
#
# _framework density 21.120009
#
# number of rings (size 3 to 8) (size 9 to 14) (size 15 to 20)
#    0.000    1.231    5.385    0.923    9.692    1.231 
#    2.769    0.000    0.000    0.000    0.000    0.000 
#    0.000    0.000    0.000    0.000    0.000    0.000 
#
# Total GULP energy -72384.322010 kJ/mol
# GULP energy per Si atom -5568.024770 kJ/mol
# Density = 2.107194 g / cm^3
# Si number density = 21.120009 Si / 1000 Ang^3
#
#
#
# Elastic Constant Matrix: (Units=GPa)
#
#
# Indices 1 2 3 4 5 6 
#
# 1 114.1758 25.6490 19.6089 0.0000 -21.3888 0.0000
# 2 25.6490 53.9962 48.2345 0.0000 -14.0668 0.0000
# 3 19.6089 48.2345 92.9064 0.0000 -19.2257 0.0000
# 4 0.0000 0.0000 0.0000 11.6218 0.0000 -17.5065
# 5 -21.3888 -14.0668 -19.2257 0.0000 29.8994 0.0000
# 6 0.0000 0.0000 0.0000 -17.5065 0.0000 20.6045
#
#
#
# Elastic Compliance Matrix: (Units=1/GPa)
#
#
# Indices 1 2 3 4 5 6 
#
# 1 0.010785 -0.004852 0.001577 0.000000 0.006446 0.000000
# 2 -0.004852 0.037506 -0.017896 0.000000 0.002667 0.000000
# 3 0.001577 -0.017896 0.021008 0.000000 0.006217 0.000000
# 4 0.000000 0.000000 0.000000 -0.307444 0.000000 -0.261219
# 5 0.006446 0.002667 0.006217 0.000000 0.043309 0.000000
# 6 0.000000 0.000000 0.000000 -0.261219 0.000000 -0.173411
#
#
# Mechanical properties :
#
#
# Convention : Reuss Voigt Hill
#
# Bulk Modulus (GPa) = 37.09687 49.78482 43.44085
# Shear Modulus (GPa) = -15.77699 23.59753 3.91027
#
# Velocity S-wave (km/s) = -2.73612 3.34624 1.36216
# Velocity P-wave (km/s) = 2.76063 6.20913 4.80491
#
# Compressibility (1/GPa) = 0.02695645
#
# Stress axis : x y z
#
# Youngs Moduli (GPa) = 92.71886 26.66239 47.59991
#
# Poissons Ratio (x) = 0.12938 -0.07506
# Poissons Ratio (y) = 0.44991 0.85185
# Poissons Ratio (z) = -0.14621 0.47715
#
# Static dielectric constant tensor:
#      x y z
#    x 1.843060 0.000000 -0.045870 
#    y 0.000000 1.811410 0.000000 
#    z -0.045870 0.000000 1.919750 
# 
# From -- ./inp_files/5510.got.cif
#   From: 2010.05.17/outbox.cif.g08.bks.cpg/sg3_3_cif.got.tgz:5510.got - 2010.06.03 18:33:08.
