data_PCOD9113599
_publ_section_title
;
Structure prediction by ZEFSAII (Michael W. Deem and Ramdas Pophale) SiO2 
 PCOD9113599
Probable space group: P 2
;
_chemical_formula_sum "Si O2"
_cell_formula_units_Z 10
_cell_length_a 10.678202
_cell_length_b 5.108776
_cell_length_c 15.142318
_cell_angle_alpha 90.000000
_cell_angle_beta 35.329103
_cell_angle_gamma 90.000000
_cell_volume 477.682791
_symmetry_space_group_name_H-M "P 2"
_symmetry_group_IT_number 3
_symmetry_cell_setting 'monoclinic'
loop_
_space_group_symop_operation_xyz
x,y,z
-x,y,-z
loop_
_atom_site_type_symbol
_atom_site_label
_atom_site_fract_x
_atom_site_fract_y
_atom_site_fract_z
Si Si1 0.615121 0.818220 0.525152
Si Si2 0.173080 0.953072 0.822820
Si Si3 0.125086 0.453532 0.733474
Si Si4 0.946305 0.940503 0.631892
Si Si5 0.743084 0.423933 0.827385
O O1 0.500000 0.916820 0.500000
O O2 0.414685 0.847439 0.707421
O O3 0.702760 0.532458 0.442844
O O4 0.827950 0.952434 0.442446
O O5 0.091372 0.730572 0.801885
O O6 0.191570 0.234664 0.765057
O O7 0.000000 0.971085 0.000000
O O8 0.902933 0.368346 0.817099
O O9 0.805825 0.708369 0.755002
O O10 0.000000 0.880107 0.500000
O O11 0.812296 0.207233 0.716511
O O12 0.500000 0.406569 0.000000
#
# Coordination Sequence:
#
# PCOD9113599 Si02
#       5
#     2   2   2   2   2
#     4   9  21  39  64  87 121 165 203 240 300 376
#     4  11  23  39  62  95 124 155 202 265 310 348
#     4  10  22  40  60  89 123 163 208 246 304 377
#     4  11  24  41  62  94 125 159 206 257 307 358
#     4  11  23  41  64  87 120 166 208 250 303 369
#
# _framework density 20.934394000000001
#
# number of rings (size 3 to 8) (size 9 to 14) (size 15 to 20)
#    0.000    1.600    0.000    5.400    0.000   18.400 
#    0.000    0.000    0.000    0.000    0.000    0.000 
#    0.000    0.000    0.000    0.000    0.000    0.000 
#
# Total GULP energy -55784.674454 kJ/mol
# GULP energy per Si atom -5578.467445 kJ/mol
# Density = 2.088675 g / cm^3
# Si number density = 20.934394 Si / 1000 Ang^3
#
#
#
# Elastic Constant Matrix: (Units=GPa)
#
#
# Indices 1 2 3 4 5 6 
#
# 1 61.8961 10.9616 43.8607 0.0000 -13.9344 0.0000
# 2 10.9616 85.3174 41.9875 0.0000 2.9165 0.0000
# 3 43.8607 41.9875 194.0251 0.0000 -21.7378 0.0000
# 4 0.0000 0.0000 0.0000 25.3053 0.0000 7.2532
# 5 -13.9344 2.9165 -21.7378 0.0000 27.3458 0.0000
# 6 0.0000 0.0000 0.0000 7.2532 0.0000 15.9191
#
#
#
# Elastic Compliance Matrix: (Units=1/GPa)
#
#
# Indices 1 2 3 4 5 6 
#
# 1 0.020630 -0.001181 -0.003531 0.000000 0.007832 0.000000
# 2 -0.001181 0.013599 -0.003190 0.000000 -0.004588 0.000000
# 3 -0.003531 -0.003190 0.007112 0.000000 0.004195 0.000000
# 4 0.000000 0.000000 0.000000 0.045453 0.000000 -0.020710
# 5 0.007832 -0.004588 0.004195 0.000000 0.044384 0.000000
# 6 0.000000 0.000000 0.000000 -0.020710 0.000000 0.072253
#
#
# Mechanical properties :
#
#
# Convention : Reuss Voigt Hill
#
# Bulk Modulus (GPa) = 39.15549 59.42868 49.29209
# Shear Modulus (GPa) = 21.95408 30.00930 25.98169
#
# Velocity S-wave (km/s) = 3.24189 3.79026 3.52675
# Velocity P-wave (km/s) = 5.72343 6.89960 6.33885
#
# Compressibility (1/GPa) = 0.02553920
#
# Stress axis : x y z
#
# Youngs Moduli (GPa) = 48.47251 73.53264 140.59915
#
# Poissons Ratio (x) = 0.08682 0.49641
# Poissons Ratio (y) = 0.05723 0.44852
# Poissons Ratio (z) = 0.17114 0.23457
#
# Static dielectric constant tensor:
#      x y z
#    x 1.760870 0.000000 0.005440 
#    y 0.000000 1.759340 0.000000 
#    z 0.005440 0.000000 1.804980 
# 
# From -- ./inp_files/15143.got.cif
#   From: 2010.05.17/outbox.cif.g08.bks.cpg/sg3_8_cif.got.tgz:15143.got - 2010.06.03 18:33:08.
