data_PCOD9113598
_publ_section_title
;
Structure prediction by ZEFSAII (Michael W. Deem and Ramdas Pophale) SiO2 
 PCOD9113598
Probable space group: P 2
;
_chemical_formula_sum "Si O2"
_cell_formula_units_Z 14
_cell_length_a 9.480386
_cell_length_b 7.341908
_cell_length_c 21.211971
_cell_angle_alpha 90.000000
_cell_angle_beta 27.151743
_cell_angle_gamma 90.000000
_cell_volume 673.771695
_symmetry_space_group_name_H-M "P 2"
_symmetry_group_IT_number 3
_symmetry_cell_setting 'monoclinic'
loop_
_space_group_symop_operation_xyz
x,y,z
-x,y,-z
loop_
_atom_site_type_symbol
_atom_site_label
_atom_site_fract_x
_atom_site_fract_y
_atom_site_fract_z
Si Si1 0.056051 0.949060 0.404784
Si Si2 0.090612 0.611427 0.300462
Si Si3 0.148913 0.573823 0.141770
Si Si4 0.693966 0.077837 0.089387
Si Si5 0.820765 0.663823 0.007362
Si Si6 0.809385 0.215441 0.415063
Si Si7 0.323850 0.178202 0.124378
O O1 0.011343 0.766568 0.381698
O O2 0.401411 0.029094 0.251050
O O3 0.000000 0.914320 0.500000
O O4 0.812236 0.098713 0.476891
O O5 0.991667 0.653430 0.267093
O O6 0.464531 0.599808 0.151456
O O7 0.953075 0.413821 0.370796
O O8 0.193773 0.360272 0.142548
O O9 0.500000 0.647380 0.000000
O O10 0.027903 0.602914 0.119306
O O11 0.796721 0.884057 0.018764
O O12 0.571510 0.203415 0.081660
O O13 0.000000 0.154317 0.000000
O O14 0.000000 0.610786 0.000000
O O15 0.500000 0.239755 0.500000
O O16 0.036826 0.103244 0.277255
O O17 0.500000 0.070466 0.000000
#
# Coordination Sequence:
#
# PCOD9113598 Si02
#       7
#     2   2   2   2   2   2   2
#     4  10  22  40  59  83 118 154 191 240 293 341
#     4   9  19  38  59  82 115 156 196 232 285 349
#     4   8  15  31  52  79 112 144 182 226 275 329
#     4   9  19  35  56  83 112 144 186 235 285 340
#     4   9  17  32  56  88 119 144 180 234 290 340
#     4  10  22  40  58  82 115 149 194 242 284 340
#     4   9  18  34  55  81 109 143 186 229 281 337
#
# _framework density 20.778551
#
# number of rings (size 3 to 8) (size 9 to 14) (size 15 to 20)
#    0.000    2.857    0.000    0.857    0.000    6.286 
#    0.000   32.143    0.000    0.000    0.000    0.000 
#    0.000    0.000    0.000    0.000    0.000    0.000 
#
# Total GULP energy -77978.921930 kJ/mol
# GULP energy per Si atom -5569.922995 kJ/mol
# Density = 2.073126 g / cm^3
# Si number density = 20.778551 Si / 1000 Ang^3
#
#
#
# Elastic Constant Matrix: (Units=GPa)
#
#
# Indices 1 2 3 4 5 6 
#
# 1 177.8644 53.4231 47.4865 0.0000 25.1112 0.0000
# 2 53.4231 99.2940 15.6165 0.0000 15.2968 0.0000
# 3 47.4865 15.6165 36.8766 0.0000 14.6303 0.0000
# 4 0.0000 0.0000 0.0000 1.0717 0.0000 -12.5823
# 5 25.1112 15.2968 14.6303 0.0000 50.4503 0.0000
# 6 0.0000 0.0000 0.0000 -12.5823 0.0000 25.1382
#
#
#
# Elastic Compliance Matrix: (Units=1/GPa)
#
#
# Indices 1 2 3 4 5 6 
#
# 1 0.009566 -0.003374 -0.010629 0.000000 -0.000656 0.000000
# 2 -0.003374 0.012200 -0.000023 0.000000 -0.002013 0.000000
# 3 -0.010629 -0.000023 0.043746 0.000000 -0.007388 0.000000
# 4 0.000000 0.000000 0.000000 -0.191348 0.000000 -0.095775
# 5 -0.000656 -0.002013 -0.007388 0.000000 0.022901 0.000000
# 6 0.000000 0.000000 0.000000 -0.095775 0.000000 -0.008157
#
#
# Mechanical properties :
#
#
# Convention : Reuss Voigt Hill
#
# Bulk Modulus (GPa) = 26.69551 60.78748 43.74149
# Shear Modulus (GPa) = -70.86901 28.49928 -21.18487
#
# Velocity S-wave (km/s) = -5.84644 3.70749 -3.19651
# Velocity P-wave (km/s) = 5.71830 6.90259 2.73375
#
# Compressibility (1/GPa) = 0.03745949
#
# Stress axis : x y z
#
# Youngs Moduli (GPa) = 104.53520 81.96585 22.85918
#
# Poissons Ratio (x) = 0.27656 0.24298
# Poissons Ratio (y) = 0.35271 0.00053
# Poissons Ratio (z) = 1.11114 0.00189
#
# Static dielectric constant tensor:
#      x y z
#    x 1.842440 0.000000 0.046040 
#    y 0.000000 1.778030 0.000000 
#    z 0.046040 0.000000 1.806870 
# 
# From -- ./inp_files/15772.got.cif
#   From: 2010.05.17/outbox.cif.g08.bks.cpg/sg3_8_cif.got.tgz:15772.got - 2010.06.03 18:33:08.
