data_PCOD9113084
_publ_section_title
;
Structure prediction by ZEFSAII (Michael W. Deem and Ramdas Pophale) SiO2 
 PCOD9113084
Probable space group: P 2
;
_chemical_formula_sum "Si O2"
_cell_formula_units_Z 13
_cell_length_a 5.809294
_cell_length_b 4.846558
_cell_length_c 17.219763
_cell_angle_alpha 90.000000
_cell_angle_beta 79.432736
_cell_angle_gamma 90.000000
_cell_volume 476.601339
_symmetry_space_group_name_H-M "P 2"
_symmetry_group_IT_number 3
_symmetry_cell_setting 'monoclinic'
loop_
_space_group_symop_operation_xyz
x,y,z
-x,y,-z
loop_
_atom_site_type_symbol
_atom_site_label
_atom_site_fract_x
_atom_site_fract_y
_atom_site_fract_z
Si Si1 0.569786 0.942490 0.073869
Si Si2 0.713334 0.925821 0.224418
Si Si3 0.000000 0.335986 0.000000
Si Si4 0.861246 0.325393 0.847995
Si Si5 0.131727 0.153287 0.571516
Si Si6 0.710720 0.326322 0.696322
Si Si7 0.618587 0.660124 0.380445
O O1 0.638183 0.786871 0.147889
O O2 0.355608 0.135777 0.112416
O O3 0.500000 0.782183 0.000000
O O4 0.784539 0.139071 0.036773
O O5 0.503706 0.120620 0.270062
O O6 0.930337 0.120389 0.190543
O O7 0.748477 0.702766 0.289307
O O8 0.934298 0.483957 0.922657
O O9 0.781445 0.469474 0.773234
O O10 0.928652 0.155726 0.649316
O O11 0.000000 0.096018 0.500000
O O12 0.249240 0.450607 0.571725
O O13 0.341629 0.948430 0.580278
O O14 0.626189 0.536129 0.634177
#
# Coordination Sequence:
#
# PCOD9113084 Si02
#       7
#     2   2   1   2   2   2   2
#     4   8  15  27  55  94 137 188 233 294 355 414
#     4  10  20  39  65 100 140 185 244 294 352 437
#     4   8  14  26  52  98 144 186 244 292 350 430
#     4   9  16  33  60  98 143 190 241 296 359 421
#     4  12  29  51  73 105 147 186 239 303 373 445
#     4  11  23  43  73 101 144 191 240 301 366 431
#     4  12  25  48  71 108 140 184 244 295 363 449
#
# _framework density 27.276464000000001
#
# number of rings (size 3 to 8) (size 9 to 14) (size 15 to 20)
#    0.000    1.846    3.077    0.462    2.154    0.615 
#    2.769    0.000    0.000   11.077    0.000   47.385 
#    0.000    0.000    0.000    0.000    0.000    0.000 
#
# Total GULP energy -72791.002012 kJ/mol
# GULP energy per Si atom -5599.307847 kJ/mol
# Density = 2.721438 g / cm^3
# Si number density = 27.276464 Si / 1000 Ang^3
#
#
#
# Elastic Constant Matrix: (Units=GPa)
#
#
# Indices 1 2 3 4 5 6 
#
# 1 98.8573 15.4239 51.4896 0.0000 -17.3134 0.0000
# 2 15.4239 61.6626 15.9159 0.0000 -4.0468 0.0000
# 3 51.4896 15.9159 194.3878 0.0000 53.7494 0.0000
# 4 0.0000 0.0000 0.0000 16.2066 0.0000 -19.8462
# 5 -17.3134 -4.0468 53.7494 0.0000 92.5259 0.0000
# 6 0.0000 0.0000 0.0000 -19.8462 0.0000 -40.9362
#
#
#
# Elastic Compliance Matrix: (Units=1/GPa)
#
#
# Indices 1 2 3 4 5 6 
#
# 1 0.014009 -0.001833 -0.005079 0.000000 0.005492 0.000000
# 2 -0.001833 0.017063 -0.001219 0.000000 0.001111 0.000000
# 3 -0.005079 -0.001219 0.008181 0.000000 -0.005756 0.000000
# 4 0.000000 0.000000 0.000000 0.038717 0.000000 -0.018770
# 5 0.005492 0.001111 -0.005756 0.000000 0.015228 0.000000
# 6 0.000000 0.000000 0.000000 -0.018770 0.000000 -0.015328
#
#
# Mechanical properties :
#
#
# Convention : Reuss Voigt Hill
#
# Bulk Modulus (GPa) = 43.49398 57.84074 50.66736
# Shear Modulus (GPa) = 49.11799 31.69779 40.40789
#
# Velocity S-wave (km/s) = 4.24812 3.41265 3.85310
# Velocity P-wave (km/s) = 6.32790 6.06462 6.19766
#
# Compressibility (1/GPa) = 0.02299169
#
# Stress axis : x y z
#
# Youngs Moduli (GPa) = 71.38397 58.60542 122.23220
#
# Poissons Ratio (x) = 0.10741 0.62083
# Poissons Ratio (y) = 0.13082 0.14900
# Poissons Ratio (z) = 0.36256 0.07144
#
# Static dielectric constant tensor:
#      x y z
#    x 2.133370 0.000000 0.072030 
#    y 0.000000 2.077500 0.000000 
#    z 0.072030 0.000000 2.172450 
# 
# From -- ./inp_files/14570.got.cif
#   From: 2010.05.17/outbox.cif.g08.bks.cpg/sg3_8_cif.got.tgz:14570.got - 2010.06.03 18:33:08.
