data_PCOD9113025
_publ_section_title
;
Structure prediction by ZEFSAII (Michael W. Deem and Ramdas Pophale) SiO2 
 PCOD9113025
Probable space group: P 2
;
_chemical_formula_sum "Si O2"
_cell_formula_units_Z 14
_cell_length_a 8.201156
_cell_length_b 8.338537
_cell_length_c 8.937901
_cell_angle_alpha 90.000000
_cell_angle_beta 99.010116
_cell_angle_gamma 90.000000
_cell_volume 603.682030
_symmetry_space_group_name_H-M "P 2"
_symmetry_group_IT_number 3
_symmetry_cell_setting 'monoclinic'
loop_
_space_group_symop_operation_xyz
x,y,z
-x,y,-z
loop_
_atom_site_type_symbol
_atom_site_label
_atom_site_fract_x
_atom_site_fract_y
_atom_site_fract_z
Si Si1 0.001126 0.882670 0.333773
Si Si2 0.486994 0.725857 0.695914
Si Si3 0.722757 0.807808 0.080497
Si Si4 0.927329 0.259408 0.826005
Si Si5 0.000000 0.571643 0.000000
Si Si6 0.688271 0.016383 0.795384
Si Si7 0.000000 0.312426 0.500000
Si Si8 0.775014 0.590823 0.572631
O O1 0.069456 0.701622 0.363387
O O2 0.000000 0.950748 0.500000
O O3 0.828271 0.888897 0.228038
O O4 0.136574 0.958132 0.245500
O O5 0.420225 0.716105 0.853036
O O6 0.638598 0.606057 0.684527
O O7 0.334954 0.683151 0.568035
O O8 0.553636 0.910153 0.687869
O O9 0.848006 0.685028 0.020211
O O10 0.674186 0.947029 0.959337
O O11 0.734055 0.203571 0.794243
O O12 0.950893 0.448760 0.860603
O O13 0.011269 0.234856 0.671841
O O14 0.000000 0.193713 0.000000
O O15 0.159132 0.426760 0.489263
#
# Coordination Sequence:
#
# PCOD9113025 Si02
#       8
#     2   2   2   2   1   2   1   2
#     4  11  19  32  66  94 126 161 234 301 335 392
#     4  10  22  36  66  94 146 173 227 285 359 408
#     4  12  20  40  67 104 129 180 236 298 356 400
#     4  10  25  42  64 105 146 182 237 295 362 432
#     4  10  22  38  70 104 134 170 244 304 350 418
#     4  11  24  41  60  98 138 185 231 290 345 438
#     4  12  22  44  78 100 148 186 234 306 372 412
#     4  10  20  38  62 111 129 170 235 294 342 430
#
# _framework density 23.191013999999999
#
# number of rings (size 3 to 8) (size 9 to 14) (size 15 to 20)
#    0.429    0.857    3.571    3.000    3.000    0.000 
#    0.000    0.000    6.286    8.571    0.000    0.000 
#    0.000    0.000    0.000    0.000    0.000    0.000 
#
# Total GULP energy -77965.171669 kJ/mol
# GULP energy per Si atom -5568.940833 kJ/mol
# Density = 2.313823 g / cm^3
# Si number density = 23.191014 Si / 1000 Ang^3
#
#
#
# Elastic Constant Matrix: (Units=GPa)
#
#
# Indices 1 2 3 4 5 6 
#
# 1 79.9246 22.6664 47.8024 0.0000 -24.4031 0.0000
# 2 22.6664 67.9132 35.8711 0.0000 -5.9474 0.0000
# 3 47.8024 35.8711 180.3197 0.0000 -17.0266 0.0000
# 4 0.0000 0.0000 0.0000 41.4736 0.0000 -11.1624
# 5 -24.4031 -5.9474 -17.0266 0.0000 60.2447 0.0000
# 6 0.0000 0.0000 0.0000 -11.1624 0.0000 41.5484
#
#
#
# Elastic Compliance Matrix: (Units=1/GPa)
#
#
# Indices 1 2 3 4 5 6 
#
# 1 0.017236 -0.003491 -0.003337 0.000000 0.005694 0.000000
# 2 -0.003491 0.017191 -0.002535 0.000000 -0.000434 0.000000
# 3 -0.003337 -0.002535 0.006969 0.000000 0.000368 0.000000
# 4 0.000000 0.000000 0.000000 0.025991 0.000000 0.006983
# 5 0.005694 -0.000434 0.000368 0.000000 0.018967 0.000000
# 6 0.000000 0.000000 0.000000 0.006983 0.000000 0.025944
#
#
# Mechanical properties :
#
#
# Convention : Reuss Voigt Hill
#
# Bulk Modulus (GPa) = 44.11243 60.09301 52.10272
# Shear Modulus (GPa) = 36.07949 43.44119 39.76034
#
# Velocity S-wave (km/s) = 3.94858 4.33273 4.14511
# Velocity P-wave (km/s) = 6.31277 7.14133 6.73979
#
# Compressibility (1/GPa) = 0.02266935
#
# Stress axis : x y z
#
# Youngs Moduli (GPa) = 58.01666 58.16971 143.48405
#
# Poissons Ratio (x) = 0.20310 0.47882
# Poissons Ratio (y) = 0.20256 0.36376
# Poissons Ratio (z) = 0.19361 0.14747
#
# Static dielectric constant tensor:
#      x y z
#    x 1.874940 0.000000 0.035700 
#    y 0.000000 2.000980 0.000000 
#    z 0.035700 0.000000 2.039150 
# 
# From -- ./inp_files/5374.got.cif
#   From: 2010.05.17/outbox.cif.g08.bks.cpg/sg3_3_cif.got.tgz:5374.got - 2010.06.03 18:33:08.
