data_PCOD9113304
_publ_section_title
;
Structure prediction by ZEFSAII (Michael W. Deem and Ramdas Pophale) SiO2 
 PCOD9113304
Probable space group: P 2
;
_chemical_formula_sum "Si O2"
_cell_formula_units_Z 10
_cell_length_a 8.165216
_cell_length_b 5.797662
_cell_length_c 9.156882
_cell_angle_alpha 90.000000
_cell_angle_beta 100.175459
_cell_angle_gamma 90.000000
_cell_volume 426.661091
_symmetry_space_group_name_H-M "P 2"
_symmetry_group_IT_number 3
_symmetry_cell_setting 'monoclinic'
loop_
_space_group_symop_operation_xyz
x,y,z
-x,y,-z
loop_
_atom_site_type_symbol
_atom_site_label
_atom_site_fract_x
_atom_site_fract_y
_atom_site_fract_z
Si Si1 0.500000 0.961860 0.000000
Si Si2 0.581862 0.118408 0.316148
Si Si3 0.262263 0.342811 0.406963
Si Si4 0.843166 0.756193 0.085124
Si Si5 0.500000 0.733399 0.500000
Si Si6 0.942343 0.258509 0.162689
O O1 0.554844 0.121009 0.141826
O O2 0.662533 0.810742 0.987144
O O3 0.401732 0.185451 0.353119
O O4 0.721082 0.269285 0.420213
O O5 0.592449 0.862855 0.382303
O O6 0.349187 0.589212 0.406924
O O7 0.093066 0.307212 0.297192
O O8 0.879442 0.994093 0.182577
O O9 0.837742 0.499000 0.152210
O O10 0.000000 0.744773 0.000000
O O11 0.000000 0.245084 0.000000
#
# Coordination Sequence:
#
# PCOD9113304 Si02
#       6
#     1   2   2   2   1   2
#     4  12  24  44  70 102 142 172 242 290 344 422
#     4   9  20  37  63  99 133 181 228 287 348 406
#     4   9  19  38  66  95 132 188 225 283 344 421
#     4  10  24  42  66 103 135 184 224 289 346 406
#     4   8  18  34  62  94 128 180 230 272 346 410
#     4  10  21  38  67  98 134 179 232 280 344 409
#
# _framework density 23.437804
#
# number of rings (size 3 to 8) (size 9 to 14) (size 15 to 20)
#    0.000    2.800    0.000    2.400   11.200    0.800 
#    7.200    1.000    0.000    0.000    0.000    0.000 
#    0.000    0.000    0.000    0.000    0.000    0.000 
#
# Total GULP energy -55681.455248 kJ/mol
# GULP energy per Si atom -5568.145525 kJ/mol
# Density = 2.338446 g / cm^3
# Si number density = 23.437804 Si / 1000 Ang^3
#
#
#
# Elastic Constant Matrix: (Units=GPa)
#
#
# Indices 1 2 3 4 5 6 
#
# 1 100.4364 19.3236 33.7006 0.0000 25.1930 0.0000
# 2 19.3236 133.2568 29.2584 0.0000 11.7071 0.0000
# 3 33.7006 29.2584 156.5697 0.0000 14.0480 0.0000
# 4 0.0000 0.0000 0.0000 42.5006 0.0000 -9.0067
# 5 25.1930 11.7071 14.0480 0.0000 37.1342 0.0000
# 6 0.0000 0.0000 0.0000 -9.0067 0.0000 -0.2555
#
#
#
# Elastic Compliance Matrix: (Units=1/GPa)
#
#
# Indices 1 2 3 4 5 6 
#
# 1 0.012651 -0.000747 -0.001899 0.000000 -0.007629 0.000000
# 2 -0.000747 0.008013 -0.001196 0.000000 -0.001567 0.000000
# 3 -0.001899 -0.001196 0.007111 0.000000 -0.001025 0.000000
# 4 0.000000 0.000000 0.000000 0.002778 0.000000 -0.097919
# 5 -0.007629 -0.001567 -0.001025 0.000000 0.032987 0.000000
# 6 0.000000 0.000000 0.000000 -0.097919 0.000000 -0.462060
#
#
# Mechanical properties :
#
#
# Convention : Reuss Voigt Hill
#
# Bulk Modulus (GPa) = 49.77437 61.64756 55.71096
# Shear Modulus (GPa) = -13.01613 36.40786 11.69587
#
# Velocity S-wave (km/s) = -2.35914 3.94557 2.23629
# Velocity P-wave (km/s) = 3.72319 6.86414 5.52171
#
# Compressibility (1/GPa) = 0.02009066
#
# Stress axis : x y z
#
# Youngs Moduli (GPa) = 79.04440 124.79859 140.62521
#
# Poissons Ratio (x) = 0.09327 0.26703
# Poissons Ratio (y) = 0.05908 0.16818
# Poissons Ratio (z) = 0.15010 0.14925
#
# Static dielectric constant tensor:
#      x y z
#    x 2.021530 0.000000 -0.156880 
#    y 0.000000 2.031180 0.000000 
#    z -0.156880 0.000000 1.968150 
# 
# From -- ./inp_files/4903.got.cif
#   From: 2010.05.17/outbox.cif.g08.bks.cpg/sg3_3_cif.got.tgz:4903.got - 2010.06.03 18:33:08.
