data_PCOD9113302
_publ_section_title
;
Structure prediction by ZEFSAII (Michael W. Deem and Ramdas Pophale) SiO2 
 PCOD9113302
Probable space group: P 2
;
_chemical_formula_sum "Si O2"
_cell_formula_units_Z 15
_cell_length_a 11.025809
_cell_length_b 8.743840
_cell_length_c 14.061116
_cell_angle_alpha 90.000000
_cell_angle_beta 33.222844
_cell_angle_gamma 90.000000
_cell_volume 742.730438
_symmetry_space_group_name_H-M "P 2"
_symmetry_group_IT_number 3
_symmetry_cell_setting 'monoclinic'
loop_
_space_group_symop_operation_xyz
x,y,z
-x,y,-z
loop_
_atom_site_type_symbol
_atom_site_label
_atom_site_fract_x
_atom_site_fract_y
_atom_site_fract_z
Si Si1 0.041337 0.734230 0.585195
Si Si2 0.765657 0.134010 0.127905
Si Si3 0.937813 0.424605 0.896476
Si Si4 0.849856 0.388008 0.444889
Si Si5 0.397000 0.924415 0.277373
Si Si6 0.613457 0.395522 0.328537
Si Si7 0.337615 0.685407 0.026252
Si Si8 0.000000 0.142899 0.500000
O O1 0.065537 0.553126 0.579466
O O2 0.000000 0.756969 0.500000
O O3 0.854161 0.770454 0.786170
O O4 0.263356 0.834212 0.448289
O O5 0.589808 0.026346 0.195268
O O6 0.671660 0.215636 0.283980
O O7 0.819332 0.283048 0.026531
O O8 0.000000 0.059398 0.000000
O O9 0.776254 0.560008 0.967767
O O10 0.054472 0.363592 0.723513
O O11 0.147731 0.476395 0.824007
O O12 0.583782 0.408360 0.618020
O O13 0.936575 0.253478 0.454580
O O14 0.217412 0.036596 0.344631
O O15 0.512467 0.802446 0.131876
O O16 0.500000 0.443849 0.500000
O O17 0.500000 0.612450 0.000000
#
# Coordination Sequence:
#
# PCOD9113302 Si02
#       8
#     2   2   2   2   2   2   2   1
#     4  11  22  42  62  87 127 172 207 258 325 379
#     4  10  22  42  62  93 125 169 216 269 326 378
#     4   9  22  39  65  94 119 165 219 263 324 372
#     4  10  21  38  67  92 123 160 224 269 312 379
#     4  12  25  40  62  92 137 170 207 261 330 392
#     4   9  18  39  65  92 120 158 211 278 312 367
#     4  11  23  41  63  92 132 170 211 269 322 389
#     4  12  22  38  68 100 120 178 214 262 338 382
#
# _framework density 20.195753
#
# number of rings (size 3 to 8) (size 9 to 14) (size 15 to 20)
#    0.000    1.600    4.000    0.000    1.867    4.267 
#    4.800    0.000    0.000    0.000    0.000    0.000 
#    0.000    0.000    0.000    0.000    0.000    0.000 
#
# Total GULP energy -83533.606093 kJ/mol
# GULP energy per Si atom -5568.907073 kJ/mol
# Density = 2.014979 g / cm^3
# Si number density = 20.195753 Si / 1000 Ang^3
#
#
#
# Elastic Constant Matrix: (Units=GPa)
#
#
# Indices 1 2 3 4 5 6 
#
# 1 105.3869 49.3918 47.7366 0.0000 -28.8981 0.0000
# 2 49.3918 84.1937 46.0597 0.0000 -15.1038 0.0000
# 3 47.7366 46.0597 143.2409 0.0000 -13.2842 0.0000
# 4 0.0000 0.0000 0.0000 19.6527 0.0000 -19.2556
# 5 -28.8981 -15.1038 -13.2842 0.0000 34.4386 0.0000
# 6 0.0000 0.0000 0.0000 -19.2556 0.0000 24.1445
#
#
#
# Elastic Compliance Matrix: (Units=1/GPa)
#
#
# Indices 1 2 3 4 5 6 
#
# 1 0.016358 -0.006474 -0.002448 0.000000 0.009943 0.000000
# 2 -0.006474 0.017748 -0.003455 0.000000 0.001019 0.000000
# 3 -0.002448 -0.003455 0.008895 0.000000 -0.000138 0.000000
# 4 0.000000 0.000000 0.000000 0.232767 0.000000 0.185635
# 5 0.009943 0.001019 -0.000138 0.000000 0.037774 0.000000
# 6 0.000000 0.000000 0.000000 0.185635 0.000000 0.189464
#
#
# Mechanical properties :
#
#
# Convention : Reuss Voigt Hill
#
# Bulk Modulus (GPa) = 54.79919 68.79973 61.79946
# Shear Modulus (GPa) = 9.36606 28.28938 18.82772
#
# Velocity S-wave (km/s) = 2.15585 3.74673 3.05661
# Velocity P-wave (km/s) = 5.77840 7.27033 6.56687
#
# Compressibility (1/GPa) = 0.01824845
#
# Stress axis : x y z
#
# Youngs Moduli (GPa) = 61.13207 56.34440 112.42038
#
# Poissons Ratio (x) = 0.36475 0.27518
# Poissons Ratio (y) = 0.39574 0.38842
# Poissons Ratio (z) = 0.14964 0.19467
#
# Static dielectric constant tensor:
#      x y z
#    x 1.813230 0.000000 -0.006150 
#    y 0.000000 1.683800 0.000000 
#    z -0.006150 0.000000 1.832010 
# 
# From -- ./inp_files/13752.got.cif
#   From: 2010.05.17/outbox.cif.g08.bks.cpg/sg3_7_cif.got.tgz:13752.got - 2010.06.03 18:33:08.
