data_PCOD9113260
_publ_section_title
;
Structure prediction by ZEFSAII (Michael W. Deem and Ramdas Pophale) SiO2 
 PCOD9113260
Probable space group: P 2
;
_chemical_formula_sum "Si O2"
_cell_formula_units_Z 16
_cell_length_a 10.286060
_cell_length_b 6.501068
_cell_length_c 20.524882
_cell_angle_alpha 90.000000
_cell_angle_beta 31.643754
_cell_angle_gamma 90.000000
_cell_volume 720.066596
_symmetry_space_group_name_H-M "P 2"
_symmetry_group_IT_number 3
_symmetry_cell_setting 'monoclinic'
loop_
_space_group_symop_operation_xyz
x,y,z
-x,y,-z
loop_
_atom_site_type_symbol
_atom_site_label
_atom_site_fract_x
_atom_site_fract_y
_atom_site_fract_z
Si Si1 0.949062 0.187250 0.913032
Si Si2 0.202265 0.204806 0.363704
Si Si3 0.046582 0.727960 0.904881
Si Si4 0.554001 0.451155 0.308203
Si Si5 0.871737 0.480778 0.408348
Si Si6 0.162100 0.234502 0.189349
Si Si7 0.228668 0.853486 0.256644
Si Si8 0.404780 0.498840 0.933655
O O1 0.849657 0.184723 0.881458
O O2 0.210507 0.300737 0.794620
O O3 0.732517 0.309765 0.044428
O O4 0.993390 0.966315 0.922771
O O5 0.377572 0.356192 0.328496
O O6 0.000000 0.123115 0.500000
O O7 0.058419 0.346709 0.373470
O O8 0.293637 0.003036 0.288462
O O9 0.321138 0.666190 0.765470
O O10 0.000000 0.661446 0.000000
O O11 0.849942 0.617902 0.938943
O O12 0.394083 0.466379 0.442846
O O13 0.920407 0.361641 0.319150
O O14 0.978544 0.713648 0.364143
O O15 0.387539 0.389094 0.111009
O O16 0.203291 0.017366 0.208576
O O17 0.443224 0.684311 0.162103
#
# Coordination Sequence:
#
# PCOD9113260 Si02
#       8
#     2   2   2   2   2   2   2   2
#     4  11  25  43  63  95 136 179 219 270 335 391
#     4   9  20  38  65  97 129 166 213 273 334 397
#     4  11  27  42  65  98 136 180 226 273 336 403
#     4  10  24  43  64  92 136 175 215 269 342 399
#     4   9  21  41  64  97 128 167 220 276 332 394
#     4  10  22  41  68  97 129 170 225 278 328 392
#     4  10  21  37  70  96 126 164 227 274 329 383
#     4  10  23  43  64  92 128 175 225 273 325 383
#
# _framework density 22.220167
#
# number of rings (size 3 to 8) (size 9 to 14) (size 15 to 20)
#    0.000    2.000    0.000    1.125    7.000   12.000 
#    0.000    0.000    0.000    0.000    0.000    0.000 
#    0.000    0.000    0.000    0.000    0.000    0.000 
#
# Total GULP energy -89195.286746 kJ/mol
# GULP energy per Si atom -5574.705422 kJ/mol
# Density = 2.216959 g / cm^3
# Si number density = 22.220167 Si / 1000 Ang^3
#
#
#
# Elastic Constant Matrix: (Units=GPa)
#
#
# Indices 1 2 3 4 5 6 
#
# 1 57.0438 25.7615 26.9022 0.0000 1.4761 0.0000
# 2 25.7615 140.0329 35.7380 0.0000 1.9635 0.0000
# 3 26.9022 35.7380 107.3903 0.0000 0.3845 0.0000
# 4 0.0000 0.0000 0.0000 22.2733 0.0000 -5.9472
# 5 1.4761 1.9635 0.3845 0.0000 31.6074 0.0000
# 6 0.0000 0.0000 0.0000 -5.9472 0.0000 21.3697
#
#
#
# Elastic Compliance Matrix: (Units=1/GPa)
#
#
# Indices 1 2 3 4 5 6 
#
# 1 0.020808 -0.002719 -0.004305 0.000000 -0.000750 0.000000
# 2 -0.002719 0.008166 -0.002035 0.000000 -0.000356 0.000000
# 3 -0.004305 -0.002035 0.011067 0.000000 0.000193 0.000000
# 4 0.000000 0.000000 0.000000 0.048501 0.000000 0.013498
# 5 -0.000750 -0.000356 0.000193 0.000000 0.031693 0.000000
# 6 0.000000 0.000000 0.000000 0.013498 0.000000 0.050552
#
#
# Mechanical properties :
#
#
# Convention : Reuss Voigt Hill
#
# Bulk Modulus (GPa) = 45.61504 53.47448 49.54476
# Shear Modulus (GPa) = 25.48273 29.45444 27.46859
#
# Velocity S-wave (km/s) = 3.39016 3.64479 3.51978
# Velocity P-wave (km/s) = 5.99145 6.46766 6.23411
#
# Compressibility (1/GPa) = 0.02192259
#
# Stress axis : x y z
#
# Youngs Moduli (GPa) = 48.05861 122.46339 90.35991
#
# Poissons Ratio (x) = 0.33295 0.38901
# Poissons Ratio (y) = 0.13066 0.18389
# Poissons Ratio (z) = 0.20690 0.24922
#
# Static dielectric constant tensor:
#      x y z
#    x 1.856980 0.000000 0.053690 
#    y 0.000000 1.826650 0.000000 
#    z 0.053690 0.000000 1.937840 
# 
# From -- ./inp_files/16289.got.cif
#   From: 2010.05.17/outbox.cif.g08.bks.cpg/sg3_9_cif.got.tgz:16289.got - 2010.06.03 18:33:08.
