data_PCOD9113675
_publ_section_title
;
Structure prediction by ZEFSAII (Michael W. Deem and Ramdas Pophale) SiO2 
 PCOD9113675
Probable space group: P 2
;
_chemical_formula_sum "Si O2"
_cell_formula_units_Z 13
_cell_length_a 5.276534
_cell_length_b 18.098145
_cell_length_c 5.159350
_cell_angle_alpha 90.000000
_cell_angle_beta 85.643217
_cell_angle_gamma 90.000000
_cell_volume 491.270870
_symmetry_space_group_name_H-M "P 2"
_symmetry_group_IT_number 3
_symmetry_cell_setting 'monoclinic'
loop_
_space_group_symop_operation_xyz
x,y,z
-x,y,-z
loop_
_atom_site_type_symbol
_atom_site_label
_atom_site_fract_x
_atom_site_fract_y
_atom_site_fract_z
Si Si1 0.231422 0.856480 0.156871
Si Si2 0.264422 0.385535 0.324712
Si Si3 0.672407 0.007959 0.719083
Si Si4 0.832834 0.543682 0.772759
Si Si5 0.265219 0.220234 0.313641
Si Si6 0.733909 0.695395 0.649976
Si Si7 0.000000 0.109057 0.000000
O O1 0.189530 0.769975 0.210259
O O2 0.262634 0.922819 0.358198
O O3 0.500000 0.855849 0.000000
O O4 0.000000 0.881985 0.000000
O O5 0.500000 0.393720 0.500000
O O6 0.262466 0.460971 0.161184
O O7 0.282154 0.304066 0.204841
O O8 0.000000 0.382406 0.500000
O O9 0.500000 0.039526 0.500000
O O10 0.930184 0.051045 0.775685
O O11 0.500000 0.010186 0.000000
O O12 0.647993 0.613868 0.751443
O O13 0.000000 0.533247 0.500000
O O14 0.000000 0.568394 0.000000
O O15 0.500000 0.209584 0.500000
O O16 0.000000 0.212094 0.500000
O O17 0.222913 0.166661 0.069426
O O18 0.500000 0.722809 0.500000
O O19 0.000000 0.676512 0.500000
#
# Coordination Sequence:
#
# PCOD9113675 Si02
#       7
#     2   2   2   2   2   2   1
#     4  11  23  45  69 104 140 187 235 292 352 425
#     4   9  19  41  65  96 135 182 228 284 343 417
#     4  11  27  48  72 105 143 189 239 295 363 430
#     4  10  22  41  68  99 139 183 232 286 345 411
#     4  10  24  43  69 100 141 184 237 291 359 426
#     4  11  23  41  66 103 139 184 233 290 345 414
#     4  12  26  42  72 102 140 186 234 306 350 438
#
# _framework density 26.461978999999999
#
# number of rings (size 3 to 8) (size 9 to 14) (size 15 to 20)
#    0.000    1.538    0.769    2.769    5.385    2.462 
#    0.000    9.231    0.000    0.000    0.000    0.000 
#    0.000    0.000    0.000    0.000    0.000    0.000 
#
# Total GULP energy -72483.938603 kJ/mol
# GULP energy per Si atom -5575.687585 kJ/mol
# Density = 2.640175 g / cm^3
# Si number density = 26.461979 Si / 1000 Ang^3
#
#
#
# Elastic Constant Matrix: (Units=GPa)
#
#
# Indices 1 2 3 4 5 6 
#
# 1 163.8626 -3.3517 49.7850 0.0000 13.3203 0.0000
# 2 -3.3517 242.9935 17.6767 0.0000 24.1642 0.0000
# 3 49.7850 17.6767 111.7107 0.0000 23.4420 0.0000
# 4 0.0000 0.0000 0.0000 30.0357 0.0000 29.7908
# 5 13.3203 24.1642 23.4420 0.0000 70.9502 0.0000
# 6 0.0000 0.0000 0.0000 29.7908 0.0000 32.2648
#
#
#
# Elastic Compliance Matrix: (Units=1/GPa)
#
#
# Indices 1 2 3 4 5 6 
#
# 1 0.007096 0.000368 -0.003132 0.000000 -0.000423 0.000000
# 2 0.000368 0.004295 -0.000561 0.000000 -0.001347 0.000000
# 3 -0.003132 -0.000561 0.011038 0.000000 -0.002868 0.000000
# 4 0.000000 0.000000 0.000000 0.395363 0.000000 -0.365047
# 5 -0.000423 -0.001347 -0.002868 0.000000 0.015580 0.000000
# 6 0.000000 0.000000 0.000000 -0.365047 0.000000 0.368049
#
#
# Mechanical properties :
#
#
# Convention : Reuss Voigt Hill
#
# Bulk Modulus (GPa) = 63.37557 71.86521 67.62039
# Shear Modulus (GPa) = 6.14755 56.94726 31.54741
#
# Velocity S-wave (km/s) = 1.52585 4.64404 3.45654
# Velocity P-wave (km/s) = 5.20634 7.48151 6.44511
#
# Compressibility (1/GPa) = 0.01577895
#
# Stress axis : x y z
#
# Youngs Moduli (GPa) = 140.92226 232.82232 90.59556
#
# Poissons Ratio (x) = -0.08562 0.28374
# Poissons Ratio (y) = -0.05182 0.05082
# Poissons Ratio (z) = 0.44136 0.13061
#
# Static dielectric constant tensor:
#      x y z
#    x 2.022340 0.000000 -0.165660 
#    y 0.000000 2.223170 0.000000 
#    z -0.165660 0.000000 2.167820 
# 
# From -- ./inp_files/569.got.cif
#   From: 2010.05.17/outbox.cif.g08.bks.cpg/sg3_1_cif.got.tgz:569.got - 2010.06.03 18:33:08.
