data_PCOD9113193
_publ_section_title
;
Structure prediction by ZEFSAII (Michael W. Deem and Ramdas Pophale) SiO2 
 PCOD9113193
Probable space group: P 2
;
_chemical_formula_sum "Si O2"
_cell_formula_units_Z 13
_cell_length_a 6.551146
_cell_length_b 10.696323
_cell_length_c 9.189490
_cell_angle_alpha 90.000000
_cell_angle_beta 99.627932
_cell_angle_gamma 90.000000
_cell_volume 634.866634
_symmetry_space_group_name_H-M "P 2"
_symmetry_group_IT_number 3
_symmetry_cell_setting 'monoclinic'
loop_
_space_group_symop_operation_xyz
x,y,z
-x,y,-z
loop_
_atom_site_type_symbol
_atom_site_label
_atom_site_fract_x
_atom_site_fract_y
_atom_site_fract_z
Si Si1 0.000000 0.783741 0.000000
Si Si2 0.500000 0.286784 0.500000
Si Si3 0.314022 0.610839 0.864205
Si Si4 0.872360 0.156638 0.709251
Si Si5 0.000000 0.944817 0.500000
Si Si6 0.345419 0.985461 0.119738
Si Si7 0.592276 0.814919 0.356286
Si Si8 0.848164 0.388299 0.345881
O O1 0.823432 0.876551 0.920151
O O2 0.131291 0.694652 0.910808
O O3 0.673423 0.207180 0.600494
O O4 0.627815 0.361527 0.394753
O O5 0.416731 0.699947 0.754809
O O6 0.200226 0.493363 0.777869
O O7 0.500000 0.580267 0.000000
O O8 0.046190 0.264758 0.714263
O O9 0.784672 0.108695 0.852994
O O10 0.944083 0.036034 0.626888
O O11 0.177581 0.857145 0.581522
O O12 0.482216 0.935369 0.270722
O O13 0.500000 0.997604 0.000000
O O14 0.500000 0.780596 0.500000
O O15 0.000000 0.424026 0.500000
#
# Coordination Sequence:
#
# PCOD9113193 Si02
#       8
#     1   1   2   2   1   2   2   2
#     4  12  24  48  70  94 152 188 230 304 368 444
#     4  10  20  44  70 100 142 174 246 304 352 412
#     4  12  27  48  70 101 155 192 245 300 368 441
#     4  11  22  42  69 104 142 184 237 304 366 432
#     4  12  22  38  72 104 142 172 236 304 366 434
#     4  12  25  44  70 107 147 187 233 304 384 441
#     4  12  25  40  70 112 134 186 239 296 375 430
#     4  10  25  44  72 106 138 200 249 300 356 427
#
# _framework density 20.476742000000002
#
# number of rings (size 3 to 8) (size 9 to 14) (size 15 to 20)
#    0.000    0.615    6.923    1.846    2.154    2.462 
#    0.000    4.615    0.000    0.000    0.000    0.000 
#    0.000    0.000    0.000    0.000    0.000    0.000 
#
# Total GULP energy -72608.870178 kJ/mol
# GULP energy per Si atom -5585.297706 kJ/mol
# Density = 2.043014 g / cm^3
# Si number density = 20.476742 Si / 1000 Ang^3
#
#
#
# Elastic Constant Matrix: (Units=GPa)
#
#
# Indices 1 2 3 4 5 6 
#
# 1 109.3536 28.3443 50.1268 0.0000 -1.4639 0.0000
# 2 28.3443 83.2375 52.9896 0.0000 4.6876 0.0000
# 3 50.1268 52.9896 102.9239 0.0000 -11.8696 0.0000
# 4 0.0000 0.0000 0.0000 26.1060 0.0000 -18.9204
# 5 -1.4639 4.6876 -11.8696 0.0000 42.3099 0.0000
# 6 0.0000 0.0000 0.0000 -18.9204 0.0000 62.9689
#
#
#
# Elastic Compliance Matrix: (Units=1/GPa)
#
#
# Indices 1 2 3 4 5 6 
#
# 1 0.011842 -0.000312 -0.005741 0.000000 -0.001166 0.000000
# 2 -0.000312 0.018838 -0.010116 0.000000 -0.004936 0.000000
# 3 -0.005741 -0.010116 0.018422 0.000000 0.006090 0.000000
# 4 0.000000 0.000000 0.000000 0.048969 0.000000 0.014714
# 5 -0.001166 -0.004936 0.006090 0.000000 0.025850 0.000000
# 6 0.000000 0.000000 0.000000 0.014714 0.000000 0.020302
#
#
# Mechanical properties :
#
#
# Convention : Reuss Voigt Hill
#
# Bulk Modulus (GPa) = 59.65094 62.04850 60.84972
# Shear Modulus (GPa) = 27.45008 37.21390 32.33199
#
# Velocity S-wave (km/s) = 3.66532 4.26769 3.97793
# Velocity P-wave (km/s) = 6.86346 7.39270 7.13299
#
# Compressibility (1/GPa) = 0.01676419
#
# Stress axis : x y z
#
# Youngs Moduli (GPa) = 84.44841 53.08483 54.28156
#
# Poissons Ratio (x) = 0.01655 0.31164
# Poissons Ratio (y) = 0.02633 0.54910
# Poissons Ratio (z) = 0.48483 0.53700
#
# Static dielectric constant tensor:
#      x y z
#    x 1.700730 0.000000 -0.074060 
#    y 0.000000 1.737350 0.000000 
#    z -0.074060 0.000000 1.663160 
# 
# From -- ./inp_files/1337.got.cif
#   From: 2010.05.17/outbox.cif.g08.bks.cpg/sg3_1_cif.got.tgz:1337.got - 2010.06.03 18:33:08.
