data_PCOD9113848
_publ_section_title
;
Structure prediction by ZEFSAII (Michael W. Deem and Ramdas Pophale) SiO2 
 PCOD9113848
Probable space group: P 2
;
_chemical_formula_sum "Si O2"
_cell_formula_units_Z 14
_cell_length_a 8.904562
_cell_length_b 5.253591
_cell_length_c 24.591487
_cell_angle_alpha 90.000000
_cell_angle_beta 29.168227
_cell_angle_gamma 90.000000
_cell_volume 560.682906
_symmetry_space_group_name_H-M "P 2"
_symmetry_group_IT_number 3
_symmetry_cell_setting 'monoclinic'
loop_
_space_group_symop_operation_xyz
x,y,z
-x,y,-z
loop_
_atom_site_type_symbol
_atom_site_label
_atom_site_fract_x
_atom_site_fract_y
_atom_site_fract_z
Si Si1 0.565566 0.323800 0.122877
Si Si2 0.176470 0.715920 0.091107
Si Si3 0.831532 0.465074 0.655029
Si Si4 0.142191 0.947010 0.600132
Si Si5 0.921991 0.076574 0.092711
Si Si6 0.378529 0.332386 0.714344
Si Si7 0.030175 0.087665 0.232863
O O1 0.453930 0.486774 0.210447
O O2 0.688410 0.066415 0.116015
O O3 0.269134 0.296506 0.179133
O O4 0.862687 0.324294 0.988975
O O5 0.883458 0.545525 0.197132
O O6 0.500000 0.580571 0.000000
O O7 0.135881 0.849722 0.045431
O O8 0.172974 0.943673 0.136697
O O9 0.694740 0.441424 0.637588
O O10 0.004589 0.206576 0.618397
O O11 0.048565 0.706829 0.593759
O O12 0.500000 0.970170 0.500000
O O13 0.002604 0.909073 0.704709
O O14 0.706031 0.124930 0.212834
O O15 0.299021 0.203342 0.682067
#
# Coordination Sequence:
#
# PCOD9113848 Si02
#       7
#     2   2   2   2   2   2   2
#     4   9  18  37  58  88 128 174 229 276 323 387
#     4  11  22  34  59  91 135 183 224 274 326 401
#     4  10  24  44  72  98 136 177 221 289 351 416
#     4  11  25  48  77 101 129 169 233 289 357 416
#     4   9  19  37  52  85 130 177 229 273 318 394
#     4  10  24  37  60  91 140 179 224 267 350 396
#     4  10  23  38  63  90 132 170 228 277 338 403
#
# _framework density 24.969549000000001
#
# number of rings (size 3 to 8) (size 9 to 14) (size 15 to 20)
#    0.000    2.000    1.429    0.429   14.000    0.000 
#    0.000    2.143    0.000    0.000    0.000    0.000 
#    0.000    0.000    0.000    0.000    0.000    0.000 
#
# Total GULP energy -78086.807144 kJ/mol
# GULP energy per Si atom -5577.629082 kJ/mol
# Density = 2.491272 g / cm^3
# Si number density = 24.969549 Si / 1000 Ang^3
#
#
#
# Elastic Constant Matrix: (Units=GPa)
#
#
# Indices 1 2 3 4 5 6 
#
# 1 176.9025 45.5731 18.6222 0.0000 -43.3883 0.0000
# 2 45.5731 101.2441 8.9058 0.0000 -25.2311 0.0000
# 3 18.6222 8.9058 60.9052 0.0000 -29.6429 0.0000
# 4 0.0000 0.0000 0.0000 15.8997 0.0000 -11.6246
# 5 -43.3883 -25.2311 -29.6429 0.0000 41.4660 0.0000
# 6 0.0000 0.0000 0.0000 -11.6246 0.0000 27.1703
#
#
#
# Elastic Compliance Matrix: (Units=1/GPa)
#
#
# Indices 1 2 3 4 5 6 
#
# 1 0.008035 -0.001565 0.002148 0.000000 0.008991 0.000000
# 2 -0.001565 0.012239 0.002326 0.000000 0.007472 0.000000
# 3 0.002148 0.002326 0.026385 0.000000 0.022524 0.000000
# 4 0.000000 0.000000 0.000000 0.091523 0.000000 0.039157
# 5 0.008991 0.007472 0.022524 0.000000 0.054172 0.000000
# 6 0.000000 0.000000 0.000000 0.039157 0.000000 0.053558
#
#
# Mechanical properties :
#
#
# Convention : Reuss Voigt Hill
#
# Bulk Modulus (GPa) = 19.05645 53.91713 36.48679
# Shear Modulus (GPa) = 19.41086 34.63725 27.02405
#
# Velocity S-wave (km/s) = 2.79118 3.72853 3.29337
# Velocity P-wave (km/s) = 4.24688 6.33845 5.39499
#
# Compressibility (1/GPa) = 0.05247566
#
# Stress axis : x y z
#
# Youngs Moduli (GPa) = 124.45462 81.70474 37.90043
#
# Poissons Ratio (x) = 0.12788 -0.08141
# Poissons Ratio (y) = 0.19480 -0.08814
# Poissons Ratio (z) = -0.26732 -0.19001
#
# Static dielectric constant tensor:
#      x y z
#    x 2.031000 0.000000 0.023020 
#    y 0.000000 2.013280 0.000000 
#    z 0.023020 0.000000 2.112570 
# 
# From -- ./inp_files/8271.got.cif
#   From: 2010.05.17/outbox.cif.g08.bks.cpg/sg3_5_cif.got.tgz:8271.got - 2010.06.03 18:33:08.
