data_PCOD9113900
_publ_section_title
;
Structure prediction by ZEFSAII (Michael W. Deem and Ramdas Pophale) SiO2 
 PCOD9113900
Probable space group: P 2
;
_chemical_formula_sum "Si O2"
_cell_formula_units_Z 14
_cell_length_a 17.792406
_cell_length_b 5.392668
_cell_length_c 8.941692
_cell_angle_alpha 90.000000
_cell_angle_beta 44.606546
_cell_angle_gamma 90.000000
_cell_volume 602.476579
_symmetry_space_group_name_H-M "P 2"
_symmetry_group_IT_number 3
_symmetry_cell_setting 'monoclinic'
loop_
_space_group_symop_operation_xyz
x,y,z
-x,y,-z
loop_
_atom_site_type_symbol
_atom_site_label
_atom_site_fract_x
_atom_site_fract_y
_atom_site_fract_z
Si Si1 0.073668 0.760400 0.270671
Si Si2 0.068742 0.466626 0.746083
Si Si3 0.216074 0.087716 0.887362
Si Si4 0.391814 0.125651 0.083179
Si Si5 0.273244 0.468146 0.028890
Si Si6 0.421355 0.846781 0.745958
Si Si7 0.792588 0.974210 0.441630
O O1 0.180481 0.661382 0.203076
O O2 0.000000 0.883027 0.500000
O O3 0.006878 0.544652 0.284693
O O4 0.109624 0.949829 0.091388
O O5 0.128071 0.205080 0.631012
O O6 0.149835 0.704595 0.643287
O O7 0.000000 0.447506 0.000000
O O8 0.236506 0.049393 0.686608
O O9 0.311000 0.961217 0.844499
O O10 0.222484 0.358432 0.948375
O O11 0.304966 0.300295 0.123460
O O12 0.315754 0.978691 0.306663
O O13 0.500000 0.243762 0.000000
O O14 0.440808 0.957001 0.881015
O O15 0.389968 0.563271 0.813951
O O16 0.500000 0.890163 0.500000
#
# Coordination Sequence:
#
# PCOD9113900 Si02
#       7
#     2   2   2   2   2   2   2
#     4  11  24  41  68  99 140 188 237 297 362 429
#     4  12  26  46  71 109 149 198 244 301 371 429
#     4  10  23  44  65  97 140 184 238 293 358 432
#     4  11  26  47  72 106 146 188 242 308 377 431
#     4  10  24  44  68 101 137 184 246 294 361 444
#     4  10  23  44  71 100 139 184 241 298 361 438
#     4  12  27  45  74 107 152 191 248 304 362 441
#
# _framework density 23.237416
#
# number of rings (size 3 to 8) (size 9 to 14) (size 15 to 20)
#    0.000    1.143    1.429    3.000   12.000    4.571 
#    0.000    0.000    0.000    0.000    0.000    0.000 
#    0.000    0.000    0.000    0.000    0.000    0.000 
#
# Total GULP energy -78127.052215 kJ/mol
# GULP energy per Si atom -5580.503730 kJ/mol
# Density = 2.318453 g / cm^3
# Si number density = 23.237416 Si / 1000 Ang^3
#
#
#
# Elastic Constant Matrix: (Units=GPa)
#
#
# Indices 1 2 3 4 5 6 
#
# 1 93.9154 0.0262 21.2877 0.0000 4.7005 0.0000
# 2 0.0262 47.8639 15.3284 0.0000 -5.6183 0.0000
# 3 21.2877 15.3284 176.6740 0.0000 13.9792 0.0000
# 4 0.0000 0.0000 0.0000 24.3831 0.0000 -2.2323
# 5 4.7005 -5.6183 13.9792 0.0000 31.3709 0.0000
# 6 0.0000 0.0000 0.0000 -2.2323 0.0000 11.8368
#
#
#
# Elastic Compliance Matrix: (Units=1/GPa)
#
#
# Indices 1 2 3 4 5 6 
#
# 1 0.010986 0.000278 -0.001266 0.000000 -0.001032 0.000000
# 2 0.000278 0.022233 -0.002357 0.000000 0.004991 0.000000
# 3 -0.001266 -0.002357 0.006256 0.000000 -0.003020 0.000000
# 4 0.000000 0.000000 0.000000 0.041733 0.000000 0.007870
# 5 -0.001032 0.004991 -0.003020 0.000000 0.034271 0.000000
# 6 0.000000 0.000000 0.000000 0.007870 0.000000 0.085966
#
#
# Mechanical properties :
#
#
# Convention : Reuss Voigt Hill
#
# Bulk Modulus (GPa) = 30.50149 43.52645 37.01397
# Shear Modulus (GPa) = 22.82432 32.30558 27.56495
#
# Velocity S-wave (km/s) = 3.13744 3.73264 3.44791
# Velocity P-wave (km/s) = 5.12633 6.11135 5.64038
#
# Compressibility (1/GPa) = 0.03278529
#
# Stress axis : x y z
#
# Youngs Moduli (GPa) = 91.02097 44.97788 159.84078
#
# Poissons Ratio (x) = -0.01252 0.20240
# Poissons Ratio (y) = -0.02534 0.37681
# Poissons Ratio (z) = 0.11526 0.10603
#
# Static dielectric constant tensor:
#      x y z
#    x 1.929230 0.000000 -0.004080 
#    y 0.000000 2.234250 0.000000 
#    z -0.004080 0.000000 1.894360 
# 
# From -- ./inp_files/8819.got.cif
#   From: 2010.05.17/outbox.cif.g08.bks.cpg/sg3_5_cif.got.tgz:8819.got - 2010.06.03 18:33:08.
