data_PCOD9113168
_publ_section_title
;
Structure prediction by ZEFSAII (Michael W. Deem and Ramdas Pophale) SiO2 
 PCOD9113168
Probable space group: P 2
;
_chemical_formula_sum "Si O2"
_cell_formula_units_Z 16
_cell_length_a 11.666439
_cell_length_b 6.844011
_cell_length_c 11.061222
_cell_angle_alpha 90.000000
_cell_angle_beta 58.181852
_cell_angle_gamma 90.000000
_cell_volume 750.465785
_symmetry_space_group_name_H-M "P 2"
_symmetry_group_IT_number 3
_symmetry_cell_setting 'monoclinic'
loop_
_space_group_symop_operation_xyz
x,y,z
-x,y,-z
loop_
_atom_site_type_symbol
_atom_site_label
_atom_site_fract_x
_atom_site_fract_y
_atom_site_fract_z
Si Si1 0.856677 0.234550 0.125469
Si Si2 0.574172 0.313608 0.706491
Si Si3 0.145951 0.919699 0.449283
Si Si4 0.243565 0.586752 0.558811
Si Si5 0.045806 0.275021 0.667589
Si Si6 0.316374 0.580443 0.800002
Si Si7 0.622495 0.999451 0.138108
Si Si8 0.737771 0.156184 0.824743
O O1 0.870453 0.224347 0.259995
O O2 0.818036 0.451998 0.100240
O O3 0.741031 0.093507 0.149491
O O4 0.000000 0.169900 0.000000
O O5 0.667594 0.417316 0.554811
O O6 0.437931 0.436805 0.767947
O O7 0.654541 0.309803 0.788847
O O8 0.516918 0.090789 0.733511
O O9 0.234666 0.785361 0.487515
O O10 0.000000 0.827908 0.500000
O O11 0.103073 0.126658 0.535241
O O12 0.224106 0.975165 0.283918
O O13 0.091814 0.498695 0.629975
O O14 0.299230 0.618070 0.664346
O O15 0.885944 0.243270 0.774530
O O16 0.351918 0.771841 0.855938
O O17 0.652544 0.079500 0.986103
#
# Coordination Sequence:
#
# PCOD9113168 Si02
#       8
#     2   2   2   2   2   2   2   2
#     4  10  20  42  70  99 129 171 222 280 343 401
#     4  11  25  44  67  97 136 185 228 271 339 405
#     4  10  23  39  63 106 131 174 225 279 353 400
#     4  11  23  44  71 101 131 175 229 290 339 389
#     4  10  21  42  70  98 135 169 226 288 339 402
#     4  10  25  45  67 102 131 175 237 277 335 395
#     4  11  24  47  67  99 139 183 225 277 337 410
#     4  11  23  45  67  97 141 184 219 276 347 406
#
# _framework density 21.320093
#
# number of rings (size 3 to 8) (size 9 to 14) (size 15 to 20)
#    0.000    1.500    2.500    1.500    3.500    0.500 
#   18.000    0.000    0.000    0.000    0.000    0.000 
#    0.000    0.000    0.000    0.000    0.000    0.000 
#
# Total GULP energy -89152.232083 kJ/mol
# GULP energy per Si atom -5572.014505 kJ/mol
# Density = 2.127157 g / cm^3
# Si number density = 21.320093 Si / 1000 Ang^3
#
#
#
# Elastic Constant Matrix: (Units=GPa)
#
#
# Indices 1 2 3 4 5 6 
#
# 1 111.7800 30.4093 15.1213 0.0000 -0.4534 0.0000
# 2 30.4093 48.7382 6.3505 0.0000 1.7948 0.0000
# 3 15.1213 6.3505 36.4027 0.0000 10.2828 0.0000
# 4 0.0000 0.0000 0.0000 13.2787 0.0000 23.1531
# 5 -0.4534 1.7948 10.2828 0.0000 31.2679 0.0000
# 6 0.0000 0.0000 0.0000 23.1531 0.0000 32.7585
#
#
#
# Elastic Compliance Matrix: (Units=1/GPa)
#
#
# Indices 1 2 3 4 5 6 
#
# 1 0.011297 -0.006587 -0.004075 0.000000 0.001882 0.000000
# 2 -0.006587 0.024836 -0.001286 0.000000 -0.001098 0.000000
# 3 -0.004075 -0.001286 0.032393 0.000000 -0.010638 0.000000
# 4 0.000000 0.000000 0.000000 -0.324101 0.000000 0.229068
# 5 0.001882 -0.001098 -0.010638 0.000000 0.035570 0.000000
# 6 0.000000 0.000000 0.000000 0.229068 0.000000 -0.131374
#
#
# Mechanical properties :
#
#
# Convention : Reuss Voigt Hill
#
# Bulk Modulus (GPa) = 22.40723 33.40923 27.90823
# Shear Modulus (GPa) = -15.99455 25.13034 4.56790
#
# Velocity S-wave (km/s) = -2.74197 3.43697 1.46533
# Velocity P-wave (km/s) = 0.71289 5.60845 3.99768
#
# Compressibility (1/GPa) = 0.04462845
#
# Stress axis : x y z
#
# Youngs Moduli (GPa) = 88.51910 40.26482 30.87127
#
# Poissons Ratio (x) = 0.26522 0.12581
# Poissons Ratio (y) = 0.58306 0.03971
# Poissons Ratio (z) = 0.36073 0.05179
#
# Static dielectric constant tensor:
#      x y z
#    x 1.922260 0.000000 0.128210 
#    y 0.000000 1.824990 0.000000 
#    z 0.128210 0.000000 1.985760 
# 
# From -- ./inp_files/11273.got.cif
#   From: 2010.05.17/outbox.cif.g08.bks.cpg/sg3_6_cif.got.tgz:11273.got - 2010.06.03 18:33:08.
