data_PCOD9113630
_publ_section_title
;
Structure prediction by ZEFSAII (Michael W. Deem and Ramdas Pophale) SiO2 
 PCOD9113630
Probable space group: P 2
;
_chemical_formula_sum "Si O2"
_cell_formula_units_Z 12
_cell_length_a 19.503175
_cell_length_b 5.416518
_cell_length_c 8.798124
_cell_angle_alpha 90.000000
_cell_angle_beta 34.564483
_cell_angle_gamma 90.000000
_cell_volume 527.295331
_symmetry_space_group_name_H-M "P 2"
_symmetry_group_IT_number 3
_symmetry_cell_setting 'monoclinic'
loop_
_space_group_symop_operation_xyz
x,y,z
-x,y,-z
loop_
_atom_site_type_symbol
_atom_site_label
_atom_site_fract_x
_atom_site_fract_y
_atom_site_fract_z
Si Si1 0.628171 0.782750 0.959693
Si Si2 0.149540 0.107713 0.458031
Si Si3 0.213848 0.471278 0.119312
Si Si4 0.344962 0.758340 0.445126
Si Si5 0.223845 0.264109 0.790028
Si Si6 0.000000 0.204517 0.000000
Si Si7 0.000000 0.793492 0.500000
O O1 0.671193 0.609870 0.020746
O O2 0.661250 0.702654 0.725766
O O3 0.712705 0.023849 0.817472
O O4 0.485512 0.814697 0.223422
O O5 0.147841 0.380974 0.394238
O O6 0.098738 0.070659 0.716830
O O7 0.059879 0.955641 0.518732
O O8 0.113585 0.645133 0.227372
O O9 0.229908 0.261861 0.963196
O O10 0.303005 0.503815 0.599615
O O11 0.274090 0.002941 0.633285
O O12 0.090848 0.319871 0.960144
#
# Coordination Sequence:
#
# PCOD9113630 Si02
#       7
#     2   2   2   2   2   1   1
#     4  10  25  47  77 100 151 199 259 304 382 444
#     4  11  23  43  70 104 142 202 241 319 373 454
#     4  11  25  44  69 109 149 201 243 315 385 453
#     4  11  27  50  74 111 146 204 254 312 367 455
#     4  12  28  46  76 114 153 193 255 314 379 451
#     4  12  24  44  78 108 152 190 264 312 380 458
#     4  10  22  40  66  98 148 192 246 296 394 450
#
# _framework density 22.757645
#
# number of rings (size 3 to 8) (size 9 to 14) (size 15 to 20)
#    0.000    1.000    1.667    3.500    9.333    4.000 
#    0.000    0.000    0.000    0.000    0.000    0.000 
#    0.000    0.000    0.000    0.000    0.000    0.000 
#
# Total GULP energy -66906.002010 kJ/mol
# GULP energy per Si atom -5575.500168 kJ/mol
# Density = 2.270585 g / cm^3
# Si number density = 22.757645 Si / 1000 Ang^3
#
#
#
# Elastic Constant Matrix: (Units=GPa)
#
#
# Indices 1 2 3 4 5 6 
#
# 1 130.0237 17.7922 54.5315 0.0000 -8.7542 0.0000
# 2 17.7922 67.2235 25.9422 0.0000 -1.6486 0.0000
# 3 54.5315 25.9422 85.4719 0.0000 -3.4522 0.0000
# 4 0.0000 0.0000 0.0000 121.0760 0.0000 -4.6494
# 5 -8.7542 -1.6486 -3.4522 0.0000 37.0990 0.0000
# 6 0.0000 0.0000 0.0000 -4.6494 0.0000 26.4433
#
#
#
# Elastic Compliance Matrix: (Units=1/GPa)
#
#
# Indices 1 2 3 4 5 6 
#
# 1 0.010633 -0.000203 -0.006646 0.000000 0.001882 0.000000
# 2 -0.000203 0.016856 -0.004977 0.000000 0.000238 0.000000
# 3 -0.006646 -0.004977 0.017444 0.000000 -0.000166 0.000000
# 4 0.000000 0.000000 0.000000 0.008315 0.000000 0.001462
# 5 0.001882 0.000238 -0.000166 0.000000 0.027394 0.000000
# 6 0.000000 0.000000 0.000000 0.001462 0.000000 0.038074
#
#
# Mechanical properties :
#
#
# Convention : Reuss Voigt Hill
#
# Bulk Modulus (GPa) = 46.99184 53.25012 50.12098
# Shear Modulus (GPa) = 33.45347 49.22055 41.33701
#
# Velocity S-wave (km/s) = 3.83820 4.65565 4.26655
# Velocity P-wave (km/s) = 6.35107 7.23531 6.80756
#
# Compressibility (1/GPa) = 0.02128029
#
# Stress axis : x y z
#
# Youngs Moduli (GPa) = 94.04924 59.32616 57.32705
#
# Poissons Ratio (x) = 0.01206 0.38100
# Poissons Ratio (y) = 0.01912 0.28530
# Poissons Ratio (z) = 0.62505 0.29525
#
# Static dielectric constant tensor:
#      x y z
#    x 1.880590 0.000000 0.077960 
#    y 0.000000 1.885050 0.000000 
#    z 0.077960 0.000000 1.906990 
# 
# From -- ./inp_files/9229.got.cif
#   From: 2010.05.17/outbox.cif.g08.bks.cpg/sg3_5_cif.got.tgz:9229.got - 2010.06.03 18:33:08.
