data_PCOD9113973
_publ_section_title
;
Structure prediction by ZEFSAII (Michael W. Deem and Ramdas Pophale) SiO2 
 PCOD9113973
Probable space group: P 2
;
_chemical_formula_sum "Si O2"
_cell_formula_units_Z 10
_cell_length_a 5.473440
_cell_length_b 5.054632
_cell_length_c 13.559503
_cell_angle_alpha 90.000000
_cell_angle_beta 95.292663
_cell_angle_gamma 90.000000
_cell_volume 373.540857
_symmetry_space_group_name_H-M "P 2"
_symmetry_group_IT_number 3
_symmetry_cell_setting 'monoclinic'
loop_
_space_group_symop_operation_xyz
x,y,z
-x,y,-z
loop_
_atom_site_type_symbol
_atom_site_label
_atom_site_fract_x
_atom_site_fract_y
_atom_site_fract_z
Si Si1 0.500000 0.551291 0.500000
Si Si2 0.000000 0.240128 0.500000
Si Si3 0.248230 0.907079 0.973263
Si Si4 0.843414 0.843653 0.660867
Si Si5 0.197529 0.538966 0.785620
Si Si6 0.283713 0.543684 0.160290
O O1 0.263099 0.382002 0.522394
O O2 0.620020 0.729489 0.589008
O O3 0.053472 0.081232 0.400189
O O4 0.271678 0.656949 0.050218
O O5 0.500000 0.063521 0.000000
O O6 0.232831 0.783302 0.864399
O O7 0.000000 0.041273 0.000000
O O8 0.741200 0.804025 0.768351
O O9 0.083901 0.656352 0.682287
O O10 0.462744 0.408980 0.797940
O O11 0.962882 0.384712 0.820971
#
# Coordination Sequence:
#
# PCOD9113973 Si02
#       6
#     1   1   2   2   2   2
#     4  12  28  42  64  92 126 168 216 266 318 366
#     4  12  28  42  64  92 126 168 216 266 318 366
#     4   8  12  24  42  84 116 134 198 238 278 378
#     4  10  24  41  64  82 128 161 208 260 312 366
#     4   8  16  27  54  81 116 153 192 245 300 363
#     4   8  16  27  54  81 116 153 192 245 300 363
#
# _framework density 26.770835999999999
#
# number of rings (size 3 to 8) (size 9 to 14) (size 15 to 20)
#    1.200    1.600    0.000    1.200    8.400    0.000 
#    0.000    0.000    0.000    0.000    0.000    5.600 
#    0.000    0.000    0.000    0.000    0.000    0.000 
#
# Total GULP energy -55735.753947 kJ/mol
# GULP energy per Si atom -5573.575395 kJ/mol
# Density = 2.670990 g / cm^3
# Si number density = 26.770836 Si / 1000 Ang^3
#
#
#
# Elastic Constant Matrix: (Units=GPa)
#
#
# Indices 1 2 3 4 5 6 
#
# 1 278.9573 26.1665 16.5706 0.0000 30.9803 0.0000
# 2 26.1665 46.3570 18.5746 0.0000 -0.3497 0.0000
# 3 16.5706 18.5746 100.5330 0.0000 14.6864 0.0000
# 4 0.0000 0.0000 0.0000 81.5421 0.0000 -41.0141
# 5 30.9803 -0.3497 14.6864 0.0000 59.9789 0.0000
# 6 0.0000 0.0000 0.0000 -41.0141 0.0000 44.8519
#
#
#
# Elastic Compliance Matrix: (Units=1/GPa)
#
#
# Indices 1 2 3 4 5 6 
#
# 1 0.004033 -0.002322 0.000073 0.000000 -0.002115 0.000000
# 2 -0.002322 0.024721 -0.004544 0.000000 0.002456 0.000000
# 3 0.000073 -0.004544 0.011184 0.000000 -0.002803 0.000000
# 4 0.000000 0.000000 0.000000 0.022708 0.000000 0.020765
# 5 -0.002115 0.002456 -0.002803 0.000000 0.018465 0.000000
# 6 0.000000 0.000000 0.000000 0.020765 0.000000 0.041284
#
#
# Mechanical properties :
#
#
# Convention : Reuss Voigt Hill
#
# Bulk Modulus (GPa) = 37.94528 60.94121 49.44324
# Shear Modulus (GPa) = 34.53889 61.57695 48.05792
#
# Velocity S-wave (km/s) = 3.59579 4.80119 4.24153
# Velocity P-wave (km/s) = 5.60754 7.31770 6.51894
#
# Compressibility (1/GPa) = 0.02635374
#
# Stress axis : x y z
#
# Youngs Moduli (GPa) = 247.95077 40.45088 89.41458
#
# Poissons Ratio (x) = 0.09392 -0.00654
# Poissons Ratio (y) = 0.57568 0.40627
# Poissons Ratio (z) = -0.01813 0.18379
#
# Static dielectric constant tensor:
#      x y z
#    x 2.205170 0.000000 -0.054740 
#    y 0.000000 2.047200 0.000000 
#    z -0.054740 0.000000 2.093100 
# 
# From -- ./inp_files/12803.got.cif
#   From: 2010.05.17/outbox.cif.g08.bks.cpg/sg3_7_cif.got.tgz:12803.got - 2010.06.03 18:33:08.
