data_PCOD9113739
_publ_section_title
;
Structure prediction by ZEFSAII (Michael W. Deem and Ramdas Pophale) SiO2 
 PCOD9113739
Probable space group: P 2
;
_chemical_formula_sum "Si O2"
_cell_formula_units_Z 15
_cell_length_a 9.238325
_cell_length_b 5.278764
_cell_length_c 20.983005
_cell_angle_alpha 90.000000
_cell_angle_beta 139.474727
_cell_angle_gamma 90.000000
_cell_volume 664.908336
_symmetry_space_group_name_H-M "P 2"
_symmetry_group_IT_number 3
_symmetry_cell_setting 'monoclinic'
loop_
_space_group_symop_operation_xyz
x,y,z
-x,y,-z
loop_
_atom_site_type_symbol
_atom_site_label
_atom_site_fract_x
_atom_site_fract_y
_atom_site_fract_z
Si Si1 0.924496 0.536210 0.716897
Si Si2 0.808420 0.062062 0.354087
Si Si3 0.954897 0.926990 0.060215
Si Si4 0.306450 0.985701 0.541719
Si Si5 0.793113 0.428062 0.979988
Si Si6 0.666142 0.558231 0.240362
Si Si7 0.789800 0.064165 0.738710
Si Si8 0.500000 0.610208 0.500000
O O1 0.925765 0.315728 0.769211
O O2 0.713370 0.472552 0.600440
O O3 0.147222 0.520875 0.750935
O O4 0.874989 0.817376 0.728078
O O5 0.765689 0.940761 0.409401
O O6 0.710838 0.342160 0.309167
O O7 0.076381 0.088497 0.435177
O O8 0.701835 0.848253 0.273640
O O9 0.855163 0.658626 0.046921
O O10 0.171560 0.992729 0.174457
O O11 0.000000 0.897900 0.000000
O O12 0.781601 0.156091 0.009174
O O13 0.537523 0.128317 0.633956
O O14 0.390810 0.771664 0.521279
O O15 0.576040 0.504892 0.868583
O O16 0.000000 0.397003 0.000000
#
# Coordination Sequence:
#
# PCOD9113739 Si02
#       8
#     2   2   2   2   2   2   2   1
#     4  11  25  43  69 100 143 192 224 279 342 415
#     4  11  26  43  67 105 142 177 230 287 348 403
#     4  10  22  43  67  99 129 171 227 294 346 395
#     4  10  25  43  70 104 141 187 226 285 337 419
#     4  10  23  40  69  96 125 177 224 280 354 398
#     4  12  25  45  70  99 144 176 233 283 352 407
#     4  11  25  42  71 103 140 176 245 276 341 420
#     4  10  22  46  70  98 148 194 232 268 342 422
#
# _framework density 22.559501999999998
#
# number of rings (size 3 to 8) (size 9 to 14) (size 15 to 20)
#    0.000    1.333    1.333    2.400   11.200    4.800 
#    0.000    4.000    0.000    0.000    0.000    0.000 
#    0.000    0.000    0.000    0.000    0.000    0.000 
#
# Total GULP energy -83659.504069 kJ/mol
# GULP energy per Si atom -5577.300271 kJ/mol
# Density = 2.250816 g / cm^3
# Si number density = 22.559502 Si / 1000 Ang^3
#
#
#
# Elastic Constant Matrix: (Units=GPa)
#
#
# Indices 1 2 3 4 5 6 
#
# 1 95.1756 12.6684 25.0990 0.0000 10.6119 0.0000
# 2 12.6684 116.2146 8.9053 0.0000 -5.5505 0.0000
# 3 25.0990 8.9053 112.4147 0.0000 14.0172 0.0000
# 4 0.0000 0.0000 0.0000 -8.5393 0.0000 13.0568
# 5 10.6119 -5.5505 14.0172 0.0000 25.0978 0.0000
# 6 0.0000 0.0000 0.0000 13.0568 0.0000 1.9959
#
#
#
# Elastic Compliance Matrix: (Units=1/GPa)
#
#
# Indices 1 2 3 4 5 6 
#
# 1 0.011665 -0.001316 -0.001987 0.000000 -0.004113 0.000000
# 2 -0.001316 0.008951 -0.000786 0.000000 0.002975 0.000000
# 3 -0.001987 -0.000786 0.010016 0.000000 -0.004928 0.000000
# 4 0.000000 0.000000 0.000000 -0.010643 0.000000 0.069628
# 5 -0.004113 0.002975 -0.004928 0.000000 0.044993 0.000000
# 6 0.000000 0.000000 0.000000 0.069628 0.000000 0.045537
#
#
# Mechanical properties :
#
#
# Convention : Reuss Voigt Hill
#
# Bulk Modulus (GPa) = 44.53785 46.35003 45.44394
# Shear Modulus (GPa) = 39.62557 22.18636 30.90596
#
# Velocity S-wave (km/s) = 4.19560 3.13942 3.70533
# Velocity P-wave (km/s) = 6.57693 5.80789 6.20433
#
# Compressibility (1/GPa) = 0.02245281
#
# Stress axis : x y z
#
# Youngs Moduli (GPa) = 85.72864 111.72525 99.83974
#
# Poissons Ratio (x) = 0.14700 0.19841
# Poissons Ratio (y) = 0.11279 0.07850
# Poissons Ratio (z) = 0.17037 0.08784
#
# Static dielectric constant tensor:
#      x y z
#    x 1.858720 0.000000 -0.022040 
#    y 0.000000 1.888820 0.000000 
#    z -0.022040 0.000000 1.849900 
# 
# From -- ./inp_files/15742.got.cif
#   From: 2010.05.17/outbox.cif.g08.bks.cpg/sg3_8_cif.got.tgz:15742.got - 2010.06.03 18:33:08.
