data_PCOD9113406
_publ_section_title
;
Structure prediction by ZEFSAII (Michael W. Deem and Ramdas Pophale) SiO2 
 PCOD9113406
Probable space group: P 2
;
_chemical_formula_sum "Si O2"
_cell_formula_units_Z 15
_cell_length_a 5.932308
_cell_length_b 12.840764
_cell_length_c 9.600657
_cell_angle_alpha 90.000000
_cell_angle_beta 69.434062
_cell_angle_gamma 90.000000
_cell_volume 684.724613
_symmetry_space_group_name_H-M "P 2"
_symmetry_group_IT_number 3
_symmetry_cell_setting 'monoclinic'
loop_
_space_group_symop_operation_xyz
x,y,z
-x,y,-z
loop_
_atom_site_type_symbol
_atom_site_label
_atom_site_fract_x
_atom_site_fract_y
_atom_site_fract_z
Si Si1 0.799011 0.039600 0.416845
Si Si2 0.538622 0.703055 0.141249
Si Si3 0.267152 0.814934 0.647059
Si Si4 0.068934 0.265153 0.645900
Si Si5 0.500000 0.421238 0.500000
Si Si6 0.722811 0.495743 0.190514
Si Si7 0.963949 0.608862 0.659607
Si Si8 0.768604 0.296081 0.972850
O O1 0.500000 0.043979 0.500000
O O2 0.856983 0.148055 0.327201
O O3 0.000000 0.038943 0.500000
O O4 0.851350 0.928143 0.335159
O O5 0.656257 0.786421 0.215025
O O6 0.692840 0.597359 0.101287
O O7 0.291048 0.659343 0.255124
O O8 0.500000 0.749336 0.000000
O O9 0.500000 0.821977 0.500000
O O10 0.130663 0.712071 0.625536
O O11 0.289404 0.343533 0.590912
O O12 0.000000 0.258670 0.500000
O O13 0.870855 0.309133 0.794234
O O14 0.507606 0.487300 0.354420
O O15 0.946629 0.529179 0.241180
O O16 0.733042 0.396866 0.084021
O O17 0.000000 0.559197 0.500000
O O18 0.500000 0.251992 0.000000
O O19 0.000000 0.242102 0.000000
#
# Coordination Sequence:
#
# PCOD9113406 Si02
#       8
#     2   2   2   2   1   2   2   2
#     4  10  22  41  75 112 139 177 233 296 362 421
#     4  11  25  40  64  97 142 183 233 285 353 419
#     4  10  21  40  69 101 133 178 229 287 351 427
#     4  11  25  44  73 105 143 183 244 303 357 428
#     4  12  22  40  64 100 144 180 246 300 348 420
#     4  11  26  39  64 101 140 195 240 291 356 418
#     4  11  22  40  66  97 137 181 238 292 340 421
#     4  12  27  48  71  99 147 193 243 286 362 423
#
# _framework density 21.906618000000002
#
# number of rings (size 3 to 8) (size 9 to 14) (size 15 to 20)
#    0.000    1.067    3.333    2.400    7.467    3.200 
#    0.000    0.000    2.933    0.000    0.000    0.000 
#    0.000    0.000    0.000    0.000    0.000    0.000 
#
# Total GULP energy -83541.306583 kJ/mol
# GULP energy per Si atom -5569.420439 kJ/mol
# Density = 2.185676 g / cm^3
# Si number density = 21.906618 Si / 1000 Ang^3
#
#
#
# Elastic Constant Matrix: (Units=GPa)
#
#
# Indices 1 2 3 4 5 6 
#
# 1 107.2098 18.8538 28.9451 0.0000 -0.2429 0.0000
# 2 18.8538 112.8075 21.3393 0.0000 2.3342 0.0000
# 3 28.9451 21.3393 133.7802 0.0000 4.9239 0.0000
# 4 0.0000 0.0000 0.0000 27.3460 0.0000 0.4807
# 5 -0.2429 2.3342 4.9239 0.0000 43.1901 0.0000
# 6 0.0000 0.0000 0.0000 0.4807 0.0000 35.6766
#
#
#
# Elastic Compliance Matrix: (Units=1/GPa)
#
#
# Indices 1 2 3 4 5 6 
#
# 1 0.010097 -0.001319 -0.001987 0.000000 0.000355 0.000000
# 2 -0.001319 0.009317 -0.001187 0.000000 -0.000376 0.000000
# 3 -0.001987 -0.001187 0.008126 0.000000 -0.000873 0.000000
# 4 0.000000 0.000000 0.000000 0.036577 0.000000 -0.000493
# 5 0.000355 -0.000376 -0.000873 0.000000 0.023275 0.000000
# 6 0.000000 0.000000 0.000000 -0.000493 0.000000 0.028036
#
#
# Mechanical properties :
#
#
# Convention : Reuss Voigt Hill
#
# Bulk Modulus (GPa) = 53.89613 54.67489 54.28551
# Shear Modulus (GPa) = 38.28474 40.21983 39.25228
#
# Velocity S-wave (km/s) = 4.18501 4.28947 4.23756
# Velocity P-wave (km/s) = 6.92881 7.03882 6.98404
#
# Compressibility (1/GPa) = 0.01855421
#
# Stress axis : x y z
#
# Youngs Moduli (GPa) = 99.04148 107.32599 123.05558
#
# Poissons Ratio (x) = 0.14155 0.24454
# Poissons Ratio (y) = 0.13063 0.14607
# Poissons Ratio (z) = 0.19682 0.12740
#
# Static dielectric constant tensor:
#      x y z
#    x 1.814410 0.000000 -0.121230 
#    y 0.000000 1.815970 0.000000 
#    z -0.121230 0.000000 1.714460 
# 
# From -- ./inp_files/4503.got.cif
#   From: 2010.05.17/outbox.cif.g08.bks.cpg/sg3_3_cif.got.tgz:4503.got - 2010.06.03 18:33:08.
