data_PCOD9113939
_publ_section_title
;
Structure prediction by ZEFSAII (Michael W. Deem and Ramdas Pophale) SiO2 
 PCOD9113939
Probable space group: P 2
;
_chemical_formula_sum "Si O2"
_cell_formula_units_Z 14
_cell_length_a 12.428119
_cell_length_b 9.056438
_cell_length_c 5.471486
_cell_angle_alpha 90.000000
_cell_angle_beta 95.045758
_cell_angle_gamma 90.000000
_cell_volume 613.453792
_symmetry_space_group_name_H-M "P 2"
_symmetry_group_IT_number 3
_symmetry_cell_setting 'monoclinic'
loop_
_space_group_symop_operation_xyz
x,y,z
-x,y,-z
loop_
_atom_site_type_symbol
_atom_site_label
_atom_site_fract_x
_atom_site_fract_y
_atom_site_fract_z
Si Si1 0.300865 0.611880 0.444974
Si Si2 0.000000 0.168723 0.000000
Si Si3 0.603286 0.196970 0.873364
Si Si4 0.090355 0.611463 0.704356
Si Si5 0.873362 0.931043 0.239093
Si Si6 0.191538 0.372806 0.066289
Si Si7 0.500000 0.435490 0.500000
Si Si8 0.734426 0.930655 0.711471
O O1 0.208172 0.641402 0.619198
O O2 0.247692 0.485607 0.264383
O O3 0.406692 0.541294 0.581006
O O4 0.320591 0.768801 0.321168
O O5 0.101094 0.257767 0.133968
O O6 0.950799 0.067640 0.202555
O O7 0.708454 0.275121 0.023712
O O8 0.549682 0.329219 0.711190
O O9 0.653018 0.068435 0.714774
O O10 0.500000 0.135825 0.000000
O O11 0.058727 0.778096 0.767612
O O12 0.000000 0.558446 0.500000
O O13 0.117347 0.482051 0.893242
O O14 0.810581 0.946624 0.485496
O O15 0.795789 0.928631 0.984586
#
# Coordination Sequence:
#
# PCOD9113939 Si02
#       8
#     2   1   2   2   2   2   1   2
#     4  10  23  46  69 102 141 190 248 303 359 436
#     4  12  26  42  72 104 152 188 240 290 374 438
#     4  11  25  45  74 105 149 194 241 311 368 446
#     4  11  24  42  73 101 144 190 245 301 362 437
#     4  11  27  47  74 107 148 194 243 304 363 441
#     4  11  23  45  68 106 145 188 244 298 374 432
#     4  10  24  44  70 104 144 192 248 302 376 424
#     4  11  25  51  77 106 149 193 249 306 365 437
#
# _framework density 22.821605000000002
#
# number of rings (size 3 to 8) (size 9 to 14) (size 15 to 20)
#    0.000    1.143    2.857    1.714    6.000    3.429 
#    7.714    0.714    0.000    0.000    0.000    0.000 
#    0.000    0.000    0.000    0.000    0.000    0.000 
#
# Total GULP energy -78135.631901 kJ/mol
# GULP energy per Si atom -5581.116564 kJ/mol
# Density = 2.276966 g / cm^3
# Si number density = 22.821605 Si / 1000 Ang^3
#
#
#
# Elastic Constant Matrix: (Units=GPa)
#
#
# Indices 1 2 3 4 5 6 
#
# 1 125.2274 61.6724 39.2210 0.0000 4.8441 0.0000
# 2 61.6724 154.4443 31.1944 0.0000 1.4293 0.0000
# 3 39.2210 31.1944 80.6467 0.0000 0.3718 0.0000
# 4 0.0000 0.0000 0.0000 17.5584 0.0000 -15.8862
# 5 4.8441 1.4293 0.3718 0.0000 40.2271 0.0000
# 6 0.0000 0.0000 0.0000 -15.8862 0.0000 8.9532
#
#
#
# Elastic Compliance Matrix: (Units=1/GPa)
#
#
# Indices 1 2 3 4 5 6 
#
# 1 0.011048 -0.003598 -0.003976 0.000000 -0.001166 0.000000
# 2 -0.003598 0.008197 -0.001422 0.000000 0.000155 0.000000
# 3 -0.003976 -0.001422 0.014881 0.000000 0.000392 0.000000
# 4 0.000000 0.000000 0.000000 -0.094079 0.000000 -0.166930
# 5 -0.001166 0.000155 0.000392 0.000000 0.024990 0.000000
# 6 0.000000 0.000000 0.000000 -0.166930 0.000000 -0.184502
#
#
# Mechanical properties :
#
#
# Convention : Reuss Voigt Hill
#
# Bulk Modulus (GPa) = 61.97427 69.38824 65.68126
# Shear Modulus (GPa) = -25.49785 28.56310 1.53263
#
# Velocity S-wave (km/s) = -3.34618 3.54161 0.82038
# Velocity P-wave (km/s) = 3.50509 6.86983 5.45345
#
# Compressibility (1/GPa) = 0.01613573
#
# Stress axis : x y z
#
# Youngs Moduli (GPa) = 90.51752 121.99329 67.19768
#
# Poissons Ratio (x) = 0.43889 0.26717
# Poissons Ratio (y) = 0.32565 0.09554
# Poissons Ratio (z) = 0.35988 0.17344
#
# Static dielectric constant tensor:
#      x y z
#    x 1.895710 0.000000 -0.011900 
#    y 0.000000 1.927250 0.000000 
#    z -0.011900 0.000000 1.891270 
# 
# From -- ./inp_files/2205.got.cif
#   From: 2010.05.17/outbox.cif.g08.bks.cpg/sg3_2_cif.got.tgz:2205.got - 2010.06.03 18:33:08.
