data_PCOD9113324
_publ_section_title
;
Structure prediction by ZEFSAII (Michael W. Deem and Ramdas Pophale) SiO2 
 PCOD9113324
Probable space group: P 2
;
_chemical_formula_sum "Si O2"
_cell_formula_units_Z 14
_cell_length_a 6.008063
_cell_length_b 5.886267
_cell_length_c 17.719849
_cell_angle_alpha 90.000000
_cell_angle_beta 104.199452
_cell_angle_gamma 90.000000
_cell_volume 607.517560
_symmetry_space_group_name_H-M "P 2"
_symmetry_group_IT_number 3
_symmetry_cell_setting 'monoclinic'
loop_
_space_group_symop_operation_xyz
x,y,z
-x,y,-z
loop_
_atom_site_type_symbol
_atom_site_label
_atom_site_fract_x
_atom_site_fract_y
_atom_site_fract_z
Si Si1 0.198272 0.299710 0.287910
Si Si2 0.363677 0.333716 0.144656
Si Si3 0.500000 0.328808 0.000000
Si Si4 0.795251 0.654329 0.216675
Si Si5 0.000000 0.647602 0.500000
Si Si6 0.899237 0.955891 0.358072
Si Si7 0.931242 0.656547 0.071349
Si Si8 0.400630 0.301068 0.570551
O O1 0.293790 0.208785 0.215677
O O2 0.402872 0.390689 0.357214
O O3 0.009386 0.492165 0.255699
O O4 0.076170 0.106568 0.325977
O O5 0.435469 0.205152 0.073259
O O6 0.576373 0.495874 0.183998
O O7 0.147129 0.493786 0.106878
O O8 0.715501 0.492354 0.036006
O O9 0.759109 0.817260 0.283895
O O10 0.863054 0.778725 0.143554
O O11 0.970525 0.796519 0.572171
O O12 0.220122 0.493308 0.533318
O O13 0.734344 0.111262 0.394227
O O14 0.000000 0.786408 0.000000
O O15 0.500000 0.210906 0.500000
#
# Coordination Sequence:
#
# PCOD9113324 Si02
#       8
#     2   2   1   2   1   2   2   2
#     4  11  23  41  63  91 125 160 201 252 304 360
#     4   9  17  33  59  90 124 163 207 250 296 353
#     4   8  14  28  54  92 126 160 208 250 292 350
#     4  10  21  39  62  89 125 164 204 251 301 357
#     4  12  26  46  66  88 120 158 200 250 306 368
#     4  12  25  42  64  92 122 155 199 252 307 364
#     4   8  15  29  56  91 123 162 207 248 295 350
#     4  12  26  45  65  88 120 156 199 252 306 367
#
# _framework density 23.044604
#
# number of rings (size 3 to 8) (size 9 to 14) (size 15 to 20)
#    0.000    1.714    0.000    5.571    0.000    5.143 
#    0.000    2.857    0.000   10.286    0.000   44.000 
#    0.000    0.000    0.000    0.000    0.000    0.000 
#
# Total GULP energy -78276.142504 kJ/mol
# GULP energy per Si atom -5591.153036 kJ/mol
# Density = 2.299215 g / cm^3
# Si number density = 23.044604 Si / 1000 Ang^3
#
#
#
# Elastic Constant Matrix: (Units=GPa)
#
#
# Indices 1 2 3 4 5 6 
#
# 1 136.5669 36.2714 85.2022 0.0000 4.7926 0.0000
# 2 36.2714 49.3282 53.5223 0.0000 -13.5439 0.0000
# 3 85.2022 53.5223 212.3731 0.0000 -42.8568 0.0000
# 4 0.0000 0.0000 0.0000 -655.6306 0.0000 498.7713
# 5 4.7926 -13.5439 -42.8568 0.0000 80.0521 0.0000
# 6 0.0000 0.0000 0.0000 498.7713 0.0000 -361.7393
#
#
#
# Elastic Compliance Matrix: (Units=1/GPa)
#
#
# Indices 1 2 3 4 5 6 
#
# 1 0.011266 -0.004932 -0.004015 0.000000 -0.003658 0.000000
# 2 -0.004932 0.030143 -0.005078 0.000000 0.002677 0.000000
# 3 -0.004015 -0.005078 0.008380 0.000000 0.003867 0.000000
# 4 0.000000 0.000000 0.000000 0.031170 0.000000 0.042977
# 5 -0.003658 0.002677 0.003867 0.000000 0.015234 0.000000
# 6 0.000000 0.000000 0.000000 0.042977 0.000000 0.056493
#
#
# Mechanical properties :
#
#
# Convention : Reuss Voigt Hill
#
# Bulk Modulus (GPa) = 46.00004 83.14000 64.57002
# Shear Modulus (GPa) = 26.59835 -172.57873 -72.99019
#
# Velocity S-wave (km/s) = 3.40105 -8.66323 -5.63402
# Velocity P-wave (km/s) = 5.95210 7.99453 3.77393
#
# Compressibility (1/GPa) = 0.02173911
#
# Stress axis : x y z
#
# Youngs Moduli (GPa) = 88.76629 33.17471 119.33645
#
# Poissons Ratio (x) = 0.16361 0.47913
# Poissons Ratio (y) = 0.43777 0.60600
# Poissons Ratio (z) = 0.35639 0.16846
#
# Static dielectric constant tensor:
#      x y z
#    x 1.860000 0.000000 -0.031150 
#    y 0.000000 1.853000 0.000000 
#    z -0.031150 0.000000 1.913640 
# 
# From -- ./inp_files/3499.got.cif
#   From: 2010.05.17/outbox.cif.g08.bks.cpg/sg3_2_cif.got.tgz:3499.got - 2010.06.03 18:33:08.
