data_PCOD9113111
_publ_section_title
;
Structure prediction by ZEFSAII (Michael W. Deem and Ramdas Pophale) SiO2 
 PCOD9113111
Probable space group: P 2
;
_chemical_formula_sum "Si O2"
_cell_formula_units_Z 16
_cell_length_a 8.750157
_cell_length_b 8.378712
_cell_length_c 19.008406
_cell_angle_alpha 90.000000
_cell_angle_beta 33.436614
_cell_angle_gamma 90.000000
_cell_volume 767.894469
_symmetry_space_group_name_H-M "P 2"
_symmetry_group_IT_number 3
_symmetry_cell_setting 'monoclinic'
loop_
_space_group_symop_operation_xyz
x,y,z
-x,y,-z
loop_
_atom_site_type_symbol
_atom_site_label
_atom_site_fract_x
_atom_site_fract_y
_atom_site_fract_z
Si Si1 0.817180 0.375000 0.136176
Si Si2 0.291374 0.156283 0.377464
Si Si3 0.819690 0.895544 0.699708
Si Si4 0.677661 0.942778 0.301527
Si Si5 0.789796 0.100617 0.851308
Si Si6 0.182727 0.458079 0.134725
Si Si7 0.786096 0.685241 0.376839
Si Si8 0.710468 0.738455 0.146831
O O1 0.552945 0.261847 0.252156
O O2 0.703825 0.549249 0.159089
O O3 0.019008 0.413099 0.125321
O O4 0.000000 0.313245 0.000000
O O5 0.000000 0.247155 0.500000
O O6 0.205116 0.017524 0.355492
O O7 0.416779 0.061111 0.396170
O O8 0.539134 0.794314 0.805614
O O9 0.066577 0.766609 0.612509
O O10 0.822070 0.002101 0.768190
O O11 0.686964 0.829724 0.364949
O O12 0.684415 0.829458 0.230870
O O13 0.955351 0.049159 0.197236
O O14 0.795770 0.288745 0.833988
O O15 0.500000 0.063934 0.000000
O O16 0.006864 0.582955 0.247696
O O17 0.500000 0.513734 0.000000
O O18 0.500000 0.590776 0.500000
O O19 0.000000 0.781803 0.000000
#
# Coordination Sequence:
#
# PCOD9113111 Si02
#       8
#     2   2   2   2   2   2   2   2
#     4  11  25  44  67  96 132 171 211 268 321 380
#     4  11  24  44  66  95 128 173 217 265 321 381
#     4  10  24  40  64  96 123 172 213 274 319 376
#     4  10  20  40  64  90 131 164 217 268 313 380
#     4  10  21  38  63  94 128 166 215 262 325 377
#     4  11  25  44  67  96 132 171 211 268 321 380
#     4  11  24  44  66  95 128 173 217 265 321 381
#     4  10  21  38  63  94 128 166 215 262 325 377
#
# _framework density 20.836196000000001
#
# number of rings (size 3 to 8) (size 9 to 14) (size 15 to 20)
#    0.000    1.500    2.500    1.500    7.000    4.000 
#    4.500    1.250    0.000    0.000    0.000    0.000 
#    0.000    0.000    0.000    0.000    0.000    0.000 
#
# Total GULP energy -89332.116975 kJ/mol
# GULP energy per Si atom -5583.257311 kJ/mol
# Density = 2.078877 g / cm^3
# Si number density = 20.836196 Si / 1000 Ang^3
#
#
#
# Elastic Constant Matrix: (Units=GPa)
#
#
# Indices 1 2 3 4 5 6 
#
# 1 87.1381 14.3331 38.9160 0.0000 -23.9146 0.0000
# 2 14.3331 45.1861 42.2703 0.0000 -12.3661 0.0000
# 3 38.9160 42.2703 134.9650 0.0000 -45.3470 0.0000
# 4 0.0000 0.0000 0.0000 38.6978 0.0000 -11.1378
# 5 -23.9146 -12.3661 -45.3470 0.0000 33.7697 0.0000
# 6 0.0000 0.0000 0.0000 -11.1378 0.0000 30.6815
#
#
#
# Elastic Compliance Matrix: (Units=1/GPa)
#
#
# Indices 1 2 3 4 5 6 
#
# 1 0.014440 -0.001463 -0.000819 0.000000 0.008590 0.000000
# 2 -0.001463 0.031629 -0.010825 0.000000 -0.003990 0.000000
# 3 -0.000819 -0.010825 0.017326 0.000000 0.018722 0.000000
# 4 0.000000 0.000000 0.000000 0.028856 0.000000 0.010475
# 5 0.008590 -0.003990 0.018722 0.000000 0.059375 0.000000
# 6 0.000000 0.000000 0.000000 0.010475 0.000000 0.036396
#
#
# Mechanical properties :
#
#
# Convention : Reuss Voigt Hill
#
# Bulk Modulus (GPa) = 26.89518 50.92533 38.91025
# Shear Modulus (GPa) = 22.06237 32.08113 27.07175
#
# Velocity S-wave (km/s) = 3.25753 3.92814 3.60844
# Velocity P-wave (km/s) = 5.20428 6.71324 6.00633
#
# Compressibility (1/GPa) = 0.03718139
#
# Stress axis : x y z
#
# Youngs Moduli (GPa) = 69.25167 31.61649 57.71600
#
# Poissons Ratio (x) = 0.04626 0.04728
# Poissons Ratio (y) = 0.10133 0.62475
# Poissons Ratio (z) = 0.05673 0.34224
#
# Static dielectric constant tensor:
#      x y z
#    x 1.766730 0.000000 -0.014280 
#    y 0.000000 1.739690 0.000000 
#    z -0.014280 0.000000 1.794240 
# 
# From -- ./inp_files/15810.got.cif
#   From: 2010.05.17/outbox.cif.g08.bks.cpg/sg3_8_cif.got.tgz:15810.got - 2010.06.03 18:33:08.
