data_PCOD9113793
_publ_section_title
;
Structure prediction by ZEFSAII (Michael W. Deem and Ramdas Pophale) SiO2 
 PCOD9113793
Probable space group: P 2
;
_chemical_formula_sum "Si O2"
_cell_formula_units_Z 11
_cell_length_a 11.735457
_cell_length_b 6.320606
_cell_length_c 17.495422
_cell_angle_alpha 90.000000
_cell_angle_beta 158.028188
_cell_angle_gamma 90.000000
_cell_volume 485.544859
_symmetry_space_group_name_H-M "P 2"
_symmetry_group_IT_number 3
_symmetry_cell_setting 'monoclinic'
loop_
_space_group_symop_operation_xyz
x,y,z
-x,y,-z
loop_
_atom_site_type_symbol
_atom_site_label
_atom_site_fract_x
_atom_site_fract_y
_atom_site_fract_z
Si Si1 0.803534 0.030280 0.808098
Si Si2 0.241747 0.839880 0.550438
Si Si3 0.500000 0.345743 0.500000
Si Si4 0.691137 0.125149 0.183840
Si Si5 0.940318 0.529696 0.246384
Si Si6 0.662448 0.826802 0.946903
O O1 0.681526 0.198835 0.672385
O O2 0.517250 0.916013 0.668321
O O3 0.022399 0.864071 0.901460
O O4 0.000000 0.126225 0.000000
O O5 0.045353 0.674236 0.381408
O O6 0.395806 0.754932 0.723390
O O7 0.005779 0.032462 0.411258
O O8 0.244413 0.470667 0.388245
O O9 0.794218 0.327092 0.197777
O O10 0.500000 0.998491 0.000000
O O11 0.449789 0.068061 0.100678
O O12 0.726133 0.655602 0.052907
#
# Coordination Sequence:
#
# PCOD9113793 Si02
#       6
#     2   2   1   2   2   2
#     4  10  22  44  75 103 142 185 236 293 353 428
#     4  11  24  50  72 103 144 186 240 295 358 423
#     4  12  22  42  72 110 138 192 230 296 362 410
#     4  12  25  48  70 100 147 186 237 292 354 428
#     4  12  26  44  75 107 144 183 247 295 352 430
#     4  11  25  48  74 106 143 194 234 294 364 418
#
# _framework density 22.654959999999999
#
# number of rings (size 3 to 8) (size 9 to 14) (size 15 to 20)
#    0.000    0.727    3.636    3.818    2.545    1.455 
#    6.545    0.000    0.000    0.000    0.000    0.000 
#    0.000    0.000    0.000    0.000    0.000    0.000 
#
# Total GULP energy -61343.530492 kJ/mol
# GULP energy per Si atom -5576.684590 kJ/mol
# Density = 2.260340 g / cm^3
# Si number density = 22.654960 Si / 1000 Ang^3
#
#
#
# Elastic Constant Matrix: (Units=GPa)
#
#
# Indices 1 2 3 4 5 6 
#
# 1 89.0343 42.3912 54.1581 0.0000 -9.8633 0.0000
# 2 42.3912 66.0652 53.2795 0.0000 -19.1584 0.0000
# 3 54.1581 53.2795 170.0051 0.0000 -23.1150 0.0000
# 4 0.0000 0.0000 0.0000 51.3092 0.0000 -12.2707
# 5 -9.8633 -19.1584 -23.1150 0.0000 66.6800 0.0000
# 6 0.0000 0.0000 0.0000 -12.2707 0.0000 26.0950
#
#
#
# Elastic Compliance Matrix: (Units=1/GPa)
#
#
# Indices 1 2 3 4 5 6 
#
# 1 0.017101 -0.009052 -0.002750 0.000000 -0.001025 0.000000
# 2 -0.009052 0.026008 -0.004653 0.000000 0.004521 0.000000
# 3 -0.002750 -0.004653 0.008374 0.000000 0.001159 0.000000
# 4 0.000000 0.000000 0.000000 0.021959 0.000000 0.010326
# 5 -0.001025 0.004521 0.001159 0.000000 0.016546 0.000000
# 6 0.000000 0.000000 0.000000 0.010326 0.000000 0.043177
#
#
# Mechanical properties :
#
#
# Convention : Reuss Voigt Hill
#
# Bulk Modulus (GPa) = 53.84069 69.41803 61.62936
# Shear Modulus (GPa) = 29.02487 40.50191 34.76339
#
# Velocity S-wave (km/s) = 3.58323 4.23279 3.92148
# Velocity P-wave (km/s) = 6.39816 7.38896 6.91134
#
# Compressibility (1/GPa) = 0.01857331
#
# Stress axis : x y z
#
# Youngs Moduli (GPa) = 58.47644 38.44973 119.41696
#
# Poissons Ratio (x) = 0.34805 0.32842
# Poissons Ratio (y) = 0.52933 0.55559
# Poissons Ratio (z) = 0.16082 0.17889
#
# Static dielectric constant tensor:
#      x y z
#    x 1.914900 0.000000 0.012160 
#    y 0.000000 1.878300 0.000000 
#    z 0.012160 0.000000 1.789820 
# 
# From -- ./inp_files/15236.got.cif
#   From: 2010.05.17/outbox.cif.g08.bks.cpg/sg3_8_cif.got.tgz:15236.got - 2010.06.03 18:33:08.
