data_PCOD9113728
_publ_section_title
;
Structure prediction by ZEFSAII (Michael W. Deem and Ramdas Pophale) SiO2 
 PCOD9113728
Probable space group: P 2
;
_chemical_formula_sum "Si O2"
_cell_formula_units_Z 13
_cell_length_a 11.169344
_cell_length_b 6.204412
_cell_length_c 8.132670
_cell_angle_alpha 90.000000
_cell_angle_beta 83.349151
_cell_angle_gamma 90.000000
_cell_volume 559.794886
_symmetry_space_group_name_H-M "P 2"
_symmetry_group_IT_number 3
_symmetry_cell_setting 'monoclinic'
loop_
_space_group_symop_operation_xyz
x,y,z
-x,y,-z
loop_
_atom_site_type_symbol
_atom_site_label
_atom_site_fract_x
_atom_site_fract_y
_atom_site_fract_z
Si Si1 0.898055 0.890610 0.805350
Si Si2 0.274208 0.904479 0.856368
Si Si3 0.000000 0.516296 0.000000
Si Si4 0.693020 0.505102 0.374902
Si Si5 0.500000 0.179540 0.500000
Si Si6 0.651505 0.826102 0.670556
Si Si7 0.111625 0.220208 0.734042
Si Si8 0.500000 0.870825 0.000000
O O1 0.790470 0.870059 0.693451
O O2 0.965228 0.668753 0.849896
O O3 0.827185 0.924806 0.987983
O O4 0.988843 0.082194 0.738294
O O5 0.298372 0.666227 0.782362
O O6 0.214693 0.039252 0.722005
O O7 0.396600 0.992219 0.915220
O O8 0.098075 0.354449 0.907239
O O9 0.589154 0.327602 0.378769
O O10 0.651534 0.644643 0.534922
O O11 0.824633 0.399162 0.389661
O O12 0.581686 0.029154 0.604353
O O13 0.580332 0.755112 0.847508
#
# Coordination Sequence:
#
# PCOD9113728 Si02
#       8
#     2   2   1   2   1   2   2   1
#     4  11  23  44  73 105 148 184 242 307 353 424
#     4  11  21  43  69 102 144 187 236 307 352 420
#     4  12  20  42  72 106 142 186 240 292 364 422
#     4  12  25  45  76 103 146 201 239 290 372 429
#     4  12  26  50  74 100 148 196 246 296 364 440
#     4  11  26  48  70 107 149 189 243 310 358 430
#     4  12  22  42  76 104 143 197 236 291 364 430
#     4  10  22  42  72  96 138 186 240 298 364 406
#
# _framework density 23.222791999999998
#
# number of rings (size 3 to 8) (size 9 to 14) (size 15 to 20)
#    0.000    0.615    4.615    4.154    0.000    1.231 
#    0.000   18.462    0.000    0.000    0.000    0.000 
#    0.000    0.000    0.000    0.000    0.000    0.000 
#
# Total GULP energy -72491.670852 kJ/mol
# GULP energy per Si atom -5576.282373 kJ/mol
# Density = 2.316994 g / cm^3
# Si number density = 23.222792 Si / 1000 Ang^3
#
#
#
# Elastic Constant Matrix: (Units=GPa)
#
#
# Indices 1 2 3 4 5 6 
#
# 1 163.6513 71.8975 39.5782 0.0000 -1.7953 0.0000
# 2 71.8975 124.1977 48.6316 0.0000 -4.8431 0.0000
# 3 39.5782 48.6316 68.9028 0.0000 -10.8356 0.0000
# 4 0.0000 0.0000 0.0000 15.7034 0.0000 -15.8568
# 5 -1.7953 -4.8431 -10.8356 0.0000 46.7615 0.0000
# 6 0.0000 0.0000 0.0000 -15.8568 0.0000 35.2297
#
#
#
# Elastic Compliance Matrix: (Units=1/GPa)
#
#
# Indices 1 2 3 4 5 6 
#
# 1 0.008389 -0.004086 -0.002025 0.000000 -0.000570 0.000000
# 2 -0.004086 0.013138 -0.006992 0.000000 -0.000416 0.000000
# 3 -0.002025 -0.006992 0.021259 0.000000 0.004124 0.000000
# 4 0.000000 0.000000 0.000000 0.116737 0.000000 0.052543
# 5 -0.000570 -0.000416 0.004124 0.000000 0.022276 0.000000
# 6 0.000000 0.000000 0.000000 0.052543 0.000000 0.052035
#
#
# Mechanical properties :
#
#
# Convention : Reuss Voigt Hill
#
# Bulk Modulus (GPa) = 60.30362 75.21849 67.76106
# Shear Modulus (GPa) = 18.82774 32.64856 25.73815
#
# Velocity S-wave (km/s) = 2.85045 3.75358 3.33275
# Velocity P-wave (km/s) = 6.07101 7.15864 6.63714
#
# Compressibility (1/GPa) = 0.01658275
#
# Stress axis : x y z
#
# Youngs Moduli (GPa) = 119.20423 76.11281 47.03795
#
# Poissons Ratio (x) = 0.31098 0.09523
# Poissons Ratio (y) = 0.48705 0.32887
# Poissons Ratio (z) = 0.24134 0.53215
#
# Static dielectric constant tensor:
#      x y z
#    x 1.940720 0.000000 0.013410 
#    y 0.000000 1.916450 0.000000 
#    z 0.013410 0.000000 1.934960 
# 
# From -- ./inp_files/6647.got.cif
#   From: 2010.05.17/outbox.cif.g08.bks.cpg/sg3_4_cif.got.tgz:6647.got - 2010.06.03 18:33:08.
