data_PCOD9113378
_publ_section_title
;
Structure prediction by ZEFSAII (Michael W. Deem and Ramdas Pophale) SiO2 
 PCOD9113378
Probable space group: P 2
;
_chemical_formula_sum "Si O2"
_cell_formula_units_Z 12
_cell_length_a 8.469128
_cell_length_b 8.002867
_cell_length_c 9.409119
_cell_angle_alpha 90.000000
_cell_angle_beta 122.733332
_cell_angle_gamma 90.000000
_cell_volume 536.451716
_symmetry_space_group_name_H-M "P 2"
_symmetry_group_IT_number 3
_symmetry_cell_setting 'monoclinic'
loop_
_space_group_symop_operation_xyz
x,y,z
-x,y,-z
loop_
_atom_site_type_symbol
_atom_site_label
_atom_site_fract_x
_atom_site_fract_y
_atom_site_fract_z
Si Si1 0.702287 0.962840 0.024973
Si Si2 0.967959 0.658444 0.152932
Si Si3 0.537843 0.955035 0.351614
Si Si4 0.202191 0.646508 0.525876
Si Si5 0.452239 0.329589 0.644404
Si Si6 0.178258 0.315536 0.983701
O O1 0.652794 0.947032 0.832863
O O2 0.785612 0.147304 0.086639
O O3 0.500000 0.949626 0.000000
O O4 0.842079 0.816037 0.134169
O O5 0.157672 0.655522 0.335540
O O6 0.864132 0.481489 0.126448
O O7 0.000000 0.667086 0.000000
O O8 0.500000 0.941125 0.500000
O O9 0.672503 0.805085 0.373284
O O10 0.619373 0.140634 0.364772
O O11 0.309887 0.476256 0.611115
O O12 0.000000 0.651646 0.500000
O O13 0.500000 0.341876 0.500000
O O14 0.639946 0.347326 0.829693
O O15 0.000000 0.287234 0.000000
#
# Coordination Sequence:
#
# PCOD9113378 Si02
#       6
#     2   2   2   2   2   2
#     4  11  23  39  62  91 124 158 198 254 308 355
#     4  11  23  39  62  88 119 162 206 247 292 360
#     4  10  22  41  63  85 117 165 208 246 294 358
#     4  12  25  39  61  93 128 161 197 249 306 360
#     4  10  21  40  64  89 121 161 205 250 297 358
#     4  10  22  40  64  90 118 159 208 252 298 357
#
# _framework density 22.369208
#
# number of rings (size 3 to 8) (size 9 to 14) (size 15 to 20)
#    0.000    1.333    0.000    6.000    0.000    8.000 
#    0.000    0.000    0.000    0.000    0.000    0.000 
#    0.000    0.000    0.000    0.000    0.000    0.000 
#
# Total GULP energy -67170.490614 kJ/mol
# GULP energy per Si atom -5597.540885 kJ/mol
# Density = 2.231829 g / cm^3
# Si number density = 22.369208 Si / 1000 Ang^3
#
#
#
# Elastic Constant Matrix: (Units=GPa)
#
#
# Indices 1 2 3 4 5 6 
#
# 1 41.3692 35.5698 -5.4684 0.0000 2.3345 0.0000
# 2 35.5698 215.4457 49.2555 0.0000 40.1016 0.0000
# 3 -5.4684 49.2555 74.1662 0.0000 2.5490 0.0000
# 4 0.0000 0.0000 0.0000 25.8380 0.0000 23.3450
# 5 2.3345 40.1016 2.5490 0.0000 34.6523 0.0000
# 6 0.0000 0.0000 0.0000 23.3450 0.0000 -3.3882
#
#
#
# Elastic Compliance Matrix: (Units=1/GPa)
#
#
# Indices 1 2 3 4 5 6 
#
# 1 0.031926 -0.008297 0.007628 0.000000 0.006890 0.000000
# 2 -0.008297 0.009296 -0.006452 0.000000 -0.009725 0.000000
# 3 0.007628 -0.006452 0.018137 0.000000 0.005618 0.000000
# 4 0.000000 0.000000 0.000000 0.005357 0.000000 0.036907
# 5 0.006890 -0.009725 0.005618 0.000000 0.039235 0.000000
# 6 0.000000 0.000000 0.000000 0.036907 0.000000 -0.040848
#
#
# Mechanical properties :
#
#
# Convention : Reuss Voigt Hill
#
# Bulk Modulus (GPa) = 22.16443 54.41053 38.28748
# Shear Modulus (GPa) = 54.12169 28.19536 41.15853
#
# Velocity S-wave (km/s) = 4.92415 3.55414 4.29413
# Velocity P-wave (km/s) = 6.50074 6.42022 6.46061
#
# Compressibility (1/GPa) = 0.04511734
#
# Stress axis : x y z
#
# Youngs Moduli (GPa) = 31.32226 107.56737 55.13541
#
# Poissons Ratio (x) = 0.89252 -0.42055
# Poissons Ratio (y) = 0.25989 0.35571
# Poissons Ratio (z) = -0.23891 0.69398
#
# Static dielectric constant tensor:
#      x y z
#    x 1.845500 0.000000 -0.057990 
#    y 0.000000 1.811490 0.000000 
#    z -0.057990 0.000000 1.802810 
# 
# From -- ./inp_files/10616.got.cif
#   From: 2010.05.17/outbox.cif.g08.bks.cpg/sg3_6_cif.got.tgz:10616.got - 2010.06.03 18:33:08.
