data_PCOD9113748
_publ_section_title
;
Structure prediction by ZEFSAII (Michael W. Deem and Ramdas Pophale) SiO2 
 PCOD9113748
Probable space group: P 2
;
_chemical_formula_sum "Si O2"
_cell_formula_units_Z 14
_cell_length_a 21.500282
_cell_length_b 5.475784
_cell_length_c 8.695880
_cell_angle_alpha 90.000000
_cell_angle_beta 36.946738
_cell_angle_gamma 90.000000
_cell_volume 615.362116
_symmetry_space_group_name_H-M "P 2"
_symmetry_group_IT_number 3
_symmetry_cell_setting 'monoclinic'
loop_
_space_group_symop_operation_xyz
x,y,z
-x,y,-z
loop_
_atom_site_type_symbol
_atom_site_label
_atom_site_fract_x
_atom_site_fract_y
_atom_site_fract_z
Si Si1 0.954006 0.817220 0.422158
Si Si2 0.420111 0.204873 0.351126
Si Si3 0.697394 0.810211 0.538384
Si Si4 0.773566 0.420478 0.138846
Si Si5 0.366977 0.418048 0.120299
Si Si6 0.095492 0.075367 0.918215
Si Si7 0.833234 0.338769 0.673384
O O1 0.895669 0.572135 0.484477
O O2 0.000000 0.772463 0.500000
O O3 0.045625 0.866994 0.122110
O O4 0.890888 0.075999 0.558261
O O5 0.330879 0.256426 0.649764
O O6 0.382142 0.311461 0.261735
O O7 0.406787 0.922638 0.333196
O O8 0.527726 0.335611 0.171351
O O9 0.740615 0.643601 0.312905
O O10 0.662259 0.692138 0.769163
O O11 0.798651 0.979731 0.369336
O O12 0.806365 0.433728 0.898287
O O13 0.865206 0.285299 0.047183
O O14 0.271449 0.315732 0.215599
O O15 0.000000 0.153496 0.000000
#
# Coordination Sequence:
#
# PCOD9113748 Si02
#       7
#     2   2   2   2   2   2   2
#     4  12  26  46  68 104 144 194 233 292 352 418
#     4   9  22  43  70  98 136 178 232 293 361 411
#     4  10  22  43  69  99 136 184 234 289 357 424
#     4  10  23  43  65  97 137 182 234 284 350 420
#     4  10  23  43  71 103 136 178 237 293 353 423
#     4  11  24  40  67 100 141 182 235 291 348 416
#     4  12  27  44  72 104 143 187 242 287 352 422
#
# _framework density 22.750831000000002
#
# number of rings (size 3 to 8) (size 9 to 14) (size 15 to 20)
#    0.000    1.429    1.429    2.143   12.000    5.714 
#    0.000    0.000    0.000    0.000    0.000    0.000 
#    0.000    0.000    0.000    0.000    0.000    0.000 
#
# Total GULP energy -78087.265087 kJ/mol
# GULP energy per Si atom -5577.661792 kJ/mol
# Density = 2.269905 g / cm^3
# Si number density = 22.750831 Si / 1000 Ang^3
#
#
#
# Elastic Constant Matrix: (Units=GPa)
#
#
# Indices 1 2 3 4 5 6 
#
# 1 100.9521 29.6332 35.6141 0.0000 -33.1045 0.0000
# 2 29.6332 64.9118 30.8677 0.0000 -24.1013 0.0000
# 3 35.6141 30.8677 120.2343 0.0000 -23.8863 0.0000
# 4 0.0000 0.0000 0.0000 33.7048 0.0000 -0.6647
# 5 -33.1045 -24.1013 -23.8863 0.0000 39.8398 0.0000
# 6 0.0000 0.0000 0.0000 -0.6647 0.0000 12.8990
#
#
#
# Elastic Compliance Matrix: (Units=1/GPa)
#
#
# Indices 1 2 3 4 5 6 
#
# 1 0.014281 -0.002140 -0.001794 0.000000 0.009496 0.000000
# 2 -0.002140 0.021247 -0.002975 0.000000 0.009291 0.000000
# 3 -0.001794 -0.002975 0.010170 0.000000 0.002807 0.000000
# 4 0.000000 0.000000 0.000000 0.029700 0.000000 0.001531
# 5 0.009496 0.009291 0.002807 0.000000 0.040295 0.000000
# 6 0.000000 0.000000 0.000000 0.001531 0.000000 0.077604
#
#
# Mechanical properties :
#
#
# Convention : Reuss Voigt Hill
#
# Bulk Modulus (GPa) = 31.36847 53.14757 42.25802
# Shear Modulus (GPa) = 22.96295 29.95427 26.45861
#
# Velocity S-wave (km/s) = 3.18043 3.63247 3.41394
# Velocity P-wave (km/s) = 5.22538 6.40348 5.84419
#
# Compressibility (1/GPa) = 0.03187914
#
# Stress axis : x y z
#
# Youngs Moduli (GPa) = 70.02379 47.06507 98.32944
#
# Poissons Ratio (x) = 0.10074 0.17640
# Poissons Ratio (y) = 0.14989 0.29252
# Poissons Ratio (z) = 0.12562 0.14001
#
# Static dielectric constant tensor:
#      x y z
#    x 1.820960 0.000000 -0.013220 
#    y 0.000000 2.106010 0.000000 
#    z -0.013220 0.000000 1.860290 
# 
# From -- ./inp_files/9317.got.cif
#   From: 2010.05.17/outbox.cif.g08.bks.cpg/sg3_5_cif.got.tgz:9317.got - 2010.06.03 18:33:08.
