data_PCOD9113837
_publ_section_title
;
Structure prediction by ZEFSAII (Michael W. Deem and Ramdas Pophale) SiO2 
 PCOD9113837
Probable space group: P 2
;
_chemical_formula_sum "Si O2"
_cell_formula_units_Z 7
_cell_length_a 10.187578
_cell_length_b 5.503182
_cell_length_c 5.065061
_cell_angle_alpha 90.000000
_cell_angle_beta 79.209353
_cell_angle_gamma 90.000000
_cell_volume 278.946893
_symmetry_space_group_name_H-M "P 2"
_symmetry_group_IT_number 3
_symmetry_cell_setting 'monoclinic'
loop_
_space_group_symop_operation_xyz
x,y,z
-x,y,-z
loop_
_atom_site_type_symbol
_atom_site_label
_atom_site_fract_x
_atom_site_fract_y
_atom_site_fract_z
Si Si1 0.641939 0.849850 0.380773
Si Si2 0.262099 0.600125 0.168905
Si Si3 0.139286 0.219030 0.844598
Si Si4 0.000000 0.594638 0.500000
O O1 0.500000 0.967608 0.500000
O O2 0.659357 0.634784 0.588915
O O3 0.656435 0.740749 0.084664
O O4 0.764209 0.037892 0.344488
O O5 0.222252 0.342650 0.053500
O O6 0.115906 0.717858 0.285660
O O7 0.914355 0.430294 0.329718
O O8 0.000000 0.110402 0.000000
#
# Coordination Sequence:
#
# PCOD9113837 Si02
#       4
#     2   2   2   1
#     4  12  28  47  72 110 146 194 241 291 371 443
#     4  11  25  47  73 104 146 189 240 300 362 428
#     4  10  25  46  76 108 143 188 246 306 364 425
#     4  10  22  48  72 110 134 192 240 306 372 406
#
# _framework density 25.094382
#
# number of rings (size 3 to 8) (size 9 to 14) (size 15 to 20)
#    0.000    1.143    2.857    0.857   12.000    1.143 
#    5.143    0.000    0.000    0.000    0.000    0.000 
#    0.000    0.000    0.000    0.000    0.000    0.000 
#
# Total GULP energy -39129.073888 kJ/mol
# GULP energy per Si atom -5589.867698 kJ/mol
# Density = 2.503727 g / cm^3
# Si number density = 25.094382 Si / 1000 Ang^3
#
#
#
# Elastic Constant Matrix: (Units=GPa)
#
#
# Indices 1 2 3 4 5 6 
#
# 1 102.6590 35.0971 66.1920 0.0000 -34.2099 0.0000
# 2 35.0971 51.5237 29.4448 0.0000 -7.3397 0.0000
# 3 66.1920 29.4448 179.9408 0.0000 -26.2051 0.0000
# 4 0.0000 0.0000 0.0000 -10.8597 0.0000 -63.2661
# 5 -34.2099 -7.3397 -26.2051 0.0000 72.2617 0.0000
# 6 0.0000 0.0000 0.0000 -63.2661 0.0000 -49.0269
#
#
#
# Elastic Compliance Matrix: (Units=1/GPa)
#
#
# Indices 1 2 3 4 5 6 
#
# 1 0.017253 -0.008584 -0.004096 0.000000 0.005811 0.000000
# 2 -0.008584 0.025744 -0.001337 0.000000 -0.001934 0.000000
# 3 -0.004096 -0.001337 0.007370 0.000000 0.000598 0.000000
# 4 0.000000 0.000000 0.000000 0.014128 0.000000 -0.018231
# 5 0.005811 -0.001934 0.000598 0.000000 0.016610 0.000000
# 6 0.000000 0.000000 0.000000 -0.018231 0.000000 0.003129
#
#
# Mechanical properties :
#
#
# Convention : Reuss Voigt Hill
#
# Bulk Modulus (GPa) = 44.77425 66.17680 55.47552
# Shear Modulus (GPa) = 41.76712 16.03433 28.90072
#
# Velocity S-wave (km/s) = 4.08413 2.53051 3.39732
# Velocity P-wave (km/s) = 6.33413 5.91324 6.12730
#
# Compressibility (1/GPa) = 0.02233427
#
# Stress axis : x y z
#
# Youngs Moduli (GPa) = 57.96170 38.84364 135.68940
#
# Poissons Ratio (x) = 0.33343 0.55574
# Poissons Ratio (y) = 0.49754 0.18137
# Poissons Ratio (z) = 0.23739 0.05192
#
# Static dielectric constant tensor:
#      x y z
#    x 2.008580 0.000000 0.013420 
#    y 0.000000 1.999740 0.000000 
#    z 0.013420 0.000000 2.037120 
# 
# From -- ./inp_files/1871.got.cif
#   From: 2010.05.17/outbox.cif.g08.bks.cpg/sg3_1_cif.got.tgz:1871.got - 2010.06.03 18:33:08.
