data_PCOD9113385
_publ_section_title
;
Structure prediction by ZEFSAII (Michael W. Deem and Ramdas Pophale) SiO2 
 PCOD9113385
Probable space group: P 2
;
_chemical_formula_sum "Si O2"
_cell_formula_units_Z 10
_cell_length_a 9.258507
_cell_length_b 11.459799
_cell_length_c 8.309355
_cell_angle_alpha 90.000000
_cell_angle_beta 148.228156
_cell_angle_gamma 90.000000
_cell_volume 464.210608
_symmetry_space_group_name_H-M "P 2"
_symmetry_group_IT_number 3
_symmetry_cell_setting 'monoclinic'
loop_
_space_group_symop_operation_xyz
x,y,z
-x,y,-z
loop_
_atom_site_type_symbol
_atom_site_label
_atom_site_fract_x
_atom_site_fract_y
_atom_site_fract_z
Si Si1 0.447289 0.011800 0.760868
Si Si2 0.262314 0.807797 0.145358
Si Si3 0.257519 0.544200 0.141946
Si Si4 0.224563 0.366268 0.831450
Si Si5 0.948292 0.145486 0.138984
O O1 0.144358 0.047486 0.410395
O O2 0.590210 0.889458 0.845886
O O3 0.500000 0.026465 0.000000
O O4 0.636782 0.102950 0.848539
O O5 0.500000 0.795441 0.500000
O O6 0.192667 0.676807 0.022434
O O7 0.000000 0.854630 0.000000
O O8 0.500000 0.546980 0.500000
O O9 0.315561 0.459245 0.050464
O O10 0.000000 0.500130 0.000000
O O11 0.000000 0.421752 0.500000
O O12 0.058372 0.261164 0.759194
O O13 0.500000 0.326042 0.000000
O O14 0.000000 0.165630 0.000000
#
# Coordination Sequence:
#
# PCOD9113385 Si02
#       5
#     2   2   2   2   2
#     4  12  24  40  63  93 127 161 207 263 317 368
#     4  10  21  40  65  93 127 168 213 257 308 377
#     4  10  22  42  67  94 127 169 215 258 309 379
#     4  12  25  42  64  94 132 165 208 266 322 375
#     4  12  25  42  64  88 122 169 214 254 309 379
#
# _framework density 21.541944999999998
#
# number of rings (size 3 to 8) (size 9 to 14) (size 15 to 20)
#    0.000    0.800    0.000    9.000    0.000    2.400 
#    0.000    2.000    0.000    0.000    0.000    0.000 
#    0.000    0.000    0.000    0.000    0.000    0.000 
#
# Total GULP energy -55822.582490 kJ/mol
# GULP energy per Si atom -5582.258249 kJ/mol
# Density = 2.149291 g / cm^3
# Si number density = 21.541945 Si / 1000 Ang^3
#
#
#
# Elastic Constant Matrix: (Units=GPa)
#
#
# Indices 1 2 3 4 5 6 
#
# 1 145.8224 48.5949 28.9437 0.0000 -5.8551 0.0000
# 2 48.5949 81.3945 1.1641 0.0000 -10.4875 0.0000
# 3 28.9437 1.1641 98.2968 0.0000 2.1560 0.0000
# 4 0.0000 0.0000 0.0000 30.3529 0.0000 17.1088
# 5 -5.8551 -10.4875 2.1560 0.0000 32.8306 0.0000
# 6 0.0000 0.0000 0.0000 17.1088 0.0000 23.6704
#
#
#
# Elastic Compliance Matrix: (Units=1/GPa)
#
#
# Indices 1 2 3 4 5 6 
#
# 1 0.009201 -0.005446 -0.002646 0.000000 0.000075 0.000000
# 2 -0.005446 0.016042 0.001324 0.000000 0.004066 0.000000
# 3 -0.002646 0.001324 0.010954 0.000000 -0.000768 0.000000
# 4 0.000000 0.000000 0.000000 0.055596 0.000000 -0.040184
# 5 0.000075 0.004066 -0.000768 0.000000 0.031822 0.000000
# 6 0.000000 0.000000 0.000000 -0.040184 0.000000 0.071292
#
#
# Mechanical properties :
#
#
# Convention : Reuss Voigt Hill
#
# Bulk Modulus (GPa) = 44.12835 53.65768 48.89301
# Shear Modulus (GPa) = 23.14865 33.82485 28.48675
#
# Velocity S-wave (km/s) = 3.28164 3.96686 3.64041
# Velocity P-wave (km/s) = 5.90663 6.77819 6.35736
#
# Compressibility (1/GPa) = 0.02266117
#
# Stress axis : x y z
#
# Youngs Moduli (GPa) = 108.68820 62.33642 91.29374
#
# Poissons Ratio (x) = 0.33945 0.24159
# Poissons Ratio (y) = 0.59186 -0.12090
# Poissons Ratio (z) = 0.28762 -0.08255
#
# Static dielectric constant tensor:
#      x y z
#    x 1.734790 0.000000 0.026590 
#    y 0.000000 1.852530 0.000000 
#    z 0.026590 0.000000 1.727880 
# 
# From -- ./inp_files/5732.got.cif
#   From: 2010.05.17/outbox.cif.g08.bks.cpg/sg3_3_cif.got.tgz:5732.got - 2010.06.03 18:33:08.
