data_PCOD9113004
_publ_section_title
;
Structure prediction by ZEFSAII (Michael W. Deem and Ramdas Pophale) SiO2 
 PCOD9113004
Probable space group: P 2
;
_chemical_formula_sum "Si O2"
_cell_formula_units_Z 14
_cell_length_a 8.781829
_cell_length_b 7.982765
_cell_length_c 11.790128
_cell_angle_alpha 90.000000
_cell_angle_beta 51.659732
_cell_angle_gamma 90.000000
_cell_volume 648.278370
_symmetry_space_group_name_H-M "P 2"
_symmetry_group_IT_number 3
_symmetry_cell_setting 'monoclinic'
loop_
_space_group_symop_operation_xyz
x,y,z
-x,y,-z
loop_
_atom_site_type_symbol
_atom_site_label
_atom_site_fract_x
_atom_site_fract_y
_atom_site_fract_z
Si Si1 0.124857 0.776450 0.056811
Si Si2 0.924244 0.482277 0.748971
Si Si3 0.780048 0.216438 0.648428
Si Si4 0.702065 0.315943 0.442659
Si Si5 0.495565 0.891903 0.234133
Si Si6 0.234153 0.942426 0.671510
Si Si7 0.835644 0.729640 0.512514
O O1 0.151792 0.615165 0.125492
O O2 0.334881 0.852464 0.932732
O O3 0.984800 0.912222 0.182482
O O4 0.000000 0.732717 0.000000
O O5 0.797750 0.334428 0.751330
O O6 0.119577 0.397284 0.705703
O O7 0.023092 0.585042 0.599784
O O8 0.700057 0.323454 0.579536
O O9 0.000000 0.184122 0.500000
O O10 0.641970 0.053724 0.725731
O O11 0.500000 0.392010 0.500000
O O12 0.722977 0.121266 0.402225
O O13 0.349740 0.734641 0.319752
O O14 0.618522 0.919577 0.292936
O O15 0.247990 0.809354 0.563953
O O16 0.000000 0.839090 0.500000
#
# Coordination Sequence:
#
# PCOD9113004 Si02
#       7
#     2   2   2   2   2   2   2
#     4   9  22  43  67  96 137 181 223 269 336 401
#     4  10  24  41  63  96 144 173 216 277 347 397
#     4  10  20  37  67 106 135 168 222 286 335 389
#     4  11  19  34  65 105 130 168 223 277 340 389
#     4  11  20  38  72  99 129 177 236 271 321 406
#     4  10  20  38  64 102 132 168 226 281 328 390
#     4  11  21  37  65  96 129 172 216 288 332 376
#
# _framework density 21.595662999999998
#
# number of rings (size 3 to 8) (size 9 to 14) (size 15 to 20)
#    0.000    1.714    2.857    2.143    2.000    3.429 
#    0.000    5.000   15.714    1.714    0.000    0.000 
#    0.000    0.000    0.000    0.000    0.000    0.000 
#
# Total GULP energy -77992.223251 kJ/mol
# GULP energy per Si atom -5570.873089 kJ/mol
# Density = 2.154651 g / cm^3
# Si number density = 21.595663 Si / 1000 Ang^3
#
#
#
# Elastic Constant Matrix: (Units=GPa)
#
#
# Indices 1 2 3 4 5 6 
#
# 1 103.6245 37.8683 41.6828 0.0000 -22.0216 0.0000
# 2 37.8683 69.1116 33.1631 0.0000 -6.0498 0.0000
# 3 41.6828 33.1631 126.3299 0.0000 -29.8551 0.0000
# 4 0.0000 0.0000 0.0000 -2.7265 0.0000 59.4610
# 5 -22.0216 -6.0498 -29.8551 0.0000 35.1648 0.0000
# 6 0.0000 0.0000 0.0000 59.4610 0.0000 -74.0066
#
#
#
# Elastic Compliance Matrix: (Units=1/GPa)
#
#
# Indices 1 2 3 4 5 6 
#
# 1 0.013913 -0.006392 -0.001393 0.000000 0.006431 0.000000
# 2 -0.006392 0.019523 -0.003963 0.000000 -0.004009 0.000000
# 3 -0.001393 -0.003963 0.011320 0.000000 0.008056 0.000000
# 4 0.000000 0.000000 0.000000 0.022199 0.000000 0.017836
# 5 0.006431 -0.004009 0.008056 0.000000 0.038615 0.000000
# 6 0.000000 0.000000 0.000000 0.017836 0.000000 0.000818
#
#
# Mechanical properties :
#
#
# Convention : Reuss Voigt Hill
#
# Bulk Modulus (GPa) = 47.03937 58.27714 52.65825
# Shear Modulus (GPa) = 36.50450 4.10979 20.30715
#
# Velocity S-wave (km/s) = 4.11586 1.38101 3.06981
# Velocity P-wave (km/s) = 6.66455 5.43940 6.08290
#
# Compressibility (1/GPa) = 0.02125879
#
# Stress axis : x y z
#
# Youngs Moduli (GPa) = 71.87513 51.22271 88.34137
#
# Poissons Ratio (x) = 0.32742 0.12305
# Poissons Ratio (y) = 0.45943 0.35012
# Poissons Ratio (z) = 0.10012 0.20301
#
# Static dielectric constant tensor:
#      x y z
#    x 2.321280 0.000000 0.046360 
#    y 0.000000 1.976550 0.000000 
#    z 0.046360 0.000000 1.781820 
# 
# From -- ./inp_files/5551.got.cif
#   From: 2010.05.17/outbox.cif.g08.bks.cpg/sg3_3_cif.got.tgz:5551.got - 2010.06.03 18:33:08.
