data_PCOD9113723
_publ_section_title
;
Structure prediction by ZEFSAII (Michael W. Deem and Ramdas Pophale) SiO2 
 PCOD9113723
Probable space group: P 2
;
_chemical_formula_sum "Si O2"
_cell_formula_units_Z 12
_cell_length_a 15.120278
_cell_length_b 4.940851
_cell_length_c 20.568079
_cell_angle_alpha 90.000000
_cell_angle_beta 162.064633
_cell_angle_gamma 90.000000
_cell_volume 473.180612
_symmetry_space_group_name_H-M "P 2"
_symmetry_group_IT_number 3
_symmetry_cell_setting 'monoclinic'
loop_
_space_group_symop_operation_xyz
x,y,z
-x,y,-z
loop_
_atom_site_type_symbol
_atom_site_label
_atom_site_fract_x
_atom_site_fract_y
_atom_site_fract_z
Si Si1 0.245329 0.674080 0.120690
Si Si2 0.551227 0.171484 0.298314
Si Si3 0.500000 0.866153 0.000000
Si Si4 0.127744 0.529161 0.263842
Si Si5 0.080989 0.537487 0.624168
Si Si6 0.500000 0.013682 0.500000
Si Si7 0.347832 0.227237 0.012663
O O1 0.375155 0.376566 0.221251
O O2 0.513075 0.878555 0.302996
O O3 0.000000 0.752052 0.000000
O O4 0.076543 0.653425 0.934267
O O5 0.388373 0.134511 0.115188
O O6 0.845378 0.325962 0.485991
O O7 0.221313 0.716305 0.777217
O O8 0.638410 0.019489 0.035744
O O9 0.257300 0.249825 0.322486
O O10 0.342831 0.776683 0.433847
O O11 0.930365 0.417704 0.183345
O O12 0.359231 0.382724 0.794216
O O13 0.000000 0.692540 0.500000
#
# Coordination Sequence:
#
# PCOD9113723 Si02
#       7
#     2   2   1   2   2   1   2
#     4  11  23  45  76 107 144 195 260 311 381 462
#     4  10  24  44  78 106 149 203 248 321 389 460
#     4  12  26  44  78 116 154 204 268 326 378 482
#     4  10  22  44  72 107 143 206 241 319 394 452
#     4  10  25  47  74 115 154 208 262 320 392 470
#     4  10  22  42  72 102 142 186 264 300 374 462
#     4  10  24  44  72 105 151 201 258 314 398 464
#
# _framework density 25.360296000000002
#
# number of rings (size 3 to 8) (size 9 to 14) (size 15 to 20)
#    0.000    1.667    0.000    3.000   11.667    0.667 
#    3.000    1.667    0.000    0.000    0.000    0.000 
#    0.000    0.000    0.000    0.000    0.000    0.000 
#
# Total GULP energy -66893.091045 kJ/mol
# GULP energy per Si atom -5574.424254 kJ/mol
# Density = 2.530258 g / cm^3
# Si number density = 25.360296 Si / 1000 Ang^3
#
#
#
# Elastic Constant Matrix: (Units=GPa)
#
#
# Indices 1 2 3 4 5 6 
#
# 1 145.6619 61.1309 65.4480 0.0000 31.6209 0.0000
# 2 61.1309 167.0024 57.8677 0.0000 7.1139 0.0000
# 3 65.4480 57.8677 118.6999 0.0000 27.3407 0.0000
# 4 0.0000 0.0000 0.0000 25.5595 0.0000 34.2347
# 5 31.6209 7.1139 27.3407 0.0000 55.8309 0.0000
# 6 0.0000 0.0000 0.0000 34.2347 0.0000 21.7679
#
#
#
# Elastic Compliance Matrix: (Units=1/GPa)
#
#
# Indices 1 2 3 4 5 6 
#
# 1 0.010315 -0.002339 -0.003686 0.000000 -0.003739 0.000000
# 2 -0.002339 0.007776 -0.002906 0.000000 0.001757 0.000000
# 3 -0.003686 -0.002906 0.012745 0.000000 -0.003784 0.000000
# 4 0.000000 0.000000 0.000000 -0.035358 0.000000 0.055609
# 5 -0.003739 0.001757 -0.003784 0.000000 0.021658 0.000000
# 6 0.000000 0.000000 0.000000 0.055609 0.000000 -0.041517
#
#
# Mechanical properties :
#
#
# Convention : Reuss Voigt Hill
#
# Bulk Modulus (GPa) = 77.07587 88.91748 82.99668
# Shear Modulus (GPa) = -2277.13309 37.09284 -1120.02013
#
# Velocity S-wave (km/s) = -29.99770 3.82859 -21.03811
# Velocity P-wave (km/s) = 34.19587 7.39472 23.60800
#
# Compressibility (1/GPa) = 0.01297423
#
# Stress axis : x y z
#
# Youngs Moduli (GPa) = 96.94996 128.59559 78.46274
#
# Poissons Ratio (x) = 0.30082 0.28918
# Poissons Ratio (y) = 0.22679 0.22801
# Poissons Ratio (z) = 0.35731 0.37369
#
# Static dielectric constant tensor:
#      x y z
#    x 2.930220 0.000000 -0.561200 
#    y 0.000000 1.996450 0.000000 
#    z -0.561200 0.000000 2.405140 
# 
# From -- ./inp_files/15997.got.cif
#   From: 2010.05.17/outbox.cif.g08.bks.cpg/sg3_8_cif.got.tgz:15997.got - 2010.06.03 18:33:08.
