data_PCOD9113904
_publ_section_title
;
Structure prediction by ZEFSAII (Michael W. Deem and Ramdas Pophale) SiO2 
 PCOD9113904
Probable space group: P 2
;
_chemical_formula_sum "Si O2"
_cell_formula_units_Z 16
_cell_length_a 11.820442
_cell_length_b 8.945195
_cell_length_c 8.593471
_cell_angle_alpha 90.000000
_cell_angle_beta 126.371688
_cell_angle_gamma 90.000000
_cell_volume 731.625546
_symmetry_space_group_name_H-M "P 2"
_symmetry_group_IT_number 3
_symmetry_cell_setting 'monoclinic'
loop_
_space_group_symop_operation_xyz
x,y,z
-x,y,-z
loop_
_atom_site_type_symbol
_atom_site_label
_atom_site_fract_x
_atom_site_fract_y
_atom_site_fract_z
Si Si1 0.381767 0.854390 0.269755
Si Si2 0.874369 0.985986 0.773985
Si Si3 0.645607 0.026753 0.058845
Si Si4 0.931485 0.278457 0.616781
Si Si5 0.579305 0.517942 0.725200
Si Si6 0.299432 0.499108 0.694830
Si Si7 0.227037 0.329736 0.945697
Si Si8 0.157907 0.822080 0.563645
O O1 0.500000 0.856972 0.500000
O O2 0.263736 0.964883 0.237244
O O3 0.345651 0.679790 0.217255
O O4 0.410475 0.915010 0.120519
O O5 0.859542 0.857196 0.632568
O O6 0.889362 0.133651 0.680823
O O7 0.000000 0.974904 0.000000
O O8 0.739822 0.939119 0.262789
O O9 0.741294 0.158116 0.067791
O O10 0.500000 0.098143 0.000000
O O11 0.799675 0.386321 0.484169
O O12 0.000000 0.244182 0.500000
O O13 0.061073 0.354521 0.812113
O O14 0.500000 0.499054 0.500000
O O15 0.454142 0.514402 0.750275
O O16 0.690830 0.387048 0.838833
O O17 0.292068 0.428468 0.859666
O O18 0.226372 0.660245 0.639650
O O19 0.000000 0.829243 0.500000
#
# Coordination Sequence:
#
# PCOD9113904 Si02
#       8
#     2   2   2   2   2   2   2   2
#     4  11  25  44  64  94 132 172 218 271 328 389
#     4  12  25  43  65  94 132 172 215 271 332 389
#     4  12  24  41  67  96 127 172 221 271 324 387
#     4  10  23  44  67  96 131 167 217 273 324 390
#     4  11  24  43  62  91 132 173 214 266 323 388
#     4  11  23  42  68  96 127 169 216 270 325 386
#     4  11  23  42  66  96 129 166 215 268 324 387
#     4  12  23  41  67  95 127 171 221 272 325 388
#
# _framework density 21.869112000000001
#
# number of rings (size 3 to 8) (size 9 to 14) (size 15 to 20)
#    0.000    0.750    0.000   10.125    0.000    4.500 
#    0.000    0.625    0.000    0.000    0.000    0.000 
#    0.000    0.000    0.000    0.000    0.000    0.000 
#
# Total GULP energy -89470.707032 kJ/mol
# GULP energy per Si atom -5591.919189 kJ/mol
# Density = 2.181934 g / cm^3
# Si number density = 21.869112 Si / 1000 Ang^3
#
#
#
# Elastic Constant Matrix: (Units=GPa)
#
#
# Indices 1 2 3 4 5 6 
#
# 1 65.2702 3.2380 0.9542 0.0000 17.7468 0.0000
# 2 3.2380 99.2327 52.1006 0.0000 -1.8705 0.0000
# 3 0.9542 52.1006 97.0665 0.0000 11.9915 0.0000
# 4 0.0000 0.0000 0.0000 42.8897 0.0000 -4.9377
# 5 17.7468 -1.8705 11.9915 0.0000 34.8506 0.0000
# 6 0.0000 0.0000 0.0000 -4.9377 0.0000 27.2630
#
#
#
# Elastic Compliance Matrix: (Units=1/GPa)
#
#
# Indices 1 2 3 4 5 6 
#
# 1 0.018111 -0.001862 0.002061 0.000000 -0.010031 0.000000
# 2 -0.001862 0.014642 -0.008413 0.000000 0.004629 0.000000
# 3 0.002061 -0.008413 0.015648 0.000000 -0.006885 0.000000
# 4 0.000000 0.000000 0.000000 0.023812 0.000000 0.004313
# 5 -0.010031 0.004629 -0.006885 0.000000 0.036420 0.000000
# 6 0.000000 0.000000 0.000000 0.004313 0.000000 0.037461
#
#
# Mechanical properties :
#
#
# Convention : Reuss Voigt Hill
#
# Bulk Modulus (GPa) = 31.27650 41.57278 36.42464
# Shear Modulus (GPa) = 28.87171 34.68575 31.77873
#
# Velocity S-wave (km/s) = 3.63740 3.98686 3.81613
# Velocity P-wave (km/s) = 5.65453 6.34385 6.00908
#
# Compressibility (1/GPa) = 0.03197289
#
# Stress axis : x y z
#
# Youngs Moduli (GPa) = 55.21598 68.29489 63.90526
#
# Poissons Ratio (x) = 0.12716 -0.13169
# Poissons Ratio (y) = 0.10281 0.53763
# Poissons Ratio (z) = -0.11378 0.57456
#
# Static dielectric constant tensor:
#      x y z
#    x 1.878360 0.000000 -0.050600 
#    y 0.000000 1.773890 0.000000 
#    z -0.050600 0.000000 1.801100 
# 
# From -- ./inp_files/7507.got.cif
#   From: 2010.05.17/outbox.cif.g08.bks.cpg/sg3_4_cif.got.tgz:7507.got - 2010.06.03 18:33:08.
