data_PCOD9113351
_publ_section_title
;
Structure prediction by ZEFSAII (Michael W. Deem and Ramdas Pophale) SiO2 
 PCOD9113351
Probable space group: P 2
;
_chemical_formula_sum "Si O2"
_cell_formula_units_Z 14
_cell_length_a 14.037717
_cell_length_b 5.385461
_cell_length_c 8.414314
_cell_angle_alpha 90.000000
_cell_angle_beta 122.778266
_cell_angle_gamma 90.000000
_cell_volume 534.830712
_symmetry_space_group_name_H-M "P 2"
_symmetry_group_IT_number 3
_symmetry_cell_setting 'monoclinic'
loop_
_space_group_symop_operation_xyz
x,y,z
-x,y,-z
loop_
_atom_site_type_symbol
_atom_site_label
_atom_site_fract_x
_atom_site_fract_y
_atom_site_fract_z
Si Si1 0.895938 0.195940 0.970805
Si Si2 0.019546 0.562807 0.689039
Si Si3 0.756019 0.813388 0.030050
Si Si4 0.669870 0.227130 0.248381
Si Si5 0.774060 0.723087 0.461315
Si Si6 0.570843 0.175245 0.826366
Si Si7 0.704170 0.466085 0.694696
O O1 0.962494 0.395086 0.139523
O O2 0.811990 0.065067 0.016146
O O3 0.809745 0.282265 0.754149
O O4 0.000000 0.033017 0.000000
O O5 0.908026 0.731997 0.616030
O O6 0.000000 0.430973 0.500000
O O7 0.137859 0.709655 0.772636
O O8 0.752524 0.616974 0.886298
O O9 0.622516 0.899534 0.910845
O O10 0.747970 0.454792 0.362340
O O11 0.562671 0.202216 0.268929
O O12 0.729624 0.958796 0.319997
O O13 0.624618 0.300932 0.032798
O O14 0.697124 0.674744 0.551880
O O15 0.608257 0.299113 0.693948
#
# Coordination Sequence:
#
# PCOD9113351 Si02
#       7
#     2   2   2   2   2   2   2
#     4  10  21  39  64  96 136 191 233 282 357 439
#     4  11  25  40  66 103 145 183 236 299 363 437
#     4  10  24  40  73  96 136 194 237 294 353 443
#     4  11  29  48  78 105 147 194 246 314 360 440
#     4  12  28  47  71 114 152 188 239 309 379 426
#     4  10  25  51  75 101 140 198 257 295 370 438
#     4  10  24  43  69 103 143 192 241 302 363 446
#
# _framework density 26.176504999999999
#
# number of rings (size 3 to 8) (size 9 to 14) (size 15 to 20)
#    0.000    1.429    1.429    0.857   18.000    2.286 
#    0.000    0.000    0.000    0.000    0.000    0.000 
#    0.000    0.000    0.000    0.000    0.000    0.000 
#
# Total GULP energy -77991.005455 kJ/mol
# GULP energy per Si atom -5570.786104 kJ/mol
# Density = 2.611693 g / cm^3
# Si number density = 26.176505 Si / 1000 Ang^3
#
#
#
# Elastic Constant Matrix: (Units=GPa)
#
#
# Indices 1 2 3 4 5 6 
#
# 1 154.4424 25.2897 11.9093 0.0000 27.3096 0.0000
# 2 25.2897 83.3828 33.2051 0.0000 21.4654 0.0000
# 3 11.9093 33.2051 78.6089 0.0000 6.3818 0.0000
# 4 0.0000 0.0000 0.0000 16.0074 0.0000 0.2183
# 5 27.3096 21.4654 6.3818 0.0000 33.9521 0.0000
# 6 0.0000 0.0000 0.0000 0.2183 0.0000 28.6057
#
#
#
# Elastic Compliance Matrix: (Units=1/GPa)
#
#
# Indices 1 2 3 4 5 6 
#
# 1 0.007612 -0.000708 -0.000400 0.000000 -0.005600 0.000000
# 2 -0.000708 0.017067 -0.006369 0.000000 -0.009024 0.000000
# 3 -0.000400 -0.006369 0.015354 0.000000 0.001462 0.000000
# 4 0.000000 0.000000 0.000000 0.062478 0.000000 -0.000477
# 5 -0.005600 -0.009024 0.001462 0.000000 0.039388 0.000000
# 6 0.000000 0.000000 0.000000 -0.000477 0.000000 0.034962
#
#
# Mechanical properties :
#
#
# Convention : Reuss Voigt Hill
#
# Bulk Modulus (GPa) = 39.87464 50.80469 45.33967
# Shear Modulus (GPa) = 24.97844 32.11505 28.54675
#
# Velocity S-wave (km/s) = 3.09241 3.50646 3.30593
# Velocity P-wave (km/s) = 5.29309 5.98702 5.65071
#
# Compressibility (1/GPa) = 0.02507859
#
# Stress axis : x y z
#
# Youngs Moduli (GPa) = 131.37388 58.59263 65.13170
#
# Poissons Ratio (x) = 0.04148 0.02602
# Poissons Ratio (y) = 0.09300 0.41485
# Poissons Ratio (z) = 0.05249 0.37320
#
# Static dielectric constant tensor:
#      x y z
#    x 2.179280 0.000000 -0.102690 
#    y 0.000000 2.137570 0.000000 
#    z -0.102690 0.000000 2.172150 
# 
# From -- ./inp_files/6724.got.cif
#   From: 2010.05.17/outbox.cif.g08.bks.cpg/sg3_4_cif.got.tgz:6724.got - 2010.06.03 18:33:08.
