data_PCOD9113240
_publ_section_title
;
Structure prediction by ZEFSAII (Michael W. Deem and Ramdas Pophale) SiO2 
 PCOD9113240
Probable space group: P 2
;
_chemical_formula_sum "Si O2"
_cell_formula_units_Z 12
_cell_length_a 14.197171
_cell_length_b 5.609711
_cell_length_c 21.270756
_cell_angle_alpha 90.000000
_cell_angle_beta 163.447224
_cell_angle_gamma 90.000000
_cell_volume 482.631038
_symmetry_space_group_name_H-M "P 2"
_symmetry_group_IT_number 3
_symmetry_cell_setting 'monoclinic'
loop_
_space_group_symop_operation_xyz
x,y,z
-x,y,-z
loop_
_atom_site_type_symbol
_atom_site_label
_atom_site_fract_x
_atom_site_fract_y
_atom_site_fract_z
Si Si1 0.912232 0.845470 0.506032
Si Si2 0.131863 0.902261 0.291855
Si Si3 0.382483 0.188865 0.112640
Si Si4 0.298280 0.399174 0.436088
Si Si5 0.702805 0.238359 0.192992
Si Si6 0.441868 0.463757 0.659715
O O1 0.635695 0.734718 0.373752
O O2 0.000000 0.688380 0.500000
O O3 0.709081 0.051615 0.341863
O O4 0.209891 0.959194 0.736154
O O5 0.500000 0.881194 0.500000
O O6 0.134346 0.136568 0.338103
O O7 0.081274 0.642653 0.290934
O O8 0.888959 0.993363 0.081230
O O9 0.489301 0.321532 0.116813
O O10 0.330502 0.353987 0.140176
O O11 0.500000 0.382608 0.500000
O O12 0.535862 0.429421 0.647922
O O13 0.059412 0.365180 0.417859
O O14 0.500000 0.270540 0.000000
#
# Coordination Sequence:
#
# PCOD9113240 Si02
#       6
#     2   2   2   2   2   2
#     4   9  20  37  57  92 135 174 218 276 345 421
#     4  10  23  46  71  96 132 180 236 290 345 400
#     4  10  22  38  66  96 139 176 228 282 349 417
#     4  10  24  44  71  94 132 180 235 290 339 408
#     4  10  21  37  59  98 136 177 230 275 345 422
#     4  11  22  38  66  93 140 178 230 279 357 408
#
# _framework density 24.863714000000002
#
# number of rings (size 3 to 8) (size 9 to 14) (size 15 to 20)
#    0.000    2.000    0.000    3.500    9.333    0.667 
#    3.000    3.333    0.000    0.000    0.000    0.000 
#    0.000    0.000    0.000    0.000    0.000    0.000 
#
# Total GULP energy -66885.232081 kJ/mol
# GULP energy per Si atom -5573.769340 kJ/mol
# Density = 2.480712 g / cm^3
# Si number density = 24.863714 Si / 1000 Ang^3
#
#
#
# Elastic Constant Matrix: (Units=GPa)
#
#
# Indices 1 2 3 4 5 6 
#
# 1 117.5168 13.0341 31.3797 0.0000 -38.9952 0.0000
# 2 13.0341 123.7264 31.2904 0.0000 -19.1234 0.0000
# 3 31.3797 31.2904 125.7006 0.0000 -22.8889 0.0000
# 4 0.0000 0.0000 0.0000 4.9838 0.0000 26.1806
# 5 -38.9952 -19.1234 -22.8889 0.0000 49.9001 0.0000
# 6 0.0000 0.0000 0.0000 26.1806 0.0000 -4.4869
#
#
#
# Elastic Compliance Matrix: (Units=1/GPa)
#
#
# Indices 1 2 3 4 5 6 
#
# 1 0.011726 0.000476 -0.001466 0.000000 0.008673 0.000000
# 2 0.000476 0.008948 -0.001805 0.000000 0.002973 0.000000
# 3 -0.001466 -0.001805 0.009205 0.000000 0.002385 0.000000
# 4 0.000000 0.000000 0.000000 0.006339 0.000000 0.036989
# 5 0.008673 0.002973 0.002385 0.000000 0.029051 0.000000
# 6 0.000000 0.000000 0.000000 0.036989 0.000000 -0.007041
#
#
# Mechanical properties :
#
#
# Convention : Reuss Voigt Hill
#
# Bulk Modulus (GPa) = 41.17083 57.59467 49.38275
# Shear Modulus (GPa) = 69.52581 29.49537 49.51059
#
# Velocity S-wave (km/s) = 5.29372 3.44798 4.46722
# Velocity P-wave (km/s) = 7.34569 6.25027 6.82001
#
# Compressibility (1/GPa) = 0.02428904
#
# Stress axis : x y z
#
# Youngs Moduli (GPa) = 85.27853 111.75388 108.63657
#
# Poissons Ratio (x) = -0.05321 0.15932
# Poissons Ratio (y) = -0.04061 0.19608
# Poissons Ratio (z) = 0.12506 0.20170
#
# Static dielectric constant tensor:
#      x y z
#    x 2.573930 0.000000 0.138580 
#    y 0.000000 2.129050 0.000000 
#    z 0.138580 0.000000 1.999330 
# 
# From -- ./inp_files/6531.got.cif
#   From: 2010.05.17/outbox.cif.g08.bks.cpg/sg3_4_cif.got.tgz:6531.got - 2010.06.03 18:33:08.
