data_PCOD9113823
_publ_section_title
;
Structure prediction by ZEFSAII (Michael W. Deem and Ramdas Pophale) SiO2 
 PCOD9113823
Probable space group: P 2
;
_chemical_formula_sum "Si O2"
_cell_formula_units_Z 14
_cell_length_a 6.020278
_cell_length_b 6.109014
_cell_length_c 17.474966
_cell_angle_alpha 90.000000
_cell_angle_beta 74.597262
_cell_angle_gamma 90.000000
_cell_volume 619.609834
_symmetry_space_group_name_H-M "P 2"
_symmetry_group_IT_number 3
_symmetry_cell_setting 'monoclinic'
loop_
_space_group_symop_operation_xyz
x,y,z
-x,y,-z
loop_
_atom_site_type_symbol
_atom_site_label
_atom_site_fract_x
_atom_site_fract_y
_atom_site_fract_z
Si Si1 0.000000 0.656570 0.000000
Si Si2 0.317686 0.954650 0.077358
Si Si3 0.000000 0.262598 0.500000
Si Si4 0.224617 0.264753 0.217786
Si Si5 0.821304 0.608387 0.286318
Si Si6 0.105029 0.952578 0.359084
Si Si7 0.601377 0.607531 0.571435
Si Si8 0.616608 0.605802 0.145506
O O1 0.810730 0.530416 0.067203
O O2 0.138302 0.809583 0.046413
O O3 0.464727 0.791554 0.118193
O O4 0.196682 0.130259 0.142116
O O5 0.500000 0.053094 0.000000
O O6 0.782743 0.416995 0.536435
O O7 0.031803 0.109617 0.570778
O O8 0.448929 0.412376 0.186022
O O9 0.008739 0.420691 0.254592
O O10 0.246005 0.099832 0.286604
O O11 0.605146 0.527356 0.355642
O O12 0.735792 0.690552 0.211772
O O13 0.940347 0.798978 0.324213
O O14 0.266948 0.798187 0.395301
O O15 0.500000 0.686406 0.500000
#
# Coordination Sequence:
#
# PCOD9113823 Si02
#       8
#     1   2   1   2   2   2   2   2
#     4  10  22  46  72  96 138 184 224 282 342 394
#     4  10  24  45  69 100 138 180 228 281 338 401
#     4  12  26  48  74 102 134 174 228 280 334 404
#     4  12  25  44  70 102 138 179 229 279 334 404
#     4  12  26  45  71 101 138 180 224 278 339 401
#     4  12  26  47  71 101 139 178 225 278 337 405
#     4  12  26  48  72 101 137 177 225 279 338 401
#     4  11  24  45  70 100 139 180 227 282 338 399
#
# _framework density 22.594864999999999
#
# number of rings (size 3 to 8) (size 9 to 14) (size 15 to 20)
#    0.000    0.571    0.000    9.000    0.000   10.286 
#    0.000    7.143    0.000    0.000    0.000    0.000 
#    0.000    0.000    0.000    0.000    0.000    0.000 
#
# Total GULP energy -78482.795846 kJ/mol
# GULP energy per Si atom -5605.913989 kJ/mol
# Density = 2.254344 g / cm^3
# Si number density = 22.594865 Si / 1000 Ang^3
#
#
#
# Elastic Constant Matrix: (Units=GPa)
#
#
# Indices 1 2 3 4 5 6 
#
# 1 142.5836 70.8600 95.6562 0.0000 -4.6789 0.0000
# 2 70.8600 114.9857 91.2900 0.0000 -10.2229 0.0000
# 3 95.6562 91.2900 205.3493 0.0000 -10.9732 0.0000
# 4 0.0000 0.0000 0.0000 -31.7714 0.0000 63.6736
# 5 -4.6789 -10.2229 -10.9732 0.0000 72.8578 0.0000
# 6 0.0000 0.0000 0.0000 63.6736 0.0000 -49.4246
#
#
#
# Elastic Compliance Matrix: (Units=1/GPa)
#
#
# Indices 1 2 3 4 5 6 
#
# 1 0.011475 -0.004398 -0.003411 0.000000 -0.000394 0.000000
# 2 -0.004398 0.015198 -0.004646 0.000000 0.001150 0.000000
# 3 -0.003411 -0.004646 0.008546 0.000000 0.000416 0.000000
# 4 0.000000 0.000000 0.000000 0.019897 0.000000 0.025633
# 5 -0.000394 0.001150 0.000416 0.000000 0.013924 0.000000
# 6 0.000000 0.000000 0.000000 0.025633 0.000000 0.012790
#
#
# Mechanical properties :
#
#
# Convention : Reuss Voigt Hill
#
# Bulk Modulus (GPa) = 97.00806 108.72566 102.86686
# Shear Modulus (GPa) = 45.38138 12.00652 28.69395
#
# Velocity S-wave (km/s) = 4.48647 2.30767 3.56748
# Velocity P-wave (km/s) = 8.35852 7.43805 7.91168
#
# Compressibility (1/GPa) = 0.01030842
#
# Stress axis : x y z
#
# Youngs Moduli (GPa) = 87.14901 65.79728 117.00858
#
# Poissons Ratio (x) = 0.28939 0.39910
# Poissons Ratio (y) = 0.38330 0.54365
# Poissons Ratio (z) = 0.29725 0.30571
#
# Static dielectric constant tensor:
#      x y z
#    x 1.823360 0.000000 -0.010570 
#    y 0.000000 1.812450 0.000000 
#    z -0.010570 0.000000 1.833600 
# 
# From -- ./inp_files/14595.got.cif
#   From: 2010.05.17/outbox.cif.g08.bks.cpg/sg3_8_cif.got.tgz:14595.got - 2010.06.03 18:33:08.
