data_PCOD9113352
_publ_section_title
;
Structure prediction by ZEFSAII (Michael W. Deem and Ramdas Pophale) SiO2 
 PCOD9113352
Probable space group: P 2
;
_chemical_formula_sum "Si O2"
_cell_formula_units_Z 14
_cell_length_a 19.374847
_cell_length_b 6.726961
_cell_length_c 10.004823
_cell_angle_alpha 90.000000
_cell_angle_beta 29.133790
_cell_angle_gamma 90.000000
_cell_volume 634.837117
_symmetry_space_group_name_H-M "P 2"
_symmetry_group_IT_number 3
_symmetry_cell_setting 'monoclinic'
loop_
_space_group_symop_operation_xyz
x,y,z
-x,y,-z
loop_
_atom_site_type_symbol
_atom_site_label
_atom_site_fract_x
_atom_site_fract_y
_atom_site_fract_z
Si Si1 0.366364 0.687500 0.418598
Si Si2 0.209180 0.672150 0.088431
Si Si3 0.562581 0.940448 0.254957
Si Si4 0.147559 0.986373 0.683433
Si Si5 0.948858 0.657266 0.362771
Si Si6 0.724449 0.380532 0.645941
Si Si7 0.447060 0.389295 0.784338
O O1 0.500034 0.829446 0.229999
O O2 0.349026 0.556705 0.314449
O O3 0.405931 0.509313 0.452682
O O4 0.233698 0.836916 0.636406
O O5 0.122051 0.644194 0.371810
O O6 0.114394 0.655824 0.117465
O O7 0.273587 0.891230 0.002020
O O8 0.336612 0.514482 0.882762
O O9 0.500000 0.861287 0.500000
O O10 0.528185 0.168897 0.304320
O O11 0.250365 0.167898 0.466908
O O12 0.102231 0.850541 0.632628
O O13 0.000000 0.053520 0.000000
O O14 0.883310 0.465989 0.400745
O O15 0.632461 0.366558 0.936699
#
# Coordination Sequence:
#
# PCOD9113352 Si02
#       7
#     2   2   2   2   2   2   2
#     4  10  23  42  60  86 123 166 210 254 307 364
#     4   9  20  40  64  90 121 163 209 255 304 365
#     4  11  24  40  60  94 129 165 205 254 319 378
#     4  11  24  40  60  94 129 165 205 254 319 378
#     4   9  20  40  64  90 121 163 209 255 304 365
#     4  10  21  39  65  94 122 162 213 261 307 364
#     4  10  21  39  65  94 122 162 213 261 307 364
#
# _framework density 22.052900000000001
#
# number of rings (size 3 to 8) (size 9 to 14) (size 15 to 20)
#    0.000    2.000    0.000    2.143    2.000    9.143 
#    0.000    2.857    0.000    0.000    0.000    0.000 
#    0.000    0.000    0.000    0.000    0.000    0.000 
#
# Total GULP energy -78002.332441 kJ/mol
# GULP energy per Si atom -5571.595174 kJ/mol
# Density = 2.200271 g / cm^3
# Si number density = 22.052900 Si / 1000 Ang^3
#
#
#
# Elastic Constant Matrix: (Units=GPa)
#
#
# Indices 1 2 3 4 5 6 
#
# 1 116.8802 44.2512 45.1985 0.0000 -20.0623 0.0000
# 2 44.2512 124.5955 28.1690 0.0000 0.4584 0.0000
# 3 45.1985 28.1690 63.4470 0.0000 -6.1644 0.0000
# 4 0.0000 0.0000 0.0000 21.9678 0.0000 4.3496
# 5 -20.0623 0.4584 -6.1644 0.0000 41.8614 0.0000
# 6 0.0000 0.0000 0.0000 4.3496 0.0000 -3.1236
#
#
#
# Elastic Compliance Matrix: (Units=1/GPa)
#
#
# Indices 1 2 3 4 5 6 
#
# 1 0.013706 -0.003112 -0.007853 0.000000 0.005446 0.000000
# 2 -0.003112 0.009648 -0.002254 0.000000 -0.001929 0.000000
# 3 -0.007853 -0.002254 0.022312 0.000000 -0.000453 0.000000
# 4 0.000000 0.000000 0.000000 0.035683 0.000000 0.049688
# 5 0.005446 -0.001929 -0.000453 0.000000 0.026453 0.000000
# 6 0.000000 0.000000 0.000000 0.049688 0.000000 -0.250952
#
#
# Mechanical properties :
#
#
# Convention : Reuss Voigt Hill
#
# Bulk Modulus (GPa) = 52.00763 60.01780 56.01271
# Shear Modulus (GPa) = -45.32942 24.62806 -10.35068
#
# Velocity S-wave (km/s) = -4.53866 3.34544 -2.16881
# Velocity P-wave (km/s) = 1.95746 6.49593 4.37981
#
# Compressibility (1/GPa) = 0.01922795
#
# Stress axis : x y z
#
# Youngs Moduli (GPa) = 72.96262 103.64855 44.81915
#
# Poissons Ratio (x) = 0.32259 0.35195
# Poissons Ratio (y) = 0.22709 0.10101
# Poissons Ratio (z) = 0.57295 0.23360
#
# Static dielectric constant tensor:
#      x y z
#    x 1.860220 0.000000 0.001830 
#    y 0.000000 1.778450 0.000000 
#    z 0.001830 0.000000 2.080520 
# 
# From -- ./inp_files/11329.got.cif
#   From: 2010.05.17/outbox.cif.g08.bks.cpg/sg3_6_cif.got.tgz:11329.got - 2010.06.03 18:33:08.
