data_PCOD9113322
_publ_section_title
;
Structure prediction by ZEFSAII (Michael W. Deem and Ramdas Pophale) SiO2 
 PCOD9113322
Probable space group: P 2
;
_chemical_formula_sum "Si O2"
_cell_formula_units_Z 16
_cell_length_a 8.047400
_cell_length_b 9.631696
_cell_length_c 16.760893
_cell_angle_alpha 90.000000
_cell_angle_beta 36.064312
_cell_angle_gamma 90.000000
_cell_volume 764.793797
_symmetry_space_group_name_H-M "P 2"
_symmetry_group_IT_number 3
_symmetry_cell_setting 'monoclinic'
loop_
_space_group_symop_operation_xyz
x,y,z
-x,y,-z
loop_
_atom_site_type_symbol
_atom_site_label
_atom_site_fract_x
_atom_site_fract_y
_atom_site_fract_z
Si Si1 0.186377 0.753950 0.848228
Si Si2 0.924894 0.889334 0.389199
Si Si3 0.998425 0.468621 0.131957
Si Si4 0.141900 0.158985 0.359364
Si Si5 0.800444 0.627645 0.652144
Si Si6 0.443831 0.381853 0.833967
Si Si7 0.696463 0.982306 0.314293
Si Si8 0.783666 0.279172 0.350529
O O1 0.040295 0.635006 0.849519
O O2 0.506038 0.702101 0.741441
O O3 0.199212 0.906110 0.805001
O O4 0.000000 0.751855 0.000000
O O5 0.891513 0.925412 0.309961
O O6 0.620115 0.927011 0.545379
O O7 0.023092 0.733865 0.363238
O O8 0.140397 0.993516 0.349196
O O9 0.759209 0.423258 0.160461
O O10 0.943879 0.391167 0.235487
O O11 0.281570 0.414996 0.978680
O O12 0.955353 0.215754 0.358030
O O13 0.000000 0.193100 0.500000
O O14 0.442995 0.229030 0.228104
O O15 0.710463 0.484387 0.726694
O O16 0.000000 0.597819 0.500000
O O17 0.703081 0.148142 0.324001
O O18 0.500000 0.338182 0.500000
#
# Coordination Sequence:
#
# PCOD9113322 Si02
#       8
#     2   2   2   2   2   2   2   2
#     4  11  22  44  65  92 131 173 213 262 318 390
#     4  10  21  39  61  94 125 161 207 273 318 373
#     4  10  22  44  63  88 132 173 213 262 318 390
#     4  11  22  38  64  93 125 162 211 267 321 373
#     4  11  20  36  66  97 124 161 216 271 315 372
#     4  10  22  40  61  89 129 168 212 264 315 383
#     4  10  21  42  63  89 132 164 212 265 324 382
#     4  11  22  42  65  93 128 166 213 269 321 384
#
# _framework density 20.920673000000001
#
# number of rings (size 3 to 8) (size 9 to 14) (size 15 to 20)
#    0.000    1.500    6.250    1.500    0.000    2.500 
#    6.750    0.625    0.000    0.000    0.000    0.000 
#    0.000    0.000    0.000    0.000    0.000    0.000 
#
# Total GULP energy -89361.052256 kJ/mol
# GULP energy per Si atom -5585.065766 kJ/mol
# Density = 2.087306 g / cm^3
# Si number density = 20.920673 Si / 1000 Ang^3
#
#
#
# Elastic Constant Matrix: (Units=GPa)
#
#
# Indices 1 2 3 4 5 6 
#
# 1 42.1984 26.5806 29.5157 0.0000 12.8237 0.0000
# 2 26.5806 66.8822 31.3978 0.0000 7.5444 0.0000
# 3 29.5157 31.3978 112.1960 0.0000 10.8147 0.0000
# 4 0.0000 0.0000 0.0000 24.3222 0.0000 9.9003
# 5 12.8237 7.5444 10.8147 0.0000 27.5011 0.0000
# 6 0.0000 0.0000 0.0000 9.9003 0.0000 20.7271
#
#
#
# Elastic Compliance Matrix: (Units=1/GPa)
#
#
# Indices 1 2 3 4 5 6 
#
# 1 0.038679 -0.011212 -0.005816 0.000000 -0.012673 0.000000
# 2 -0.011212 0.020695 -0.002909 0.000000 0.000695 0.000000
# 3 -0.005816 -0.002909 0.011349 0.000000 -0.000953 0.000000
# 4 0.000000 0.000000 0.000000 0.051038 0.000000 -0.024378
# 5 -0.012673 0.000695 -0.000953 0.000000 0.042456 0.000000
# 6 0.000000 0.000000 0.000000 -0.024378 0.000000 0.059890
#
#
# Mechanical properties :
#
#
# Convention : Reuss Voigt Hill
#
# Bulk Modulus (GPa) = 32.41615 44.02941 38.22278
# Shear Modulus (GPa) = 18.23060 23.42892 20.82976
#
# Velocity S-wave (km/s) = 2.95518 3.35011 3.15882
# Velocity P-wave (km/s) = 5.21273 6.00466 5.62265
#
# Compressibility (1/GPa) = 0.03084882
#
# Stress axis : x y z
#
# Youngs Moduli (GPa) = 25.85352 48.32138 88.11407
#
# Poissons Ratio (x) = 0.54179 0.51249
# Poissons Ratio (y) = 0.28987 0.25630
# Poissons Ratio (z) = 0.15037 0.14055
#
# Static dielectric constant tensor:
#      x y z
#    x 1.780660 0.000000 -0.022410 
#    y 0.000000 1.769390 0.000000 
#    z -0.022410 0.000000 1.726940 
# 
# From -- ./inp_files/7474.got.cif
#   From: 2010.05.17/outbox.cif.g08.bks.cpg/sg3_4_cif.got.tgz:7474.got - 2010.06.03 18:33:08.
