data_PCOD9113133
_publ_section_title
;
Structure prediction by ZEFSAII (Michael W. Deem and Ramdas Pophale) SiO2 
 PCOD9113133
Probable space group: P 2
;
_chemical_formula_sum "Si O2"
_cell_formula_units_Z 13
_cell_length_a 8.376023
_cell_length_b 8.433655
_cell_length_c 8.985400
_cell_angle_alpha 90.000000
_cell_angle_beta 77.173342
_cell_angle_gamma 90.000000
_cell_volume 618.894022
_symmetry_space_group_name_H-M "P 2"
_symmetry_group_IT_number 3
_symmetry_cell_setting 'monoclinic'
loop_
_space_group_symop_operation_xyz
x,y,z
-x,y,-z
loop_
_atom_site_type_symbol
_atom_site_label
_atom_site_fract_x
_atom_site_fract_y
_atom_site_fract_z
Si Si1 0.821769 0.513200 0.120103
Si Si2 0.951341 0.464564 0.663018
Si Si3 0.171603 0.809468 0.423802
Si Si4 0.553538 0.975524 0.828482
Si Si5 0.734664 0.257592 0.917802
Si Si6 0.000000 0.016006 0.000000
Si Si7 0.749333 0.838203 0.252212
O O1 0.729156 0.677787 0.160412
O O2 0.886649 0.469080 0.269683
O O3 0.715590 0.381496 0.057934
O O4 0.000000 0.533098 0.000000
O O5 0.882066 0.640381 0.637662
O O6 0.818771 0.366243 0.777587
O O7 0.000000 0.384971 0.500000
O O8 0.292830 0.894447 0.284557
O O9 0.248528 0.796868 0.573479
O O10 0.000000 0.895223 0.500000
O O11 0.398083 0.955886 0.754648
O O12 0.599825 0.154968 0.860720
O O13 0.500000 0.903779 0.000000
O O14 0.861853 0.127371 0.956213
O O15 0.084731 0.913111 0.851921
#
# Coordination Sequence:
#
# PCOD9113133 Si02
#       7
#     2   2   2   2   2   1   2
#     4  10  20  40  70 107 136 186 241 298 349 425
#     4  10  20  40  72 109 136 175 248 297 356 423
#     4  11  24  46  75 109 139 185 248 298 357 427
#     4  12  28  46  66 109 147 193 236 296 366 426
#     4  11  24  42  65 104 146 185 241 291 366 429
#     4  12  22  40  72 104 142 194 232 300 352 430
#     4  12  24  43  75 102 151 182 250 292 364 417
#
# _framework density 21.005212
#
# number of rings (size 3 to 8) (size 9 to 14) (size 15 to 20)
#    0.000    0.923    7.692    1.385    4.308    1.846 
#    2.769    0.000    0.000    0.000    0.000    0.000 
#    0.000    0.000    0.000    0.000    0.000    0.000 
#
# Total GULP energy -72514.391876 kJ/mol
# GULP energy per Si atom -5578.030144 kJ/mol
# Density = 2.095740 g / cm^3
# Si number density = 21.005212 Si / 1000 Ang^3
#
#
#
# Elastic Constant Matrix: (Units=GPa)
#
#
# Indices 1 2 3 4 5 6 
#
# 1 69.3284 41.3077 30.4963 0.0000 2.5686 0.0000
# 2 41.3077 117.3674 53.8275 0.0000 3.2504 0.0000
# 3 30.4963 53.8275 147.6353 0.0000 -2.9795 0.0000
# 4 0.0000 0.0000 0.0000 15.7236 0.0000 8.7835
# 5 2.5686 3.2504 -2.9795 0.0000 43.1928 0.0000
# 6 0.0000 0.0000 0.0000 8.7835 0.0000 40.7134
#
#
#
# Elastic Compliance Matrix: (Units=1/GPa)
#
#
# Indices 1 2 3 4 5 6 
#
# 1 0.018648 -0.005724 -0.001781 0.000000 -0.000801 0.000000
# 2 -0.005724 0.012034 -0.003221 0.000000 -0.000787 0.000000
# 3 -0.001781 -0.003221 0.008334 0.000000 0.000923 0.000000
# 4 0.000000 0.000000 0.000000 0.072313 0.000000 -0.015601
# 5 -0.000801 -0.000787 0.000923 0.000000 0.023323 0.000000
# 6 0.000000 0.000000 0.000000 -0.015601 0.000000 0.027928
#
#
# Mechanical properties :
#
#
# Convention : Reuss Voigt Hill
#
# Bulk Modulus (GPa) = 56.93599 65.06600 61.00099
# Shear Modulus (GPa) = 26.33147 33.83928 30.08537
#
# Velocity S-wave (km/s) = 3.54442 4.01807 3.78866
# Velocity P-wave (km/s) = 6.62684 7.25051 6.94568
#
# Compressibility (1/GPa) = 0.01756358
#
# Stress axis : x y z
#
# Youngs Moduli (GPa) = 53.62543 83.09849 119.98481
#
# Poissons Ratio (x) = 0.47566 0.21371
# Poissons Ratio (y) = 0.30696 0.38647
# Poissons Ratio (z) = 0.09552 0.26766
#
# Static dielectric constant tensor:
#      x y z
#    x 1.818000 0.000000 -0.016220 
#    y 0.000000 1.758890 0.000000 
#    z -0.016220 0.000000 1.852480 
# 
# From -- ./inp_files/5275.got.cif
#   From: 2010.05.17/outbox.cif.g08.bks.cpg/sg3_3_cif.got.tgz:5275.got - 2010.06.03 18:33:08.
