data_PCOD9113899
_publ_section_title
;
Structure prediction by ZEFSAII (Michael W. Deem and Ramdas Pophale) SiO2 
 PCOD9113899
Probable space group: P 2
;
_chemical_formula_sum "Si O2"
_cell_formula_units_Z 13
_cell_length_a 7.893864
_cell_length_b 14.482530
_cell_length_c 5.519957
_cell_angle_alpha 90.000000
_cell_angle_beta 120.584025
_cell_angle_gamma 90.000000
_cell_volume 543.268305
_symmetry_space_group_name_H-M "P 2"
_symmetry_group_IT_number 3
_symmetry_cell_setting 'monoclinic'
loop_
_space_group_symop_operation_xyz
x,y,z
-x,y,-z
loop_
_atom_site_type_symbol
_atom_site_label
_atom_site_fract_x
_atom_site_fract_y
_atom_site_fract_z
Si Si1 0.709439 0.603740 0.782700
Si Si2 0.785650 0.171466 0.498688
Si Si3 0.177155 0.777427 0.437904
Si Si4 0.874781 0.438367 0.190151
Si Si5 0.500000 0.306226 0.000000
Si Si6 0.500000 0.722117 0.000000
Si Si7 0.885080 0.979691 0.674590
Si Si8 0.000000 0.278148 0.000000
O O1 0.500000 0.582901 0.500000
O O2 0.819142 0.681540 0.706044
O O3 0.816755 0.511912 0.943025
O O4 0.657193 0.655933 0.991663
O O5 0.619467 0.234912 0.259576
O O6 0.824725 0.211703 0.797260
O O7 0.000000 0.175533 0.500000
O O8 0.738736 0.063316 0.498771
O O9 0.172810 0.874970 0.298275
O O10 0.000000 0.773496 0.500000
O O11 0.387126 0.780495 0.722746
O O12 0.673140 0.380258 0.069819
O O13 0.000000 0.484302 0.500000
O O14 0.013192 0.352356 0.223420
O O15 0.000000 0.968773 0.500000
O O16 0.000000 0.012725 0.000000
#
# Coordination Sequence:
#
# PCOD9113899 Si02
#       8
#     2   2   2   2   1   1   2   1
#     4  10  25  46  70 103 144 194 246 307 367 441
#     4  11  23  46  70 106 147 183 239 303 376 439
#     4  10  24  45  73 104 141 194 248 309 372 439
#     4  12  27  46  67 102 143 188 243 300 367 445
#     4  12  23  45  72 104 146 188 241 301 372 446
#     4  10  23  45  68 100 150 180 241 309 362 440
#     4  10  23  43  75 109 148 192 247 308 379 453
#     4  12  22  44  68  96 140 192 226 306 358 440
#
# _framework density 23.929245999999999
#
# number of rings (size 3 to 8) (size 9 to 14) (size 15 to 20)
#    0.000    1.231    3.846    0.462    6.462    4.923 
#    0.000    2.308   10.154    0.000    0.000    0.000 
#    0.000    0.000    0.000    0.000    0.000    0.000 
#
# Total GULP energy -72397.029873 kJ/mol
# GULP energy per Si atom -5569.002298 kJ/mol
# Density = 2.387478 g / cm^3
# Si number density = 23.929246 Si / 1000 Ang^3
#
#
#
# Elastic Constant Matrix: (Units=GPa)
#
#
# Indices 1 2 3 4 5 6 
#
# 1 56.7825 45.7281 11.0039 0.0000 7.0057 0.0000
# 2 45.7281 214.8768 74.5298 0.0000 19.1243 0.0000
# 3 11.0039 74.5298 145.6621 0.0000 18.2380 0.0000
# 4 0.0000 0.0000 0.0000 44.1365 0.0000 -4.3241
# 5 7.0057 19.1243 18.2380 0.0000 32.2767 0.0000
# 6 0.0000 0.0000 0.0000 -4.3241 0.0000 -17.7324
#
#
#
# Elastic Compliance Matrix: (Units=1/GPa)
#
#
# Indices 1 2 3 4 5 6 
#
# 1 0.021524 -0.004745 0.001114 0.000000 -0.002489 0.000000
# 2 -0.004745 0.006808 -0.002958 0.000000 -0.001332 0.000000
# 3 0.001114 -0.002958 0.008723 0.000000 -0.003418 0.000000
# 4 0.000000 0.000000 0.000000 0.022128 0.000000 -0.005396
# 5 -0.002489 -0.001332 -0.003418 0.000000 0.034243 0.000000
# 6 0.000000 0.000000 0.000000 -0.005396 0.000000 -0.055078
#
#
# Mechanical properties :
#
#
# Convention : Reuss Voigt Hill
#
# Bulk Modulus (GPa) = 41.88459 75.53833 58.71146
# Shear Modulus (GPa) = 84.05349 30.80681 57.43015
#
# Velocity S-wave (km/s) = 5.93314 3.59195 4.90429
# Velocity P-wave (km/s) = 8.02980 6.98847 7.52716
#
# Compressibility (1/GPa) = 0.02387513
#
# Stress axis : x y z
#
# Youngs Moduli (GPa) = 46.46018 146.87915 114.64451
#
# Poissons Ratio (x) = 0.69697 -0.12767
# Poissons Ratio (y) = 0.22046 0.33915
# Poissons Ratio (z) = -0.05174 0.43451
#
# Static dielectric constant tensor:
#      x y z
#    x 2.206490 0.000000 -0.282070 
#    y 0.000000 1.891610 0.000000 
#    z -0.282070 0.000000 2.408590 
# 
# From -- ./inp_files/1631.got.cif
#   From: 2010.05.17/outbox.cif.g08.bks.cpg/sg3_1_cif.got.tgz:1631.got - 2010.06.03 18:33:08.
