data_PCOD9113595
_publ_section_title
;
Structure prediction by ZEFSAII (Michael W. Deem and Ramdas Pophale) SiO2 
 PCOD9113595
Probable space group: P 2
;
_chemical_formula_sum "Si O2"
_cell_formula_units_Z 14
_cell_length_a 15.812045
_cell_length_b 5.228368
_cell_length_c 11.284602
_cell_angle_alpha 90.000000
_cell_angle_beta 136.686361
_cell_angle_gamma 90.000000
_cell_volume 639.969415
_symmetry_space_group_name_H-M "P 2"
_symmetry_group_IT_number 3
_symmetry_cell_setting 'monoclinic'
loop_
_space_group_symop_operation_xyz
x,y,z
-x,y,-z
loop_
_atom_site_type_symbol
_atom_site_label
_atom_site_fract_x
_atom_site_fract_y
_atom_site_fract_z
Si Si1 0.921551 0.013580 0.214692
Si Si2 0.796624 0.993939 0.529834
Si Si3 0.671926 0.007677 0.864397
Si Si4 0.657296 0.500907 0.454034
Si Si5 0.000000 0.392481 0.500000
Si Si6 0.408880 0.504818 0.083264
Si Si7 0.500000 0.261741 0.500000
Si Si8 0.781539 0.725612 0.277383
O O1 0.943470 0.238109 0.332410
O O2 0.856591 0.810927 0.236392
O O3 0.819145 0.047338 0.009134
O O4 0.057199 0.956539 0.306616
O O5 0.723855 0.772085 0.524546
O O6 0.765257 0.945555 0.358089
O O7 0.749935 0.268707 0.523474
O O8 0.632639 0.217968 0.924406
O O9 0.593636 0.089983 0.671610
O O10 0.637076 0.721084 0.868891
O O11 0.555456 0.509693 0.245462
O O12 0.579875 0.431727 0.491713
O O13 0.115991 0.540482 0.562747
O O14 0.341682 0.595021 0.895617
#
# Coordination Sequence:
#
# PCOD9113595 Si02
#       8
#     2   2   2   2   1   2   1   2
#     4  11  22  37  63 102 135 175 207 249 317 399
#     4  12  24  40  64 101 136 168 210 263 322 389
#     4  10  22  39  73  95 119 164 228 271 309 389
#     4  11  26  43  67  91 125 172 223 278 323 373
#     4  12  16  36  62  94 140 178 206 230 314 382
#     4  10  22  41  62  98 126 168 223 257 313 388
#     4  10  24  52  72  86 118 174 228 282 338 364
#     4  11  22  36  64  95 140 178 204 249 315 395
#
# _framework density 21.876044
#
# number of rings (size 3 to 8) (size 9 to 14) (size 15 to 20)
#    0.000    1.143    4.286    2.571    0.000    5.714 
#    0.000    6.429    0.000    5.143    0.000    0.000 
#    0.000    0.000    0.000    0.000    0.000    0.000 
#
# Total GULP energy -78204.722629 kJ/mol
# GULP energy per Si atom -5586.051616 kJ/mol
# Density = 2.182625 g / cm^3
# Si number density = 21.876044 Si / 1000 Ang^3
#
#
#
# Elastic Constant Matrix: (Units=GPa)
#
#
# Indices 1 2 3 4 5 6 
#
# 1 91.7701 6.2586 28.4474 0.0000 6.9380 0.0000
# 2 6.2586 60.7935 -2.3432 0.0000 6.9311 0.0000
# 3 28.4474 -2.3432 124.6825 0.0000 3.2494 0.0000
# 4 0.0000 0.0000 0.0000 5.7471 0.0000 8.2185
# 5 6.9380 6.9311 3.2494 0.0000 19.5431 0.0000
# 6 0.0000 0.0000 0.0000 8.2185 0.0000 28.2958
#
#
#
# Elastic Compliance Matrix: (Units=1/GPa)
#
#
# Indices 1 2 3 4 5 6 
#
# 1 0.012056 -0.000945 -0.002677 0.000000 -0.003499 0.000000
# 2 -0.000945 0.017245 0.000693 0.000000 -0.005896 0.000000
# 3 -0.002677 0.000693 0.008663 0.000000 -0.000736 0.000000
# 4 0.000000 0.000000 0.000000 0.297613 0.000000 -0.086442
# 5 -0.003499 -0.005896 -0.000736 0.000000 0.054625 0.000000
# 6 0.000000 0.000000 0.000000 -0.086442 0.000000 0.060448
#
#
# Mechanical properties :
#
#
# Convention : Reuss Voigt Hill
#
# Bulk Modulus (GPa) = 31.14649 37.99686 34.57168
# Shear Modulus (GPa) = 10.70181 27.04275 18.87228
#
# Velocity S-wave (km/s) = 2.21419 3.51975 2.94035
# Velocity P-wave (km/s) = 4.56130 5.82452 5.23118
#
# Compressibility (1/GPa) = 0.03210634
#
# Stress axis : x y z
#
# Youngs Moduli (GPa) = 82.94818 57.98657 115.42805
#
# Poissons Ratio (x) = 0.05482 0.30902
# Poissons Ratio (y) = 0.07841 -0.08004
# Poissons Ratio (z) = 0.22207 -0.04021
#
# Static dielectric constant tensor:
#      x y z
#    x 1.849940 0.000000 0.018060 
#    y 0.000000 1.852070 0.000000 
#    z 0.018060 0.000000 1.862300 
# 
# From -- ./inp_files/8101.got.cif
#   From: 2010.05.17/outbox.cif.g08.bks.cpg/sg3_5_cif.got.tgz:8101.got - 2010.06.03 18:33:08.
