data_PCOD9113995
_publ_section_title
;
Structure prediction by ZEFSAII (Michael W. Deem and Ramdas Pophale) SiO2 
 PCOD9113995
Probable space group: P 2
;
_chemical_formula_sum "Si O2"
_cell_formula_units_Z 8
_cell_length_a 15.417686
_cell_length_b 5.051588
_cell_length_c 8.083906
_cell_angle_alpha 90.000000
_cell_angle_beta 150.086656
_cell_angle_gamma 90.000000
_cell_volume 313.977629
_symmetry_space_group_name_H-M "P 2"
_symmetry_group_IT_number 3
_symmetry_cell_setting 'monoclinic'
loop_
_space_group_symop_operation_xyz
x,y,z
-x,y,-z
loop_
_atom_site_type_symbol
_atom_site_label
_atom_site_fract_x
_atom_site_fract_y
_atom_site_fract_z
Si Si1 0.514492 0.465310 0.244409
Si Si2 0.819774 0.775564 0.649358
Si Si3 0.725074 0.967573 0.154458
Si Si4 0.691014 0.098873 0.754627
O O1 0.658587 0.578419 0.358697
O O2 0.639744 0.392772 0.608603
O O3 0.367853 0.684626 0.029167
O O4 0.421728 0.189182 0.049642
O O5 0.836680 0.933307 0.505129
O O6 0.765678 0.957175 0.716364
O O7 0.000000 0.643067 0.000000
O O8 0.800855 0.065121 0.103552
O O9 0.500000 0.997199 0.500000
#
# Coordination Sequence:
#
# PCOD9113995 Si02
#       4
#     2   2   2   2
#     4  11  24  45  76 112 136 198 251 300 355 453
#     4  12  28  47  74 115 157 188 244 318 382 428
#     4  11  27  45  79 107 146 197 255 298 366 445
#     4  10  24  43  78 104 142 192 257 295 356 445
#
# _framework density 25.479520999999998
#
# number of rings (size 3 to 8) (size 9 to 14) (size 15 to 20)
#    0.000    1.000    5.000    0.750   17.500    2.000 
#    0.000    0.000    0.000    0.000    0.000    0.000 
#    0.000    0.000    0.000    0.000    0.000    0.000 
#
# Total GULP energy -44656.183929 kJ/mol
# GULP energy per Si atom -5582.022991 kJ/mol
# Density = 2.542153 g / cm^3
# Si number density = 25.479521 Si / 1000 Ang^3
#
#
#
# Elastic Constant Matrix: (Units=GPa)
#
#
# Indices 1 2 3 4 5 6 
#
# 1 123.7679 18.2420 33.7016 0.0000 -53.7907 0.0000
# 2 18.2420 100.6087 23.5855 0.0000 -12.9552 0.0000
# 3 33.7016 23.5855 122.5496 0.0000 -25.4012 0.0000
# 4 0.0000 0.0000 0.0000 19.7085 0.0000 -18.5191
# 5 -53.7907 -12.9552 -25.4012 0.0000 59.9808 0.0000
# 6 0.0000 0.0000 0.0000 -18.5191 0.0000 36.0817
#
#
#
# Elastic Compliance Matrix: (Units=1/GPa)
#
#
# Indices 1 2 3 4 5 6 
#
# 1 0.013475 -0.000690 -0.001205 0.000000 0.011425 0.000000
# 2 -0.000690 0.010575 -0.001645 0.000000 0.000969 0.000000
# 3 -0.001205 -0.001645 0.009329 0.000000 0.002515 0.000000
# 4 0.000000 0.000000 0.000000 0.098007 0.000000 0.050302
# 5 0.011425 0.000969 0.002515 0.000000 0.028192 0.000000
# 6 0.000000 0.000000 0.000000 0.050302 0.000000 0.053533
#
#
# Mechanical properties :
#
#
# Convention : Reuss Voigt Hill
#
# Bulk Modulus (GPa) = 38.02195 55.33162 46.67679
# Shear Modulus (GPa) = 21.83830 41.24733 31.54281
#
# Velocity S-wave (km/s) = 2.93079 4.02785 3.52229
# Velocity P-wave (km/s) = 5.13884 6.58746 5.90772
#
# Compressibility (1/GPa) = 0.02630059
#
# Stress axis : x y z
#
# Youngs Moduli (GPa) = 74.21291 94.56362 107.19113
#
# Poissons Ratio (x) = 0.06521 0.12914
# Poissons Ratio (y) = 0.05118 0.17630
# Poissons Ratio (z) = 0.08941 0.15553
#
# Static dielectric constant tensor:
#      x y z
#    x 2.108540 0.000000 -0.125830 
#    y 0.000000 1.976310 0.000000 
#    z -0.125830 0.000000 2.098010 
# 
# From -- ./inp_files/4888.got.cif
#   From: 2010.05.17/outbox.cif.g08.bks.cpg/sg3_3_cif.got.tgz:4888.got - 2010.06.03 18:33:08.
