data_PCOD9113267
_publ_section_title
;
Structure prediction by ZEFSAII (Michael W. Deem and Ramdas Pophale) SiO2 
 PCOD9113267
Probable space group: P 2
;
_chemical_formula_sum "Si O2"
_cell_formula_units_Z 16
_cell_length_a 8.623966
_cell_length_b 9.419753
_cell_length_c 20.271378
_cell_angle_alpha 90.000000
_cell_angle_beta 150.160145
_cell_angle_gamma 90.000000
_cell_volume 819.389739
_symmetry_space_group_name_H-M "P 2"
_symmetry_group_IT_number 3
_symmetry_cell_setting 'monoclinic'
loop_
_space_group_symop_operation_xyz
x,y,z
-x,y,-z
loop_
_atom_site_type_symbol
_atom_site_label
_atom_site_fract_x
_atom_site_fract_y
_atom_site_fract_z
Si Si1 0.742950 0.464940 0.774602
Si Si2 0.281261 0.635189 0.698496
Si Si3 0.224190 0.655311 0.018712
Si Si4 0.373759 0.962767 0.027247
Si Si5 0.552672 0.636567 0.442115
Si Si6 0.249423 0.128562 0.212659
Si Si7 0.720341 0.967416 0.292120
Si Si8 0.550495 0.964648 0.440255
O O1 0.473296 0.537858 0.719665
O O2 0.664921 0.524474 0.674069
O O3 0.742140 0.297457 0.781106
O O4 0.064516 0.532100 0.918508
O O5 0.332013 0.803614 0.704759
O O6 0.915642 0.607833 0.561313
O O7 0.439175 0.614075 0.828311
O O8 0.247506 0.801835 0.988110
O O9 0.000000 0.679486 0.000000
O O10 0.622307 0.977742 0.178755
O O11 0.500000 0.983496 0.000000
O O12 0.087215 0.069309 0.932368
O O13 0.500000 0.630771 0.500000
O O14 0.487652 0.800025 0.397880
O O15 0.502553 0.067966 0.254772
O O16 0.338910 0.063228 0.316851
O O17 0.084658 0.996138 0.436962
O O18 0.500000 0.978975 0.500000
#
# Coordination Sequence:
#
# PCOD9113267 Si02
#       8
#     2   2   2   2   2   2   2   2
#     4  11  23  37  57  85 118 154 189 231 285 345
#     4   9  19  37  60  85 110 144 195 245 284 329
#     4   9  19  38  62  87 111 144 194 245 287 335
#     4  11  22  39  63  89 115 148 192 245 294 339
#     4  10  21  38  60  85 113 148 193 241 288 336
#     4  12  24  38  57  86 122 158 193 231 285 353
#     4  10  21  38  62  88 113 150 199 246 287 335
#     4  10  21  39  63  89 116 150 195 246 292 338
#
# _framework density 19.526727000000001
#
# number of rings (size 3 to 8) (size 9 to 14) (size 15 to 20)
#    0.000    1.750    0.000    5.625    0.000   11.500 
#    0.000    3.125    0.000    0.000    0.000    0.000 
#    0.000    0.000    0.000    0.000    0.000    0.000 
#
# Total GULP energy -89419.364292 kJ/mol
# GULP energy per Si atom -5588.710268 kJ/mol
# Density = 1.948228 g / cm^3
# Si number density = 19.526727 Si / 1000 Ang^3
#
#
#
# Elastic Constant Matrix: (Units=GPa)
#
#
# Indices 1 2 3 4 5 6 
#
# 1 39.7456 12.7265 -8.8881 0.0000 -11.0014 0.0000
# 2 12.7265 95.4222 38.7711 0.0000 -5.2840 0.0000
# 3 -8.8881 38.7711 60.1521 0.0000 -8.0677 0.0000
# 4 0.0000 0.0000 0.0000 -17.8502 0.0000 10.7541
# 5 -11.0014 -5.2840 -8.0677 0.0000 20.3059 0.0000
# 6 0.0000 0.0000 0.0000 10.7541 0.0000 -15.1169
#
#
#
# Elastic Compliance Matrix: (Units=1/GPa)
#
#
# Indices 1 2 3 4 5 6 
#
# 1 0.038625 -0.010092 0.015492 0.000000 0.024455 0.000000
# 2 -0.010092 0.016835 -0.013191 0.000000 -0.006327 0.000000
# 3 0.015492 -0.013191 0.029662 0.000000 0.016745 0.000000
# 4 0.000000 0.000000 0.000000 -0.098041 0.000000 -0.069746
# 5 0.024455 -0.006327 0.016745 0.000000 0.067503 0.000000
# 6 0.000000 0.000000 0.000000 -0.069746 0.000000 -0.115768
#
#
# Mechanical properties :
#
#
# Convention : Reuss Voigt Hill
#
# Bulk Modulus (GPa) = 14.38018 31.17099 22.77558
# Shear Modulus (GPa) = -222.97331 7.64847 -107.66242
#
# Velocity S-wave (km/s) = -10.69751 1.98127 -7.43341
# Velocity P-wave (km/s) = 12.04997 4.60780 7.87306
#
# Compressibility (1/GPa) = 0.06954016
#
# Stress axis : x y z
#
# Youngs Moduli (GPa) = 25.89005 59.40082 33.71367
#
# Poissons Ratio (x) = 0.59945 -0.52229
# Poissons Ratio (y) = 0.26127 0.44471
# Poissons Ratio (z) = -0.40108 0.78354
#
# Static dielectric constant tensor:
#      x y z
#    x 1.707260 0.000000 -0.024200 
#    y 0.000000 1.636400 0.000000 
#    z -0.024200 0.000000 1.706340 
# 
# From -- ./inp_files/9469.got.cif
#   From: 2010.05.17/outbox.cif.g08.bks.cpg/sg3_5_cif.got.tgz:9469.got - 2010.06.03 18:33:08.
