data_PCOD9113327
_publ_section_title
;
Structure prediction by ZEFSAII (Michael W. Deem and Ramdas Pophale) SiO2 
 PCOD9113327
Probable space group: P 2
;
_chemical_formula_sum "Si O2"
_cell_formula_units_Z 14
_cell_length_a 13.874006
_cell_length_b 8.932220
_cell_length_c 5.370900
_cell_angle_alpha 90.000000
_cell_angle_beta 103.239467
_cell_angle_gamma 90.000000
_cell_volume 647.901872
_symmetry_space_group_name_H-M "P 2"
_symmetry_group_IT_number 3
_symmetry_cell_setting 'monoclinic'
loop_
_space_group_symop_operation_xyz
x,y,z
-x,y,-z
loop_
_atom_site_type_symbol
_atom_site_label
_atom_site_fract_x
_atom_site_fract_y
_atom_site_fract_z
Si Si1 0.393597 0.339700 0.894358
Si Si2 0.881650 0.999314 0.420155
Si Si3 0.881926 0.811194 0.923835
Si Si4 0.249740 0.519342 0.122004
Si Si5 0.563277 0.726807 0.787469
Si Si6 0.597855 0.058448 0.737110
Si Si7 0.255018 0.236616 0.446299
O O1 0.363178 0.296092 0.601637
O O2 0.500000 0.412091 0.000000
O O3 0.294908 0.430871 0.911590
O O4 0.404829 0.189012 0.060468
O O5 0.860625 0.886604 0.641109
O O6 0.000000 0.029362 0.500000
O O7 0.821794 0.155685 0.415837
O O8 0.857657 0.918896 0.144404
O O9 0.830129 0.650549 0.936209
O O10 0.000000 0.789505 0.000000
O O11 0.350350 0.611774 0.236958
O O12 0.215827 0.381541 0.277308
O O13 0.500000 0.732240 0.500000
O O14 0.604287 0.893849 0.854249
O O15 0.500000 0.699992 0.000000
O O16 0.500000 0.060950 0.500000
O O17 0.703020 0.094395 0.676505
#
# Coordination Sequence:
#
# PCOD9113327 Si02
#       7
#     2   2   2   2   2   2   2
#     4  11  23  40  63  90 141 181 226 271 339 397
#     4  10  24  48  76 101 132 174 229 288 342 409
#     4  10  24  49  75 101 134 176 224 287 350 407
#     4  11  27  40  65 100 134 184 219 282 342 421
#     4  11  26  41  64  94 132 176 231 283 333 397
#     4  10  21  39  62  92 126 177 235 283 326 394
#     4  11  25  41  66 100 133 184 223 284 339 410
#
# _framework density 21.608212999999999
#
# number of rings (size 3 to 8) (size 9 to 14) (size 15 to 20)
#    0.000    1.429    1.429    1.714   14.000    0.000 
#    2.571    0.000    0.000    0.000    0.000    0.000 
#    0.000    0.000    0.000    0.000    0.000    0.000 
#
# Total GULP energy -77943.029715 kJ/mol
# GULP energy per Si atom -5567.359265 kJ/mol
# Density = 2.155903 g / cm^3
# Si number density = 21.608213 Si / 1000 Ang^3
#
#
#
# Elastic Constant Matrix: (Units=GPa)
#
#
# Indices 1 2 3 4 5 6 
#
# 1 95.7463 67.6625 30.9174 0.0000 -13.9588 0.0000
# 2 67.6625 149.6043 22.5904 0.0000 -13.4061 0.0000
# 3 30.9174 22.5904 71.3862 0.0000 -8.3948 0.0000
# 4 0.0000 0.0000 0.0000 274.9795 0.0000 -14.2531
# 5 -13.9588 -13.4061 -8.3948 0.0000 24.3817 0.0000
# 6 0.0000 0.0000 0.0000 -14.2531 0.0000 41.9723
#
#
#
# Elastic Compliance Matrix: (Units=1/GPa)
#
#
# Indices 1 2 3 4 5 6 
#
# 1 0.017461 -0.006747 -0.004886 0.000000 0.004605 0.000000
# 2 -0.006747 0.009879 -0.000020 0.000000 0.001562 0.000000
# 3 -0.004886 -0.000020 0.016467 0.000000 0.002861 0.000000
# 4 0.000000 0.000000 0.000000 0.003702 0.000000 0.001257
# 5 0.004605 0.001562 0.002861 0.000000 0.045495 0.000000
# 6 0.000000 0.000000 0.000000 0.001257 0.000000 0.024252
#
#
# Mechanical properties :
#
#
# Convention : Reuss Voigt Hill
#
# Bulk Modulus (GPa) = 48.77808 62.11972 55.44890
# Shear Modulus (GPa) = 33.92221 81.30445 57.61333
#
# Velocity S-wave (km/s) = 3.96646 6.14071 5.16920
# Velocity P-wave (km/s) = 6.60303 8.89316 7.83225
#
# Compressibility (1/GPa) = 0.02050101
#
# Stress axis : x y z
#
# Youngs Moduli (GPa) = 57.26983 101.22670 60.72628
#
# Poissons Ratio (x) = 0.68296 0.29670
# Poissons Ratio (y) = 0.38639 0.00124
# Poissons Ratio (z) = 0.27981 0.00207
#
# Static dielectric constant tensor:
#      x y z
#    x 1.772960 0.000000 -0.139390 
#    y 0.000000 1.852790 0.000000 
#    z -0.139390 0.000000 1.742690 
# 
# From -- ./inp_files/2234.got.cif
#   From: 2010.05.17/outbox.cif.g08.bks.cpg/sg3_2_cif.got.tgz:2234.got - 2010.06.03 18:33:08.
