data_PCOD9113915
_publ_section_title
;
Structure prediction by ZEFSAII (Michael W. Deem and Ramdas Pophale) SiO2 
 PCOD9113915
Probable space group: P 2
;
_chemical_formula_sum "Si O2"
_cell_formula_units_Z 14
_cell_length_a 8.443212
_cell_length_b 5.815211
_cell_length_c 20.460502
_cell_angle_alpha 90.000000
_cell_angle_beta 144.498960
_cell_angle_gamma 90.000000
_cell_volume 583.384041
_symmetry_space_group_name_H-M "P 2"
_symmetry_group_IT_number 3
_symmetry_cell_setting 'monoclinic'
loop_
_space_group_symop_operation_xyz
x,y,z
-x,y,-z
loop_
_atom_site_type_symbol
_atom_site_label
_atom_site_fract_x
_atom_site_fract_y
_atom_site_fract_z
Si Si1 0.009348 0.142910 0.602949
Si Si2 0.785237 0.379370 0.204331
Si Si3 0.106941 0.111074 0.212068
Si Si4 0.435610 0.762832 0.785886
Si Si5 0.495426 0.813090 0.576418
Si Si6 0.584153 0.441943 0.338171
Si Si7 0.213793 0.111901 0.023823
O O1 0.013816 0.266021 0.674398
O O2 0.142703 0.331443 0.600592
O O3 0.226479 0.938188 0.682216
O O4 0.727132 0.019357 0.491737
O O5 0.724807 0.632340 0.210075
O O6 0.489227 0.257248 0.105279
O O7 0.932491 0.313488 0.187624
O O8 0.375786 0.234851 0.276549
O O9 0.219759 0.914343 0.299046
O O10 0.925631 0.034645 0.090144
O O11 0.523737 0.595791 0.757884
O O12 0.683407 0.895657 0.900465
O O13 0.500000 0.756006 0.500000
O O14 0.408732 0.599814 0.594126
O O15 0.000000 0.237745 0.000000
#
# Coordination Sequence:
#
# PCOD9113915 Si02
#       7
#     2   2   2   2   2   2   2
#     4  10  23  48  72 106 147 191 251 313 367 444
#     4  10  23  44  72 105 144 189 240 307 386 447
#     4  12  26  45  71 110 150 193 245 316 381 449
#     4  10  23  45  75 104 142 196 244 310 372 457
#     4  12  27  47  76 110 154 204 252 317 385 449
#     4  11  26  45  76 110 146 197 259 306 378 462
#     4  11  23  44  71 102 144 191 246 308 370 453
#
# _framework density 23.997914000000002
#
# number of rings (size 3 to 8) (size 9 to 14) (size 15 to 20)
#    0.000    1.143    1.429    4.714    2.000    9.143 
#    0.000    5.714    0.000    0.000    0.000    0.000 
#    0.000    0.000    0.000    0.000    0.000    0.000 
#
# Total GULP energy -78338.047432 kJ/mol
# GULP energy per Si atom -5595.574817 kJ/mol
# Density = 2.394329 g / cm^3
# Si number density = 23.997914 Si / 1000 Ang^3
#
#
#
# Elastic Constant Matrix: (Units=GPa)
#
#
# Indices 1 2 3 4 5 6 
#
# 1 105.0835 14.2831 34.6676 0.0000 -16.3761 0.0000
# 2 14.2831 62.3610 38.5884 0.0000 -7.6802 0.0000
# 3 34.6676 38.5884 176.0911 0.0000 -19.4717 0.0000
# 4 0.0000 0.0000 0.0000 7.2611 0.0000 3.7394
# 5 -16.3761 -7.6802 -19.4717 0.0000 32.4112 0.0000
# 6 0.0000 0.0000 0.0000 3.7394 0.0000 10.2632
#
#
#
# Elastic Compliance Matrix: (Units=1/GPa)
#
#
# Indices 1 2 3 4 5 6 
#
# 1 0.010806 -0.001064 -0.001412 0.000000 0.004359 0.000000
# 2 -0.001064 0.018790 -0.003722 0.000000 0.001678 0.000000
# 3 -0.001412 -0.003722 0.007066 0.000000 0.002649 0.000000
# 4 0.000000 0.000000 0.000000 0.169532 0.000000 -0.061769
# 5 0.004359 0.001678 0.002649 0.000000 0.035045 0.000000
# 6 0.000000 0.000000 0.000000 -0.061769 0.000000 0.119941
#
#
# Mechanical properties :
#
#
# Convention : Reuss Voigt Hill
#
# Bulk Modulus (GPa) = 41.21422 57.62378 49.41900
# Shear Modulus (GPa) = 13.10050 27.05352 20.07701
#
# Velocity S-wave (km/s) = 2.33899 3.36121 2.89557
# Velocity P-wave (km/s) = 4.95034 6.25522 5.64064
#
# Compressibility (1/GPa) = 0.02426347
#
# Stress axis : x y z
#
# Youngs Moduli (GPa) = 92.54001 53.22114 141.53160
#
# Poissons Ratio (x) = 0.05664 0.19987
# Poissons Ratio (y) = 0.09849 0.52684
# Poissons Ratio (z) = 0.13068 0.19811
#
# Static dielectric constant tensor:
#      x y z
#    x 1.940960 0.000000 -0.029730 
#    y 0.000000 1.938020 0.000000 
#    z -0.029730 0.000000 1.922350 
# 
# From -- ./inp_files/15678.got.cif
#   From: 2010.05.17/outbox.cif.g08.bks.cpg/sg3_8_cif.got.tgz:15678.got - 2010.06.03 18:33:08.
