data_PCOD9113615
_publ_section_title
;
Structure prediction by ZEFSAII (Michael W. Deem and Ramdas Pophale) SiO2 
 PCOD9113615
Probable space group: P 2
;
_chemical_formula_sum "Si O2"
_cell_formula_units_Z 15
_cell_length_a 8.422481
_cell_length_b 11.337697
_cell_length_c 8.770325
_cell_angle_alpha 90.000000
_cell_angle_beta 119.740555
_cell_angle_gamma 90.000000
_cell_volume 727.177901
_symmetry_space_group_name_H-M "P 2"
_symmetry_group_IT_number 3
_symmetry_cell_setting 'monoclinic'
loop_
_space_group_symop_operation_xyz
x,y,z
-x,y,-z
loop_
_atom_site_type_symbol
_atom_site_label
_atom_site_fract_x
_atom_site_fract_y
_atom_site_fract_z
Si Si1 0.968417 0.479200 0.665832
Si Si2 0.336080 0.536650 0.022885
Si Si3 0.667561 0.365895 0.697010
Si Si4 0.154887 0.896116 0.205448
Si Si5 0.500000 0.998620 0.000000
Si Si6 0.155846 0.720475 0.452008
Si Si7 0.518064 0.779563 0.796781
Si Si8 0.778052 0.130059 0.899695
O O1 0.854100 0.375268 0.688429
O O2 0.848838 0.597339 0.638808
O O3 0.000000 0.458034 0.500000
O O4 0.153579 0.506329 0.844343
O O5 0.338587 0.473184 0.186292
O O6 0.377155 0.676728 0.059120
O O7 0.500000 0.486638 0.000000
O O8 0.500000 0.368604 0.500000
O O9 0.674779 0.246845 0.799665
O O10 0.094440 0.836805 0.331790
O O11 0.328036 0.817945 0.246958
O O12 0.227641 0.028450 0.232175
O O13 0.000000 0.887224 0.000000
O O14 0.449892 0.899790 0.847820
O O15 0.667613 0.073217 0.996860
O O16 0.346125 0.728824 0.628087
O O17 0.000000 0.701278 0.500000
O O18 0.000000 0.154691 0.000000
#
# Coordination Sequence:
#
# PCOD9113615 Si02
#       8
#     2   2   2   2   1   2   2   2
#     4  11  24  43  65 101 139 173 225 283 342 421
#     4  12  23  40  70  98 135 178 221 277 349 408
#     4  12  26  46  69  98 136 182 233 287 342 411
#     4  10  22  40  64  90 129 176 224 276 337 402
#     4  10  24  42  72 102 138 180 236 280 348 412
#     4  11  23  36  62  98 138 171 220 276 341 408
#     4  11  22  38  65  96 139 174 221 272 345 410
#     4  10  24  45  70  95 137 182 241 287 344 405
#
# _framework density 20.627690000000001
#
# number of rings (size 3 to 8) (size 9 to 14) (size 15 to 20)
#    0.000    1.067    0.667    6.400    6.533    2.133 
#    2.400    0.667    0.000    0.000    0.000    0.000 
#    0.000    0.000    0.000    0.000    0.000    0.000 
#
# Total GULP energy -83582.896877 kJ/mol
# GULP energy per Si atom -5572.193125 kJ/mol
# Density = 2.058074 g / cm^3
# Si number density = 20.627690 Si / 1000 Ang^3
#
#
#
# Elastic Constant Matrix: (Units=GPa)
#
#
# Indices 1 2 3 4 5 6 
#
# 1 94.5163 39.5496 48.2022 0.0000 4.3149 0.0000
# 2 39.5496 69.8067 24.9611 0.0000 -7.7444 0.0000
# 3 48.2022 24.9611 102.6808 0.0000 21.7193 0.0000
# 4 0.0000 0.0000 0.0000 11.1637 0.0000 1.3668
# 5 4.3149 -7.7444 21.7193 0.0000 44.0753 0.0000
# 6 0.0000 0.0000 0.0000 1.3668 0.0000 34.9561
#
#
#
# Elastic Compliance Matrix: (Units=1/GPa)
#
#
# Indices 1 2 3 4 5 6 
#
# 1 0.016741 -0.007292 -0.006105 0.000000 0.000088 0.000000
# 2 -0.007292 0.019999 -0.002604 0.000000 0.005511 0.000000
# 3 -0.006105 -0.002604 0.014745 0.000000 -0.007126 0.000000
# 4 0.000000 0.000000 0.000000 0.090007 0.000000 -0.003519
# 5 0.000088 0.005511 -0.007126 0.000000 0.027160 0.000000
# 6 0.000000 0.000000 0.000000 -0.003519 0.000000 0.028745
#
#
# Mechanical properties :
#
#
# Convention : Reuss Voigt Hill
#
# Bulk Modulus (GPa) = 51.32661 54.71440 53.02050
# Shear Modulus (GPa) = 21.19602 28.32507 24.76055
#
# Velocity S-wave (km/s) = 3.20902 3.70963 3.46837
# Velocity P-wave (km/s) = 6.21827 6.70305 6.46520
#
# Compressibility (1/GPa) = 0.01948307
#
# Stress axis : x y z
#
# Youngs Moduli (GPa) = 59.73439 50.00187 67.81903
#
# Poissons Ratio (x) = 0.36461 0.41402
# Poissons Ratio (y) = 0.43558 0.17662
# Poissons Ratio (z) = 0.36466 0.13022
#
# Static dielectric constant tensor:
#      x y z
#    x 1.766420 0.000000 -0.012340 
#    y 0.000000 1.777730 0.000000 
#    z -0.012340 0.000000 1.711280 
# 
# From -- ./inp_files/6078.got.cif
#   From: 2010.05.17/outbox.cif.g08.bks.cpg/sg3_4_cif.got.tgz:6078.got - 2010.06.03 18:33:08.
