data_PCOD9113550
_publ_section_title
;
Structure prediction by ZEFSAII (Michael W. Deem and Ramdas Pophale) SiO2 
 PCOD9113550
Probable space group: P 2
;
_chemical_formula_sum "Si O2"
_cell_formula_units_Z 8
_cell_length_a 5.249496
_cell_length_b 7.889927
_cell_length_c 10.972273
_cell_angle_alpha 90.000000
_cell_angle_beta 105.929119
_cell_angle_gamma 90.000000
_cell_volume 437.001105
_symmetry_space_group_name_H-M "P 2"
_symmetry_group_IT_number 3
_symmetry_cell_setting 'monoclinic'
loop_
_space_group_symop_operation_xyz
x,y,z
-x,y,-z
loop_
_atom_site_type_symbol
_atom_site_label
_atom_site_fract_x
_atom_site_fract_y
_atom_site_fract_z
Si Si1 0.032648 0.321260 0.360099
Si Si2 0.200261 0.945381 0.413226
Si Si3 0.799609 0.629119 0.763448
Si Si4 0.650863 0.491478 0.137209
O O1 0.220372 0.469722 0.333114
O O2 0.762519 0.354594 0.248592
O O3 0.000000 0.343958 0.500000
O O4 0.134217 0.131807 0.353714
O O5 0.500000 0.946125 0.500000
O O6 0.178766 0.800003 0.309772
O O7 0.000000 0.912400 0.500000
O O8 0.551850 0.614856 0.819906
O O9 0.081541 0.590639 0.864079
O O10 0.500000 0.420596 0.000000
#
# Coordination Sequence:
#
# PCOD9113550 Si02
#       4
#     2   2   2   2
#     4   9  23  36  63  90 123 152 199 244 306 352
#     4  11  23  36  60  95 127 151 199 252 306 360
#     4  10  22  37  63  83 124 158 201 242 303 348
#     4  10  22  40  64  83 122 163 203 242 301 355
#
# _framework density 18.30659
#
# number of rings (size 3 to 8) (size 9 to 14) (size 15 to 20)
#    1.500    0.500    0.000    3.000   10.500    0.000 
#    0.000    1.250    5.500    0.000    0.000    0.000 
#    0.000    0.000    0.000    0.000    0.000    0.000 
#
# Total GULP energy -44553.126774 kJ/mol
# GULP energy per Si atom -5569.140847 kJ/mol
# Density = 1.826492 g / cm^3
# Si number density = 18.306590 Si / 1000 Ang^3
#
#
#
# Elastic Constant Matrix: (Units=GPa)
#
#
# Indices 1 2 3 4 5 6 
#
# 1 117.9411 14.8215 34.4051 0.0000 11.8748 0.0000
# 2 14.8215 60.5933 38.7619 0.0000 3.8901 0.0000
# 3 34.4051 38.7619 108.2660 0.0000 26.4088 0.0000
# 4 0.0000 0.0000 0.0000 -12.8384 0.0000 11.3752
# 5 11.8748 3.8901 26.4088 0.0000 38.8660 0.0000
# 6 0.0000 0.0000 0.0000 11.3752 0.0000 5.7541
#
#
#
# Elastic Compliance Matrix: (Units=1/GPa)
#
#
# Indices 1 2 3 4 5 6 
#
# 1 0.009396 -0.000637 -0.002485 0.000000 -0.001119 0.000000
# 2 -0.000637 0.021896 -0.008570 0.000000 0.003826 0.000000
# 3 -0.002485 -0.008570 0.015223 0.000000 -0.008727 0.000000
# 4 0.000000 0.000000 0.000000 -0.028308 0.000000 0.055961
# 5 -0.001119 0.003826 -0.008727 0.000000 0.031618 0.000000
# 6 0.000000 0.000000 0.000000 0.055961 0.000000 0.063160
#
#
# Mechanical properties :
#
#
# Convention : Reuss Voigt Hill
#
# Bulk Modulus (GPa) = 43.23164 51.41969 47.32566
# Shear Modulus (GPa) = 34.70267 19.61046 27.15656
#
# Velocity S-wave (km/s) = 4.35862 3.27651 3.85571
# Velocity P-wave (km/s) = 6.99976 6.51637 6.76238
#
# Compressibility (1/GPa) = 0.02313120
#
# Stress axis : x y z
#
# Youngs Moduli (GPa) = 106.42359 45.67029 65.68852
#
# Poissons Ratio (x) = 0.02908 0.16325
# Poissons Ratio (y) = 0.06777 0.56297
# Poissons Ratio (z) = 0.26448 0.39141
#
# Static dielectric constant tensor:
#      x y z
#    x 1.657790 0.000000 0.007190 
#    y 0.000000 1.596390 0.000000 
#    z 0.007190 0.000000 1.638100 
# 
# From -- ./inp_files/1956.got.cif
#   From: 2010.05.17/outbox.cif.g08.bks.cpg/sg3_1_cif.got.tgz:1956.got - 2010.06.03 18:33:08.
