data_PCOD9113190
_publ_section_title
;
Structure prediction by ZEFSAII (Michael W. Deem and Ramdas Pophale) SiO2 
 PCOD9113190
Probable space group: P 2
;
_chemical_formula_sum "Si O2"
_cell_formula_units_Z 13
_cell_length_a 5.288911
_cell_length_b 8.447226
_cell_length_c 11.711621
_cell_angle_alpha 90.000000
_cell_angle_beta 83.882618
_cell_angle_gamma 90.000000
_cell_volume 520.256236
_symmetry_space_group_name_H-M "P 2"
_symmetry_group_IT_number 3
_symmetry_cell_setting 'monoclinic'
loop_
_space_group_symop_operation_xyz
x,y,z
-x,y,-z
loop_
_atom_site_type_symbol
_atom_site_label
_atom_site_fract_x
_atom_site_fract_y
_atom_site_fract_z
Si Si1 0.742772 0.768650 0.569590
Si Si2 0.500000 0.198118 0.500000
Si Si3 0.043731 0.969131 0.122578
Si Si4 0.501882 0.417489 0.134435
Si Si5 0.202071 0.194305 0.711319
Si Si6 0.485784 0.787209 0.822631
Si Si7 0.841780 0.417604 0.646884
O O1 0.500000 0.763017 0.500000
O O2 0.630780 0.822672 0.696588
O O3 0.821504 0.589584 0.598139
O O4 0.000000 0.839462 0.500000
O O5 0.343206 0.099913 0.602889
O O6 0.668487 0.301128 0.580499
O O7 0.785086 0.872321 0.159772
O O8 0.295815 0.860781 0.105372
O O9 0.031696 0.097901 0.223957
O O10 0.000000 0.043804 0.000000
O O11 0.649689 0.274091 0.190324
O O12 0.579650 0.601534 0.153703
O O13 0.238732 0.419859 0.216409
O O14 0.500000 0.391280 0.000000
O O15 0.118943 0.346192 0.640871
#
# Coordination Sequence:
#
# PCOD9113190 Si02
#       7
#     2   1   2   2   2   2   2
#     4  11  22  41  72 107 144 183 237 303 360 433
#     4  10  20  44  62 100 142 182 234 298 370 434
#     4  12  28  50  74 100 154 199 242 292 378 444
#     4  10  24  42  73 106 142 179 251 309 356 429
#     4  11  26  42  73 106 139 194 241 307 364 439
#     4  11  27  50  71 108 141 202 240 296 374 439
#     4  10  22  38  68 102 143 182 232 299 377 423
#
# _framework density 24.987687999999999
#
# number of rings (size 3 to 8) (size 9 to 14) (size 15 to 20)
#    0.000    1.231    0.769    3.692   15.077    0.000 
#    4.154    0.000    0.000    0.000    0.000    0.000 
#    0.000    0.000    0.000    0.000    0.000    0.000 
#
# Total GULP energy -72558.375639 kJ/mol
# GULP energy per Si atom -5581.413511 kJ/mol
# Density = 2.493081 g / cm^3
# Si number density = 24.987688 Si / 1000 Ang^3
#
#
#
# Elastic Constant Matrix: (Units=GPa)
#
#
# Indices 1 2 3 4 5 6 
#
# 1 97.2645 19.0312 44.7030 0.0000 -14.1474 0.0000
# 2 19.0312 89.7758 23.4367 0.0000 -5.7897 0.0000
# 3 44.7030 23.4367 198.2224 0.0000 -9.2649 0.0000
# 4 0.0000 0.0000 0.0000 22.8157 0.0000 1.8369
# 5 -14.1474 -5.7897 -9.2649 0.0000 30.1527 0.0000
# 6 0.0000 0.0000 0.0000 1.8369 0.0000 41.6448
#
#
#
# Elastic Compliance Matrix: (Units=1/GPa)
#
#
# Indices 1 2 3 4 5 6 
#
# 1 0.012397 -0.001702 -0.002372 0.000000 0.004761 0.000000
# 2 -0.001702 0.011826 -0.000959 0.000000 0.001178 0.000000
# 3 -0.002372 -0.000959 0.005715 0.000000 0.000459 0.000000
# 4 0.000000 0.000000 0.000000 0.043986 0.000000 -0.001940
# 5 0.004761 0.001178 0.000459 0.000000 0.035765 0.000000
# 6 0.000000 0.000000 0.000000 -0.001940 0.000000 0.024098
#
#
# Mechanical properties :
#
#
# Convention : Reuss Voigt Hill
#
# Bulk Modulus (GPa) = 50.32396 62.17827 56.25112
# Shear Modulus (GPa) = 33.22770 38.79542 36.01156
#
# Velocity S-wave (km/s) = 3.65055 3.94456 3.80040
# Velocity P-wave (km/s) = 6.16051 6.75897 6.46666
#
# Compressibility (1/GPa) = 0.01987125
#
# Stress axis : x y z
#
# Youngs Moduli (GPa) = 80.66550 84.55942 174.98872
#
# Poissons Ratio (x) = 0.14389 0.41508
# Poissons Ratio (y) = 0.13727 0.16789
# Poissons Ratio (z) = 0.19134 0.08113
#
# Static dielectric constant tensor:
#      x y z
#    x 2.016110 0.000000 -0.036180 
#    y 0.000000 2.093210 0.000000 
#    z -0.036180 0.000000 2.097810 
# 
# From -- ./inp_files/9836.got.cif
#   From: 2010.05.17/outbox.cif.g08.bks.cpg/sg3_5_cif.got.tgz:9836.got - 2010.06.03 18:33:08.
