data_PCOD9113503
_publ_section_title
;
Structure prediction by ZEFSAII (Michael W. Deem and Ramdas Pophale) SiO2 
 PCOD9113503
Probable space group: P 2
;
_chemical_formula_sum "Si O2"
_cell_formula_units_Z 14
_cell_length_a 9.746019
_cell_length_b 5.257700
_cell_length_c 11.670084
_cell_angle_alpha 90.000000
_cell_angle_beta 69.947745
_cell_angle_gamma 90.000000
_cell_volume 561.744057
_symmetry_space_group_name_H-M "P 2"
_symmetry_group_IT_number 3
_symmetry_cell_setting 'monoclinic'
loop_
_space_group_symop_operation_xyz
x,y,z
-x,y,-z
loop_
_atom_site_type_symbol
_atom_site_label
_atom_site_fract_x
_atom_site_fract_y
_atom_site_fract_z
Si Si1 0.192675 0.713020 0.596874
Si Si2 0.045167 0.209862 0.741341
Si Si3 0.543983 0.425223 0.374811
Si Si4 0.740304 0.382868 0.864882
Si Si5 0.302578 0.708646 0.327749
Si Si6 0.763944 0.276307 0.108936
Si Si7 0.488463 0.988448 0.884166
O O1 0.105194 0.451589 0.650884
O O2 0.356942 0.651438 0.596238
O O3 0.802358 0.785386 0.539435
O O4 0.122941 0.951747 0.681017
O O5 0.089626 0.256140 0.861351
O O6 0.871364 0.197845 0.787379
O O7 0.500000 0.261233 0.500000
O O8 0.389411 0.476269 0.360621
O O9 0.648745 0.348990 0.241350
O O10 0.760408 0.619922 0.774878
O O11 0.588007 0.238211 0.884138
O O12 0.762018 0.437936 0.993190
O O13 0.435745 0.885921 0.251009
O O14 0.683108 0.023587 0.087041
O O15 0.500000 0.831226 0.000000
#
# Coordination Sequence:
#
# PCOD9113503 Si02
#       7
#     2   2   2   2   2   2   2
#     4  10  25  45  72  99 136 188 236 290 345 414
#     4  11  25  48  69 101 138 185 239 284 347 416
#     4   9  19  38  68 102 129 175 232 288 344 407
#     4  11  25  42  64 103 137 184 225 290 351 421
#     4  11  23  40  67 101 136 181 226 294 347 424
#     4  10  21  44  70  97 139 183 233 291 347 419
#     4  10  23  38  65  99 130 174 225 284 348 407
#
# _framework density 24.92238
#
# number of rings (size 3 to 8) (size 9 to 14) (size 15 to 20)
#    0.000    1.714    1.429    1.286    6.000    1.714 
#    2.571    5.000    0.000    0.000    0.000    0.000 
#    0.000    0.000    0.000    0.000    0.000    0.000 
#
# Total GULP energy -78081.866972 kJ/mol
# GULP energy per Si atom -5577.276212 kJ/mol
# Density = 2.486566 g / cm^3
# Si number density = 24.922380 Si / 1000 Ang^3
#
#
#
# Elastic Constant Matrix: (Units=GPa)
#
#
# Indices 1 2 3 4 5 6 
#
# 1 65.5685 3.9059 1.2272 0.0000 -13.7619 0.0000
# 2 3.9059 65.7138 30.1143 0.0000 3.0147 0.0000
# 3 1.2272 30.1143 191.8493 0.0000 13.8645 0.0000
# 4 0.0000 0.0000 0.0000 21.3536 0.0000 -1.7607
# 5 -13.7619 3.0147 13.8645 0.0000 26.4886 0.0000
# 6 0.0000 0.0000 0.0000 -1.7607 0.0000 11.4331
#
#
#
# Elastic Compliance Matrix: (Units=1/GPa)
#
#
# Indices 1 2 3 4 5 6 
#
# 1 0.017316 -0.001184 -0.000608 0.000000 0.009449 0.000000
# 2 -0.001184 0.016485 -0.002494 0.000000 -0.001186 0.000000
# 3 -0.000608 -0.002494 0.005831 0.000000 -0.003084 0.000000
# 4 0.000000 0.000000 0.000000 0.047433 0.000000 0.007305
# 5 0.009449 -0.001186 -0.003084 0.000000 0.044410 0.000000
# 6 0.000000 0.000000 0.000000 0.007305 0.000000 0.088590
#
#
# Mechanical properties :
#
#
# Convention : Reuss Voigt Hill
#
# Bulk Modulus (GPa) = 32.19605 43.73626 37.96616
# Shear Modulus (GPa) = 20.92117 31.04734 25.98426
#
# Velocity S-wave (km/s) = 2.90048 3.53336 3.23245
# Velocity P-wave (km/s) = 4.91565 5.85092 5.40356
#
# Compressibility (1/GPa) = 0.03105971
#
# Stress axis : x y z
#
# Youngs Moduli (GPa) = 57.74850 60.65978 171.50562
#
# Poissons Ratio (x) = 0.07184 0.10424
# Poissons Ratio (y) = 0.06839 0.42781
# Poissons Ratio (z) = 0.03510 0.15131
#
# Static dielectric constant tensor:
#      x y z
#    x 2.021330 0.000000 0.017010 
#    y 0.000000 2.024990 0.000000 
#    z 0.017010 0.000000 2.052760 
# 
# From -- ./inp_files/10219.got.cif
#   From: 2010.05.17/outbox.cif.g08.bks.cpg/sg3_6_cif.got.tgz:10219.got - 2010.06.03 18:33:08.
