data_PCOD9113420
_publ_section_title
;
Structure prediction by ZEFSAII (Michael W. Deem and Ramdas Pophale) SiO2 
 PCOD9113420
Probable space group: P 2
;
_chemical_formula_sum "Si O2"
_cell_formula_units_Z 10
_cell_length_a 8.973688
_cell_length_b 5.398131
_cell_length_c 9.231677
_cell_angle_alpha 90.000000
_cell_angle_beta 60.819562
_cell_angle_gamma 90.000000
_cell_volume 390.439097
_symmetry_space_group_name_H-M "P 2"
_symmetry_group_IT_number 3
_symmetry_cell_setting 'monoclinic'
loop_
_space_group_symop_operation_xyz
x,y,z
-x,y,-z
loop_
_atom_site_type_symbol
_atom_site_label
_atom_site_fract_x
_atom_site_fract_y
_atom_site_fract_z
Si Si1 0.591551 0.114410 0.120161
Si Si2 0.155352 0.510177 0.331231
Si Si3 0.259136 0.133724 0.468945
Si Si4 0.320898 0.639873 0.510019
Si Si5 0.184494 0.614158 0.988704
O O1 0.451882 0.111570 0.316665
O O2 0.702776 0.364837 0.091000
O O3 0.706763 0.867149 0.081777
O O4 0.500000 0.121999 0.000000
O O5 0.164168 0.216918 0.365349
O O6 0.322401 0.617614 0.332927
O O7 0.000000 0.609199 0.500000
O O8 0.147106 0.589626 0.175646
O O9 0.236580 0.375162 0.580430
O O10 0.222221 0.893284 0.578806
O O11 0.500000 0.648660 0.500000
O O12 0.000000 0.617916 0.000000
#
# Coordination Sequence:
#
# PCOD9113420 Si02
#       5
#     2   2   2   2   2
#     4  12  22  45  75  97 139 187 246 301 342 430
#     4  10  25  45  68 100 148 186 228 291 369 426
#     4  10  22  40  68 100 131 183 242 283 351 414
#     4  10  21  41  64 101 134 177 236 286 349 423
#     4  12  27  46  69 111 143 190 240 298 367 421
#
# _framework density 25.612189000000001
#
# number of rings (size 3 to 8) (size 9 to 14) (size 15 to 20)
#    1.200    0.000    2.000    4.200    0.000    4.000 
#    0.000    0.000    0.000    0.000    0.000    0.000 
#    0.000    0.000    0.000    0.000    0.000    0.000 
#
# Total GULP energy -55791.447194 kJ/mol
# GULP energy per Si atom -5579.144719 kJ/mol
# Density = 2.555389 g / cm^3
# Si number density = 25.612189 Si / 1000 Ang^3
#
#
#
# Elastic Constant Matrix: (Units=GPa)
#
#
# Indices 1 2 3 4 5 6 
#
# 1 169.3788 65.3728 44.5332 0.0000 21.1946 0.0000
# 2 65.3728 235.3933 11.3693 0.0000 -10.3380 0.0000
# 3 44.5332 11.3693 105.8459 0.0000 -1.9834 0.0000
# 4 0.0000 0.0000 0.0000 16.7569 0.0000 -5.8373
# 5 21.1946 -10.3380 -1.9834 0.0000 51.9843 0.0000
# 6 0.0000 0.0000 0.0000 -5.8373 0.0000 40.9576
#
#
#
# Elastic Compliance Matrix: (Units=1/GPa)
#
#
# Indices 1 2 3 4 5 6 
#
# 1 0.008119 -0.002269 -0.003245 0.000000 -0.003885 0.000000
# 2 -0.002269 0.004941 0.000460 0.000000 0.001925 0.000000
# 3 -0.003245 0.000460 0.010798 0.000000 0.001826 0.000000
# 4 0.000000 0.000000 0.000000 0.062795 0.000000 0.008950
# 5 -0.003885 0.001925 0.001826 0.000000 0.021273 0.000000
# 6 0.000000 0.000000 0.000000 0.008950 0.000000 0.025691
#
#
# Mechanical properties :
#
#
# Convention : Reuss Voigt Hill
#
# Bulk Modulus (GPa) = 72.72880 83.68540 78.20710
# Shear Modulus (GPa) = 33.71391 47.89592 40.80492
#
# Velocity S-wave (km/s) = 3.63205 4.32909 3.99580
# Velocity P-wave (km/s) = 6.78579 7.59823 7.20347
#
# Compressibility (1/GPa) = 0.01374971
#
# Stress axis : x y z
#
# Youngs Moduli (GPa) = 123.17002 202.40529 92.61129
#
# Poissons Ratio (x) = 0.45919 0.30053
# Poissons Ratio (y) = 0.27943 -0.04259
# Poissons Ratio (z) = 0.39969 -0.09308
#
# Static dielectric constant tensor:
#      x y z
#    x 2.148500 0.000000 0.016500 
#    y 0.000000 2.231020 0.000000 
#    z 0.016500 0.000000 2.029390 
# 
# From -- ./inp_files/4839.got.cif
#   From: 2010.05.17/outbox.cif.g08.bks.cpg/sg3_3_cif.got.tgz:4839.got - 2010.06.03 18:33:08.
