data_PCOD9113037
_publ_section_title
;
Structure prediction by ZEFSAII (Michael W. Deem and Ramdas Pophale) SiO2 
 PCOD9113037
Probable space group: P 2
;
_chemical_formula_sum "Si O2"
_cell_formula_units_Z 15
_cell_length_a 22.702424
_cell_length_b 6.157520
_cell_length_c 14.511751
_cell_angle_alpha 90.000000
_cell_angle_beta 19.507663
_cell_angle_gamma 90.000000
_cell_volume 677.418615
_symmetry_space_group_name_H-M "P 2"
_symmetry_group_IT_number 3
_symmetry_cell_setting 'monoclinic'
loop_
_space_group_symop_operation_xyz
x,y,z
-x,y,-z
loop_
_atom_site_type_symbol
_atom_site_label
_atom_site_fract_x
_atom_site_fract_y
_atom_site_fract_z
Si Si1 0.137931 0.592870 0.485768
Si Si2 0.764778 0.521971 0.040503
Si Si3 0.621320 0.321409 0.748108
Si Si4 0.877559 0.940932 0.345083
Si Si5 0.807856 0.767930 0.783881
Si Si6 0.274503 0.835717 0.730476
Si Si7 0.500000 0.182158 0.500000
Si Si8 0.427024 0.694093 0.316312
O O1 0.307151 0.499169 0.285063
O O2 0.108767 0.832695 0.572724
O O3 0.153313 0.596685 0.354199
O O4 0.965908 0.452675 0.762862
O O5 0.717975 0.682773 0.191801
O O6 0.632248 0.325530 0.243916
O O7 0.772274 0.656138 0.934543
O O8 0.550149 0.455094 0.764273
O O9 0.788647 0.175862 0.473899
O O10 0.500000 0.186158 0.000000
O O11 0.732953 0.799743 0.504136
O O12 0.071837 0.911243 0.015805
O O13 0.000000 0.893115 0.500000
O O14 0.608990 0.836901 0.045897
O O15 0.356925 0.704772 0.523976
O O16 0.390209 0.040400 0.589489
#
# Coordination Sequence:
#
# PCOD9113037 Si02
#       8
#     2   2   2   2   2   2   1   2
#     4   9  20  41  62  90 132 166 212 267 337 391
#     4  10  22  40  64  89 127 176 215 278 327 393
#     4  11  22  39  66  99 128 167 221 274 331 395
#     4  10  24  40  67  98 131 174 215 272 327 398
#     4  10  20  38  63  91 123 167 217 266 330 390
#     4  11  24  45  63  96 136 172 225 271 335 394
#     4  12  22  38  68  90 128 172 234 270 324 398
#     4  11  23  41  66  91 134 175 215 272 333 398
#
# _framework density 22.142879000000001
#
# number of rings (size 3 to 8) (size 9 to 14) (size 15 to 20)
#    0.000    1.600    1.333    3.200    1.867    2.133 
#    0.000    6.667    0.000    5.600    0.000    0.000 
#    0.000    0.000    0.000    0.000    0.000    0.000 
#
# Total GULP energy -83555.109985 kJ/mol
# GULP energy per Si atom -5570.340666 kJ/mol
# Density = 2.209248 g / cm^3
# Si number density = 22.142879 Si / 1000 Ang^3
#
#
#
# Elastic Constant Matrix: (Units=GPa)
#
#
# Indices 1 2 3 4 5 6 
#
# 1 109.2099 19.0395 54.3079 0.0000 12.1964 0.0000
# 2 19.0395 34.2381 28.5838 0.0000 2.8338 0.0000
# 3 54.3079 28.5838 165.8831 0.0000 -13.0409 0.0000
# 4 0.0000 0.0000 0.0000 15.5977 0.0000 -4.5864
# 5 12.1964 2.8338 -13.0409 0.0000 57.2570 0.0000
# 6 0.0000 0.0000 0.0000 -4.5864 0.0000 12.8538
#
#
#
# Elastic Compliance Matrix: (Units=1/GPa)
#
#
# Indices 1 2 3 4 5 6 
#
# 1 0.011865 -0.003369 -0.003553 0.000000 -0.003170 0.000000
# 2 -0.003369 0.035615 -0.005209 0.000000 -0.002231 0.000000
# 3 -0.003553 -0.005209 0.008318 0.000000 0.002909 0.000000
# 4 0.000000 0.000000 0.000000 0.071627 0.000000 0.025558
# 5 -0.003170 -0.002231 0.002909 0.000000 0.018913 0.000000
# 6 0.000000 0.000000 0.000000 0.025558 0.000000 0.086917
#
#
# Mechanical properties :
#
#
# Convention : Reuss Voigt Hill
#
# Bulk Modulus (GPa) = 31.71164 57.02151 44.36658
# Shear Modulus (GPa) = 18.65465 30.96836 24.81151
#
# Velocity S-wave (km/s) = 2.90568 3.74380 3.35105
# Velocity P-wave (km/s) = 5.06061 6.67050 5.92053
#
# Compressibility (1/GPa) = 0.03153417
#
# Stress axis : x y z
#
# Youngs Moduli (GPa) = 84.28182 28.07843 120.22317
#
# Poissons Ratio (x) = 0.09461 0.42716
# Poissons Ratio (y) = 0.28398 0.62626
# Poissons Ratio (z) = 0.29946 0.14626
#
# Static dielectric constant tensor:
#      x y z
#    x 1.848900 0.000000 -0.042050 
#    y 0.000000 1.846440 0.000000 
#    z -0.042050 0.000000 1.920750 
# 
# From -- ./inp_files/14411.got.cif
#   From: 2010.05.17/outbox.cif.g08.bks.cpg/sg3_8_cif.got.tgz:14411.got - 2010.06.03 18:33:08.
