data_PCOD9113702
_publ_section_title
;
Structure prediction by ZEFSAII (Michael W. Deem and Ramdas Pophale) SiO2 
 PCOD9113702
Probable space group: P 2
;
_chemical_formula_sum "Si O2"
_cell_formula_units_Z 14
_cell_length_a 9.220386
_cell_length_b 7.812796
_cell_length_c 9.590926
_cell_angle_alpha 90.000000
_cell_angle_beta 76.037125
_cell_angle_gamma 90.000000
_cell_volume 670.486921
_symmetry_space_group_name_H-M "P 2"
_symmetry_group_IT_number 3
_symmetry_cell_setting 'monoclinic'
loop_
_space_group_symop_operation_xyz
x,y,z
-x,y,-z
loop_
_atom_site_type_symbol
_atom_site_label
_atom_site_fract_x
_atom_site_fract_y
_atom_site_fract_z
Si Si1 0.118230 0.122700 0.346621
Si Si2 0.451571 0.558168 0.856278
Si Si3 0.624340 0.310049 0.361866
Si Si4 0.822471 0.473615 0.554953
Si Si5 0.108154 0.111648 0.855015
Si Si6 0.708446 0.796440 0.743979
Si Si7 0.837115 0.743645 0.020730
O O1 0.188816 0.311356 0.337940
O O2 0.000000 0.106148 0.500000
O O3 0.011627 0.094051 0.240419
O O4 0.248564 0.982168 0.321294
O O5 0.468684 0.424676 0.727033
O O6 0.539837 0.736750 0.811820
O O7 0.280147 0.609987 0.894419
O O8 0.500000 0.495827 0.000000
O O9 0.500000 0.233549 0.500000
O O10 0.735083 0.420989 0.435334
O O11 0.741716 0.198121 0.242867
O O12 0.764235 0.650843 0.626995
O O13 0.000000 0.493671 0.500000
O O14 0.157872 0.926623 0.902916
O O15 0.000000 0.194125 0.000000
O O16 0.793048 0.774639 0.871111
O O17 0.000000 0.668153 0.000000
#
# Coordination Sequence:
#
# PCOD9113702 Si02
#       7
#     2   2   2   2   2   2   2
#     4  11  22  42  71 106 143 188 250 306 371 439
#     4  10  25  45  66 104 144 196 245 298 379 451
#     4  12  25  48  70 107 155 188 250 312 371 453
#     4  11  24  42  70 106 141 195 250 298 377 439
#     4  11  23  46  71 108 143 189 255 309 368 445
#     4  11  22  44  70  99 151 186 242 312 363 446
#     4  10  22  42  68 102 138 186 255 296 369 435
#
# _framework density 20.880347
#
# number of rings (size 3 to 8) (size 9 to 14) (size 15 to 20)
#    0.000    1.143    7.143    0.429    2.000    5.143 
#    0.000    0.714    0.000    0.000    0.000    0.000 
#    0.000    0.000    0.000    0.000    0.000    0.000 
#
# Total GULP energy -78080.478262 kJ/mol
# GULP energy per Si atom -5577.177019 kJ/mol
# Density = 2.083282 g / cm^3
# Si number density = 20.880347 Si / 1000 Ang^3
#
#
#
# Elastic Constant Matrix: (Units=GPa)
#
#
# Indices 1 2 3 4 5 6 
#
# 1 122.0645 13.4726 32.5578 0.0000 -10.7986 0.0000
# 2 13.4726 30.4758 1.1893 0.0000 -5.7701 0.0000
# 3 32.5578 1.1893 89.3166 0.0000 -7.2012 0.0000
# 4 0.0000 0.0000 0.0000 -39.5589 0.0000 44.8921
# 5 -10.7986 -5.7701 -7.2012 0.0000 43.3542 0.0000
# 6 0.0000 0.0000 0.0000 44.8921 0.0000 3.2265
#
#
#
# Elastic Compliance Matrix: (Units=1/GPa)
#
#
# Indices 1 2 3 4 5 6 
#
# 1 0.009632 -0.003876 -0.003352 0.000000 0.001326 0.000000
# 2 -0.003876 0.035222 0.001261 0.000000 0.003932 0.000000
# 3 -0.003352 0.001261 0.012515 0.000000 0.001412 0.000000
# 4 0.000000 0.000000 0.000000 -0.001506 0.000000 0.020949
# 5 0.001326 0.003932 0.001412 0.000000 0.024154 0.000000
# 6 0.000000 0.000000 0.000000 0.020949 0.000000 0.018460
#
#
# Mechanical properties :
#
#
# Convention : Reuss Voigt Hill
#
# Bulk Modulus (GPa) = 22.01022 37.36625 29.68824
# Shear Modulus (GPa) = 39.82275 14.38018 27.10146
#
# Velocity S-wave (km/s) = 4.37187 2.62715 3.60660
# Velocity P-wave (km/s) = 6.00403 5.20930 5.62073
#
# Compressibility (1/GPa) = 0.04543343
#
# Stress axis : x y z
#
# Youngs Moduli (GPa) = 103.82384 28.39168 79.90303
#
# Poissons Ratio (x) = 0.11005 0.26787
# Poissons Ratio (y) = 0.40242 -0.10075
# Poissons Ratio (z) = 0.34806 -0.03580
#
# Static dielectric constant tensor:
#      x y z
#    x 1.845690 0.000000 0.076430 
#    y 0.000000 1.738320 0.000000 
#    z 0.076430 0.000000 2.005320 
# 
# From -- ./inp_files/5271.got.cif
#   From: 2010.05.17/outbox.cif.g08.bks.cpg/sg3_3_cif.got.tgz:5271.got - 2010.06.03 18:33:08.
