data_PCOD9113800
_publ_section_title
;
Structure prediction by ZEFSAII (Michael W. Deem and Ramdas Pophale) SiO2 
 PCOD9113800
Probable space group: P 2
;
_chemical_formula_sum "Si O2"
_cell_formula_units_Z 14
_cell_length_a 5.277259
_cell_length_b 9.282198
_cell_length_c 11.907709
_cell_angle_alpha 90.000000
_cell_angle_beta 104.419597
_cell_angle_gamma 90.000000
_cell_volume 564.919022
_symmetry_space_group_name_H-M "P 2"
_symmetry_group_IT_number 3
_symmetry_cell_setting 'monoclinic'
loop_
_space_group_symop_operation_xyz
x,y,z
-x,y,-z
loop_
_atom_site_type_symbol
_atom_site_label
_atom_site_fract_x
_atom_site_fract_y
_atom_site_fract_z
Si Si1 0.589580 0.015950 0.384433
Si Si2 0.500000 0.362549 0.000000
Si Si3 0.800339 0.585746 0.900623
Si Si4 0.575655 0.191556 0.198952
Si Si5 0.799716 0.944327 0.078773
Si Si6 0.974306 0.446443 0.298099
Si Si7 0.709209 0.737684 0.256799
Si Si8 0.000000 0.253342 0.500000
O O1 0.500000 0.996503 0.500000
O O2 0.416441 0.103805 0.275407
O O3 0.810349 0.140421 0.417663
O O4 0.659378 0.862525 0.341395
O O5 0.719462 0.480604 0.994873
O O6 0.601085 0.247549 0.919688
O O7 0.556363 0.678738 0.828845
O O8 0.873513 0.491323 0.797826
O O9 0.000000 0.676925 0.000000
O O10 0.731773 0.340905 0.240580
O O11 0.771389 0.079031 0.162045
O O12 0.867972 0.815380 0.174526
O O13 0.500000 0.921183 0.000000
O O14 0.000000 0.970567 0.000000
O O15 0.857685 0.600021 0.323611
O O16 0.113027 0.358876 0.415100
#
# Coordination Sequence:
#
# PCOD9113800 Si02
#       8
#     2   1   2   2   2   2   2   1
#     4  10  25  50  74  99 144 195 255 318 383 449
#     4  12  22  40  66 110 152 182 244 306 380 454
#     4  12  25  40  71 109 151 197 240 306 382 473
#     4  10  22  45  68 110 143 195 249 316 384 456
#     4  11  27  43  68 104 155 204 254 301 378 466
#     4  11  25  44  73 105 144 186 253 316 387 450
#     4  11  27  45  66 110 150 195 247 313 389 457
#     4  10  26  48  76 106 130 190 260 328 376 454
#
# _framework density 24.782315000000001
#
# number of rings (size 3 to 8) (size 9 to 14) (size 15 to 20)
#    0.000    1.143    3.571    0.000    9.000    2.857 
#   10.286    0.714    0.000    0.000    0.000    0.000 
#    0.000    0.000    0.000    0.000    0.000    0.000 
#
# Total GULP energy -77966.355243 kJ/mol
# GULP energy per Si atom -5569.025374 kJ/mol
# Density = 2.472591 g / cm^3
# Si number density = 24.782315 Si / 1000 Ang^3
#
#
#
# Elastic Constant Matrix: (Units=GPa)
#
#
# Indices 1 2 3 4 5 6 
#
# 1 48.1910 16.5532 27.3535 0.0000 -16.4076 0.0000
# 2 16.5532 185.6746 68.3946 0.0000 -19.6202 0.0000
# 3 27.3535 68.3946 117.4268 0.0000 -41.1343 0.0000
# 4 0.0000 0.0000 0.0000 44.7288 0.0000 -29.1705
# 5 -16.4076 -19.6202 -41.1343 0.0000 40.9819 0.0000
# 6 0.0000 0.0000 0.0000 -29.1705 0.0000 -8.6322
#
#
#
# Elastic Compliance Matrix: (Units=1/GPa)
#
#
# Indices 1 2 3 4 5 6 
#
# 1 0.024972 -0.000299 -0.003379 0.000000 0.006463 0.000000
# 2 -0.000299 0.006894 -0.004367 0.000000 -0.001202 0.000000
# 3 -0.003379 -0.004367 0.016410 0.000000 0.013028 0.000000
# 4 0.000000 0.000000 0.000000 0.006978 0.000000 -0.023581
# 5 0.006463 -0.001202 0.013028 0.000000 0.039489 0.000000
# 6 0.000000 0.000000 0.000000 -0.023581 0.000000 -0.036158
#
#
# Mechanical properties :
#
#
# Convention : Reuss Voigt Hill
#
# Bulk Modulus (GPa) = 31.06861 63.98834 47.52847
# Shear Modulus (GPa) = 58.54625 31.34845 44.94735
#
# Velocity S-wave (km/s) = 4.86575 3.56048 4.26336
# Velocity P-wave (km/s) = 6.64313 6.54055 6.59204
#
# Compressibility (1/GPa) = 0.03218682
#
# Stress axis : x y z
#
# Youngs Moduli (GPa) = 40.04515 145.05513 60.93835
#
# Poissons Ratio (x) = 0.04332 0.20591
# Poissons Ratio (y) = 0.01196 0.26611
# Poissons Ratio (z) = 0.13531 0.63344
#
# Static dielectric constant tensor:
#      x y z
#    x 2.125230 0.000000 0.009110 
#    y 0.000000 2.009090 0.000000 
#    z 0.009110 0.000000 4.561200 
# 
# From -- ./inp_files/9880.got.cif
#   From: 2010.05.17/outbox.cif.g08.bks.cpg/sg3_5_cif.got.tgz:9880.got - 2010.06.03 18:33:08.
