data_PCOD9113986
_publ_section_title
;
Structure prediction by ZEFSAII (Michael W. Deem and Ramdas Pophale) SiO2 
 PCOD9113986
Probable space group: P 2
;
_chemical_formula_sum "Si O2"
_cell_formula_units_Z 14
_cell_length_a 8.017580
_cell_length_b 4.996284
_cell_length_c 17.452518
_cell_angle_alpha 90.000000
_cell_angle_beta 130.760434
_cell_angle_gamma 90.000000
_cell_volume 529.541799
_symmetry_space_group_name_H-M "P 2"
_symmetry_group_IT_number 3
_symmetry_cell_setting 'monoclinic'
loop_
_space_group_symop_operation_xyz
x,y,z
-x,y,-z
loop_
_atom_site_type_symbol
_atom_site_label
_atom_site_fract_x
_atom_site_fract_y
_atom_site_fract_z
Si Si1 0.060925 0.580430 0.215347
Si Si2 0.022487 0.243994 0.683848
Si Si3 0.537119 0.676352 0.816409
Si Si4 0.408584 0.919082 0.394748
Si Si5 0.174393 0.184014 0.119526
Si Si6 0.674220 0.929483 0.108251
Si Si7 0.788503 0.954742 0.396501
O O1 0.293935 0.717970 0.300936
O O2 0.083349 0.313283 0.171357
O O3 0.993272 0.535896 0.284497
O O4 0.869054 0.766886 0.124683
O O5 0.203760 0.115224 0.794577
O O6 0.101996 0.186470 0.622761
O O7 0.783692 0.116032 0.632579
O O8 0.739284 0.881486 0.859720
O O9 0.614781 0.374173 0.830417
O O10 0.468285 0.728196 0.882939
O O11 0.342107 0.764021 0.701153
O O12 0.500000 0.787230 0.500000
O O13 0.609744 0.044614 0.406558
O O14 0.000000 0.228384 0.000000
O O15 0.500000 0.067117 0.000000
O O16 0.000000 0.821253 0.500000
#
# Coordination Sequence:
#
# PCOD9113986 Si02
#       7
#     2   2   2   2   2   2   2
#     4  11  25  44  70 102 143 188 245 309 364 445
#     4  10  24  42  70 101 140 184 244 299 369 437
#     4  11  26  46  70 111 147 189 249 313 362 458
#     4  11  22  45  72 101 140 185 243 305 372 445
#     4  12  26  46  77 106 150 196 250 303 384 438
#     4  10  24  43  70  98 143 187 242 298 372 439
#     4  11  22  46  73 101 144 198 243 309 375 446
#
# _framework density 26.437953
#
# number of rings (size 3 to 8) (size 9 to 14) (size 15 to 20)
#    0.000    1.143    2.857    2.143    8.000    1.143 
#    2.571    0.714    0.000    0.000    0.000    0.000 
#    0.000    0.000    0.000    0.000    0.000    0.000 
#
# Total GULP energy -78387.529384 kJ/mol
# GULP energy per Si atom -5599.109242 kJ/mol
# Density = 2.637778 g / cm^3
# Si number density = 26.437953 Si / 1000 Ang^3
#
#
#
# Elastic Constant Matrix: (Units=GPa)
#
#
# Indices 1 2 3 4 5 6 
#
# 1 193.2952 29.4830 51.0360 0.0000 -5.5780 0.0000
# 2 29.4830 44.9594 6.1545 0.0000 6.1348 0.0000
# 3 51.0360 6.1545 171.6859 0.0000 17.2973 0.0000
# 4 0.0000 0.0000 0.0000 17.0210 0.0000 -2.7901
# 5 -5.5780 6.1348 17.2973 0.0000 37.6221 0.0000
# 6 0.0000 0.0000 0.0000 -2.7901 0.0000 43.6994
#
#
#
# Elastic Compliance Matrix: (Units=1/GPa)
#
#
# Indices 1 2 3 4 5 6 
#
# 1 0.006437 -0.004297 -0.002020 0.000000 0.002584 0.000000
# 2 -0.004297 0.025652 0.000884 0.000000 -0.005227 0.000000
# 3 -0.002020 0.000884 0.006751 0.000000 -0.003547 0.000000
# 4 0.000000 0.000000 0.000000 0.059372 0.000000 0.003791
# 5 0.002584 -0.005227 -0.003547 0.000000 0.029446 0.000000
# 6 0.000000 0.000000 0.000000 0.003791 0.000000 0.023126
#
#
# Mechanical properties :
#
#
# Convention : Reuss Voigt Hill
#
# Bulk Modulus (GPa) = 35.74622 64.80970 50.27796
# Shear Modulus (GPa) = 29.24430 41.21963 35.23196
#
# Velocity S-wave (km/s) = 3.32949 3.95284 3.65448
# Velocity P-wave (km/s) = 5.32267 6.73798 6.07170
#
# Compressibility (1/GPa) = 0.02797499
#
# Stress axis : x y z
#
# Youngs Moduli (GPa) = 155.36019 38.98290 148.13388
#
# Poissons Ratio (x) = 0.16751 0.29918
# Poissons Ratio (y) = 0.66759 -0.13100
# Poissons Ratio (z) = 0.31377 -0.03448
#
# Static dielectric constant tensor:
#      x y z
#    x 2.216130 0.000000 -0.016650 
#    y 0.000000 2.072440 0.000000 
#    z -0.016650 0.000000 2.039610 
# 
# From -- ./inp_files/14865.got.cif
#   From: 2010.05.17/outbox.cif.g08.bks.cpg/sg3_8_cif.got.tgz:14865.got - 2010.06.03 18:33:08.
