data_PCOD9113858
_publ_section_title
;
Structure prediction by ZEFSAII (Michael W. Deem and Ramdas Pophale) SiO2 
 PCOD9113858
Probable space group: P 2
;
_chemical_formula_sum "Si O2"
_cell_formula_units_Z 14
_cell_length_a 7.572537
_cell_length_b 7.365283
_cell_length_c 13.626673
_cell_angle_alpha 90.000000
_cell_angle_beta 57.320311
_cell_angle_gamma 90.000000
_cell_volume 639.704138
_symmetry_space_group_name_H-M "P 2"
_symmetry_group_IT_number 3
_symmetry_cell_setting 'monoclinic'
loop_
_space_group_symop_operation_xyz
x,y,z
-x,y,-z
loop_
_atom_site_type_symbol
_atom_site_label
_atom_site_fract_x
_atom_site_fract_y
_atom_site_fract_z
Si Si1 0.804968 0.133480 0.508621
Si Si2 0.910452 0.045791 0.923950
Si Si3 0.776183 0.776156 0.241653
Si Si4 0.177600 0.260148 0.296191
Si Si5 0.905176 0.453797 0.869704
Si Si6 0.500000 0.862808 0.500000
Si Si7 0.494063 0.935780 0.147636
Si Si8 0.500000 0.636756 0.000000
O O1 0.753861 0.279247 0.609766
O O2 0.000000 0.024787 0.500000
O O3 0.927396 0.221985 0.381520
O O4 0.627428 0.999649 0.531490
O O5 0.961667 0.254949 0.891299
O O6 0.036337 0.925415 0.808285
O O7 0.000000 0.976731 0.000000
O O8 0.666687 0.023024 0.021880
O O9 0.655109 0.756595 0.381139
O O10 0.613056 0.855797 0.208720
O O11 0.902205 0.591919 0.179078
O O12 0.183964 0.415782 0.213909
O O13 0.319153 0.088276 0.221080
O O14 0.696711 0.529046 0.984940
O O15 0.409903 0.764517 0.112832
#
# Coordination Sequence:
#
# PCOD9113858 Si02
#       8
#     2   2   2   2   2   1   2   1
#     4   8  20  38  70  97 125 181 232 281 341 417
#     4  10  23  40  68  92 131 176 223 283 346 417
#     4  11  25  43  69 101 134 179 238 289 344 422
#     4   9  20  42  66  97 135 179 230 280 343 424
#     4  12  24  41  64 101 136 177 228 284 352 409
#     4  12  20  44  70 102 134 184 232 290 360 410
#     4  11  21  45  66 102 134 183 231 279 355 422
#     4  12  26  34  66  94 140 178 214 288 346 416
#
# _framework density 21.885119
#
# number of rings (size 3 to 8) (size 9 to 14) (size 15 to 20)
#    0.857    0.571    2.857    2.571    4.000    0.000 
#    0.000    5.714    0.000    0.000    0.000    0.000 
#    0.000    0.000    0.000    0.000    0.000    0.000 
#
# Total GULP energy -77942.177364 kJ/mol
# GULP energy per Si atom -5567.298383 kJ/mol
# Density = 2.183531 g / cm^3
# Si number density = 21.885119 Si / 1000 Ang^3
#
#
#
# Elastic Constant Matrix: (Units=GPa)
#
#
# Indices 1 2 3 4 5 6 
#
# 1 66.7150 -1.0416 4.4639 0.0000 5.4182 0.0000
# 2 -1.0416 84.4203 29.4437 0.0000 -7.0597 0.0000
# 3 4.4639 29.4437 110.7280 0.0000 -6.8918 0.0000
# 4 0.0000 0.0000 0.0000 15.3676 0.0000 -1.0837
# 5 5.4182 -7.0597 -6.8918 0.0000 24.6658 0.0000
# 6 0.0000 0.0000 0.0000 -1.0837 0.0000 30.9828
#
#
#
# Elastic Compliance Matrix: (Units=1/GPa)
#
#
# Indices 1 2 3 4 5 6 
#
# 1 0.015341 0.000203 -0.000894 0.000000 -0.003562 0.000000
# 2 0.000203 0.013254 -0.003358 0.000000 0.002811 0.000000
# 3 -0.000894 -0.003358 0.010088 0.000000 0.002054 0.000000
# 4 0.000000 0.000000 0.000000 0.065233 0.000000 0.002282
# 5 -0.003562 0.002811 0.002054 0.000000 0.042703 0.000000
# 6 0.000000 0.000000 0.000000 0.002282 0.000000 0.032356
#
#
# Mechanical properties :
#
#
# Convention : Reuss Voigt Hill
#
# Bulk Modulus (GPa) = 32.69440 36.39947 34.54693
# Shear Modulus (GPa) = 25.34634 29.46973 27.40804
#
# Velocity S-wave (km/s) = 3.40686 3.67354 3.54271
# Velocity P-wave (km/s) = 5.51789 5.88739 5.70563
#
# Compressibility (1/GPa) = 0.03058628
#
# Stress axis : x y z
#
# Youngs Moduli (GPa) = 65.18307 75.44823 99.12893
#
# Poissons Ratio (x) = -0.01534 0.08864
# Poissons Ratio (y) = -0.01325 0.33284
# Poissons Ratio (z) = 0.05829 0.25333
#
# Static dielectric constant tensor:
#      x y z
#    x 1.876510 0.000000 0.052150 
#    y 0.000000 1.794760 0.000000 
#    z 0.052150 0.000000 1.888810 
# 
# From -- ./inp_files/8111.got.cif
#   From: 2010.05.17/outbox.cif.g08.bks.cpg/sg3_5_cif.got.tgz:8111.got - 2010.06.03 18:33:08.
