data_PCOD9113104
_publ_section_title
;
Structure prediction by ZEFSAII (Michael W. Deem and Ramdas Pophale) SiO2 
 PCOD9113104
Probable space group: P 2
;
_chemical_formula_sum "Si O2"
_cell_formula_units_Z 9
_cell_length_a 12.685645
_cell_length_b 6.454935
_cell_length_c 5.326196
_cell_angle_alpha 90.000000
_cell_angle_beta 90.787289
_cell_angle_gamma 90.000000
_cell_volume 436.094461
_symmetry_space_group_name_H-M "P 2"
_symmetry_group_IT_number 3
_symmetry_cell_setting 'monoclinic'
loop_
_space_group_symop_operation_xyz
x,y,z
-x,y,-z
loop_
_atom_site_type_symbol
_atom_site_label
_atom_site_fract_x
_atom_site_fract_y
_atom_site_fract_z
Si Si1 0.091658 0.228830 0.352394
Si Si2 0.000000 0.572811 0.000000
Si Si3 0.622322 0.630055 0.044101
Si Si4 0.810719 0.851455 0.890455
Si Si5 0.272748 0.515961 0.448373
O O1 0.189468 0.334422 0.497000
O O2 0.000000 0.111977 0.500000
O O3 0.142474 0.074867 0.153803
O O4 0.030098 0.418990 0.223936
O O5 0.897469 0.713781 0.037234
O O6 0.649682 0.540986 0.316944
O O7 0.500000 0.670149 0.000000
O O8 0.697545 0.832049 0.017919
O O9 0.665863 0.487197 0.815526
O O10 0.789711 0.729617 0.624555
#
# Coordination Sequence:
#
# PCOD9113104 Si02
#       5
#     2   1   2   2   2
#     4  11  22  37  62  93 131 168 205 261 311 380
#     4  10  20  40  58  90 130 162 210 248 318 368
#     4  10  20  43  69  86 126 168 209 260 317 363
#     4   9  22  36  62  95 125 164 211 250 315 370
#     4   9  22  40  63  92 125 161 215 253 314 370
#
# _framework density 20.637732
#
# number of rings (size 3 to 8) (size 9 to 14) (size 15 to 20)
#    1.333    0.889    0.000    2.667    0.000    7.111 
#    0.000    1.111    4.889    0.000    0.000    0.000 
#    0.000    0.000    0.000    0.000    0.000    0.000 
#
# Total GULP energy -50121.144136 kJ/mol
# GULP energy per Si atom -5569.016015 kJ/mol
# Density = 2.059076 g / cm^3
# Si number density = 20.637732 Si / 1000 Ang^3
#
#
#
# Elastic Constant Matrix: (Units=GPa)
#
#
# Indices 1 2 3 4 5 6 
#
# 1 162.6470 37.4170 32.1958 0.0000 16.7798 0.0000
# 2 37.4170 54.6980 8.7953 0.0000 8.9720 0.0000
# 3 32.1958 8.7953 89.2728 0.0000 21.6597 0.0000
# 4 0.0000 0.0000 0.0000 11.2758 0.0000 -3.2603
# 5 16.7798 8.9720 21.6597 0.0000 35.7487 0.0000
# 6 0.0000 0.0000 0.0000 -3.2603 0.0000 4.4536
#
#
#
# Elastic Compliance Matrix: (Units=1/GPa)
#
#
# Indices 1 2 3 4 5 6 
#
# 1 0.007780 -0.004795 -0.002039 0.000000 -0.001213 0.000000
# 2 -0.004795 0.022077 0.000413 0.000000 -0.003540 0.000000
# 3 -0.002039 0.000413 0.013704 0.000000 -0.007450 0.000000
# 4 0.000000 0.000000 0.000000 0.112499 0.000000 0.082356
# 5 -0.001213 -0.003540 -0.007450 0.000000 0.033944 0.000000
# 6 0.000000 0.000000 0.000000 0.082356 0.000000 0.284826
#
#
# Mechanical properties :
#
#
# Convention : Reuss Voigt Hill
#
# Bulk Modulus (GPa) = 32.55379 51.49267 42.02323
# Shear Modulus (GPa) = 10.04194 25.50960 17.77577
#
# Velocity S-wave (km/s) = 2.20825 3.51959 2.93802
# Velocity P-wave (km/s) = 4.72335 6.44372 5.64941
#
# Compressibility (1/GPa) = 0.03071839
#
# Stress axis : x y z
#
# Youngs Moduli (GPa) = 128.53076 45.29642 72.97271
#
# Poissons Ratio (x) = 0.21721 0.14880
# Poissons Ratio (y) = 0.61635 -0.03016
# Poissons Ratio (z) = 0.26210 -0.01872
#
# Static dielectric constant tensor:
#      x y z
#    x 1.731670 0.000000 -0.037520 
#    y 0.000000 1.742920 0.000000 
#    z -0.037520 0.000000 1.800130 
# 
# From -- ./inp_files/1828.got.cif
#   From: 2010.05.17/outbox.cif.g08.bks.cpg/sg3_1_cif.got.tgz:1828.got - 2010.06.03 18:33:08.
