data_PCOD9113515
_publ_section_title
;
Structure prediction by ZEFSAII (Michael W. Deem and Ramdas Pophale) SiO2 
 PCOD9113515
Probable space group: P 2
;
_chemical_formula_sum "Si O2"
_cell_formula_units_Z 13
_cell_length_a 7.603987
_cell_length_b 7.215332
_cell_length_c 10.077153
_cell_angle_alpha 90.000000
_cell_angle_beta 76.451063
_cell_angle_gamma 90.000000
_cell_volume 537.499212
_symmetry_space_group_name_H-M "P 2"
_symmetry_group_IT_number 3
_symmetry_cell_setting 'monoclinic'
loop_
_space_group_symop_operation_xyz
x,y,z
-x,y,-z
loop_
_atom_site_type_symbol
_atom_site_label
_atom_site_fract_x
_atom_site_fract_y
_atom_site_fract_z
Si Si1 0.000000 0.186690 0.500000
Si Si2 0.147411 0.957196 0.079232
Si Si3 0.563950 0.003411 0.178702
Si Si4 0.135519 0.905636 0.653564
Si Si5 0.560363 0.378864 0.686167
Si Si6 0.204072 0.472298 0.613212
Si Si7 0.652644 0.645694 0.879811
O O1 0.962886 0.331976 0.384302
O O2 0.849644 0.032575 0.480008
O O3 0.187192 0.734983 0.065031
O O4 0.324278 0.044409 0.977340
O O5 0.050989 0.969017 0.239405
O O6 0.000000 0.016348 0.000000
O O7 0.452519 0.174026 0.254505
O O8 0.706443 0.948381 0.268845
O O9 0.436926 0.827861 0.172041
O O10 0.142839 0.686374 0.621965
O O11 0.348530 0.443055 0.707939
O O12 0.666779 0.412179 0.531724
O O13 0.679985 0.499226 0.764158
O O14 0.500000 0.563048 0.000000
#
# Coordination Sequence:
#
# PCOD9113515 Si02
#       7
#     1   2   2   2   2   2   2
#     4  12  26  42  66 102 136 184 230 282 342 416
#     4   9  22  42  72  97 130 179 220 280 351 409
#     4  10  21  45  69  96 136 176 232 279 339 410
#     4  11  23  45  69  96 142 182 224 286 349 410
#     4  11  24  44  68  98 136 178 236 280 334 407
#     4  11  26  44  65 101 137 185 230 283 341 412
#     4  10  22  41  68  98 129 178 226 280 346 402
#
# _framework density 24.186081999999999
#
# number of rings (size 3 to 8) (size 9 to 14) (size 15 to 20)
#    0.000    1.538    3.077    0.462    6.462    1.846 
#    0.000    0.000    0.000    0.000    0.000    0.000 
#    0.000    0.000    0.000    0.000    0.000    0.000 
#
# Total GULP energy -72383.356949 kJ/mol
# GULP energy per Si atom -5567.950535 kJ/mol
# Density = 2.413103 g / cm^3
# Si number density = 24.186082 Si / 1000 Ang^3
#
#
#
# Elastic Constant Matrix: (Units=GPa)
#
#
# Indices 1 2 3 4 5 6 
#
# 1 91.8267 27.7252 21.3446 0.0000 -6.5037 0.0000
# 2 27.7252 138.8827 43.3504 0.0000 -17.2808 0.0000
# 3 21.3446 43.3504 91.4016 0.0000 -16.9116 0.0000
# 4 0.0000 0.0000 0.0000 57.6529 0.0000 26.9314
# 5 -6.5037 -17.2808 -16.9116 0.0000 31.1205 0.0000
# 6 0.0000 0.0000 0.0000 26.9314 0.0000 39.9850
#
#
#
# Elastic Compliance Matrix: (Units=1/GPa)
#
#
# Indices 1 2 3 4 5 6 
#
# 1 0.011880 -0.001727 -0.001860 0.000000 0.000513 0.000000
# 2 -0.001727 0.008927 -0.003313 0.000000 0.002796 0.000000
# 3 -0.001860 -0.003313 0.013935 0.000000 0.005344 0.000000
# 4 0.000000 0.000000 0.000000 0.025308 0.000000 -0.017046
# 5 0.000513 0.002796 0.005344 0.000000 0.036697 0.000000
# 6 0.000000 0.000000 0.000000 -0.017046 0.000000 0.036490
#
#
# Mechanical properties :
#
#
# Convention : Reuss Voigt Hill
#
# Bulk Modulus (GPa) = 47.75293 56.32794 52.04044
# Shear Modulus (GPa) = 32.46327 41.06439 36.76383
#
# Velocity S-wave (km/s) = 3.66762 4.12497 3.90300
# Velocity P-wave (km/s) = 6.14183 6.78433 6.47106
#
# Compressibility (1/GPa) = 0.02094113
#
# Stress axis : x y z
#
# Youngs Moduli (GPa) = 84.17298 112.01690 71.75928
#
# Poissons Ratio (x) = 0.19347 0.13349
# Poissons Ratio (y) = 0.14538 0.23777
# Poissons Ratio (z) = 0.15659 0.37116
#
# Static dielectric constant tensor:
#      x y z
#    x 2.114170 0.000000 0.014730 
#    y 0.000000 1.876310 0.000000 
#    z 0.014730 0.000000 1.958700 
# 
# From -- ./inp_files/10217.got.cif
#   From: 2010.05.17/outbox.cif.g08.bks.cpg/sg3_6_cif.got.tgz:10217.got - 2010.06.03 18:33:08.
