data_PCOD9113766
_publ_section_title
;
Structure prediction by ZEFSAII (Michael W. Deem and Ramdas Pophale) SiO2 
 PCOD9113766
Probable space group: P 2
;
_chemical_formula_sum "Si O2"
_cell_formula_units_Z 13
_cell_length_a 19.453892
_cell_length_b 5.577826
_cell_length_c 5.125851
_cell_angle_alpha 90.000000
_cell_angle_beta 118.017961
_cell_angle_gamma 90.000000
_cell_volume 491.020871
_symmetry_space_group_name_H-M "P 2"
_symmetry_group_IT_number 3
_symmetry_cell_setting 'monoclinic'
loop_
_space_group_symop_operation_xyz
x,y,z
-x,y,-z
loop_
_atom_site_type_symbol
_atom_site_label
_atom_site_fract_x
_atom_site_fract_y
_atom_site_fract_z
Si Si1 0.410888 0.496300 0.746653
Si Si2 0.076138 0.982515 0.244684
Si Si3 0.445491 0.999691 0.647101
Si Si4 0.845939 0.357080 0.231273
Si Si5 0.276586 0.723385 0.815903
Si Si6 0.226725 0.996659 0.235436
Si Si7 0.000000 0.610560 0.500000
O O1 0.392399 0.237040 0.588466
O O2 0.352194 0.568405 0.874043
O O3 0.411824 0.730879 0.564146
O O4 0.500000 0.471419 0.000000
O O5 0.126800 0.142614 0.531701
O O6 0.137035 0.911254 0.128306
O O7 0.037340 0.770656 0.339534
O O8 0.000000 0.116446 0.000000
O O9 0.500000 0.049175 0.500000
O O10 0.500000 0.982293 0.000000
O O11 0.797120 0.546158 0.311962
O O12 0.926943 0.458051 0.271268
O O13 0.789531 0.263142 0.900823
O O14 0.268866 0.923556 0.576603
O O15 0.268088 0.857942 0.074045
#
# Coordination Sequence:
#
# PCOD9113766 Si02
#       7
#     2   2   2   2   2   2   1
#     4  10  25  50  80 121 159 211 273 338 406 491
#     4  12  25  46  75 113 152 203 271 329 391 496
#     4  10  22  43  76 111 156 196 256 326 397 472
#     4  12  26  49  77 113 156 216 261 340 409 487
#     4  12  29  50  78 111 163 212 267 338 414 491
#     4  12  27  52  71 113 156 202 271 325 405 492
#     4  12  24  48  76 114 156 212 266 338 404 488
#
# _framework density 26.475453000000002
#
# number of rings (size 3 to 8) (size 9 to 14) (size 15 to 20)
#    0.000    0.615    3.077    3.692    4.308    6.769 
#    5.538    0.000    0.000    0.000    0.000    0.000 
#    0.000    0.000    0.000    0.000    0.000    0.000 
#
# Total GULP energy -72815.575500 kJ/mol
# GULP energy per Si atom -5601.198115 kJ/mol
# Density = 2.641519 g / cm^3
# Si number density = 26.475453 Si / 1000 Ang^3
#
#
#
# Elastic Constant Matrix: (Units=GPa)
#
#
# Indices 1 2 3 4 5 6 
#
# 1 160.2738 47.7550 28.0277 0.0000 -25.6772 0.0000
# 2 47.7550 168.6160 30.8411 0.0000 -17.7243 0.0000
# 3 28.0277 30.8411 120.4257 0.0000 -22.1259 0.0000
# 4 0.0000 0.0000 0.0000 5.7472 0.0000 -18.0874
# 5 -25.6772 -17.7243 -22.1259 0.0000 56.2329 0.0000
# 6 0.0000 0.0000 0.0000 -18.0874 0.0000 55.7368
#
#
#
# Elastic Compliance Matrix: (Units=1/GPa)
#
#
# Indices 1 2 3 4 5 6 
#
# 1 0.007270 -0.001650 -0.000814 0.000000 0.002480 0.000000
# 2 -0.001650 0.006706 -0.001168 0.000000 0.000901 0.000000
# 3 -0.000814 -0.001168 0.009331 0.000000 0.002932 0.000000
# 4 0.000000 0.000000 0.000000 -8.170037 0.000000 -2.651298
# 5 0.002480 0.000901 0.002932 0.000000 0.020353 0.000000
# 6 0.000000 0.000000 0.000000 -2.651298 0.000000 -0.842444
#
#
# Mechanical properties :
#
#
# Convention : Reuss Voigt Hill
#
# Bulk Modulus (GPa) = 62.32702 73.61812 67.97257
# Shear Modulus (GPa) = -0.55827 46.38950 22.91561
#
# Velocity S-wave (km/s) = -0.45970 4.19043 2.94520
# Velocity P-wave (km/s) = 4.82812 7.16097 6.10698
#
# Compressibility (1/GPa) = 0.01604441
#
# Stress axis : x y z
#
# Youngs Moduli (GPa) = 137.54327 149.11658 107.16852
#
# Poissons Ratio (x) = 0.24598 0.08724
# Poissons Ratio (y) = 0.22689 0.12517
# Poissons Ratio (z) = 0.11197 0.17417
#
# Static dielectric constant tensor:
#      x y z
#    x 2.050450 0.000000 0.057670 
#    y 0.000000 2.129280 0.000000 
#    z 0.057670 0.000000 2.110210 
# 
# From -- ./inp_files/3529.got.cif
#   From: 2010.05.17/outbox.cif.g08.bks.cpg/sg3_2_cif.got.tgz:3529.got - 2010.06.03 18:33:08.
