data_PCOD9113880
_publ_section_title
;
Structure prediction by ZEFSAII (Michael W. Deem and Ramdas Pophale) SiO2 
 PCOD9113880
Probable space group: P 2
;
_chemical_formula_sum "Si O2"
_cell_formula_units_Z 15
_cell_length_a 11.632400
_cell_length_b 6.617404
_cell_length_c 20.400154
_cell_angle_alpha 90.000000
_cell_angle_beta 28.333511
_cell_angle_gamma 90.000000
_cell_volume 745.282619
_symmetry_space_group_name_H-M "P 2"
_symmetry_group_IT_number 3
_symmetry_cell_setting 'monoclinic'
loop_
_space_group_symop_operation_xyz
x,y,z
-x,y,-z
loop_
_atom_site_type_symbol
_atom_site_label
_atom_site_fract_x
_atom_site_fract_y
_atom_site_fract_z
Si Si1 0.044301 0.734320 0.142050
Si Si2 0.677828 0.618068 0.222676
Si Si3 0.346521 0.948638 0.879709
Si Si4 0.529641 0.461898 0.055937
Si Si5 0.211196 0.158451 0.293572
Si Si6 0.882707 0.523380 0.490461
Si Si7 0.889367 0.785945 0.740406
Si Si8 0.000000 0.286498 0.000000
O O1 0.017207 0.786741 0.232026
O O2 0.791917 0.722481 0.229770
O O3 0.223447 0.877519 0.009580
O O4 0.197348 0.524641 0.066577
O O5 0.690411 0.771779 0.154930
O O6 0.405423 0.537894 0.362566
O O7 0.855524 0.432585 0.120448
O O8 0.629536 0.009009 0.741191
O O9 0.196416 0.142075 0.933560
O O10 0.407447 0.322917 0.171081
O O11 0.367081 0.665822 0.131232
O O12 0.500000 0.358998 0.000000
O O13 0.989992 0.295886 0.429145
O O14 0.130358 0.012794 0.275638
O O15 0.000000 0.600253 0.500000
O O16 0.961993 0.656602 0.387958
#
# Coordination Sequence:
#
# PCOD9113880 Si02
#       8
#     2   2   2   2   2   2   2   1
#     4  11  21  43  67  99 139 173 214 282 346 399
#     4  12  25  45  69  97 141 180 225 283 341 402
#     4  12  23  39  70 103 133 176 221 284 348 394
#     4   9  20  36  62 100 131 169 211 272 341 392
#     4  11  23  39  65 100 130 173 230 272 327 403
#     4  11  26  46  67  94 132 183 229 277 335 402
#     4  10  23  42  67  97 135 177 224 270 337 404
#     4  12  22  42  64 108 130 168 238 274 348 406
#
# _framework density 20.126594000000001
#
# number of rings (size 3 to 8) (size 9 to 14) (size 15 to 20)
#    0.000    1.067    4.000    2.400    3.733    3.200 
#    2.400    0.000    0.000    0.000    0.000    0.000 
#    0.000    0.000    0.000    0.000    0.000    0.000 
#
# Total GULP energy -83741.858845 kJ/mol
# GULP energy per Si atom -5582.790590 kJ/mol
# Density = 2.008079 g / cm^3
# Si number density = 20.126594 Si / 1000 Ang^3
#
#
#
# Elastic Constant Matrix: (Units=GPa)
#
#
# Indices 1 2 3 4 5 6 
#
# 1 135.1083 43.0959 58.2469 0.0000 5.8381 0.0000
# 2 43.0959 83.9420 29.8557 0.0000 8.3438 0.0000
# 3 58.2469 29.8557 99.8946 0.0000 -8.9231 0.0000
# 4 0.0000 0.0000 0.0000 27.9302 0.0000 -5.6768
# 5 5.8381 8.3438 -8.9231 0.0000 34.7208 0.0000
# 6 0.0000 0.0000 0.0000 -5.6768 0.0000 24.4746
#
#
#
# Elastic Compliance Matrix: (Units=1/GPa)
#
#
# Indices 1 2 3 4 5 6 
#
# 1 0.011024 -0.003411 -0.005630 0.000000 -0.002481 0.000000
# 2 -0.003411 0.015052 -0.002847 0.000000 -0.003775 0.000000
# 3 -0.005630 -0.002847 0.014626 0.000000 0.005390 0.000000
# 4 0.000000 0.000000 0.000000 0.037575 0.000000 0.008715
# 5 -0.002481 -0.003775 0.005390 0.000000 0.031511 0.000000
# 6 0.000000 0.000000 0.000000 0.008715 0.000000 0.042880
#
#
# Mechanical properties :
#
#
# Convention : Reuss Voigt Hill
#
# Bulk Modulus (GPa) = 59.08152 64.59355 61.83754
# Shear Modulus (GPa) = 27.45977 29.94156 28.70067
#
# Velocity S-wave (km/s) = 3.69772 3.86121 3.78035
# Velocity P-wave (km/s) = 6.90286 7.21400 7.06015
#
# Compressibility (1/GPa) = 0.01692577
#
# Stress axis : x y z
#
# Youngs Moduli (GPa) = 90.71347 66.43686 68.37279
#
# Poissons Ratio (x) = 0.22659 0.38494
# Poissons Ratio (y) = 0.30938 0.19467
# Poissons Ratio (z) = 0.51072 0.18916
#
# Static dielectric constant tensor:
#      x y z
#    x 1.761440 0.000000 0.013930 
#    y 0.000000 1.723780 0.000000 
#    z 0.013930 0.000000 1.718030 
# 
# From -- ./inp_files/11280.got.cif
#   From: 2010.05.17/outbox.cif.g08.bks.cpg/sg3_6_cif.got.tgz:11280.got - 2010.06.03 18:33:08.
