data_PCOD9113223
_publ_section_title
;
Structure prediction by ZEFSAII (Michael W. Deem and Ramdas Pophale) SiO2 
 PCOD9113223
Probable space group: P 2
;
_chemical_formula_sum "Si O2"
_cell_formula_units_Z 10
_cell_length_a 12.726035
_cell_length_b 4.923906
_cell_length_c 7.305465
_cell_angle_alpha 90.000000
_cell_angle_beta 125.427231
_cell_angle_gamma 90.000000
_cell_volume 373.017901
_symmetry_space_group_name_H-M "P 2"
_symmetry_group_IT_number 3
_symmetry_cell_setting 'monoclinic'
loop_
_space_group_symop_operation_xyz
x,y,z
-x,y,-z
loop_
_atom_site_type_symbol
_atom_site_label
_atom_site_fract_x
_atom_site_fract_y
_atom_site_fract_z
Si Si1 0.898879 0.086710 0.679464
Si Si2 0.745847 0.623313 0.630814
Si Si3 0.474721 0.017703 0.694110
Si Si4 0.881373 0.276814 0.290135
Si Si5 0.376751 0.530151 0.097776
O O1 0.804844 0.340800 0.623752
O O2 0.871519 0.043006 0.433656
O O3 0.049693 0.175720 0.825933
O O4 0.865671 0.828401 0.765213
O O5 0.650099 0.824720 0.421310
O O6 0.670764 0.549422 0.739647
O O7 0.500000 0.032595 0.500000
O O8 0.582820 0.835623 0.902643
O O9 0.502175 0.322189 0.789745
O O10 0.000000 0.449417 0.500000
O O11 0.747007 0.419819 0.130885
#
# Coordination Sequence:
#
# PCOD9113223 Si02
#       5
#     2   2   2   2   2
#     4   9  22  40  63  86 130 163 205 264 314 363
#     4  11  20  39  64  93 123 159 214 262 305 374
#     4  10  21  36  60  91 127 158 201 260 319 366
#     4   8  23  45  63  87 133 170 209 257 327 377
#     4  11  21  39  64  91 120 169 204 253 318 378
#
# _framework density 26.808364000000001
#
# number of rings (size 3 to 8) (size 9 to 14) (size 15 to 20)
#    1.200    0.800    0.000    5.400    0.000    7.200 
#    0.000   10.000    0.000    0.000    0.000    0.000 
#    0.000    0.000    0.000    0.000    0.000    0.000 
#
# Total GULP energy -55802.436679 kJ/mol
# GULP energy per Si atom -5580.243668 kJ/mol
# Density = 2.674735 g / cm^3
# Si number density = 26.808364 Si / 1000 Ang^3
#
#
#
# Elastic Constant Matrix: (Units=GPa)
#
#
# Indices 1 2 3 4 5 6 
#
# 1 106.1841 33.1839 -4.8277 0.0000 -2.5602 0.0000
# 2 33.1839 177.5634 20.5096 0.0000 4.0501 0.0000
# 3 -4.8277 20.5096 104.7535 0.0000 13.9501 0.0000
# 4 0.0000 0.0000 0.0000 16.0004 0.0000 22.5349
# 5 -2.5602 4.0501 13.9501 0.0000 24.6564 0.0000
# 6 0.0000 0.0000 0.0000 22.5349 0.0000 18.7799
#
#
#
# Elastic Compliance Matrix: (Units=1/GPa)
#
#
# Indices 1 2 3 4 5 6 
#
# 1 0.010097 -0.001993 0.000727 0.000000 0.000964 0.000000
# 2 -0.001993 0.006158 -0.001228 0.000000 -0.000524 0.000000
# 3 0.000727 -0.001228 0.010580 0.000000 -0.005709 0.000000
# 4 0.000000 0.000000 0.000000 -0.090577 0.000000 0.108688
# 5 0.000964 -0.000524 -0.005709 0.000000 0.043974 0.000000
# 6 0.000000 0.000000 0.000000 0.108688 0.000000 -0.077172
#
#
# Mechanical properties :
#
#
# Convention : Reuss Voigt Hill
#
# Bulk Modulus (GPa) = 45.77088 54.02584 49.89836
# Shear Modulus (GPa) = -59.05278 34.52967 -12.26156
#
# Velocity S-wave (km/s) = -4.69846 3.59279 -2.14096
# Velocity P-wave (km/s) = 3.51051 6.11614 3.54144
#
# Compressibility (1/GPa) = 0.02184795
#
# Stress axis : x y z
#
# Youngs Moduli (GPa) = 99.04201 162.39047 94.51450
#
# Poissons Ratio (x) = 0.32363 -0.06872
# Poissons Ratio (y) = 0.19738 0.11604
# Poissons Ratio (z) = -0.07201 0.19938
#
# Static dielectric constant tensor:
#      x y z
#    x 2.233940 0.000000 0.029250 
#    y 0.000000 2.010270 0.000000 
#    z 0.029250 0.000000 2.189770 
# 
# From -- ./inp_files/7992.got.cif
#   From: 2010.05.17/outbox.cif.g08.bks.cpg/sg3_4_cif.got.tgz:7992.got - 2010.06.03 18:33:08.
