data_PCOD9113477
_publ_section_title
;
Structure prediction by ZEFSAII (Michael W. Deem and Ramdas Pophale) SiO2 
 PCOD9113477
Probable space group: P 2
;
_chemical_formula_sum "Si O2"
_cell_formula_units_Z 13
_cell_length_a 17.728960
_cell_length_b 5.253100
_cell_length_c 5.447480
_cell_angle_alpha 90.000000
_cell_angle_beta 73.014335
_cell_angle_gamma 90.000000
_cell_volume 485.203688
_symmetry_space_group_name_H-M "P 2"
_symmetry_group_IT_number 3
_symmetry_cell_setting 'monoclinic'
loop_
_space_group_symop_operation_xyz
x,y,z
-x,y,-z
loop_
_atom_site_type_symbol
_atom_site_label
_atom_site_fract_x
_atom_site_fract_y
_atom_site_fract_z
Si Si1 0.156031 0.437860 0.350150
Si Si2 0.234985 0.757784 0.673127
Si Si3 0.282089 0.241077 0.916063
Si Si4 0.589596 0.421721 0.827634
Si Si5 0.077191 0.819649 0.054857
Si Si6 0.549750 0.922845 0.695849
Si Si7 0.000000 0.212088 0.500000
O O1 0.215949 0.629558 0.428476
O O2 0.211788 0.217077 0.186841
O O3 0.115581 0.598909 0.176249
O O4 0.075408 0.348464 0.558704
O O5 0.259756 0.498788 0.792924
O O6 0.147911 0.882640 0.805554
O O7 0.285427 0.988795 0.745763
O O8 0.358950 0.309644 0.002179
O O9 0.611253 0.696800 0.696387
O O10 0.585396 0.202969 0.628170
O O11 0.500000 0.464109 0.000000
O O12 0.044648 0.042656 0.256650
O O13 0.000000 0.718482 0.000000
O O14 0.500000 0.855001 0.500000
O O15 0.500000 0.952913 0.000000
#
# Coordination Sequence:
#
# PCOD9113477 Si02
#       7
#     2   2   2   2   2   2   1
#     4  11  26  45  68 105 142 196 250 308 377 456
#     4  11  25  45  71 100 149 191 245 308 378 445
#     4  11  25  48  70 105 147 195 246 308 380 452
#     4  10  22  45  73 104 146 186 250 306 373 451
#     4  11  24  41  68  98 141 186 244 309 365 449
#     4  10  21  42  72 106 147 188 241 306 376 448
#     4  12  22  40  70  98 138 188 254 296 380 436
#
# _framework density 26.792871999999999
#
# number of rings (size 3 to 8) (size 9 to 14) (size 15 to 20)
#    0.000    1.231    1.538    3.692    4.308    0.615 
#   16.615    0.000    0.000    0.000    0.000    0.000 
#    0.000    0.000    0.000    0.000    0.000    0.000 
#
# Total GULP energy -72652.746117 kJ/mol
# GULP energy per Si atom -5588.672778 kJ/mol
# Density = 2.673189 g / cm^3
# Si number density = 26.792872 Si / 1000 Ang^3
#
#
#
# Elastic Constant Matrix: (Units=GPa)
#
#
# Indices 1 2 3 4 5 6 
#
# 1 106.5629 14.0839 22.8404 0.0000 38.3326 0.0000
# 2 14.0839 174.3284 20.4420 0.0000 13.1665 0.0000
# 3 22.8404 20.4420 83.8331 0.0000 24.4791 0.0000
# 4 0.0000 0.0000 0.0000 86.8560 0.0000 9.9840
# 5 38.3326 13.1665 24.4791 0.0000 63.1273 0.0000
# 6 0.0000 0.0000 0.0000 9.9840 0.0000 29.9560
#
#
#
# Elastic Compliance Matrix: (Units=1/GPa)
#
#
# Indices 1 2 3 4 5 6 
#
# 1 0.012149 -0.000321 -0.001237 0.000000 -0.006830 0.000000
# 2 -0.000321 0.005946 -0.001192 0.000000 -0.000583 0.000000
# 3 -0.001237 -0.001192 0.013830 0.000000 -0.004363 0.000000
# 4 0.000000 0.000000 0.000000 0.011972 0.000000 -0.003990
# 5 -0.006830 -0.000583 -0.004363 0.000000 0.021802 0.000000
# 6 0.000000 0.000000 0.000000 -0.003990 0.000000 0.034712
#
#
# Mechanical properties :
#
#
# Convention : Reuss Voigt Hill
#
# Bulk Modulus (GPa) = 37.84320 53.27301 45.55811
# Shear Modulus (GPa) = 43.58446 56.47840 50.03143
#
# Velocity S-wave (km/s) = 4.03764 4.59624 4.32596
# Velocity P-wave (km/s) = 5.99097 6.93496 6.48017
#
# Compressibility (1/GPa) = 0.02642482
#
# Stress axis : x y z
#
# Youngs Moduli (GPa) = 82.31335 168.17881 72.30506
#
# Poissons Ratio (x) = 0.05390 0.08946
# Poissons Ratio (y) = 0.02638 0.08621
# Poissons Ratio (z) = 0.10185 0.20051
#
# Static dielectric constant tensor:
#      x y z
#    x 2.464230 0.000000 -0.250250 
#    y 0.000000 2.193130 0.000000 
#    z -0.250250 0.000000 2.238880 
# 
# From -- ./inp_files/3527.got.cif
#   From: 2010.05.17/outbox.cif.g08.bks.cpg/sg3_2_cif.got.tgz:3527.got - 2010.06.03 18:33:08.
