data_PCOD9113681
_publ_section_title
;
Structure prediction by ZEFSAII (Michael W. Deem and Ramdas Pophale) SiO2 
 PCOD9113681
Probable space group: P 2
;
_chemical_formula_sum "Si O2"
_cell_formula_units_Z 15
_cell_length_a 16.716500
_cell_length_b 6.403988
_cell_length_c 7.954385
_cell_angle_alpha 90.000000
_cell_angle_beta 128.621919
_cell_angle_gamma 90.000000
_cell_volume 665.288699
_symmetry_space_group_name_H-M "P 2"
_symmetry_group_IT_number 3
_symmetry_cell_setting 'monoclinic'
loop_
_space_group_symop_operation_xyz
x,y,z
-x,y,-z
loop_
_atom_site_type_symbol
_atom_site_label
_atom_site_fract_x
_atom_site_fract_y
_atom_site_fract_z
Si Si1 0.601756 0.816160 0.842544
Si Si2 0.252305 0.454682 0.886368
Si Si3 0.370479 0.891305 0.490585
Si Si4 0.927460 0.378235 0.125716
Si Si5 0.000000 0.045828 0.000000
Si Si6 0.155701 0.719546 0.230019
Si Si7 0.075987 0.713197 0.487842
Si Si8 0.620017 0.141555 0.165205
O O1 0.479320 0.788772 0.678269
O O2 0.625977 0.946655 0.703406
O O3 0.660254 0.595781 0.912199
O O4 0.627723 0.945355 0.045230
O O5 0.176209 0.324125 0.908103
O O6 0.174638 0.627206 0.711672
O O7 0.304923 0.315636 0.812099
O O8 0.276149 0.734712 0.381867
O O9 0.355830 0.070352 0.612402
O O10 0.997381 0.531408 0.326971
O O11 0.004048 0.201367 0.162952
O O12 0.885884 0.510473 0.910023
O O13 0.905222 0.905705 0.939452
O O14 0.119728 0.781296 0.368557
O O15 0.000000 0.854632 0.500000
O O16 0.500000 0.208104 0.000000
#
# Coordination Sequence:
#
# PCOD9113681 Si02
#       8
#     2   2   2   2   1   2   2   2
#     4  10  22  47  67 101 140 179 228 287 336 420
#     4  11  24  42  71  95 138 178 222 285 352 398
#     4  10  23  42  73  98 135 182 230 275 349 416
#     4  11  23  43  62  97 133 165 229 285 325 422
#     4  12  24  38  68  90 134 170 222 280 344 394
#     4  12  22  43  68  92 129 180 222 278 345 410
#     4  10  22  42  60  90 132 168 219 281 327 399
#     4  10  24  44  65 104 141 173 231 290 337 416
#
# _framework density 22.546602
#
# number of rings (size 3 to 8) (size 9 to 14) (size 15 to 20)
#    0.000    1.333    4.000    0.800    3.733    2.667 
#    2.400    6.667    0.000    0.000    0.000    0.000 
#    0.000    0.000    0.000    0.000    0.000    0.000 
#
# Total GULP energy -83597.858172 kJ/mol
# GULP energy per Si atom -5573.190545 kJ/mol
# Density = 2.249528 g / cm^3
# Si number density = 22.546602 Si / 1000 Ang^3
#
#
#
# Elastic Constant Matrix: (Units=GPa)
#
#
# Indices 1 2 3 4 5 6 
#
# 1 151.1553 31.2082 34.3537 0.0000 4.0550 0.0000
# 2 31.2082 28.1147 11.2677 0.0000 6.1480 0.0000
# 3 34.3537 11.2677 57.2413 0.0000 0.0685 0.0000
# 4 0.0000 0.0000 0.0000 -7.7513 0.0000 -3.4098
# 5 4.0550 6.1480 0.0685 0.0000 40.7247 0.0000
# 6 0.0000 0.0000 0.0000 -3.4098 0.0000 29.9108
#
#
#
# Elastic Compliance Matrix: (Units=1/GPa)
#
#
# Indices 1 2 3 4 5 6 
#
# 1 0.009313 -0.008891 -0.003839 0.000000 0.000421 0.000000
# 2 -0.008891 0.048532 -0.004210 0.000000 -0.006434 0.000000
# 3 -0.003839 -0.004210 0.020602 0.000000 0.000983 0.000000
# 4 0.000000 0.000000 0.000000 -0.122850 0.000000 -0.014005
# 5 0.000421 -0.006434 0.000983 0.000000 0.025483 0.000000
# 6 0.000000 0.000000 0.000000 -0.014005 0.000000 0.031836
#
#
# Mechanical properties :
#
#
# Convention : Reuss Voigt Hill
#
# Bulk Modulus (GPa) = 22.43856 43.35229 32.89542
# Shear Modulus (GPa) = 81.10280 23.22227 52.16254
#
# Velocity S-wave (km/s) = 6.00411 3.21279 4.81515
# Velocity P-wave (km/s) = 7.61836 5.74737 6.74803
#
# Compressibility (1/GPa) = 0.04456614
#
# Stress axis : x y z
#
# Youngs Moduli (GPa) = 107.38110 20.60513 48.53971
#
# Poissons Ratio (x) = 0.18319 0.18637
# Poissons Ratio (y) = 0.95469 0.20434
# Poissons Ratio (z) = 0.41228 0.08674
#
# Static dielectric constant tensor:
#      x y z
#    x 1.932510 0.000000 -0.013760 
#    y 0.000000 1.866820 0.000000 
#    z -0.013760 0.000000 1.991700 
# 
# From -- ./inp_files/8953.got.cif
#   From: 2010.05.17/outbox.cif.g08.bks.cpg/sg3_5_cif.got.tgz:8953.got - 2010.06.03 18:33:08.
