data_PCOD9113645
_publ_section_title
;
Structure prediction by ZEFSAII (Michael W. Deem and Ramdas Pophale) SiO2 
 PCOD9113645
Probable space group: P 2
;
_chemical_formula_sum "Si O2"
_cell_formula_units_Z 13
_cell_length_a 14.422763
_cell_length_b 10.243172
_cell_length_c 8.800238
_cell_angle_alpha 90.000000
_cell_angle_beta 30.002356
_cell_angle_gamma 90.000000
_cell_volume 650.097183
_symmetry_space_group_name_H-M "P 2"
_symmetry_group_IT_number 3
_symmetry_cell_setting 'monoclinic'
loop_
_space_group_symop_operation_xyz
x,y,z
-x,y,-z
loop_
_atom_site_type_symbol
_atom_site_label
_atom_site_fract_x
_atom_site_fract_y
_atom_site_fract_z
Si Si1 0.159680 0.306900 0.649291
Si Si2 0.672021 0.529611 0.153362
Si Si3 0.055052 0.598772 0.759791
Si Si4 0.824173 0.111095 0.644620
Si Si5 0.342737 0.690496 0.126168
Si Si6 0.539518 0.238442 0.276088
Si Si7 0.500000 0.938124 0.000000
O O1 0.169903 0.463985 0.616648
O O2 0.121081 0.231068 0.545613
O O3 0.351244 0.259554 0.450405
O O4 0.000000 0.280749 0.000000
O O5 0.500000 0.575463 0.500000
O O6 0.631815 0.379769 0.171706
O O7 0.693592 0.613780 0.972867
O O8 0.862480 0.545626 0.969687
O O9 0.163497 0.692109 0.489538
O O10 0.000000 0.659402 0.000000
O O11 0.000000 0.064866 0.500000
O O12 0.676496 0.155679 0.979801
O O13 0.691856 0.019283 0.724419
O O14 0.441630 0.830197 0.955130
O O15 0.500000 0.616780 0.000000
O O16 0.500000 0.183165 0.500000
#
# Coordination Sequence:
#
# PCOD9113645 Si02
#       7
#     2   2   2   2   2   2   1
#     4  11  21  37  63  98 131 161 200 256 325 389
#     4  11  21  36  62  97 128 160 200 254 323 388
#     4  11  21  36  62  97 128 160 200 254 323 388
#     4  12  23  43  67  90 128 166 212 263 315 365
#     4  10  22  41  62  80 125 157 214 254 308 351
#     4  11  21  37  63  98 131 161 200 256 325 389
#     4  10  26  46  64  86 122 172 230 262 292 362
#
# _framework density 19.997008999999998
#
# number of rings (size 3 to 8) (size 9 to 14) (size 15 to 20)
#    0.462    0.615    1.538    8.769    0.000    1.231 
#    0.000    1.538    0.000    0.000    0.000    0.000 
#    0.000    0.000    0.000    0.000    0.000    0.000 
#
# Total GULP energy -72430.717408 kJ/mol
# GULP energy per Si atom -5571.593647 kJ/mol
# Density = 1.995149 g / cm^3
# Si number density = 19.997009 Si / 1000 Ang^3
#
#
#
# Elastic Constant Matrix: (Units=GPa)
#
#
# Indices 1 2 3 4 5 6 
#
# 1 90.0906 14.0122 37.4805 0.0000 -10.8282 0.0000
# 2 14.0122 33.2423 34.0695 0.0000 6.7032 0.0000
# 3 37.4805 34.0695 121.0747 0.0000 -4.4121 0.0000
# 4 0.0000 0.0000 0.0000 13.2839 0.0000 -18.7003
# 5 -10.8282 6.7032 -4.4121 0.0000 51.5457 0.0000
# 6 0.0000 0.0000 0.0000 -18.7003 0.0000 -4.6788
#
#
#
# Elastic Compliance Matrix: (Units=1/GPa)
#
#
# Indices 1 2 3 4 5 6 
#
# 1 0.013217 -0.002904 -0.003169 0.000000 0.002883 0.000000
# 2 -0.002904 0.045227 -0.012102 0.000000 -0.007528 0.000000
# 3 -0.003169 -0.012102 0.012719 0.000000 0.001997 0.000000
# 4 0.000000 0.000000 0.000000 0.011360 0.000000 -0.045405
# 5 0.002883 -0.007528 0.001997 0.000000 0.021156 0.000000
# 6 0.000000 0.000000 0.000000 -0.045405 0.000000 -0.032254
#
#
# Mechanical properties :
#
#
# Convention : Reuss Voigt Hill
#
# Bulk Modulus (GPa) = 28.72587 46.17021 37.44804
# Shear Modulus (GPa) = 41.88334 22.61986 32.25160
#
# Velocity S-wave (km/s) = 4.58151 3.36692 4.02035
# Velocity P-wave (km/s) = 6.51025 6.18495 6.34968
#
# Compressibility (1/GPa) = 0.03481182
#
# Stress axis : x y z
#
# Youngs Moduli (GPa) = 75.66245 22.11051 78.62554
#
# Poissons Ratio (x) = 0.06422 0.24917
# Poissons Ratio (y) = 0.21976 0.95151
# Poissons Ratio (z) = 0.23978 0.26758
#
# Static dielectric constant tensor:
#      x y z
#    x 1.814250 0.000000 0.018710 
#    y 0.000000 1.741360 0.000000 
#    z 0.018710 0.000000 1.708340 
# 
# From -- ./inp_files/8649.got.cif
#   From: 2010.05.17/outbox.cif.g08.bks.cpg/sg3_5_cif.got.tgz:8649.got - 2010.06.03 18:33:08.
