data_PCOD9113849
_publ_section_title
;
Structure prediction by ZEFSAII (Michael W. Deem and Ramdas Pophale) SiO2 
 PCOD9113849
Probable space group: P 2
;
_chemical_formula_sum "Si O2"
_cell_formula_units_Z 16
_cell_length_a 14.548466
_cell_length_b 5.663172
_cell_length_c 8.826763
_cell_angle_alpha 90.000000
_cell_angle_beta 78.119435
_cell_angle_gamma 90.000000
_cell_volume 711.662787
_symmetry_space_group_name_H-M "P 2"
_symmetry_group_IT_number 3
_symmetry_cell_setting 'monoclinic'
loop_
_space_group_symop_operation_xyz
x,y,z
-x,y,-z
loop_
_atom_site_type_symbol
_atom_site_label
_atom_site_fract_x
_atom_site_fract_y
_atom_site_fract_z
Si Si1 0.750831 0.057700 0.881155
Si Si2 0.045062 0.554747 0.814825
Si Si3 0.636000 0.804681 0.153145
Si Si4 0.743978 0.492966 0.348067
Si Si5 0.972901 0.061274 0.829185
Si Si6 0.337152 0.748953 0.359027
Si Si7 0.592313 0.441320 0.916941
Si Si8 0.405800 0.115112 0.576023
O O1 0.861858 0.076520 0.840805
O O2 0.688342 0.295039 0.905456
O O3 0.711264 0.906631 0.753828
O O4 0.725520 0.923878 0.044422
O O5 0.157078 0.522396 0.767788
O O6 0.010792 0.309456 0.751578
O O7 0.014038 0.809476 0.758434
O O8 0.000000 0.556217 0.000000
O O9 0.668835 0.621634 0.267314
O O10 0.581866 0.006470 0.261348
O O11 0.589214 0.657462 0.036425
O O12 0.740778 0.620586 0.511444
O O13 0.695603 0.240482 0.389242
O O14 0.000000 0.063587 0.000000
O O15 0.399997 0.552676 0.252409
O O16 0.396011 0.912485 0.452304
O O17 0.500000 0.296730 0.000000
O O18 0.500000 0.256443 0.500000
#
# Coordination Sequence:
#
# PCOD9113849 Si02
#       8
#     2   2   2   2   2   2   2   2
#     4  11  24  42  70  99 139 182 232 298 357 434
#     4  10  23  40  71 103 138 175 237 301 370 420
#     4  10  23  38  67  96 136 174 240 287 361 410
#     4  11  24  42  70  99 139 182 232 298 357 434
#     4  10  23  40  71 103 138 175 237 301 370 420
#     4  10  25  44  67  92 150 184 233 282 369 426
#     4  11  24  42  67 101 139 189 240 292 359 433
#     4  11  24  42  67 101 139 189 240 292 359 433
#
# _framework density 22.482558000000001
#
# number of rings (size 3 to 8) (size 9 to 14) (size 15 to 20)
#    0.000    1.500    0.000    3.750   14.000    8.000 
#    0.000    0.625    0.000    0.000    0.000    0.000 
#    0.000    0.000    0.000    0.000    0.000    0.000 
#
# Total GULP energy -89305.717712 kJ/mol
# GULP energy per Si atom -5581.607357 kJ/mol
# Density = 2.243139 g / cm^3
# Si number density = 22.482558 Si / 1000 Ang^3
#
#
#
# Elastic Constant Matrix: (Units=GPa)
#
#
# Indices 1 2 3 4 5 6 
#
# 1 109.8185 33.9106 35.1508 0.0000 -25.3105 0.0000
# 2 33.9106 112.2411 16.6195 0.0000 -2.6071 0.0000
# 3 35.1508 16.6195 96.7275 0.0000 -6.1505 0.0000
# 4 0.0000 0.0000 0.0000 9.5506 0.0000 -6.8890
# 5 -25.3105 -2.6071 -6.1505 0.0000 37.2614 0.0000
# 6 0.0000 0.0000 0.0000 -6.8890 0.0000 22.7926
#
#
#
# Elastic Compliance Matrix: (Units=1/GPa)
#
#
# Indices 1 2 3 4 5 6 
#
# 1 0.013161 -0.003239 -0.003711 0.000000 0.008101 0.000000
# 2 -0.003239 0.009944 -0.000634 0.000000 -0.001609 0.000000
# 3 -0.003711 -0.000634 0.011756 0.000000 -0.000625 0.000000
# 4 0.000000 0.000000 0.000000 0.133898 0.000000 0.040470
# 5 0.008101 -0.001609 -0.000625 0.000000 0.032124 0.000000
# 6 0.000000 0.000000 0.000000 0.040470 0.000000 0.056106
#
#
# Mechanical properties :
#
#
# Convention : Reuss Voigt Hill
#
# Bulk Modulus (GPa) = 50.77695 54.46098 52.61896
# Shear Modulus (GPa) = 17.93909 29.46133 23.70021
#
# Velocity S-wave (km/s) = 2.82780 3.62388 3.25031
# Velocity P-wave (km/s) = 5.77027 6.46423 6.12708
#
# Compressibility (1/GPa) = 0.01969397
#
# Stress axis : x y z
#
# Youngs Moduli (GPa) = 75.98326 100.55978 85.06184
#
# Poissons Ratio (x) = 0.32566 0.31567
# Poissons Ratio (y) = 0.24607 0.05393
# Poissons Ratio (z) = 0.28198 0.06376
#
# Static dielectric constant tensor:
#      x y z
#    x 1.836500 0.000000 -0.026020 
#    y 0.000000 1.929560 0.000000 
#    z -0.026020 0.000000 1.821170 
# 
# From -- ./inp_files/8314.got.cif
#   From: 2010.05.17/outbox.cif.g08.bks.cpg/sg3_5_cif.got.tgz:8314.got - 2010.06.03 18:33:08.
