data_PCOD9113661
_publ_section_title
;
Structure prediction by ZEFSAII (Michael W. Deem and Ramdas Pophale) SiO2 
 PCOD9113661
Probable space group: P 2
;
_chemical_formula_sum "Si O2"
_cell_formula_units_Z 13
_cell_length_a 14.122395
_cell_length_b 6.642960
_cell_length_c 9.274813
_cell_angle_alpha 90.000000
_cell_angle_beta 135.724498
_cell_angle_gamma 90.000000
_cell_volume 607.433197
_symmetry_space_group_name_H-M "P 2"
_symmetry_group_IT_number 3
_symmetry_cell_setting 'monoclinic'
loop_
_space_group_symop_operation_xyz
x,y,z
-x,y,-z
loop_
_atom_site_type_symbol
_atom_site_label
_atom_site_fract_x
_atom_site_fract_y
_atom_site_fract_z
Si Si1 0.269870 0.615970 0.242728
Si Si2 0.571198 0.926353 0.785473
Si Si3 0.318936 0.674527 0.613835
Si Si4 0.500000 0.275318 0.500000
Si Si5 0.815017 0.381725 0.371094
Si Si6 0.194624 0.941606 0.731997
Si Si7 0.916575 0.592993 0.219338
O O1 0.351139 0.797326 0.252990
O O2 0.242670 0.673029 0.377778
O O3 0.369307 0.421950 0.354463
O O4 0.137646 0.582911 0.000907
O O5 0.462539 0.774082 0.736008
O O6 0.506170 0.123425 0.642532
O O7 0.678833 0.983836 0.024460
O O8 0.314056 0.450169 0.676166
O O9 0.246318 0.804801 0.657146
O O10 0.846033 0.150443 0.382933
O O11 0.808652 0.476200 0.204008
O O12 0.942844 0.484989 0.591795
O O13 0.090794 0.817976 0.721506
#
# Coordination Sequence:
#
# PCOD9113661 Si02
#       7
#     2   2   2   1   2   2   2
#     4  11  22  40  65  89 127 167 209 264 319 375
#     4  11  22  41  60  95 126 169 210 255 319 381
#     4  11  22  39  59  93 132 160 204 266 316 371
#     4  12  20  36  66  88 122 172 214 260 308 388
#     4  10  22  41  66  91 122 167 215 260 316 376
#     4  10  23  41  66  91 125 166 211 263 322 375
#     4   9  22  43  66  88 121 165 217 265 312 372
#
# _framework density 21.401529
#
# number of rings (size 3 to 8) (size 9 to 14) (size 15 to 20)
#    0.000    1.538    3.077    1.385    2.154    5.538 
#    2.769    0.000    3.385    0.000    0.000    0.000 
#    0.000    0.000    0.000    0.000    0.000    0.000 
#
# Total GULP energy -72605.978254 kJ/mol
# GULP energy per Si atom -5585.075250 kJ/mol
# Density = 2.135282 g / cm^3
# Si number density = 21.401529 Si / 1000 Ang^3
#
#
#
# Elastic Constant Matrix: (Units=GPa)
#
#
# Indices 1 2 3 4 5 6 
#
# 1 59.6280 25.0036 23.2451 0.0000 -19.0406 0.0000
# 2 25.0036 129.8368 41.1552 0.0000 1.2815 0.0000
# 3 23.2451 41.1552 128.0495 0.0000 2.9470 0.0000
# 4 0.0000 0.0000 0.0000 30.1830 0.0000 0.0946
# 5 -19.0406 1.2815 2.9470 0.0000 22.0824 0.0000
# 6 0.0000 0.0000 0.0000 0.0946 0.0000 21.8576
#
#
#
# Elastic Compliance Matrix: (Units=1/GPa)
#
#
# Indices 1 2 3 4 5 6 
#
# 1 0.028348 -0.004335 -0.004335 0.000000 0.025273 0.000000
# 2 -0.004335 0.009239 -0.002091 0.000000 -0.003995 0.000000
# 3 -0.004335 -0.002091 0.009380 0.000000 -0.004868 0.000000
# 4 0.000000 0.000000 0.000000 0.033132 0.000000 -0.000143
# 5 0.025273 -0.003995 -0.004868 0.000000 0.067958 0.000000
# 6 0.000000 0.000000 0.000000 -0.000143 0.000000 0.045751
#
#
# Mechanical properties :
#
#
# Convention : Reuss Voigt Hill
#
# Bulk Modulus (GPa) = 39.29612 55.14689 47.22151
# Shear Modulus (GPa) = 22.34025 30.03198 26.18611
#
# Velocity S-wave (km/s) = 3.23439 3.75008 3.50174
# Velocity P-wave (km/s) = 5.68767 6.67641 6.20178
#
# Compressibility (1/GPa) = 0.02544781
#
# Stress axis : x y z
#
# Youngs Moduli (GPa) = 35.27525 108.23882 106.60651
#
# Poissons Ratio (x) = 0.46919 0.46210
# Poissons Ratio (y) = 0.15291 0.22287
# Poissons Ratio (z) = 0.15290 0.22628
#
# Static dielectric constant tensor:
#      x y z
#    x 1.808120 0.000000 0.034470 
#    y 0.000000 1.810650 0.000000 
#    z 0.034470 0.000000 1.786180 
# 
# From -- ./inp_files/8245.got.cif
#   From: 2010.05.17/outbox.cif.g08.bks.cpg/sg3_5_cif.got.tgz:8245.got - 2010.06.03 18:33:08.
