data_PCOD9113254
_publ_section_title
;
Structure prediction by ZEFSAII (Michael W. Deem and Ramdas Pophale) SiO2 
 PCOD9113254
Probable space group: P 2
;
_chemical_formula_sum "Si O2"
_cell_formula_units_Z 14
_cell_length_a 15.558306
_cell_length_b 8.015285
_cell_length_c 16.354756
_cell_angle_alpha 90.000000
_cell_angle_beta 162.183795
_cell_angle_gamma 90.000000
_cell_volume 624.017122
_symmetry_space_group_name_H-M "P 2"
_symmetry_group_IT_number 3
_symmetry_cell_setting 'monoclinic'
loop_
_space_group_symop_operation_xyz
x,y,z
-x,y,-z
loop_
_atom_site_type_symbol
_atom_site_label
_atom_site_fract_x
_atom_site_fract_y
_atom_site_fract_z
Si Si1 0.500000 0.004890 0.500000
Si Si2 0.111899 0.354570 0.866393
Si Si3 0.808136 0.368530 0.250780
Si Si4 0.094603 0.868138 0.344719
Si Si5 0.563794 0.189665 0.388842
Si Si6 0.000000 0.765638 0.000000
Si Si7 0.810601 0.773042 0.254822
Si Si8 0.321195 0.686590 0.136637
O O1 0.484820 0.118828 0.405892
O O2 0.228288 0.884791 0.251182
O O3 0.132225 0.315716 0.788230
O O4 0.784955 0.342302 0.595165
O O5 0.300693 0.235154 0.094361
O O6 0.246158 0.534794 0.008535
O O7 0.825765 0.571094 0.263368
O O8 0.000000 0.312011 0.500000
O O9 0.500000 0.320324 0.000000
O O10 0.352262 0.736177 0.567293
O O11 0.931613 0.842762 0.281104
O O12 0.246950 0.044269 0.478634
O O13 0.858522 0.840478 0.062393
O O14 0.183476 0.660493 0.101103
O O15 0.000000 0.831713 0.500000
O O16 0.500000 0.819350 0.000000
#
# Coordination Sequence:
#
# PCOD9113254 Si02
#       8
#     1   2   2   2   2   1   2   2
#     4  12  24  46  70  98 138 188 238 274 352 434
#     4  12  26  44  67 108 140 179 232 286 356 408
#     4  10  21  39  67  98 131 177 225 282 341 409
#     4  12  23  44  69 102 133 185 232 281 346 413
#     4  12  26  44  69  99 145 189 221 284 355 426
#     4  12  22  44  70 104 132 178 248 288 338 398
#     4  10  21  37  66 102 130 169 228 292 332 392
#     4  12  24  41  72 100 136 177 236 299 326 406
#
# _framework density 22.435282999999998
#
# number of rings (size 3 to 8) (size 9 to 14) (size 15 to 20)
#    0.000    0.571    4.286    4.286    4.000    1.143 
#    0.000    2.857    0.000    0.000    0.000    0.000 
#    0.000    0.000    0.000    0.000    0.000    0.000 
#
# Total GULP energy -78322.522655 kJ/mol
# GULP energy per Si atom -5594.465904 kJ/mol
# Density = 2.238422 g / cm^3
# Si number density = 22.435283 Si / 1000 Ang^3
#
#
#
# Elastic Constant Matrix: (Units=GPa)
#
#
# Indices 1 2 3 4 5 6 
#
# 1 183.8855 6.0958 42.0079 0.0000 -7.6793 0.0000
# 2 6.0958 48.6818 10.6565 0.0000 -1.0437 0.0000
# 3 42.0079 10.6565 132.1717 0.0000 -10.3843 0.0000
# 4 0.0000 0.0000 0.0000 33.3299 0.0000 12.6208
# 5 -7.6793 -1.0437 -10.3843 0.0000 35.9361 0.0000
# 6 0.0000 0.0000 0.0000 12.6208 0.0000 30.2127
#
#
#
# Elastic Compliance Matrix: (Units=1/GPa)
#
#
# Indices 1 2 3 4 5 6 
#
# 1 0.005888 -0.000330 -0.001787 0.000000 0.000732 0.000000
# 2 -0.000330 0.020930 -0.001576 0.000000 0.000082 0.000000
# 3 -0.001787 -0.001576 0.008419 0.000000 0.002005 0.000000
# 4 0.000000 0.000000 0.000000 0.035641 0.000000 -0.014888
# 5 0.000732 0.000082 0.002005 0.000000 0.028565 0.000000
# 6 0.000000 0.000000 0.000000 -0.014888 0.000000 0.039318
#
#
# Mechanical properties :
#
#
# Convention : Reuss Voigt Hill
#
# Bulk Modulus (GPa) = 35.90799 53.58440 44.74620
# Shear Modulus (GPa) = 32.16868 40.29431 36.23149
#
# Velocity S-wave (km/s) = 3.79072 4.24255 4.02298
# Velocity P-wave (km/s) = 5.93290 6.92350 6.44725
#
# Compressibility (1/GPa) = 0.02784895
#
# Stress axis : x y z
#
# Youngs Moduli (GPa) = 169.83769 47.77903 118.78547
#
# Poissons Ratio (x) = 0.01578 0.21229
# Poissons Ratio (y) = 0.05611 0.18721
# Poissons Ratio (z) = 0.30353 0.07530
#
# Static dielectric constant tensor:
#      x y z
#    x 1.713500 0.000000 0.047460 
#    y 0.000000 1.891720 0.000000 
#    z 0.047460 0.000000 1.745850 
# 
# From -- ./inp_files/14003.got.cif
#   From: 2010.05.17/outbox.cif.g08.bks.cpg/sg3_8_cif.got.tgz:14003.got - 2010.06.03 18:33:08.
