data_PCOD9113559
_publ_section_title
;
Structure prediction by ZEFSAII (Michael W. Deem and Ramdas Pophale) SiO2 
 PCOD9113559
Probable space group: P 2
;
_chemical_formula_sum "Si O2"
_cell_formula_units_Z 14
_cell_length_a 20.959903
_cell_length_b 5.428093
_cell_length_c 26.864390
_cell_angle_alpha 90.000000
_cell_angle_beta 11.242666
_cell_angle_gamma 90.000000
_cell_volume 595.894930
_symmetry_space_group_name_H-M "P 2"
_symmetry_group_IT_number 3
_symmetry_cell_setting 'monoclinic'
loop_
_space_group_symop_operation_xyz
x,y,z
-x,y,-z
loop_
_atom_site_type_symbol
_atom_site_label
_atom_site_fract_x
_atom_site_fract_y
_atom_site_fract_z
Si Si1 0.345936 0.605910 0.947152
Si Si2 0.397874 0.363334 0.635084
Si Si3 0.359194 0.106976 0.247669
Si Si4 0.087411 0.621588 0.619494
Si Si5 0.700108 0.864228 0.266932
Si Si6 0.781989 0.120520 0.824872
Si Si7 0.835112 0.613722 0.026587
O O1 0.591380 0.374023 0.765492
O O2 0.183514 0.564676 0.017545
O O3 0.532984 0.868982 0.803079
O O4 0.106813 0.613734 0.178796
O O5 0.500000 0.359698 0.500000
O O6 0.499214 0.613764 0.583865
O O7 0.496195 0.113767 0.585854
O O8 0.002825 0.397827 0.931752
O O9 0.000000 0.074572 0.500000
O O10 0.604109 0.113749 0.013925
O O11 0.477181 0.662809 0.321754
O O12 0.016589 0.358524 0.647337
O O13 0.950195 0.853495 0.692939
O O14 0.000000 0.867906 0.000000
O O15 0.895365 0.829650 0.170057
O O16 0.500000 0.152895 0.000000
#
# Coordination Sequence:
#
# PCOD9113559 Si02
#       7
#     2   2   2   2   2   2   2
#     4  10  23  40  59  92 127 163 213 265 313 375
#     4  10  23  43  66  99 131 166 219 261 331 400
#     4  10  22  38  60  89 124 166 214 261 317 369
#     4  10  23  40  59  92 127 163 213 265 313 375
#     4  10  23  43  66  99 131 166 219 261 331 400
#     4  10  22  38  60  89 124 166 214 261 317 369
#     4  10  26  40  72  92 130 170 212 258 338 370
#
# _framework density 23.494076
#
# number of rings (size 3 to 8) (size 9 to 14) (size 15 to 20)
#    0.857    1.143    0.000    1.714    8.000    1.143 
#    0.000    0.000    0.000    0.000    0.000    0.000 
#    0.000    0.000    0.000    0.000    0.000    0.000 
#
# Total GULP energy -78150.940050 kJ/mol
# GULP energy per Si atom -5582.210004 kJ/mol
# Density = 2.344060 g / cm^3
# Si number density = 23.494076 Si / 1000 Ang^3
#
#
#
# Elastic Constant Matrix: (Units=GPa)
#
#
# Indices 1 2 3 4 5 6 
#
# 1 77.4402 18.0238 -5.0383 0.0000 -6.2859 0.0000
# 2 18.0238 188.3319 18.2351 0.0000 1.1965 0.0000
# 3 -5.0383 18.2351 75.4862 0.0000 -5.3394 0.0000
# 4 0.0000 0.0000 0.0000 0.0695 0.0000 5.8625
# 5 -6.2859 1.1965 -5.3394 0.0000 46.3799 0.0000
# 6 0.0000 0.0000 0.0000 5.8625 0.0000 -0.9241
#
#
#
# Elastic Compliance Matrix: (Units=1/GPa)
#
#
# Indices 1 2 3 4 5 6 
#
# 1 0.013504 -0.001440 0.001393 0.000000 0.002028 0.000000
# 2 -0.001440 0.005594 -0.001484 0.000000 -0.000510 0.000000
# 3 0.001393 -0.001484 0.013827 0.000000 0.001819 0.000000
# 4 0.000000 0.000000 0.000000 0.026838 0.000000 0.170257
# 5 0.002028 -0.000510 0.001819 0.000000 0.022058 0.000000
# 6 0.000000 0.000000 0.000000 0.170257 0.000000 -0.002018
#
#
# Mechanical properties :
#
#
# Convention : Reuss Voigt Hill
#
# Bulk Modulus (GPa) = 33.48597 44.85550 39.17073
# Shear Modulus (GPa) = 53.86706 29.77423 41.82065
#
# Velocity S-wave (km/s) = 4.79351 3.56379 4.22364
# Velocity P-wave (km/s) = 6.70230 6.00565 6.36352
#
# Compressibility (1/GPa) = 0.02986326
#
# Stress axis : x y z
#
# Youngs Moduli (GPa) = 74.05468 178.74744 72.31982
#
# Poissons Ratio (x) = 0.25740 -0.10071
# Poissons Ratio (y) = 0.10664 0.10730
# Poissons Ratio (z) = -0.10313 0.26520
#
# Static dielectric constant tensor:
#      x y z
#    x 1.893810 0.000000 0.010510 
#    y 0.000000 2.013690 0.000000 
#    z 0.010510 0.000000 1.895740 
# 
# From -- ./inp_files/16637.got.cif
#   From: 2010.05.17/outbox.cif.g08.bks.cpg/sg3_9_cif.got.tgz:16637.got - 2010.06.03 18:33:08.
