data_PCOD9113164
_publ_section_title
;
Structure prediction by ZEFSAII (Michael W. Deem and Ramdas Pophale) SiO2 
 PCOD9113164
Probable space group: P 2
;
_chemical_formula_sum "Si O2"
_cell_formula_units_Z 12
_cell_length_a 6.198034
_cell_length_b 6.070360
_cell_length_c 16.862294
_cell_angle_alpha 90.000000
_cell_angle_beta 58.760846
_cell_angle_gamma 90.000000
_cell_volume 542.445715
_symmetry_space_group_name_H-M "P 2"
_symmetry_group_IT_number 3
_symmetry_cell_setting 'monoclinic'
loop_
_space_group_symop_operation_xyz
x,y,z
-x,y,-z
loop_
_atom_site_type_symbol
_atom_site_label
_atom_site_fract_x
_atom_site_fract_y
_atom_site_fract_z
Si Si1 0.228678 0.716770 0.081511
Si Si2 0.319590 0.727338 0.240124
Si Si3 0.000000 0.055440 0.000000
Si Si4 0.500000 0.166992 0.500000
Si Si5 0.770035 0.381098 0.163230
Si Si6 0.997682 0.450501 0.587686
Si Si7 0.464592 0.105384 0.333398
O O1 0.253775 0.810884 0.165458
O O2 0.022761 0.523550 0.122637
O O3 0.136981 0.900552 0.037418
O O4 0.500000 0.634906 0.000000
O O5 0.538131 0.544131 0.189754
O O6 0.080056 0.616599 0.328602
O O7 0.423427 0.909435 0.280124
O O8 0.809160 0.209774 0.084685
O O9 0.742188 0.325230 0.448829
O O10 0.491493 0.034357 0.419447
O O11 0.699111 0.248152 0.256276
O O12 0.777769 0.266028 0.624870
O O13 0.000000 0.561129 0.500000
#
# Coordination Sequence:
#
# PCOD9113164 Si02
#       7
#     2   2   1   1   2   2   2
#     4  12  25  42  66  96 128 166 214 264 322 382
#     4  11  24  44  68  96 128 169 216 263 317 379
#     4  12  26  44  66  96 128 164 212 268 324 382
#     4  10  20  42  68  94 132 174 210 260 320 372
#     4  11  24  45  66  92 131 169 214 264 315 382
#     4   9  21  40  64  97 133 169 213 262 313 373
#     4  10  22  41  66  97 131 168 215 264 314 374
#
# _framework density 22.122026999999999
#
# number of rings (size 3 to 8) (size 9 to 14) (size 15 to 20)
#    0.000    1.333    0.000    5.500    0.000    9.333 
#    0.000   10.000    0.000    0.000    0.000    0.000 
#    0.000    0.000    0.000    0.000    0.000    0.000 
#
# Total GULP energy -67182.332827 kJ/mol
# GULP energy per Si atom -5598.527736 kJ/mol
# Density = 2.207168 g / cm^3
# Si number density = 22.122027 Si / 1000 Ang^3
#
#
#
# Elastic Constant Matrix: (Units=GPa)
#
#
# Indices 1 2 3 4 5 6 
#
# 1 90.5719 41.6807 83.6010 0.0000 8.0969 0.0000
# 2 41.6807 79.7097 67.0968 0.0000 7.2380 0.0000
# 3 83.6010 67.0968 191.2675 0.0000 19.7139 0.0000
# 4 0.0000 0.0000 0.0000 4.8612 0.0000 3.4252
# 5 8.0969 7.2380 19.7139 0.0000 58.7348 0.0000
# 6 0.0000 0.0000 0.0000 3.4252 0.0000 12.7440
#
#
#
# Elastic Compliance Matrix: (Units=1/GPa)
#
#
# Indices 1 2 3 4 5 6 
#
# 1 0.019490 -0.004287 -0.007036 0.000000 0.000203 0.000000
# 2 -0.004287 0.018746 -0.004687 0.000000 -0.000146 0.000000
# 3 -0.007036 -0.004687 0.010139 0.000000 -0.001856 0.000000
# 4 0.000000 0.000000 0.000000 0.253764 0.000000 -0.068204
# 5 0.000203 -0.000146 -0.001856 0.000000 0.017638 0.000000
# 6 0.000000 0.000000 0.000000 -0.068204 0.000000 0.096799
#
#
# Mechanical properties :
#
#
# Convention : Reuss Voigt Hill
#
# Bulk Modulus (GPa) = 61.14496 82.92289 72.03393
# Shear Modulus (GPa) = 11.01202 26.54606 18.77904
#
# Velocity S-wave (km/s) = 2.23353 3.46784 2.91672
# Velocity P-wave (km/s) = 5.86101 7.32122 6.63143
#
# Compressibility (1/GPa) = 0.01635458
#
# Stress axis : x y z
#
# Youngs Moduli (GPa) = 51.30784 53.34418 98.62822
#
# Poissons Ratio (x) = 0.22871 0.69393
# Poissons Ratio (y) = 0.21998 0.46228
# Poissons Ratio (z) = 0.36099 0.25003
#
# Static dielectric constant tensor:
#      x y z
#    x 1.793160 0.000000 0.007270 
#    y 0.000000 1.782150 0.000000 
#    z 0.007270 0.000000 1.826430 
# 
# From -- ./inp_files/14521.got.cif
#   From: 2010.05.17/outbox.cif.g08.bks.cpg/sg3_8_cif.got.tgz:14521.got - 2010.06.03 18:33:08.
