data_PCOD9113422
_publ_section_title
;
Structure prediction by ZEFSAII (Michael W. Deem and Ramdas Pophale) SiO2 
 PCOD9113422
Probable space group: P 2
;
_chemical_formula_sum "Si O2"
_cell_formula_units_Z 16
_cell_length_a 12.292007
_cell_length_b 5.130233
_cell_length_c 11.062174
_cell_angle_alpha 90.000000
_cell_angle_beta 109.307770
_cell_angle_gamma 90.000000
_cell_volume 658.355026
_symmetry_space_group_name_H-M "P 2"
_symmetry_group_IT_number 3
_symmetry_cell_setting 'monoclinic'
loop_
_space_group_symop_operation_xyz
x,y,z
-x,y,-z
loop_
_atom_site_type_symbol
_atom_site_label
_atom_site_fract_x
_atom_site_fract_y
_atom_site_fract_z
Si Si1 0.200106 0.963180 0.191201
Si Si2 0.503218 0.421834 0.767225
Si Si3 0.987084 0.091656 0.239579
Si Si4 0.303306 0.465286 0.344475
Si Si5 0.253903 0.330783 0.599390
Si Si6 0.389964 0.909582 0.075746
Si Si7 0.248964 0.943135 0.805950
Si Si8 0.064093 0.590984 0.667234
O O1 0.250627 0.752756 0.305820
O O2 0.263197 0.886537 0.091758
O O3 0.063655 0.980790 0.160456
O O4 0.240530 0.255517 0.235977
O O5 0.567112 0.470305 0.662073
O O6 0.367003 0.456410 0.703462
O O7 0.550894 0.636790 0.875651
O O8 0.543579 0.140329 0.830404
O O9 0.851029 0.115648 0.167392
O O10 0.014689 0.378868 0.296322
O O11 0.818116 0.669246 0.216353
O O12 0.285712 0.350584 0.471170
O O13 0.252547 0.053021 0.669915
O O14 0.128803 0.464114 0.576463
O O15 0.363021 0.959190 0.925930
O O16 0.003921 0.873768 0.649888
#
# Coordination Sequence:
#
# PCOD9113422 Si02
#       8
#     2   2   2   2   2   2   2   2
#     4  10  21  41  64  92 122 162 202 263 313 365
#     4  10  24  41  63  92 121 168 210 260 310 378
#     4   9  19  38  62  86 123 155 204 245 304 382
#     4  10  23  40  64  92 123 159 212 261 307 371
#     4  11  23  42  64  88 126 169 206 259 316 366
#     4  10  23  41  62  91 130 157 213 257 313 373
#     4   9  23  40  60  90 128 163 202 261 301 381
#     4   9  21  37  57  88 121 156 202 244 299 370
#
# _framework density 24.302997999999999
#
# number of rings (size 3 to 8) (size 9 to 14) (size 15 to 20)
#    0.750    1.500    0.000    1.125    7.000    1.000 
#    0.000   11.875    5.500    0.000    0.000    0.000 
#    0.000    0.000    0.000    0.000    0.000    0.000 
#
# Total GULP energy -89198.089737 kJ/mol
# GULP energy per Si atom -5574.880609 kJ/mol
# Density = 2.424768 g / cm^3
# Si number density = 24.302998 Si / 1000 Ang^3
#
#
#
# Elastic Constant Matrix: (Units=GPa)
#
#
# Indices 1 2 3 4 5 6 
#
# 1 112.5247 23.0059 14.0285 0.0000 -34.4800 0.0000
# 2 23.0059 102.5356 -7.5804 0.0000 -6.6027 0.0000
# 3 14.0285 -7.5804 67.0517 0.0000 -13.0375 0.0000
# 4 0.0000 0.0000 0.0000 22.5166 0.0000 -3.0898
# 5 -34.4800 -6.6027 -13.0375 0.0000 32.2379 0.0000
# 6 0.0000 0.0000 0.0000 -3.0898 0.0000 32.4018
#
#
#
# Elastic Compliance Matrix: (Units=1/GPa)
#
#
# Indices 1 2 3 4 5 6 
#
# 1 0.013682 -0.002195 -0.000383 0.000000 0.014030 0.000000
# 2 -0.002195 0.010404 0.001729 0.000000 0.000483 0.000000
# 3 -0.000383 0.001729 0.016474 0.000000 0.006607 0.000000
# 4 0.000000 0.000000 0.000000 0.045000 0.000000 0.004291
# 5 0.014030 0.000483 0.006607 0.000000 0.048796 0.000000
# 6 0.000000 0.000000 0.000000 0.004291 0.000000 0.031272
#
#
# Mechanical properties :
#
#
# Convention : Reuss Voigt Hill
#
# Bulk Modulus (GPa) = 25.73078 37.89111 31.81094
# Shear Modulus (GPa) = 27.73466 34.27512 31.00489
#
# Velocity S-wave (km/s) = 3.38184 3.75950 3.57566
# Velocity P-wave (km/s) = 5.08523 5.87113 5.49225
#
# Compressibility (1/GPa) = 0.03886397
#
# Stress axis : x y z
#
# Youngs Moduli (GPa) = 73.08671 96.11605 60.70121
#
# Poissons Ratio (x) = 0.21095 0.02324
# Poissons Ratio (y) = 0.16041 -0.10497
# Poissons Ratio (z) = 0.02798 -0.16621
#
# Static dielectric constant tensor:
#      x y z
#    x 2.014100 0.000000 -0.013740 
#    y 0.000000 1.947000 0.000000 
#    z -0.013740 0.000000 1.961610 
# 
# From -- ./inp_files/11318.got.cif
#   From: 2010.05.17/outbox.cif.g08.bks.cpg/sg3_6_cif.got.tgz:11318.got - 2010.06.03 18:33:08.
