data_PCOD9113633
_publ_section_title
;
Structure prediction by ZEFSAII (Michael W. Deem and Ramdas Pophale) SiO2 
 PCOD9113633
Probable space group: P 2
;
_chemical_formula_sum "Si O2"
_cell_formula_units_Z 13
_cell_length_a 8.072382
_cell_length_b 7.912549
_cell_length_c 8.417128
_cell_angle_alpha 90.000000
_cell_angle_beta 73.505150
_cell_angle_gamma 90.000000
_cell_volume 515.502262
_symmetry_space_group_name_H-M "P 2"
_symmetry_group_IT_number 3
_symmetry_cell_setting 'monoclinic'
loop_
_space_group_symop_operation_xyz
x,y,z
-x,y,-z
loop_
_atom_site_type_symbol
_atom_site_label
_atom_site_fract_x
_atom_site_fract_y
_atom_site_fract_z
Si Si1 0.204976 0.655710 0.767966
Si Si2 0.595938 0.161263 0.637817
Si Si3 0.123833 0.955805 0.588694
Si Si4 0.500000 0.168628 0.000000
Si Si5 0.198624 0.694994 0.114738
Si Si6 0.121562 0.099014 0.117093
Si Si7 0.791064 0.508395 0.569312
O O1 0.201791 0.850419 0.711418
O O2 0.270060 0.562803 0.592151
O O3 0.998310 0.624373 0.836014
O O4 0.281890 0.635275 0.923658
O O5 0.500000 0.183638 0.500000
O O6 0.488898 0.107940 0.820532
O O7 0.699048 0.333765 0.631459
O O8 0.727527 0.014344 0.564402
O O9 0.000000 0.854238 0.500000
O O10 0.008841 0.104339 0.696854
O O11 0.707881 0.214545 0.932201
O O12 0.184953 0.900422 0.105357
O O13 0.263473 0.630465 0.267784
O O14 0.000000 0.129066 0.000000
O O15 0.000000 0.490771 0.500000
#
# Coordination Sequence:
#
# PCOD9113633 Si02
#       7
#     2   2   2   1   2   2   2
#     4   9  17  34  67 102 126 159 225 283 340 411
#     4  12  28  46  63  95 147 187 238 287 346 423
#     4  11  19  39  72  99 130 176 227 286 351 417
#     4  12  28  44  66 104 144 186 232 294 350 422
#     4   9  17  35  66 101 130 162 221 283 339 410
#     4  11  20  41  72 104 139 175 228 293 357 414
#     4  10  22  40  67  96 127 181 229 277 338 417
#
# _framework density 25.218122000000001
#
# number of rings (size 3 to 8) (size 9 to 14) (size 15 to 20)
#    0.000    1.538    4.615    3.692    0.000    1.231 
#    0.000    3.077    0.000    0.000    0.000    0.000 
#    0.000    0.000    0.000    0.000    0.000    0.000 
#
# Total GULP energy -72406.898282 kJ/mol
# GULP energy per Si atom -5569.761406 kJ/mol
# Density = 2.516072 g / cm^3
# Si number density = 25.218122 Si / 1000 Ang^3
#
#
#
# Elastic Constant Matrix: (Units=GPa)
#
#
# Indices 1 2 3 4 5 6 
#
# 1 65.0223 26.8324 40.8499 0.0000 7.1458 0.0000
# 2 26.8324 44.8118 38.7508 0.0000 7.8066 0.0000
# 3 40.8499 38.7508 272.1160 0.0000 9.4319 0.0000
# 4 0.0000 0.0000 0.0000 -83.6131 0.0000 -194.8107
# 5 7.1458 7.8066 9.4319 0.0000 38.5331 0.0000
# 6 0.0000 0.0000 0.0000 -194.8107 0.0000 -311.1990
#
#
#
# Elastic Compliance Matrix: (Units=1/GPa)
#
#
# Indices 1 2 3 4 5 6 
#
# 1 0.021048 -0.011045 -0.001542 0.000000 -0.001288 0.000000
# 2 -0.011045 0.031974 -0.002765 0.000000 -0.003753 0.000000
# 3 -0.001542 -0.002765 0.004307 0.000000 -0.000208 0.000000
# 4 0.000000 0.000000 0.000000 0.026083 0.000000 -0.016328
# 5 -0.001288 -0.003753 -0.000208 0.000000 0.027002 0.000000
# 6 0.000000 0.000000 0.000000 -0.016328 0.000000 0.007008
#
#
# Mechanical properties :
#
#
# Convention : Reuss Voigt Hill
#
# Bulk Modulus (GPa) = 37.55940 66.09072 51.82506
# Shear Modulus (GPa) = 31.84687 -52.88798 -10.52056
#
# Velocity S-wave (km/s) = 3.55752 -4.58451 -2.04472
# Velocity P-wave (km/s) = 5.63922 1.32632 3.87567
#
# Compressibility (1/GPa) = 0.02662450
#
# Stress axis : x y z
#
# Youngs Moduli (GPa) = 47.51139 31.27554 232.15891
#
# Poissons Ratio (x) = 0.34544 0.35802
# Poissons Ratio (y) = 0.52476 0.64195
# Poissons Ratio (z) = 0.07327 0.08648
#
# Static dielectric constant tensor:
#      x y z
#    x 2.023280 0.000000 -0.151730 
#    y 0.000000 2.053670 0.000000 
#    z -0.151730 0.000000 3.391270 
# 
# From -- ./inp_files/5262.got.cif
#   From: 2010.05.17/outbox.cif.g08.bks.cpg/sg3_3_cif.got.tgz:5262.got - 2010.06.03 18:33:08.
