data_PCOD9113641
_publ_section_title
;
Structure prediction by ZEFSAII (Michael W. Deem and Ramdas Pophale) SiO2 
 PCOD9113641
Probable space group: P 2
;
_chemical_formula_sum "Si O2"
_cell_formula_units_Z 14
_cell_length_a 15.638836
_cell_length_b 5.448713
_cell_length_c 21.161771
_cell_angle_alpha 90.000000
_cell_angle_beta 160.538756
_cell_angle_gamma 90.000000
_cell_volume 600.779582
_symmetry_space_group_name_H-M "P 2"
_symmetry_group_IT_number 3
_symmetry_cell_setting 'monoclinic'
loop_
_space_group_symop_operation_xyz
x,y,z
-x,y,-z
loop_
_atom_site_type_symbol
_atom_site_label
_atom_site_fract_x
_atom_site_fract_y
_atom_site_fract_z
Si Si1 0.000000 0.038880 0.500000
Si Si2 0.856585 0.403743 0.502272
Si Si3 0.339497 0.618859 0.125243
Si Si4 0.767441 0.773354 0.221739
Si Si5 0.147513 0.047430 0.392122
Si Si6 0.000000 0.596973 0.000000
Si Si7 0.645421 0.916230 0.664044
Si Si8 0.098925 0.136266 0.913580
O O1 0.165580 0.205580 0.568212
O O2 0.188004 0.895837 0.678923
O O3 0.645828 0.608065 0.340519
O O4 0.809352 0.291359 0.537580
O O5 0.149379 0.494591 0.707402
O O6 0.229192 0.504507 0.114921
O O7 0.232216 0.401935 0.005881
O O8 0.252878 0.896722 0.047683
O O9 0.500000 0.804464 0.000000
O O10 0.985974 0.874195 0.326202
O O11 0.981892 0.079134 0.213907
O O12 0.426078 0.968947 0.561854
O O13 0.841169 0.740407 0.835782
O O14 0.500000 0.818777 0.500000
O O15 0.830520 0.135547 0.767464
#
# Coordination Sequence:
#
# PCOD9113641 Si02
#       8
#     1   2   2   2   2   1   2   2
#     4  10  26  50  70 104 138 186 236 318 376 444
#     4  11  26  44  74 103 141 190 242 312 371 438
#     4  11  26  42  73 107 149 191 249 292 367 423
#     4  11  26  47  73 102 140 188 245 306 376 442
#     4  10  24  44  70 103 142 189 243 301 362 431
#     4  10  22  40  70 100 146 196 240 290 354 428
#     4   9  20  43  68 101 148 188 242 290 356 423
#     4  10  25  45  68 111 146 201 236 300 350 444
#
# _framework density 23.303055000000001
#
# number of rings (size 3 to 8) (size 9 to 14) (size 15 to 20)
#    0.000    1.714    0.000    1.286   14.000    4.000 
#    2.571    2.143    0.000    0.000    0.000    0.000 
#    0.000    0.000    0.000    0.000    0.000    0.000 
#
# Total GULP energy -78098.699999 kJ/mol
# GULP energy per Si atom -5578.478571 kJ/mol
# Density = 2.325002 g / cm^3
# Si number density = 23.303055 Si / 1000 Ang^3
#
#
#
# Elastic Constant Matrix: (Units=GPa)
#
#
# Indices 1 2 3 4 5 6 
#
# 1 86.9209 18.4057 39.3106 0.0000 -2.6750 0.0000
# 2 18.4057 53.6571 35.1257 0.0000 3.2961 0.0000
# 3 39.3106 35.1257 145.1429 0.0000 -6.1683 0.0000
# 4 0.0000 0.0000 0.0000 36.1712 0.0000 -3.1767
# 5 -2.6750 3.2961 -6.1683 0.0000 15.8385 0.0000
# 6 0.0000 0.0000 0.0000 -3.1767 0.0000 8.1417
#
#
#
# Elastic Compliance Matrix: (Units=1/GPa)
#
#
# Indices 1 2 3 4 5 6 
#
# 1 0.013464 -0.002836 -0.002886 0.000000 0.001740 0.000000
# 2 -0.002836 0.023489 -0.005231 0.000000 -0.007405 0.000000
# 3 -0.002886 -0.005231 0.009114 0.000000 0.004151 0.000000
# 4 0.000000 0.000000 0.000000 0.028627 0.000000 0.011170
# 5 0.001740 -0.007405 0.004151 0.000000 0.066589 0.000000
# 6 0.000000 0.000000 0.000000 0.011170 0.000000 0.127183
#
#
# Mechanical properties :
#
#
# Convention : Reuss Voigt Hill
#
# Bulk Modulus (GPa) = 41.39040 52.37832 46.88436
# Shear Modulus (GPa) = 16.75457 24.88886 20.82172
#
# Velocity S-wave (km/s) = 2.68430 3.27165 2.99242
# Velocity P-wave (km/s) = 5.23523 6.06609 5.66591
#
# Compressibility (1/GPa) = 0.02416019
#
# Stress axis : x y z
#
# Youngs Moduli (GPa) = 74.27120 42.57316 109.72284
#
# Poissons Ratio (x) = 0.12073 0.31670
# Poissons Ratio (y) = 0.21063 0.57397
# Poissons Ratio (z) = 0.21437 0.22271
#
# Static dielectric constant tensor:
#      x y z
#    x 1.914280 0.000000 0.044800 
#    y 0.000000 1.966140 0.000000 
#    z 0.044800 0.000000 1.864000 
# 
# From -- ./inp_files/16054.got.cif
#   From: 2010.05.17/outbox.cif.g08.bks.cpg/sg3_9_cif.got.tgz:16054.got - 2010.06.03 18:33:08.
