data_PCOD9113826
_publ_section_title
;
Structure prediction by ZEFSAII (Michael W. Deem and Ramdas Pophale) SiO2 
 PCOD9113826
Probable space group: P 2
;
_chemical_formula_sum "Si O2"
_cell_formula_units_Z 10
_cell_length_a 10.603064
_cell_length_b 7.577293
_cell_length_c 5.019721
_cell_angle_alpha 90.000000
_cell_angle_beta 73.709854
_cell_angle_gamma 90.000000
_cell_volume 387.106103
_symmetry_space_group_name_H-M "P 2"
_symmetry_group_IT_number 3
_symmetry_cell_setting 'monoclinic'
loop_
_space_group_symop_operation_xyz
x,y,z
-x,y,-z
loop_
_atom_site_type_symbol
_atom_site_label
_atom_site_fract_x
_atom_site_fract_y
_atom_site_fract_z
Si Si1 0.135400 0.594720 0.562457
Si Si2 0.621597 0.344377 0.127402
Si Si3 0.762766 0.230052 0.541342
Si Si4 0.853642 0.928317 0.152778
Si Si5 0.648984 0.738070 0.976239
O O1 0.141808 0.387821 0.610107
O O2 0.133601 0.718451 0.816472
O O3 0.261947 0.660187 0.317706
O O4 0.000000 0.638839 0.500000
O O5 0.738210 0.275769 0.863389
O O6 0.627063 0.557223 0.160942
O O7 0.500000 0.309496 0.000000
O O8 0.641583 0.261465 0.406612
O O9 0.816032 0.038782 0.436786
O O10 0.725102 0.909446 0.043319
O O11 0.000000 0.993482 0.000000
O O12 0.500000 0.794100 0.000000
#
# Coordination Sequence:
#
# PCOD9113826 Si02
#       5
#     2   2   2   2   2
#     4  11  24  46  73 102 144 194 242 305 367 433
#     4  10  22  46  73 105 146 194 236 298 367 439
#     4  11  26  43  72 107 143 188 248 297 363 433
#     4  12  26  44  72 105 144 191 248 302 365 435
#     4  10  23  45  74 103 145 191 242 297 368 435
#
# _framework density 25.832712999999998
#
# number of rings (size 3 to 8) (size 9 to 14) (size 15 to 20)
#    0.000    1.200    4.000    0.600    2.800    6.400 
#    3.600    0.000    0.000    0.000    0.000    0.000 
#    0.000    0.000    0.000    0.000    0.000    0.000 
#
# Total GULP energy -55802.459548 kJ/mol
# GULP energy per Si atom -5580.245955 kJ/mol
# Density = 2.577392 g / cm^3
# Si number density = 25.832713 Si / 1000 Ang^3
#
#
#
# Elastic Constant Matrix: (Units=GPa)
#
#
# Indices 1 2 3 4 5 6 
#
# 1 147.0977 2.1611 21.2812 0.0000 -19.6265 0.0000
# 2 2.1611 100.1223 7.0379 0.0000 -1.6183 0.0000
# 3 21.2812 7.0379 85.3724 0.0000 1.9423 0.0000
# 4 0.0000 0.0000 0.0000 38.4209 0.0000 13.2063
# 5 -19.6265 -1.6183 1.9423 0.0000 33.2183 0.0000
# 6 0.0000 0.0000 0.0000 13.2063 0.0000 11.4025
#
#
#
# Elastic Compliance Matrix: (Units=1/GPa)
#
#
# Indices 1 2 3 4 5 6 
#
# 1 0.007716 0.000052 -0.002034 0.000000 0.004680 0.000000
# 2 0.000052 0.010056 -0.000855 0.000000 0.000571 0.000000
# 3 -0.002034 -0.000855 0.012336 0.000000 -0.001965 0.000000
# 4 0.000000 0.000000 0.000000 0.043242 0.000000 -0.050083
# 5 0.004680 0.000571 -0.001965 0.000000 0.033012 0.000000
# 6 0.000000 0.000000 0.000000 -0.050083 0.000000 0.145705
#
#
# Mechanical properties :
#
#
# Convention : Reuss Voigt Hill
#
# Bulk Modulus (GPa) = 40.92716 43.72809 42.32762
# Shear Modulus (GPa) = 18.80508 36.74916 27.77712
#
# Velocity S-wave (km/s) = 2.70099 3.77581 3.28269
# Velocity P-wave (km/s) = 5.06011 5.99776 5.54877
#
# Compressibility (1/GPa) = 0.02443365
#
# Stress axis : x y z
#
# Youngs Moduli (GPa) = 129.59695 99.44327 81.06580
#
# Poissons Ratio (x) = -0.00518 0.16491
# Poissons Ratio (y) = -0.00675 0.06931
# Poissons Ratio (z) = 0.26363 0.08502
#
# Static dielectric constant tensor:
#      x y z
#    x 2.469840 0.000000 0.073920 
#    y 0.000000 2.004900 0.000000 
#    z 0.073920 0.000000 2.045200 
# 
# From -- ./inp_files/983.got.cif
#   From: 2010.05.17/outbox.cif.g08.bks.cpg/sg3_1_cif.got.tgz:983.got - 2010.06.03 18:33:08.
