data_PCOD9113557
_publ_section_title
;
Structure prediction by ZEFSAII (Michael W. Deem and Ramdas Pophale) SiO2 
 PCOD9113557
Probable space group: P 2
;
_chemical_formula_sum "Si O2"
_cell_formula_units_Z 14
_cell_length_a 12.990070
_cell_length_b 6.763888
_cell_length_c 8.550421
_cell_angle_alpha 90.000000
_cell_angle_beta 106.221344
_cell_angle_gamma 90.000000
_cell_volume 721.360629
_symmetry_space_group_name_H-M "P 2"
_symmetry_group_IT_number 3
_symmetry_cell_setting 'monoclinic'
loop_
_space_group_symop_operation_xyz
x,y,z
-x,y,-z
loop_
_atom_site_type_symbol
_atom_site_label
_atom_site_fract_x
_atom_site_fract_y
_atom_site_fract_z
Si Si1 0.203284 0.127300 0.900211
Si Si2 0.604831 0.114319 0.440459
Si Si3 0.392995 0.394870 0.851899
Si Si4 0.188052 0.107677 0.259246
Si Si5 0.274833 0.785300 0.704519
Si Si6 0.920618 0.770758 0.589379
Si Si7 0.000650 0.414063 0.182260
O O1 0.306036 0.257943 0.900699
O O2 0.098661 0.265503 0.829109
O O3 0.213543 0.931503 0.798893
O O4 0.206381 0.074758 0.083924
O O5 0.500000 0.081216 0.500000
O O6 0.588521 0.292477 0.309800
O O7 0.704147 0.148841 0.599493
O O8 0.642588 0.923978 0.356248
O O9 0.340139 0.609555 0.810580
O O10 0.500000 0.402114 0.000000
O O11 0.109077 0.290807 0.246618
O O12 0.126009 0.920774 0.304219
O O13 0.184328 0.699591 0.549882
O O14 0.000000 0.875020 0.500000
O O15 0.989114 0.598022 0.698140
O O16 0.000000 0.479335 0.000000
#
# Coordination Sequence:
#
# PCOD9113557 Si02
#       7
#     2   2   2   2   2   2   2
#     4  10  22  41  63  88 122 160 201 249 302 359
#     4  10  22  41  61  87 123 159 201 251 302 358
#     4  11  23  39  62  89 118 158 203 251 303 357
#     4  10  22  39  61  86 117 158 199 245 300 354
#     4  10  23  40  61  90 121 157 202 248 302 361
#     4  11  22  36  59  87 119 155 193 244 298 355
#     4  10  22  38  59  87 118 155 198 244 298 358
#
# _framework density 19.407771
#
# number of rings (size 3 to 8) (size 9 to 14) (size 15 to 20)
#    0.000    1.714    0.000    3.429    0.000   12.000 
#    0.000    4.286    0.000    0.000    0.000    0.000 
#    0.000    0.000    0.000    0.000    0.000    0.000 
#
# Total GULP energy -78218.270541 kJ/mol
# GULP energy per Si atom -5587.019324 kJ/mol
# Density = 1.936360 g / cm^3
# Si number density = 19.407771 Si / 1000 Ang^3
#
#
#
# Elastic Constant Matrix: (Units=GPa)
#
#
# Indices 1 2 3 4 5 6 
#
# 1 111.9287 44.6002 74.3485 0.0000 -9.6567 0.0000
# 2 44.6002 83.2089 77.3228 0.0000 7.7934 0.0000
# 3 74.3485 77.3228 134.7197 0.0000 -0.7119 0.0000
# 4 0.0000 0.0000 0.0000 29.9305 0.0000 3.7782
# 5 -9.6567 7.7934 -0.7119 0.0000 39.8606 0.0000
# 6 0.0000 0.0000 0.0000 3.7782 0.0000 13.5625
#
#
#
# Elastic Compliance Matrix: (Units=1/GPa)
#
#
# Indices 1 2 3 4 5 6 
#
# 1 0.014631 -0.001510 -0.007188 0.000000 0.003711 0.000000
# 2 -0.001510 0.027080 -0.014741 0.000000 -0.005924 0.000000
# 3 -0.007188 -0.014741 0.019858 0.000000 0.001495 0.000000
# 4 0.000000 0.000000 0.000000 0.034628 0.000000 -0.009647
# 5 0.003711 -0.005924 0.001495 0.000000 0.027171 0.000000
# 6 0.000000 0.000000 0.000000 -0.009647 0.000000 0.076420
#
#
# Mechanical properties :
#
#
# Convention : Reuss Voigt Hill
#
# Bulk Modulus (GPa) = 68.06725 80.26669 74.16697
# Shear Modulus (GPa) = 19.87568 25.57643 22.72606
#
# Velocity S-wave (km/s) = 3.20364 3.63415 3.42567
# Velocity P-wave (km/s) = 6.98804 7.68487 7.34472
#
# Compressibility (1/GPa) = 0.01469135
#
# Stress axis : x y z
#
# Youngs Moduli (GPa) = 68.34867 36.92747 50.35768
#
# Poissons Ratio (x) = 0.05577 0.36197
# Poissons Ratio (y) = 0.10323 0.74230
# Poissons Ratio (z) = 0.49129 0.54433
#
# Static dielectric constant tensor:
#      x y z
#    x 1.652270 0.000000 -0.002610 
#    y 0.000000 1.661690 0.000000 
#    z -0.002610 0.000000 1.702160 
# 
# From -- ./inp_files/6708.got.cif
#   From: 2010.05.17/outbox.cif.g08.bks.cpg/sg3_4_cif.got.tgz:6708.got - 2010.06.03 18:33:08.
