data_PCOD9113366
_publ_section_title
;
Structure prediction by ZEFSAII (Michael W. Deem and Ramdas Pophale) SiO2 
 PCOD9113366
Probable space group: P 2
;
_chemical_formula_sum "Si O2"
_cell_formula_units_Z 10
_cell_length_a 17.948213
_cell_length_b 5.368150
_cell_length_c 5.110715
_cell_angle_alpha 90.000000
_cell_angle_beta 125.610861
_cell_angle_gamma 90.000000
_cell_volume 400.325208
_symmetry_space_group_name_H-M "P 2"
_symmetry_group_IT_number 3
_symmetry_cell_setting 'monoclinic'
loop_
_space_group_symop_operation_xyz
x,y,z
-x,y,-z
loop_
_atom_site_type_symbol
_atom_site_label
_atom_site_fract_x
_atom_site_fract_y
_atom_site_fract_z
Si Si1 0.191189 0.365010 0.324099
Si Si2 0.102696 0.572417 0.623492
Si Si3 0.395092 0.063716 0.375987
Si Si4 0.749266 0.863658 0.330120
Si Si5 0.563239 0.565458 0.371290
O O1 0.110672 0.407525 0.376397
O O2 0.259882 0.584172 0.571229
O O3 0.154854 0.436483 0.966714
O O4 0.225691 0.084016 0.420701
O O5 0.161638 0.817468 0.673041
O O6 0.000000 0.625161 0.500000
O O7 0.500000 0.100004 0.500000
O O8 0.369491 0.339005 0.419960
O O9 0.397776 0.842332 0.593181
O O10 0.332303 0.960570 0.017773
O O11 0.500000 0.600806 0.500000
O O12 0.500000 0.489200 0.000000
#
# Coordination Sequence:
#
# PCOD9113366 Si02
#       5
#     2   2   2   2   2
#     4  10  24  43  68  99 138 176 224 280 345 401
#     4  10  24  47  69 104 134 181 222 285 343 418
#     4  10  21  43  64  96 131 176 221 271 328 393
#     4  10  24  44  67 102 136 180 224 285 333 411
#     4  10  21  40  60  89 121 167 216 266 317 381
#
# _framework density 24.979692
#
# number of rings (size 3 to 8) (size 9 to 14) (size 15 to 20)
#    1.200    0.800    0.000    2.400    2.800    0.800 
#   25.200    0.000    0.000    0.000    0.000    0.000 
#    0.000    0.000    0.000    0.000    0.000    0.000 
#
# Total GULP energy -55940.985194 kJ/mol
# GULP energy per Si atom -5594.098519 kJ/mol
# Density = 2.492284 g / cm^3
# Si number density = 24.979692 Si / 1000 Ang^3
#
#
#
# Elastic Constant Matrix: (Units=GPa)
#
#
# Indices 1 2 3 4 5 6 
#
# 1 101.9679 35.7705 10.1467 0.0000 2.9630 0.0000
# 2 35.7705 191.9380 39.9282 0.0000 3.6570 0.0000
# 3 10.1467 39.9282 110.2338 0.0000 -3.0563 0.0000
# 4 0.0000 0.0000 0.0000 27.4382 0.0000 -23.9368
# 5 2.9630 3.6570 -3.0563 0.0000 45.2855 0.0000
# 6 0.0000 0.0000 0.0000 -23.9368 0.0000 23.0104
#
#
#
# Elastic Compliance Matrix: (Units=1/GPa)
#
#
# Indices 1 2 3 4 5 6 
#
# 1 0.010515 -0.001887 -0.000300 0.000000 -0.000556 0.000000
# 2 -0.001887 0.005989 -0.002009 0.000000 -0.000496 0.000000
# 3 -0.000300 -0.002009 0.009851 0.000000 0.000847 0.000000
# 4 0.000000 0.000000 0.000000 0.394073 0.000000 0.409940
# 5 -0.000556 -0.000496 0.000847 0.000000 0.022216 0.000000
# 6 0.000000 0.000000 0.000000 0.409940 0.000000 0.469904
#
#
# Mechanical properties :
#
#
# Convention : Reuss Voigt Hill
#
# Bulk Modulus (GPa) = 55.67130 63.98114 59.82622
# Shear Modulus (GPa) = 5.39417 40.36643 22.88030
#
# Velocity S-wave (km/s) = 1.47109 4.02427 3.02976
# Velocity P-wave (km/s) = 5.02200 6.87473 6.02007
#
# Compressibility (1/GPa) = 0.01796258
#
# Stress axis : x y z
#
# Youngs Moduli (GPa) = 95.10374 166.97083 101.51720
#
# Poissons Ratio (x) = 0.31501 0.03045
# Poissons Ratio (y) = 0.17942 0.20399
# Poissons Ratio (z) = 0.02852 0.33551
#
# Static dielectric constant tensor:
#      x y z
#    x 2.573080 0.000000 0.082570 
#    y 0.000000 2.000130 0.000000 
#    z 0.082570 0.000000 1.882270 
# 
# From -- ./inp_files/2771.got.cif
#   From: 2010.05.17/outbox.cif.g08.bks.cpg/sg3_2_cif.got.tgz:2771.got - 2010.06.03 18:33:08.
