data_PCOD9113952
_publ_section_title
;
Structure prediction by ZEFSAII (Michael W. Deem and Ramdas Pophale) SiO2 
 PCOD9113952
Probable space group: P 2
;
_chemical_formula_sum "Si O2"
_cell_formula_units_Z 16
_cell_length_a 9.010667
_cell_length_b 10.363560
_cell_length_c 8.793196
_cell_angle_alpha 90.000000
_cell_angle_beta 59.237368
_cell_angle_gamma 90.000000
_cell_volume 705.593011
_symmetry_space_group_name_H-M "P 2"
_symmetry_group_IT_number 3
_symmetry_cell_setting 'monoclinic'
loop_
_space_group_symop_operation_xyz
x,y,z
-x,y,-z
loop_
_atom_site_type_symbol
_atom_site_label
_atom_site_fract_x
_atom_site_fract_y
_atom_site_fract_z
Si Si1 0.193919 0.671400 0.191501
Si Si2 0.488541 0.103665 0.826686
Si Si3 0.148665 0.158528 0.530108
Si Si4 0.184872 0.270692 0.834093
Si Si5 0.660717 0.694785 0.559713
Si Si6 0.091990 0.549118 0.806402
Si Si7 0.663255 0.821639 0.164797
Si Si8 0.097893 0.886103 0.685435
O O1 0.291232 0.647370 0.296493
O O2 0.078958 0.546132 0.209613
O O3 0.055506 0.789321 0.274992
O O4 0.306100 0.731195 0.996891
O O5 0.674811 0.126908 0.651427
O O6 0.343310 0.198161 0.830422
O O7 0.425517 0.956191 0.834410
O O8 0.500000 0.127467 0.000000
O O9 0.193730 0.244979 0.650120
O O10 0.000000 0.213563 0.500000
O O11 0.065701 0.030760 0.652496
O O12 0.175263 0.425747 0.843390
O O13 0.000000 0.225349 0.000000
O O14 0.765377 0.607723 0.383135
O O15 0.460230 0.731172 0.668897
O O16 0.746171 0.835615 0.498876
O O17 0.000000 0.622019 0.000000
O O18 0.826510 0.865566 0.183791
#
# Coordination Sequence:
#
# PCOD9113952 Si02
#       8
#     2   2   2   2   2   2   2   2
#     4  11  23  41  66 106 141 187 237 291 363 441
#     4  12  26  46  70 109 157 194 244 312 373 451
#     4  12  25  43  70 105 147 192 248 304 369 441
#     4  11  26  48  75 102 139 197 259 310 375 439
#     4  11  22  41  69 104 144 184 232 297 361 440
#     4  10  23  47  71  97 137 186 244 301 359 439
#     4  12  24  39  68 108 155 187 232 291 376 447
#     4  11  22  37  61  97 144 187 228 285 352 434
#
# _framework density 22.675962999999999
#
# number of rings (size 3 to 8) (size 9 to 14) (size 15 to 20)
#    0.000    0.750    2.500    6.750    3.500    1.000 
#    0.000   10.000    0.000    3.000    0.000    0.000 
#    0.000    0.000    0.000    0.000    0.000    0.000 
#
# Total GULP energy -89239.418812 kJ/mol
# GULP energy per Si atom -5577.463676 kJ/mol
# Density = 2.262435 g / cm^3
# Si number density = 22.675963 Si / 1000 Ang^3
#
#
#
# Elastic Constant Matrix: (Units=GPa)
#
#
# Indices 1 2 3 4 5 6 
#
# 1 140.1323 36.3020 62.6663 0.0000 10.5401 0.0000
# 2 36.3020 71.7481 39.3856 0.0000 -1.6801 0.0000
# 3 62.6663 39.3856 171.5287 0.0000 -0.5037 0.0000
# 4 0.0000 0.0000 0.0000 25.6521 0.0000 -10.6430
# 5 10.5401 -1.6801 -0.5037 0.0000 39.5230 0.0000
# 6 0.0000 0.0000 0.0000 -10.6430 0.0000 7.9316
#
#
#
# Elastic Compliance Matrix: (Units=1/GPa)
#
#
# Indices 1 2 3 4 5 6 
#
# 1 0.009402 -0.003353 -0.002673 0.000000 -0.002684 0.000000
# 2 -0.003353 0.017159 -0.002710 0.000000 0.001589 0.000000
# 3 -0.002673 -0.002710 0.007431 0.000000 0.000692 0.000000
# 4 0.000000 0.000000 0.000000 0.087944 0.000000 0.118007
# 5 -0.002684 0.001589 0.000692 0.000000 0.026094 0.000000
# 6 0.000000 0.000000 0.000000 0.118007 0.000000 0.284425
#
#
# Mechanical properties :
#
#
# Convention : Reuss Voigt Hill
#
# Bulk Modulus (GPa) = 60.53361 73.34632 66.93996
# Shear Modulus (GPa) = 10.97857 30.95836 20.96847
#
# Velocity S-wave (km/s) = 2.20273 3.69894 3.04419
# Velocity P-wave (km/s) = 5.76388 7.11748 6.47614
#
# Compressibility (1/GPa) = 0.01651975
#
# Stress axis : x y z
#
# Youngs Moduli (GPa) = 106.36268 58.27840 134.57388
#
# Poissons Ratio (x) = 0.19538 0.35971
# Poissons Ratio (y) = 0.35658 0.36476
# Poissons Ratio (z) = 0.28430 0.15796
#
# Static dielectric constant tensor:
#      x y z
#    x 1.927140 0.000000 -0.009400 
#    y 0.000000 1.905470 0.000000 
#    z -0.009400 0.000000 1.932910 
# 
# From -- ./inp_files/5989.got.cif
#   From: 2010.05.17/outbox.cif.g08.bks.cpg/sg3_3_cif.got.tgz:5989.got - 2010.06.03 18:33:08.
