data_PCOD9113611
_publ_section_title
;
Structure prediction by ZEFSAII (Michael W. Deem and Ramdas Pophale) SiO2 
 PCOD9113611
Probable space group: P 2
;
_chemical_formula_sum "Si O2"
_cell_formula_units_Z 12
_cell_length_a 13.001076
_cell_length_b 7.751688
_cell_length_c 9.650228
_cell_angle_alpha 90.000000
_cell_angle_beta 145.805710
_cell_angle_gamma 90.000000
_cell_volume 546.575556
_symmetry_space_group_name_H-M "P 2"
_symmetry_group_IT_number 3
_symmetry_cell_setting 'monoclinic'
loop_
_space_group_symop_operation_xyz
x,y,z
-x,y,-z
loop_
_atom_site_type_symbol
_atom_site_label
_atom_site_fract_x
_atom_site_fract_y
_atom_site_fract_z
Si Si1 0.719607 0.251490 0.582117
Si Si2 0.865347 0.882806 0.736635
Si Si3 0.014782 0.396290 0.351791
Si Si4 0.478807 0.737060 0.311136
Si Si5 0.660703 0.351207 0.815197
Si Si6 0.093359 0.797563 0.752629
O O1 0.725361 0.365928 0.727783
O O2 0.501831 0.220838 0.329667
O O3 0.814093 0.333680 0.551578
O O4 0.804218 0.069686 0.719598
O O5 0.683188 0.780398 0.489449
O O6 0.987996 0.917003 0.741033
O O7 0.000000 0.796614 0.000000
O O8 0.971381 0.600648 0.281941
O O9 0.000000 0.369405 0.500000
O O10 0.838121 0.303217 0.095311
O O11 0.500000 0.782846 0.500000
O O12 0.428246 0.535168 0.246295
O O13 0.309613 0.813937 0.031705
O O14 0.000000 0.828744 0.500000
#
# Coordination Sequence:
#
# PCOD9113611 Si02
#       6
#     2   2   2   2   2   2
#     4  11  23  39  61  93 123 158 201 257 305 361
#     4  12  25  38  63  92 124 163 206 253 310 367
#     4  10  22  41  64  88 120 162 204 249 305 367
#     4  11  21  40  67  92 117 161 208 256 297 361
#     4  10  22  40  63  91 122 153 208 259 300 356
#     4  10  24  42  63  92 126 161 205 255 306 363
#
# _framework density 21.954878999999998
#
# number of rings (size 3 to 8) (size 9 to 14) (size 15 to 20)
#    0.000    1.333    3.333    2.500    2.333    3.333 
#    0.000    6.667    0.000    0.000    0.000    0.000 
#    0.000    0.000    0.000    0.000    0.000    0.000 
#
# Total GULP energy -66867.847512 kJ/mol
# GULP energy per Si atom -5572.320626 kJ/mol
# Density = 2.190491 g / cm^3
# Si number density = 21.954879 Si / 1000 Ang^3
#
#
#
# Elastic Constant Matrix: (Units=GPa)
#
#
# Indices 1 2 3 4 5 6 
#
# 1 114.0774 25.1720 79.5362 0.0000 22.0293 0.0000
# 2 25.1720 35.8938 20.9036 0.0000 10.4973 0.0000
# 3 79.5362 20.9036 158.4628 0.0000 12.1631 0.0000
# 4 0.0000 0.0000 0.0000 -20.4558 0.0000 6.0434
# 5 22.0293 10.4973 12.1631 0.0000 21.4096 0.0000
# 6 0.0000 0.0000 0.0000 6.0434 0.0000 25.5989
#
#
#
# Elastic Compliance Matrix: (Units=1/GPa)
#
#
# Indices 1 2 3 4 5 6 
#
# 1 0.016747 -0.004442 -0.006968 0.000000 -0.011095 0.000000
# 2 -0.004442 0.035338 -0.001519 0.000000 -0.011893 0.000000
# 3 -0.006968 -0.001519 0.009830 0.000000 0.002330 0.000000
# 4 0.000000 0.000000 0.000000 -0.045699 0.000000 0.010789
# 5 -0.011095 -0.011893 0.002330 0.000000 0.062632 0.000000
# 6 0.000000 0.000000 0.000000 0.010789 0.000000 0.036517
#
#
# Mechanical properties :
#
#
# Convention : Reuss Voigt Hill
#
# Bulk Modulus (GPa) = 27.73444 62.18416 44.95930
# Shear Modulus (GPa) = 32.62821 17.49868 25.06345
#
# Velocity S-wave (km/s) = 3.85924 2.82623 3.38241
# Velocity P-wave (km/s) = 5.70248 6.24782 5.98137
#
# Compressibility (1/GPa) = 0.03605626
#
# Stress axis : x y z
#
# Youngs Moduli (GPa) = 59.71264 28.29829 101.73308
#
# Poissons Ratio (x) = 0.12569 0.70889
# Poissons Ratio (y) = 0.26522 0.15457
# Poissons Ratio (z) = 0.41608 0.04300
#
# Static dielectric constant tensor:
#      x y z
#    x 1.813560 0.000000 -0.030080 
#    y 0.000000 1.891560 0.000000 
#    z -0.030080 0.000000 2.061900 
# 
# From -- ./inp_files/7536.got.cif
#   From: 2010.05.17/outbox.cif.g08.bks.cpg/sg3_4_cif.got.tgz:7536.got - 2010.06.03 18:33:08.
