data_PCOD9113767
_publ_section_title
;
Structure prediction by ZEFSAII (Michael W. Deem and Ramdas Pophale) SiO2 
 PCOD9113767
Probable space group: P 2
;
_chemical_formula_sum "Si O2"
_cell_formula_units_Z 13
_cell_length_a 17.400205
_cell_length_b 5.043001
_cell_length_c 18.094773
_cell_angle_alpha 90.000000
_cell_angle_beta 19.801832
_cell_angle_gamma 90.000000
_cell_volume 537.896779
_symmetry_space_group_name_H-M "P 2"
_symmetry_group_IT_number 3
_symmetry_cell_setting 'monoclinic'
loop_
_space_group_symop_operation_xyz
x,y,z
-x,y,-z
loop_
_atom_site_type_symbol
_atom_site_label
_atom_site_fract_x
_atom_site_fract_y
_atom_site_fract_z
Si Si1 0.421722 0.876690 0.142612
Si Si2 0.000000 0.218240 0.500000
Si Si3 0.199282 0.931570 0.101668
Si Si4 0.843035 0.055320 0.314031
Si Si5 0.148087 0.536198 0.508426
Si Si6 0.512514 0.667069 0.289096
Si Si7 0.974979 0.543216 0.935210
O O1 0.302145 0.709500 0.313692
O O2 0.500000 0.712051 0.000000
O O3 0.617376 0.040085 0.007233
O O4 0.227506 0.055053 0.285095
O O5 0.958064 0.343397 0.456584
O O6 0.009481 0.106164 0.233897
O O7 0.055993 0.705221 0.272475
O O8 0.343930 0.809549 0.904541
O O9 0.620717 0.898074 0.544977
O O10 0.954489 0.830888 0.160039
O O11 0.859650 0.327519 0.253373
O O12 0.324996 0.486323 0.416197
O O13 0.707086 0.508222 0.157322
O O14 0.000000 0.530199 0.000000
#
# Coordination Sequence:
#
# PCOD9113767 Si02
#       7
#     2   1   2   2   2   2   2
#     4  11  23  39  58  90 128 174 224 295 355 418
#     4  12  24  34  60  94 126 170 230 294 358 418
#     4   9  20  43  65  87 129 178 232 289 353 427
#     4  10  23  44  71 106 143 189 243 294 362 444
#     4  10  22  44  63  89 132 178 235 286 350 434
#     4   9  22  44  68 101 138 191 231 298 360 428
#     4  11  24  45  74 109 148 188 241 298 364 439
#
# _framework density 24.168206000000001
#
# number of rings (size 3 to 8) (size 9 to 14) (size 15 to 20)
#    0.000    1.846    0.000    2.769    2.154    6.154 
#   27.692    1.538    0.000    0.000    0.000    0.000 
#    0.000    0.000    0.000    0.000    0.000    0.000 
#
# Total GULP energy -72575.313120 kJ/mol
# GULP energy per Si atom -5582.716394 kJ/mol
# Density = 2.411320 g / cm^3
# Si number density = 24.168206 Si / 1000 Ang^3
#
#
#
# Elastic Constant Matrix: (Units=GPa)
#
#
# Indices 1 2 3 4 5 6 
#
# 1 173.8703 34.0013 72.8407 0.0000 -3.0966 0.0000
# 2 34.0013 56.9211 19.4805 0.0000 -8.3253 0.0000
# 3 72.8407 19.4805 137.6779 0.0000 4.2987 0.0000
# 4 0.0000 0.0000 0.0000 21.1910 0.0000 -7.2294
# 5 -3.0966 -8.3253 4.2987 0.0000 23.1128 0.0000
# 6 0.0000 0.0000 0.0000 -7.2294 0.0000 59.9870
#
#
#
# Elastic Compliance Matrix: (Units=1/GPa)
#
#
# Indices 1 2 3 4 5 6 
#
# 1 0.008008 -0.003414 -0.003771 0.000000 0.000545 0.000000
# 2 -0.003414 0.021182 -0.001423 0.000000 0.007437 0.000000
# 3 -0.003771 -0.001423 0.009547 0.000000 -0.002794 0.000000
# 4 0.000000 0.000000 0.000000 0.049213 0.000000 0.005931
# 5 0.000545 0.007437 -0.002794 0.000000 0.046538 0.000000
# 6 0.000000 0.000000 0.000000 0.005931 0.000000 0.017385
#
#
# Mechanical properties :
#
#
# Convention : Reuss Voigt Hill
#
# Bulk Modulus (GPa) = 46.46444 69.01270 57.73857
# Shear Modulus (GPa) = 28.36664 37.00128 32.68396
#
# Velocity S-wave (km/s) = 3.42967 3.91703 3.68143
# Velocity P-wave (km/s) = 5.91191 7.00533 6.48172
#
# Compressibility (1/GPa) = 0.02152184
#
# Stress axis : x y z
#
# Youngs Moduli (GPa) = 124.86773 47.20962 104.74410
#
# Poissons Ratio (x) = 0.16115 0.39499
# Poissons Ratio (y) = 0.42624 0.14909
# Poissons Ratio (z) = 0.47088 0.06720
#
# Static dielectric constant tensor:
#      x y z
#    x 1.994550 0.000000 -0.005140 
#    y 0.000000 1.961380 0.000000 
#    z -0.005140 0.000000 1.976230 
# 
# From -- ./inp_files/15413.got.cif
#   From: 2010.05.17/outbox.cif.g08.bks.cpg/sg3_8_cif.got.tgz:15413.got - 2010.06.03 18:33:08.
