data_PCOD9113189
_publ_section_title
;
Structure prediction by ZEFSAII (Michael W. Deem and Ramdas Pophale) SiO2 
 PCOD9113189
Probable space group: P 2
;
_chemical_formula_sum "Si O2"
_cell_formula_units_Z 10
_cell_length_a 15.066666
_cell_length_b 5.303588
_cell_length_c 5.183680
_cell_angle_alpha 90.000000
_cell_angle_beta 82.922395
_cell_angle_gamma 90.000000
_cell_volume 411.058093
_symmetry_space_group_name_H-M "P 2"
_symmetry_group_IT_number 3
_symmetry_cell_setting 'monoclinic'
loop_
_space_group_symop_operation_xyz
x,y,z
-x,y,-z
loop_
_atom_site_type_symbol
_atom_site_label
_atom_site_fract_x
_atom_site_fract_y
_atom_site_fract_z
Si Si1 0.601457 0.690060 0.965805
Si Si2 0.085569 0.899067 0.145463
Si Si3 0.735542 0.066356 0.077914
Si Si4 0.845063 0.395932 0.682734
Si Si5 0.329642 0.424012 0.543695
O O1 0.614643 0.491112 0.729813
O O2 0.500000 0.780405 0.000000
O O3 0.627009 0.574298 0.234571
O O4 0.672425 0.914966 0.907560
O O5 0.090871 0.626510 0.274508
O O6 0.101979 0.129280 0.342249
O O7 0.000000 0.938340 0.000000
O O8 0.173242 0.911982 0.929480
O O9 0.678807 0.138782 0.347013
O O10 0.775306 0.321678 0.936927
O O11 0.775406 0.472368 0.486529
#
# Coordination Sequence:
#
# PCOD9113189 Si02
#       5
#     2   2   2   2   2
#     4  12  27  47  74 110 154 200 266 324 394 465
#     4  10  20  43  76 113 156 201 260 317 383 465
#     4  10  24  44  76 103 154 203 250 317 388 459
#     4  10  22  43  74 108 150 203 254 310 391 456
#     4  12  23  49  73 107 146 207 252 317 393 466
#
# _framework density 24.327463999999999
#
# number of rings (size 3 to 8) (size 9 to 14) (size 15 to 20)
#    1.200    0.000    4.000    1.200    5.600    0.800 
#    3.600    1.000    0.000    0.000    0.000    0.000 
#    0.000    0.000    0.000    0.000    0.000    0.000 
#
# Total GULP energy -55779.281920 kJ/mol
# GULP energy per Si atom -5577.928192 kJ/mol
# Density = 2.427209 g / cm^3
# Si number density = 24.327464 Si / 1000 Ang^3
#
#
#
# Elastic Constant Matrix: (Units=GPa)
#
#
# Indices 1 2 3 4 5 6 
#
# 1 138.8840 40.8372 31.3678 0.0000 31.0561 0.0000
# 2 40.8372 106.1122 25.0908 0.0000 5.8334 0.0000
# 3 31.3678 25.0908 123.7340 0.0000 15.9113 0.0000
# 4 0.0000 0.0000 0.0000 25.5718 0.0000 4.6767
# 5 31.0561 5.8334 15.9113 0.0000 34.7837 0.0000
# 6 0.0000 0.0000 0.0000 4.6767 0.0000 -6.6600
#
#
#
# Elastic Compliance Matrix: (Units=1/GPa)
#
#
# Indices 1 2 3 4 5 6 
#
# 1 0.010177 -0.003263 -0.000871 0.000000 -0.008140 0.000000
# 2 -0.003263 0.010965 -0.001630 0.000000 0.001820 0.000000
# 3 -0.000871 -0.001630 0.009029 0.000000 -0.003079 0.000000
# 4 0.000000 0.000000 0.000000 0.034655 0.000000 0.024335
# 5 -0.008140 0.001820 -0.003079 0.000000 0.037120 0.000000
# 6 0.000000 0.000000 0.000000 0.024335 0.000000 -0.133062
#
#
# Mechanical properties :
#
#
# Convention : Reuss Voigt Hill
#
# Bulk Modulus (GPa) = 53.64335 62.59133 58.11734
# Shear Modulus (GPa) = -373.91087 28.83473 -172.53807
#
# Velocity S-wave (km/s) = -12.41099 3.44652 -8.43073
# Velocity P-wave (km/s) = 13.53804 6.45155 8.41594
#
# Compressibility (1/GPa) = 0.01864164
#
# Stress axis : x y z
#
# Youngs Moduli (GPa) = 98.26273 91.19771 110.75059
#
# Poissons Ratio (x) = 0.29757 0.09652
# Poissons Ratio (y) = 0.32063 0.18057
# Poissons Ratio (z) = 0.08563 0.14869
#
# Static dielectric constant tensor:
#      x y z
#    x 1.932130 0.000000 -0.042060 
#    y 0.000000 1.998510 0.000000 
#    z -0.042060 0.000000 2.016730 
# 
# From -- ./inp_files/2719.got.cif
#   From: 2010.05.17/outbox.cif.g08.bks.cpg/sg3_2_cif.got.tgz:2719.got - 2010.06.03 18:33:08.
