data_PCOD9113357
_publ_section_title
;
Structure prediction by ZEFSAII (Michael W. Deem and Ramdas Pophale) SiO2 
 PCOD9113357
Probable space group: P 2
;
_chemical_formula_sum "Si O2"
_cell_formula_units_Z 14
_cell_length_a 12.014757
_cell_length_b 9.833322
_cell_length_c 7.903353
_cell_angle_alpha 90.000000
_cell_angle_beta 136.194227
_cell_angle_gamma 90.000000
_cell_volume 646.350663
_symmetry_space_group_name_H-M "P 2"
_symmetry_group_IT_number 3
_symmetry_cell_setting 'monoclinic'
loop_
_space_group_symop_operation_xyz
x,y,z
-x,y,-z
loop_
_atom_site_type_symbol
_atom_site_label
_atom_site_fract_x
_atom_site_fract_y
_atom_site_fract_z
Si Si1 0.500000 0.973230 0.500000
Si Si2 0.173291 0.364193 0.600578
Si Si3 0.709551 0.832691 0.492174
Si Si4 0.667650 0.439990 0.886445
Si Si5 0.701927 0.522849 0.557764
Si Si6 0.767775 0.133959 0.933806
Si Si7 0.809771 0.052541 0.334405
Si Si8 0.000000 0.968296 0.000000
O O1 0.540296 0.876151 0.388632
O O2 0.649178 0.074369 0.666084
O O3 0.177007 0.433071 0.421342
O O4 0.219396 0.205306 0.626434
O O5 0.000000 0.362004 0.500000
O O6 0.280556 0.446530 0.858326
O O7 0.706899 0.671349 0.479679
O O8 0.855939 0.873770 0.779141
O O9 0.746231 0.926693 0.371739
O O10 0.727722 0.529618 0.790257
O O11 0.474715 0.455504 0.664461
O O12 0.739739 0.292196 0.918217
O O13 0.940554 0.073489 0.077608
O O14 0.720842 0.063721 0.057513
O O15 0.000000 0.037005 0.500000
#
# Coordination Sequence:
#
# PCOD9113357 Si02
#       8
#     1   2   2   2   2   2   2   1
#     4  10  22  38  58  98 124 170 222 264 334 386
#     4  10  24  42  66 100 131 172 231 280 331 395
#     4  11  24  42  64  96 137 177 219 273 338 410
#     4  10  23  42  68  96 133 177 222 278 336 399
#     4  11  24  44  66  94 137 183 217 274 343 413
#     4  10  21  39  67 100 129 169 223 287 326 389
#     4  10  21  41  65  95 130 169 224 283 329 385
#     4  10  22  40  68  98 132 170 224 280 330 398
#
# _framework density 21.660067000000002
#
# number of rings (size 3 to 8) (size 9 to 14) (size 15 to 20)
#    0.000    1.714    1.429    2.143    6.000    2.857 
#   10.286    0.000    0.000    0.000    0.000    0.000 
#    0.000    0.000    0.000    0.000    0.000    0.000 
#
# Total GULP energy -77994.696334 kJ/mol
# GULP energy per Si atom -5571.049738 kJ/mol
# Density = 2.161077 g / cm^3
# Si number density = 21.660067 Si / 1000 Ang^3
#
#
#
# Elastic Constant Matrix: (Units=GPa)
#
#
# Indices 1 2 3 4 5 6 
#
# 1 92.1684 49.2735 -14.2310 0.0000 -10.2120 0.0000
# 2 49.2735 97.8466 3.4133 0.0000 -5.3195 0.0000
# 3 -14.2310 3.4133 35.9043 0.0000 -1.2092 0.0000
# 4 0.0000 0.0000 0.0000 20.1619 0.0000 -16.9093
# 5 -10.2120 -5.3195 -1.2092 0.0000 26.5072 0.0000
# 6 0.0000 0.0000 0.0000 -16.9093 0.0000 -56.0667
#
#
#
# Elastic Compliance Matrix: (Units=1/GPa)
#
#
# Indices 1 2 3 4 5 6 
#
# 1 0.017298 -0.008698 0.007861 0.000000 0.005277 0.000000
# 2 -0.008698 0.014737 -0.004869 0.000000 -0.000616 0.000000
# 3 0.007861 -0.004869 0.031548 0.000000 0.003490 0.000000
# 4 0.000000 0.000000 0.000000 0.039586 0.000000 -0.011939
# 5 0.005277 -0.000616 0.003490 0.000000 0.039794 0.000000
# 6 0.000000 0.000000 0.000000 -0.011939 0.000000 -0.014235
#
#
# Mechanical properties :
#
#
# Convention : Reuss Voigt Hill
#
# Bulk Modulus (GPa) = 19.16826 33.64787 26.40806
# Shear Modulus (GPa) = 31.73970 10.61806 21.17888
#
# Velocity S-wave (km/s) = 3.83215 2.21648 3.13035
# Velocity P-wave (km/s) = 5.33379 4.70304 5.02831
#
# Compressibility (1/GPa) = 0.05216958
#
# Stress axis : x y z
#
# Youngs Moduli (GPa) = 57.80896 67.85738 31.69770
#
# Poissons Ratio (x) = 0.59025 -0.24918
# Poissons Ratio (y) = 0.50285 0.15435
# Poissons Ratio (z) = -0.45444 0.33042
#
# Static dielectric constant tensor:
#      x y z
#    x 1.856430 0.000000 0.000400 
#    y 0.000000 1.785140 0.000000 
#    z 0.000400 0.000000 1.927950 
# 
# From -- ./inp_files/5377.got.cif
#   From: 2010.05.17/outbox.cif.g08.bks.cpg/sg3_3_cif.got.tgz:5377.got - 2010.06.03 18:33:08.
