data_PCOD9113293
_publ_section_title
;
Structure prediction by ZEFSAII (Michael W. Deem and Ramdas Pophale) SiO2 
 PCOD9113293
Probable space group: P 2
;
_chemical_formula_sum "Si O2"
_cell_formula_units_Z 16
_cell_length_a 18.473415
_cell_length_b 7.982593
_cell_length_c 10.025445
_cell_angle_alpha 90.000000
_cell_angle_beta 156.705888
_cell_angle_gamma 90.000000
_cell_volume 584.638805
_symmetry_space_group_name_H-M "P 2"
_symmetry_group_IT_number 3
_symmetry_cell_setting 'monoclinic'
loop_
_space_group_symop_operation_xyz
x,y,z
-x,y,-z
loop_
_atom_site_type_symbol
_atom_site_label
_atom_site_fract_x
_atom_site_fract_y
_atom_site_fract_z
Si Si1 0.630127 0.503210 0.477985
Si Si2 0.798992 0.011567 0.659061
Si Si3 0.420935 0.159158 0.221021
Si Si4 0.231392 0.578808 0.767153
Si Si5 0.159449 0.044802 0.961266
Si Si6 0.722916 0.673100 0.880234
Si Si7 0.243773 0.938683 0.692835
Si Si8 0.721318 0.349615 0.385122
O O1 0.532194 0.328217 0.366217
O O2 0.452351 0.611324 0.143090
O O3 0.762880 0.584037 0.809526
O O4 0.734908 0.492096 0.517752
O O5 0.695416 0.925511 0.359566
O O6 0.807151 0.196473 0.609031
O O7 0.000000 0.931362 0.000000
O O8 0.755053 0.038314 0.741665
O O9 0.500000 0.095425 0.500000
O O10 0.193631 0.567548 0.858961
O O11 0.383525 0.034775 0.031314
O O12 0.169908 0.756729 0.609218
O O13 0.205192 0.419861 0.628829
O O14 0.221036 0.179300 0.953979
O O15 0.214486 0.862306 0.997697
O O16 0.942207 0.048367 0.612887
O O17 0.500000 0.666969 0.500000
O O18 0.500000 0.315840 0.000000
#
# Coordination Sequence:
#
# PCOD9113293 Si02
#       8
#     2   2   2   2   2   2   2   2
#     4  10  23  41  65  98 135 171 224 285 350 417
#     4  10  24  44  64  94 137 181 235 286 341 413
#     4  12  23  41  73 101 133 181 231 296 355 412
#     4  10  21  38  64  92 136 178 214 287 341 405
#     4  11  24  42  70  98 138 187 234 291 349 424
#     4  10  21  40  64  98 137 171 224 290 349 417
#     4  11  24  43  67  98 138 182 237 285 347 425
#     4  10  21  43  64  96 133 173 226 277 345 416
#
# _framework density 27.367322000000001
#
# number of rings (size 3 to 8) (size 9 to 14) (size 15 to 20)
#    0.000    1.500    1.250    4.125    3.500    1.000 
#    2.250    0.000   22.000    0.000    0.000    0.000 
#    0.000    0.000    0.000    0.000    0.000    0.000 
#
# Total GULP energy -89246.193742 kJ/mol
# GULP energy per Si atom -5577.887109 kJ/mol
# Density = 2.730503 g / cm^3
# Si number density = 27.367322 Si / 1000 Ang^3
#
#
#
# Elastic Constant Matrix: (Units=GPa)
#
#
# Indices 1 2 3 4 5 6 
#
# 1 81.1976 13.8942 37.7158 0.0000 -41.8970 0.0000
# 2 13.8942 86.0171 27.8215 0.0000 -10.9624 0.0000
# 3 37.7158 27.8215 126.0013 0.0000 -20.8591 0.0000
# 4 0.0000 0.0000 0.0000 35.5649 0.0000 -10.3266
# 5 -41.8970 -10.9624 -20.8591 0.0000 50.6729 0.0000
# 6 0.0000 0.0000 0.0000 -10.3266 0.0000 31.2586
#
#
#
# Elastic Compliance Matrix: (Units=1/GPa)
#
#
# Indices 1 2 3 4 5 6 
#
# 1 0.023266 -0.000226 -0.004011 0.000000 0.017537 0.000000
# 2 -0.000226 0.012657 -0.002473 0.000000 0.001533 0.000000
# 3 -0.004011 -0.002473 0.009707 0.000000 0.000144 0.000000
# 4 0.000000 0.000000 0.000000 0.031101 0.000000 0.010274
# 5 0.017537 0.001533 0.000144 0.000000 0.034625 0.000000
# 6 0.000000 0.000000 0.000000 0.010274 0.000000 0.035385
#
#
# Mechanical properties :
#
#
# Convention : Reuss Voigt Hill
#
# Bulk Modulus (GPa) = 31.04625 50.23100 40.63863
# Shear Modulus (GPa) = 29.25692 37.75159 33.50425
#
# Velocity S-wave (km/s) = 3.27317 3.71811 3.50271
# Velocity P-wave (km/s) = 5.06496 6.06850 5.58930
#
# Compressibility (1/GPa) = 0.03221001
#
# Stress axis : x y z
#
# Youngs Moduli (GPa) = 42.98077 79.00457 103.01723
#
# Poissons Ratio (x) = 0.01784 0.41323
# Poissons Ratio (y) = 0.00970 0.25480
# Poissons Ratio (z) = 0.17241 0.19541
#
# Static dielectric constant tensor:
#      x y z
#    x 2.448650 0.000000 0.142900 
#    y 0.000000 2.105710 0.000000 
#    z 0.142900 0.000000 2.352440 
# 
# From -- ./inp_files/9476.got.cif
#   From: 2010.05.17/outbox.cif.g08.bks.cpg/sg3_5_cif.got.tgz:9476.got - 2010.06.03 18:33:08.
