data_PCOD9113279
_publ_section_title
;
Structure prediction by ZEFSAII (Michael W. Deem and Ramdas Pophale) SiO2 
 PCOD9113279
Probable space group: P 2
;
_chemical_formula_sum "Si O2"
_cell_formula_units_Z 14
_cell_length_a 6.133533
_cell_length_b 5.978784
_cell_length_c 17.119682
_cell_angle_alpha 90.000000
_cell_angle_beta 96.878277
_cell_angle_gamma 90.000000
_cell_volume 623.278670
_symmetry_space_group_name_H-M "P 2"
_symmetry_group_IT_number 3
_symmetry_cell_setting 'monoclinic'
loop_
_space_group_symop_operation_xyz
x,y,z
-x,y,-z
loop_
_atom_site_type_symbol
_atom_site_label
_atom_site_fract_x
_atom_site_fract_y
_atom_site_fract_z
Si Si1 0.129949 0.835940 0.430095
Si Si2 0.500000 0.583827 0.000000
Si Si3 0.461758 0.223404 0.213612
Si Si4 0.500000 0.176839 0.500000
Si Si5 0.208905 0.576945 0.854616
Si Si6 0.145490 0.275660 0.072733
Si Si7 0.451735 0.497647 0.359230
Si Si8 0.224084 0.846695 0.706640
O O1 0.267141 0.642323 0.394008
O O2 0.000000 0.749566 0.500000
O O3 0.963858 0.933406 0.358547
O O4 0.297195 0.021167 0.468306
O O5 0.359855 0.703524 0.926118
O O6 0.677370 0.424481 0.965902
O O7 0.630554 0.390285 0.176774
O O8 0.280714 0.141921 0.143741
O O9 0.359519 0.364251 0.280581
O O10 0.602025 0.029180 0.258380
O O11 0.548205 0.329125 0.427222
O O12 0.132290 0.736209 0.781870
O O13 0.012698 0.446732 0.888058
O O14 0.000000 0.154403 0.000000
O O15 0.641160 0.660018 0.335487
#
# Coordination Sequence:
#
# PCOD9113279 Si02
#       8
#     2   1   2   1   2   2   2   2
#     4  12  25  42  64  93 124 160 206 255 309 374
#     4   8  16  34  60  90 126 166 210 254 302 358
#     4  10  21  38  62  92 125 163 209 259 306 361
#     4  12  26  44  66  92 124 160 202 256 312 372
#     4   9  19  36  61  90 125 168 208 254 307 362
#     4   9  17  35  63  91 125 170 209 249 308 365
#     4  11  24  44  65  89 125 165 204 256 311 366
#     4  11  24  42  65  94 125 161 208 256 309 370
#
# _framework density 22.461860000000001
#
# number of rings (size 3 to 8) (size 9 to 14) (size 15 to 20)
#    0.000    1.714    0.000    4.714    0.000    6.286 
#    0.000    5.714    0.000   15.429    0.000    0.000 
#    0.000    0.000    0.000    0.000    0.000    0.000 
#
# Total GULP energy -78298.035587 kJ/mol
# GULP energy per Si atom -5592.716828 kJ/mol
# Density = 2.241074 g / cm^3
# Si number density = 22.461860 Si / 1000 Ang^3
#
#
#
# Elastic Constant Matrix: (Units=GPa)
#
#
# Indices 1 2 3 4 5 6 
#
# 1 95.3221 31.8124 83.2197 0.0000 9.6114 0.0000
# 2 31.8124 56.1095 50.3480 0.0000 4.1704 0.0000
# 3 83.2197 50.3480 189.2557 0.0000 26.7113 0.0000
# 4 0.0000 0.0000 0.0000 -14.0968 0.0000 -4.1338
# 5 9.6114 4.1704 26.7113 0.0000 61.4355 0.0000
# 6 0.0000 0.0000 0.0000 -4.1338 0.0000 12.4478
#
#
#
# Elastic Compliance Matrix: (Units=1/GPa)
#
#
# Indices 1 2 3 4 5 6 
#
# 1 0.017699 -0.003977 -0.006788 0.000000 0.000453 0.000000
# 2 -0.003977 0.024387 -0.004893 0.000000 0.001094 0.000000
# 3 -0.006788 -0.004893 0.009987 0.000000 -0.002948 0.000000
# 4 0.000000 0.000000 0.000000 -0.064643 0.000000 -0.021467
# 5 0.000453 0.001094 -0.002948 0.000000 0.017414 0.000000
# 6 0.000000 0.000000 0.000000 -0.021467 0.000000 0.073206
#
#
# Mechanical properties :
#
#
# Convention : Reuss Voigt Hill
#
# Bulk Modulus (GPa) = 48.18166 74.60527 61.39347
# Shear Modulus (GPa) = 42.99770 23.64444 33.32107
#
# Velocity S-wave (km/s) = 4.37996 3.24797 3.85574
# Velocity P-wave (km/s) = 6.86118 6.88129 6.87124
#
# Compressibility (1/GPa) = 0.02075478
#
# Stress axis : x y z
#
# Youngs Moduli (GPa) = 56.50042 41.00609 100.13294
#
# Poissons Ratio (x) = 0.16308 0.67975
# Poissons Ratio (y) = 0.22470 0.48998
# Poissons Ratio (z) = 0.38355 0.20065
#
# Static dielectric constant tensor:
#      x y z
#    x 1.816470 0.000000 0.023290 
#    y 0.000000 1.800700 0.000000 
#    z 0.023290 0.000000 1.867130 
# 
# From -- ./inp_files/14619.got.cif
#   From: 2010.05.17/outbox.cif.g08.bks.cpg/sg3_8_cif.got.tgz:14619.got - 2010.06.03 18:33:08.
