data_PCOD9113572
_publ_section_title
;
Structure prediction by ZEFSAII (Michael W. Deem and Ramdas Pophale) SiO2 
 PCOD9113572
Probable space group: P 2
;
_chemical_formula_sum "Si O2"
_cell_formula_units_Z 11
_cell_length_a 14.809351
_cell_length_b 5.032040
_cell_length_c 5.678925
_cell_angle_alpha 90.000000
_cell_angle_beta 86.409327
_cell_angle_gamma 90.000000
_cell_volume 422.369801
_symmetry_space_group_name_H-M "P 2"
_symmetry_group_IT_number 3
_symmetry_cell_setting 'monoclinic'
loop_
_space_group_symop_operation_xyz
x,y,z
-x,y,-z
loop_
_atom_site_type_symbol
_atom_site_label
_atom_site_fract_x
_atom_site_fract_y
_atom_site_fract_z
Si Si1 0.589774 0.263280 0.377546
Si Si2 0.909979 0.307093 0.666319
Si Si3 0.851766 0.827479 0.955142
Si Si4 0.500000 0.888608 0.000000
Si Si5 0.670817 0.865510 0.744186
Si Si6 0.229959 0.492460 0.637877
O O1 0.500000 0.409333 0.500000
O O2 0.548230 0.065652 0.191435
O O3 0.679185 0.394041 0.246413
O O4 0.632989 0.105433 0.592581
O O5 0.892388 0.597282 0.779829
O O6 0.828268 0.270542 0.489799
O O7 0.000000 0.290931 0.500000
O O8 0.905992 0.091545 0.876112
O O9 0.748639 0.921097 0.919422
O O10 0.839495 0.672465 0.202314
O O11 0.417227 0.733774 0.126106
O O12 0.721395 0.669573 0.563611
#
# Coordination Sequence:
#
# PCOD9113572 Si02
#       6
#     2   2   2   1   2   2
#     4  10  22  40  63 100 146 190 247 306 363 441
#     4  11  26  50  75 111 148 191 246 312 379 458
#     4  11  25  43  80 105 145 195 245 304 385 444
#     4  10  22  38  70  94 146 194 244 298 370 428
#     4  10  22  42  63 101 142 193 247 304 364 441
#     4  11  25  43  74 104 148 192 248 309 370 451
#
# _framework density 26.043527999999998
#
# number of rings (size 3 to 8) (size 9 to 14) (size 15 to 20)
#    0.000    1.455    1.818    1.636    5.091    5.818 
#    0.000    3.636    0.000    0.000    0.000    0.000 
#    0.000    0.000    0.000    0.000    0.000    0.000 
#
# Total GULP energy -61479.700136 kJ/mol
# GULP energy per Si atom -5589.063649 kJ/mol
# Density = 2.598425 g / cm^3
# Si number density = 26.043528 Si / 1000 Ang^3
#
#
#
# Elastic Constant Matrix: (Units=GPa)
#
#
# Indices 1 2 3 4 5 6 
#
# 1 139.5681 31.6288 38.1823 0.0000 -39.4973 0.0000
# 2 31.6288 90.8849 21.2180 0.0000 -12.3548 0.0000
# 3 38.1823 21.2180 93.6512 0.0000 -35.8127 0.0000
# 4 0.0000 0.0000 0.0000 -66.1952 0.0000 -22.0133
# 5 -39.4973 -12.3548 -35.8127 0.0000 60.7396 0.0000
# 6 0.0000 0.0000 0.0000 -22.0133 0.0000 15.9350
#
#
#
# Elastic Compliance Matrix: (Units=1/GPa)
#
#
# Indices 1 2 3 4 5 6 
#
# 1 0.009451 -0.002287 -0.001501 0.000000 0.004795 0.000000
# 2 -0.002287 0.012222 -0.001878 0.000000 -0.000108 0.000000
# 3 -0.001501 -0.001878 0.014455 0.000000 0.007165 0.000000
# 4 0.000000 0.000000 0.000000 -0.010351 0.000000 -0.014300
# 5 0.004795 -0.000108 0.007165 0.000000 0.023784 0.000000
# 6 0.000000 0.000000 0.000000 -0.014300 0.000000 0.043001
#
#
# Mechanical properties :
#
#
# Convention : Reuss Voigt Hill
#
# Bulk Modulus (GPa) = 40.32874 56.24027 48.28450
# Shear Modulus (GPa) = 44.57897 17.63421 31.10659
#
# Velocity S-wave (km/s) = 4.14177 2.60495 3.45977
# Velocity P-wave (km/s) = 6.19605 5.53979 5.87709
#
# Compressibility (1/GPa) = 0.02479621
#
# Stress axis : x y z
#
# Youngs Moduli (GPa) = 105.80928 81.81636 69.17815
#
# Poissons Ratio (x) = 0.18708 0.10386
# Poissons Ratio (y) = 0.24195 0.12994
# Poissons Ratio (z) = 0.15886 0.15368
#
# Static dielectric constant tensor:
#      x y z
#    x 2.211180 0.000000 0.099390 
#    y 0.000000 2.078150 0.000000 
#    z 0.099390 0.000000 2.175400 
# 
# From -- ./inp_files/2691.got.cif
#   From: 2010.05.17/outbox.cif.g08.bks.cpg/sg3_2_cif.got.tgz:2691.got - 2010.06.03 18:33:08.
