data_PCOD9113071
_publ_section_title
;
Structure prediction by ZEFSAII (Michael W. Deem and Ramdas Pophale) SiO2 
 PCOD9113071
Probable space group: P 2
;
_chemical_formula_sum "Si O2"
_cell_formula_units_Z 14
_cell_length_a 8.500115
_cell_length_b 12.988462
_cell_length_c 8.439887
_cell_angle_alpha 90.000000
_cell_angle_beta 128.276329
_cell_angle_gamma 90.000000
_cell_volume 731.487180
_symmetry_space_group_name_H-M "P 2"
_symmetry_group_IT_number 3
_symmetry_cell_setting 'monoclinic'
loop_
_space_group_symop_operation_xyz
x,y,z
-x,y,-z
loop_
_atom_site_type_symbol
_atom_site_label
_atom_site_fract_x
_atom_site_fract_y
_atom_site_fract_z
Si Si1 0.578804 0.160690 0.877439
Si Si2 0.500000 0.477420 0.000000
Si Si3 0.059627 0.005627 0.871397
Si Si4 0.274018 0.830697 0.801809
Si Si5 0.000000 0.510365 0.000000
Si Si6 0.403261 0.375617 0.266453
Si Si7 0.218324 0.010642 0.556447
Si Si8 0.097509 0.607042 0.729762
O O1 0.605450 0.253517 0.771739
O O2 0.405537 0.079052 0.722799
O O3 0.500000 0.199342 0.000000
O O4 0.790140 0.101777 0.025932
O O5 0.512687 0.416687 0.174883
O O6 0.694169 0.548290 0.120180
O O7 0.844619 0.030420 0.661230
O O8 0.178126 0.919092 0.850056
O O9 0.000000 0.960554 0.000000
O O10 0.147594 0.727534 0.739704
O O11 0.264307 0.891196 0.627356
O O12 0.500000 0.811866 0.000000
O O13 0.991633 0.578182 0.831683
O O14 0.808090 0.435091 0.873365
O O15 0.500000 0.395105 0.500000
O O16 0.000000 0.038071 0.500000
O O17 0.000000 0.573935 0.500000
#
# Coordination Sequence:
#
# PCOD9113071 Si02
#       8
#     2   1   2   2   1   2   2   2
#     4  12  22  41  62  89 124 170 215 255 309 382
#     4  10  22  42  66  90 118 164 206 266 320 378
#     4  11  24  37  60  91 132 162 209 256 310 367
#     4  11  20  42  64  90 126 166 205 256 307 384
#     4  10  26  46  64  94 130 154 216 280 310 382
#     4  11  25  43  64  92 127 162 213 267 320 370
#     4  10  20  39  61  86 124 169 204 252 299 368
#     4  11  22  41  70  92 121 167 209 255 331 376
#
# _framework density 19.139091000000001
#
# number of rings (size 3 to 8) (size 9 to 14) (size 15 to 20)
#    0.000    1.143    5.714    2.143    4.000    0.000 
#    0.000    0.714    0.000    0.000    0.000    0.000 
#    0.000    0.000    0.000    0.000    0.000    0.000 
#
# Total GULP energy -77967.195742 kJ/mol
# GULP energy per Si atom -5569.085410 kJ/mol
# Density = 1.909553 g / cm^3
# Si number density = 19.139091 Si / 1000 Ang^3
#
#
#
# Elastic Constant Matrix: (Units=GPa)
#
#
# Indices 1 2 3 4 5 6 
#
# 1 57.9632 27.1714 31.3841 0.0000 -7.5898 0.0000
# 2 27.1714 107.0125 31.4056 0.0000 -2.3809 0.0000
# 3 31.3841 31.4056 119.0585 0.0000 -10.7269 0.0000
# 4 0.0000 0.0000 0.0000 28.4758 0.0000 -2.6596
# 5 -7.5898 -2.3809 -10.7269 0.0000 28.1352 0.0000
# 6 0.0000 0.0000 0.0000 -2.6596 0.0000 10.8920
#
#
#
# Elastic Compliance Matrix: (Units=1/GPa)
#
#
# Indices 1 2 3 4 5 6 
#
# 1 0.022119 -0.004251 -0.004354 0.000000 0.003947 0.000000
# 2 -0.004251 0.010946 -0.001850 0.000000 -0.000926 0.000000
# 3 -0.004354 -0.001850 0.010268 0.000000 0.002584 0.000000
# 4 0.000000 0.000000 0.000000 0.035937 0.000000 0.008775
# 5 0.003947 -0.000926 0.002584 0.000000 0.037514 0.000000
# 6 0.000000 0.000000 0.000000 0.008775 0.000000 0.093953
#
#
# Mechanical properties :
#
#
# Convention : Reuss Voigt Hill
#
# Bulk Modulus (GPa) = 44.59580 51.55069 48.07325
# Shear Modulus (GPa) = 20.90984 26.43881 23.67433
#
# Velocity S-wave (km/s) = 3.30892 3.72076 3.52086
# Velocity P-wave (km/s) = 6.16036 6.74181 6.45763
#
# Compressibility (1/GPa) = 0.02242363
#
# Stress axis : x y z
#
# Youngs Moduli (GPa) = 45.20977 91.35387 97.39205
#
# Poissons Ratio (x) = 0.38832 0.42402
# Poissons Ratio (y) = 0.19217 0.18022
# Poissons Ratio (z) = 0.19683 0.16904
#
# Static dielectric constant tensor:
#      x y z
#    x 1.698750 0.000000 -0.076480 
#    y 0.000000 1.657750 0.000000 
#    z -0.076480 0.000000 1.831010 
# 
# From -- ./inp_files/6083.got.cif
#   From: 2010.05.17/outbox.cif.g08.bks.cpg/sg3_4_cif.got.tgz:6083.got - 2010.06.03 18:33:08.
