data_PCOD9113382
_publ_section_title
;
Structure prediction by ZEFSAII (Michael W. Deem and Ramdas Pophale) SiO2 
 PCOD9113382
Probable space group: P 2
;
_chemical_formula_sum "Si O2"
_cell_formula_units_Z 11
_cell_length_a 8.800468
_cell_length_b 9.500207
_cell_length_c 11.169381
_cell_angle_alpha 90.000000
_cell_angle_beta 142.055015
_cell_angle_gamma 90.000000
_cell_volume 574.216474
_symmetry_space_group_name_H-M "P 2"
_symmetry_group_IT_number 3
_symmetry_cell_setting 'monoclinic'
loop_
_space_group_symop_operation_xyz
x,y,z
-x,y,-z
loop_
_atom_site_type_symbol
_atom_site_label
_atom_site_fract_x
_atom_site_fract_y
_atom_site_fract_z
Si Si1 0.240941 0.976060 0.098990
Si Si2 0.732878 0.680273 0.777931
Si Si3 0.000000 0.374949 0.500000
Si Si4 0.195214 0.613156 0.454330
Si Si5 0.209778 0.849714 0.816379
Si Si6 0.646050 0.127213 0.213684
O O1 0.299418 0.849446 0.226964
O O2 0.464636 0.077022 0.206212
O O3 0.172136 0.900495 0.929940
O O4 0.000000 0.052281 0.000000
O O5 0.476804 0.627344 0.678633
O O6 0.759568 0.623849 0.659912
O O7 0.000000 0.646060 0.000000
O O8 0.077815 0.474706 0.438528
O O9 0.215532 0.267614 0.667590
O O10 0.993876 0.737286 0.349640
O O11 0.198447 0.987855 0.725808
O O12 0.500000 0.800460 0.000000
O O13 0.500000 0.153181 0.000000
#
# Coordination Sequence:
#
# PCOD9113382 Si02
#       6
#     2   2   1   2   2   2
#     4   9  16  37  69  96 116 154 211 275 323 353
#     4  10  21  40  64  96 127 155 214 275 322 367
#     4  12  28  40  58  94 138 178 208 240 322 400
#     4  11  24  38  63  99 125 171 216 259 322 377
#     4   9  19  37  66  98 122 161 220 267 314 365
#     4   9  23  42  59  90 132 169 215 256 311 383
#
# _framework density 19.156538999999999
#
# number of rings (size 3 to 8) (size 9 to 14) (size 15 to 20)
#    0.000    2.545    3.636    0.000    7.636    2.182 
#    0.000    8.182    0.000    0.000    0.000    0.000 
#    0.000    0.000    0.000    0.000    0.000    0.000 
#
# Total GULP energy -61246.652949 kJ/mol
# GULP energy per Si atom -5567.877541 kJ/mol
# Density = 1.911294 g / cm^3
# Si number density = 19.156539 Si / 1000 Ang^3
#
#
#
# Elastic Constant Matrix: (Units=GPa)
#
#
# Indices 1 2 3 4 5 6 
#
# 1 140.2124 74.9960 44.3629 0.0000 24.3226 0.0000
# 2 74.9960 139.4702 60.0983 0.0000 21.3348 0.0000
# 3 44.3629 60.0983 93.5392 0.0000 16.9958 0.0000
# 4 0.0000 0.0000 0.0000 39.4166 0.0000 11.9070
# 5 24.3226 21.3348 16.9958 0.0000 26.7182 0.0000
# 6 0.0000 0.0000 0.0000 11.9070 0.0000 27.6739
#
#
#
# Elastic Compliance Matrix: (Units=1/GPa)
#
#
# Indices 1 2 3 4 5 6 
#
# 1 0.010879 -0.004444 -0.001300 0.000000 -0.005528 0.000000
# 2 -0.004444 0.012203 -0.005311 0.000000 -0.002320 0.000000
# 3 -0.001300 -0.005311 0.015529 0.000000 -0.004454 0.000000
# 4 0.000000 0.000000 0.000000 0.029160 0.000000 -0.012547
# 5 -0.005528 -0.002320 -0.004454 0.000000 0.047146 0.000000
# 6 0.000000 0.000000 0.000000 -0.012547 0.000000 0.041534
#
#
# Mechanical properties :
#
#
# Convention : Reuss Voigt Hill
#
# Bulk Modulus (GPa) = 60.60308 81.34849 70.97579
# Shear Modulus (GPa) = 27.16473 31.67937 29.42205
#
# Velocity S-wave (km/s) = 3.76977 4.07100 3.92328
# Velocity P-wave (km/s) = 7.11707 8.04081 7.59300
#
# Compressibility (1/GPa) = 0.01650081
#
# Stress axis : x y z
#
# Youngs Moduli (GPa) = 91.91637 81.94488 64.39636
#
# Poissons Ratio (x) = 0.36419 0.08371
# Poissons Ratio (y) = 0.40851 0.34202
# Poissons Ratio (z) = 0.11948 0.43522
#
# Static dielectric constant tensor:
#      x y z
#    x 1.707470 0.000000 0.028140 
#    y 0.000000 1.641160 0.000000 
#    z 0.028140 0.000000 1.741780 
# 
# From -- ./inp_files/10370.got.cif
#   From: 2010.05.17/outbox.cif.g08.bks.cpg/sg3_6_cif.got.tgz:10370.got - 2010.06.03 18:33:08.
