data_PCOD9113195
_publ_section_title
;
Structure prediction by ZEFSAII (Michael W. Deem and Ramdas Pophale) SiO2 
 PCOD9113195
Probable space group: P 2
;
_chemical_formula_sum "Si O2"
_cell_formula_units_Z 14
_cell_length_a 9.513487
_cell_length_b 5.442856
_cell_length_c 12.253419
_cell_angle_alpha 90.000000
_cell_angle_beta 69.457522
_cell_angle_gamma 90.000000
_cell_volume 594.142973
_symmetry_space_group_name_H-M "P 2"
_symmetry_group_IT_number 3
_symmetry_cell_setting 'monoclinic'
loop_
_space_group_symop_operation_xyz
x,y,z
-x,y,-z
loop_
_atom_site_type_symbol
_atom_site_label
_atom_site_fract_x
_atom_site_fract_y
_atom_site_fract_z
Si Si1 0.281712 0.408650 0.885922
Si Si2 0.053238 0.409721 0.769182
Si Si3 0.459537 0.571280 0.335843
Si Si4 0.066245 0.032215 0.582112
Si Si5 0.671133 0.914373 0.991810
Si Si6 0.807512 0.726380 0.747138
Si Si7 0.694991 0.702554 0.427150
O O1 0.120896 0.390608 0.870308
O O2 0.416443 0.405797 0.758182
O O3 0.295012 0.670797 0.944506
O O4 0.303947 0.168618 0.952695
O O5 0.072673 0.164962 0.695475
O O6 0.167277 0.600250 0.680118
O O7 0.886990 0.504369 0.790494
O O8 0.342576 0.655853 0.276548
O O9 0.566203 0.763844 0.373969
O O10 0.359942 0.499563 0.469223
O O11 0.000000 0.192445 0.500000
O O12 0.231478 0.920860 0.524175
O O13 0.932035 0.833324 0.631227
O O14 0.500000 0.894171 0.000000
O O15 0.767440 0.911818 0.854886
#
# Coordination Sequence:
#
# PCOD9113195 Si02
#       7
#     2   2   2   2   2   2   2
#     4  11  27  50  76 101 149 190 240 306 355 429
#     4  10  26  43  68 103 143 188 239 295 366 434
#     4  10  20  44  72 102 140 188 233 298 364 431
#     4  11  23  41  68 105 142 192 230 303 359 447
#     4  12  27  49  76 107 139 189 251 306 359 422
#     4  11  25  44  70 101 142 187 242 300 363 431
#     4   9  21  43  66 103 142 180 239 288 365 440
#
# _framework density 23.563351000000001
#
# number of rings (size 3 to 8) (size 9 to 14) (size 15 to 20)
#    0.000    1.429    2.857    0.429   10.000    0.571 
#    2.571    1.429    0.000    0.000    0.000    0.000 
#    0.000    0.000    0.000    0.000    0.000    0.000 
#
# Total GULP energy -78087.618038 kJ/mol
# GULP energy per Si atom -5577.687003 kJ/mol
# Density = 2.350972 g / cm^3
# Si number density = 23.563351 Si / 1000 Ang^3
#
#
#
# Elastic Constant Matrix: (Units=GPa)
#
#
# Indices 1 2 3 4 5 6 
#
# 1 172.3623 51.4176 61.7430 0.0000 51.5082 0.0000
# 2 51.4176 86.7208 30.3728 0.0000 25.7687 0.0000
# 3 61.7430 30.3728 108.1418 0.0000 17.8490 0.0000
# 4 0.0000 0.0000 0.0000 5.6780 0.0000 22.5855
# 5 51.5082 25.7687 17.8490 0.0000 53.3854 0.0000
# 6 0.0000 0.0000 0.0000 22.5855 0.0000 4.1363
#
#
#
# Elastic Compliance Matrix: (Units=1/GPa)
#
#
# Indices 1 2 3 4 5 6 
#
# 1 0.010093 -0.002474 -0.003871 0.000000 -0.007249 0.000000
# 2 -0.002474 0.014964 -0.002108 0.000000 -0.004131 0.000000
# 3 -0.003871 -0.002108 0.011923 0.000000 0.000766 0.000000
# 4 0.000000 0.000000 0.000000 -0.008500 0.000000 0.046413
# 5 -0.007249 -0.004131 0.000766 0.000000 0.027464 0.000000
# 6 0.000000 0.000000 0.000000 0.046413 0.000000 -0.011668
#
#
# Mechanical properties :
#
#
# Convention : Reuss Voigt Hill
#
# Bulk Modulus (GPa) = 49.81890 72.69907 61.25898
# Shear Modulus (GPa) = 73.66593 27.55270 50.60931
#
# Velocity S-wave (km/s) = 5.59739 3.42322 4.63946
# Velocity P-wave (km/s) = 7.93491 6.82233 7.39956
#
# Compressibility (1/GPa) = 0.02007270
#
# Stress axis : x y z
#
# Youngs Moduli (GPa) = 99.07956 66.82621 83.87179
#
# Poissons Ratio (x) = 0.16535 0.32467
# Poissons Ratio (y) = 0.24515 0.17683
# Poissons Ratio (z) = 0.38354 0.14089
#
# Static dielectric constant tensor:
#      x y z
#    x 1.963400 0.000000 -0.061450 
#    y 0.000000 1.924870 0.000000 
#    z -0.061450 0.000000 2.020780 
# 
# From -- ./inp_files/10233.got.cif
#   From: 2010.05.17/outbox.cif.g08.bks.cpg/sg3_6_cif.got.tgz:10233.got - 2010.06.03 18:33:08.
