data_PCOD9113128
_publ_section_title
;
Structure prediction by ZEFSAII (Michael W. Deem and Ramdas Pophale) SiO2 
 PCOD9113128
Probable space group: P 2
;
_chemical_formula_sum "Si O2"
_cell_formula_units_Z 15
_cell_length_a 14.973910
_cell_length_b 8.256996
_cell_length_c 12.916486
_cell_angle_alpha 90.000000
_cell_angle_beta 155.646745
_cell_angle_gamma 90.000000
_cell_volume 658.536086
_symmetry_space_group_name_H-M "P 2"
_symmetry_group_IT_number 3
_symmetry_cell_setting 'monoclinic'
loop_
_space_group_symop_operation_xyz
x,y,z
-x,y,-z
loop_
_atom_site_type_symbol
_atom_site_label
_atom_site_fract_x
_atom_site_fract_y
_atom_site_fract_z
Si Si1 0.450910 0.055440 0.644966
Si Si2 0.155142 0.770094 0.352041
Si Si3 0.000000 0.135964 0.500000
Si Si4 0.444483 0.569215 0.143702
Si Si5 0.364445 0.257357 0.758866
Si Si6 0.795850 0.289121 0.733651
Si Si7 0.868641 0.491437 0.001904
Si Si8 0.815056 0.885035 0.146996
O O1 0.388066 0.137718 0.687397
O O2 0.415307 0.195166 0.523634
O O3 0.272234 0.922595 0.425750
O O4 0.677890 0.970226 0.909049
O O5 0.350359 0.649197 0.583808
O O6 0.042871 0.830076 0.339524
O O7 0.968309 0.670477 0.097364
O O8 0.877577 0.249394 0.452871
O O9 0.853486 0.013509 0.277586
O O10 0.534366 0.429833 0.164924
O O11 0.286076 0.491590 0.062972
O O12 0.315034 0.722382 0.958713
O O13 0.500000 0.196681 0.000000
O O14 0.761501 0.429198 0.782596
O O15 0.000000 0.190763 0.000000
O O16 0.922684 0.371237 0.770514
#
# Coordination Sequence:
#
# PCOD9113128 Si02
#       8
#     2   2   1   2   2   2   2   2
#     4  11  21  42  70 102 141 187 234 295 366 434
#     4  10  20  40  69 100 137 187 237 292 361 438
#     4  12  24  46  70 102 150 194 242 312 366 428
#     4  10  23  42  73 101 141 188 245 297 366 437
#     4  12  26  42  68 106 141 185 243 300 360 435
#     4   8  20  41  70 105 142 179 233 299 358 428
#     4   8  19  43  66 103 137 184 230 298 360 428
#     4  10  23  42  71  99 138 198 238 298 365 435
#
# _framework density 22.777795999999999
#
# number of rings (size 3 to 8) (size 9 to 14) (size 15 to 20)
#    0.800    1.067    2.667    0.800    0.000    5.333 
#    2.400    7.333    0.000    3.200    0.000    0.000 
#    0.000    0.000    0.000    0.000    0.000    0.000 
#
# Total GULP energy -83664.908815 kJ/mol
# GULP energy per Si atom -5577.660588 kJ/mol
# Density = 2.272595 g / cm^3
# Si number density = 22.777796 Si / 1000 Ang^3
#
#
#
# Elastic Constant Matrix: (Units=GPa)
#
#
# Indices 1 2 3 4 5 6 
#
# 1 101.8893 48.8647 30.5317 0.0000 10.1613 0.0000
# 2 48.8647 84.1012 54.6739 0.0000 7.2269 0.0000
# 3 30.5317 54.6739 71.5383 0.0000 -3.7435 0.0000
# 4 0.0000 0.0000 0.0000 34.4090 0.0000 -2.1902
# 5 10.1613 7.2269 -3.7435 0.0000 30.8383 0.0000
# 6 0.0000 0.0000 0.0000 -2.1902 0.0000 32.0729
#
#
#
# Elastic Compliance Matrix: (Units=1/GPa)
#
#
# Indices 1 2 3 4 5 6 
#
# 1 0.013828 -0.007681 -0.000177 0.000000 -0.002778 0.000000
# 2 -0.007681 0.029911 -0.019942 0.000000 -0.006899 0.000000
# 3 -0.000177 -0.019942 0.029732 0.000000 0.008341 0.000000
# 4 0.000000 0.000000 0.000000 0.029189 0.000000 0.001993
# 5 -0.002778 -0.006899 0.008341 0.000000 0.035972 0.000000
# 6 0.000000 0.000000 0.000000 0.001993 0.000000 0.031315
#
#
# Mechanical properties :
#
#
# Convention : Reuss Voigt Hill
#
# Bulk Modulus (GPa) = 55.95919 58.40771 57.18345
# Shear Modulus (GPa) = 21.59793 27.69460 24.64626
#
# Velocity S-wave (km/s) = 3.08263 3.49070 3.29299
# Velocity P-wave (km/s) = 6.10663 6.47647 6.29427
#
# Compressibility (1/GPa) = 0.01787017
#
# Stress axis : x y z
#
# Youngs Moduli (GPa) = 72.31577 33.43303 33.63406
#
# Poissons Ratio (x) = 0.25679 0.00595
# Poissons Ratio (y) = 0.55544 0.67075
# Poissons Ratio (z) = 0.01280 0.66674
#
# Static dielectric constant tensor:
#      x y z
#    x 1.852220 0.000000 0.028780 
#    y 0.000000 1.872490 0.000000 
#    z 0.028780 0.000000 1.895760 
# 
# From -- ./inp_files/14126.got.cif
#   From: 2010.05.17/outbox.cif.g08.bks.cpg/sg3_8_cif.got.tgz:14126.got - 2010.06.03 18:33:08.
