data_PCOD9113867
_publ_section_title
;
Structure prediction by ZEFSAII (Michael W. Deem and Ramdas Pophale) SiO2 
 PCOD9113867
Probable space group: P 2
;
_chemical_formula_sum "Si O2"
_cell_formula_units_Z 16
_cell_length_a 21.165787
_cell_length_b 5.080613
_cell_length_c 27.347283
_cell_angle_alpha 90.000000
_cell_angle_beta 167.012207
_cell_angle_gamma 90.000000
_cell_volume 660.924390
_symmetry_space_group_name_H-M "P 2"
_symmetry_group_IT_number 3
_symmetry_cell_setting 'monoclinic'
loop_
_space_group_symop_operation_xyz
x,y,z
-x,y,-z
loop_
_atom_site_type_symbol
_atom_site_label
_atom_site_fract_x
_atom_site_fract_y
_atom_site_fract_z
Si Si1 0.493973 0.002670 0.817149
Si Si2 0.470774 0.031213 0.340392
Si Si3 0.056285 0.061715 0.111451
Si Si4 0.787728 0.394936 0.165310
Si Si5 0.132605 0.885072 0.448456
Si Si6 0.322795 0.507696 0.748781
Si Si7 0.817718 0.591583 0.737772
Si Si8 0.021383 0.330009 0.233632
O O1 0.343935 0.235760 0.734652
O O2 0.331051 0.948610 0.644016
O O3 0.487124 0.741899 0.844944
O O4 0.805202 0.123636 0.046692
O O5 0.264027 0.931138 0.227346
O O6 0.672160 0.880872 0.453639
O O7 0.680224 0.209243 0.528679
O O8 0.233644 0.174553 0.129137
O O9 0.984344 0.804956 0.088156
O O10 0.183442 0.305619 0.237095
O O11 0.898259 0.406957 0.192784
O O12 0.963979 0.614507 0.326399
O O13 0.459034 0.454456 0.905593
O O14 0.893016 0.110799 0.262377
O O15 0.000000 0.591581 0.500000
O O16 0.500000 0.696630 0.500000
O O17 0.922504 0.557143 0.762070
#
# Coordination Sequence:
#
# PCOD9113867 Si02
#       8
#     2   2   2   2   2   2   2   2
#     4  11  24  43  68 104 128 174 220 265 321 392
#     4  10  23  42  63  88 125 171 214 275 330 386
#     4  11  26  41  60  90 124 167 223 275 345 393
#     4  10  23  41  66  95 126 174 216 256 322 391
#     4  11  23  41  65  92 134 165 220 263 319 378
#     4  11  23  45  71 101 137 171 210 262 321 394
#     4  12  25  42  62  90 127 166 222 281 337 377
#     4  10  23  43  69  91 130 174 229 276 327 388
#
# _framework density 24.208518000000002
#
# number of rings (size 3 to 8) (size 9 to 14) (size 15 to 20)
#    0.000    1.250    1.250    4.500    1.750   10.000 
#    0.000    3.750    0.000    0.000    0.000    0.000 
#    0.000    0.000    0.000    0.000    0.000    0.000 
#
# Total GULP energy -89412.042088 kJ/mol
# GULP energy per Si atom -5588.252631 kJ/mol
# Density = 2.415342 g / cm^3
# Si number density = 24.208518 Si / 1000 Ang^3
#
#
#
# Elastic Constant Matrix: (Units=GPa)
#
#
# Indices 1 2 3 4 5 6 
#
# 1 31.7684 16.6355 8.5195 0.0000 -7.0997 0.0000
# 2 16.6355 62.6062 10.1858 0.0000 -9.0873 0.0000
# 3 8.5195 10.1858 132.6628 0.0000 -9.3603 0.0000
# 4 0.0000 0.0000 0.0000 18.4144 0.0000 -0.7831
# 5 -7.0997 -9.0873 -9.3603 0.0000 38.2690 0.0000
# 6 0.0000 0.0000 0.0000 -0.7831 0.0000 18.9794
#
#
#
# Elastic Compliance Matrix: (Units=1/GPa)
#
#
# Indices 1 2 3 4 5 6 
#
# 1 0.037630 -0.009122 -0.001401 0.000000 0.004472 0.000000
# 2 -0.009122 0.018888 -0.000679 0.000000 0.002627 0.000000
# 3 -0.001401 -0.000679 0.007785 0.000000 0.001483 0.000000
# 4 0.000000 0.000000 0.000000 0.054401 0.000000 0.002245
# 5 0.004472 0.002627 0.001483 0.000000 0.027947 0.000000
# 6 0.000000 0.000000 0.000000 0.002245 0.000000 0.052781
#
#
# Mechanical properties :
#
#
# Convention : Reuss Voigt Hill
#
# Bulk Modulus (GPa) = 23.86653 33.07989 28.47321
# Shear Modulus (GPa) = 21.20429 27.91233 24.55831
#
# Velocity S-wave (km/s) = 2.96277 3.39926 3.18850
# Velocity P-wave (km/s) = 4.64588 5.39452 5.03414
#
# Compressibility (1/GPa) = 0.04189968
#
# Stress axis : x y z
#
# Youngs Moduli (GPa) = 26.57484 52.94243 128.45830
#
# Poissons Ratio (x) = 0.48293 0.17992
# Poissons Ratio (y) = 0.24241 0.08724
# Poissons Ratio (z) = 0.03722 0.03595
#
# Static dielectric constant tensor:
#      x y z
#    x 2.012550 0.000000 0.032720 
#    y 0.000000 1.873300 0.000000 
#    z 0.032720 0.000000 2.066400 
# 
# From -- ./inp_files/16648.got.cif
#   From: 2010.05.17/outbox.cif.g08.bks.cpg/sg3_9_cif.got.tgz:16648.got - 2010.06.03 18:33:08.
