data_PCOD9113263
_publ_section_title
;
Structure prediction by ZEFSAII (Michael W. Deem and Ramdas Pophale) SiO2 
 PCOD9113263
Probable space group: P 2
;
_chemical_formula_sum "Si O2"
_cell_formula_units_Z 16
_cell_length_a 12.666432
_cell_length_b 7.463554
_cell_length_c 10.288880
_cell_angle_alpha 90.000000
_cell_angle_beta 52.976962
_cell_angle_gamma 90.000000
_cell_volume 776.577940
_symmetry_space_group_name_H-M "P 2"
_symmetry_group_IT_number 3
_symmetry_cell_setting 'monoclinic'
loop_
_space_group_symop_operation_xyz
x,y,z
-x,y,-z
loop_
_atom_site_type_symbol
_atom_site_label
_atom_site_fract_x
_atom_site_fract_y
_atom_site_fract_z
Si Si1 0.419874 0.828830 0.868107
Si Si2 0.918102 0.489452 0.178466
Si Si3 0.696423 0.765796 0.780419
Si Si4 0.920154 0.941690 0.445850
Si Si5 0.600027 0.131218 0.306836
Si Si6 0.932633 0.560445 0.676181
Si Si7 0.114531 0.070627 0.820799
Si Si8 0.632612 0.553975 0.317734
O O1 0.555177 0.740313 0.819622
O O2 0.361563 0.689112 0.807414
O O3 0.449878 0.019765 0.779573
O O4 0.328218 0.858333 0.061929
O O5 0.892067 0.284473 0.163514
O O6 0.770059 0.571018 0.298134
O O7 0.013661 0.480944 0.231561
O O8 0.000000 0.575707 0.000000
O O9 0.784356 0.877696 0.613309
O O10 0.779205 0.588059 0.757442
O O11 0.000000 0.046150 0.500000
O O12 0.008229 0.762989 0.358853
O O13 0.902459 0.024011 0.317769
O O14 0.500000 0.106858 0.500000
O O15 0.737992 0.033999 0.240033
O O16 0.618833 0.346224 0.279627
O O17 0.000000 0.475886 0.500000
O O18 0.000000 0.996623 0.000000
O O19 0.500000 0.592506 0.500000
#
# Coordination Sequence:
#
# PCOD9113263 Si02
#       8
#     2   2   2   2   2   2   2   2
#     4  11  21  37  66  82 121 162 204 249 311 354
#     4  10  21  38  57  87 122 154 199 257 301 362
#     4   9  21  38  56  90 114 156 209 251 287 387
#     4   9  20  36  57  80 120 150 193 243 296 357
#     4  10  22  39  58  90 127 156 202 260 303 366
#     4   9  20  35  58  78 117 150 194 243 296 357
#     4  10  22  36  59  89 121 154 206 256 301 365
#     4  10  23  37  60  93 122 157 205 254 309 368
#
# _framework density 20.603213
#
# number of rings (size 3 to 8) (size 9 to 14) (size 15 to 20)
#    0.000    2.500    0.000    1.875    8.750    1.000 
#    0.000    2.500   11.000    0.000    0.000    0.000 
#    0.000    0.000    0.000    0.000    0.000    0.000 
#
# Total GULP energy -89155.950662 kJ/mol
# GULP energy per Si atom -5572.246916 kJ/mol
# Density = 2.055632 g / cm^3
# Si number density = 20.603213 Si / 1000 Ang^3
#
#
#
# Elastic Constant Matrix: (Units=GPa)
#
#
# Indices 1 2 3 4 5 6 
#
# 1 104.0471 6.4586 37.6010 0.0000 -3.7861 0.0000
# 2 6.4586 46.8602 12.2352 0.0000 -2.1481 0.0000
# 3 37.6010 12.2352 113.5907 0.0000 1.3498 0.0000
# 4 0.0000 0.0000 0.0000 0.7489 0.0000 17.3550
# 5 -3.7861 -2.1481 1.3498 0.0000 32.3503 0.0000
# 6 0.0000 0.0000 0.0000 17.3550 0.0000 -3.5054
#
#
#
# Elastic Compliance Matrix: (Units=1/GPa)
#
#
# Indices 1 2 3 4 5 6 
#
# 1 0.010995 -0.000511 -0.003601 0.000000 0.001403 0.000000
# 2 -0.000511 0.022060 -0.002225 0.000000 0.001498 0.000000
# 3 -0.003601 -0.002225 0.010247 0.000000 -0.000997 0.000000
# 4 0.000000 0.000000 0.000000 0.011538 0.000000 0.057123
# 5 0.001403 0.001498 -0.000997 0.000000 0.031217 0.000000
# 6 0.000000 0.000000 0.000000 0.057123 0.000000 -0.002465
#
#
# Mechanical properties :
#
#
# Convention : Reuss Voigt Hill
#
# Bulk Modulus (GPa) = 32.64938 41.89863 37.27400
# Shear Modulus (GPa) = 46.95913 19.79897 33.37905
#
# Velocity S-wave (km/s) = 4.77929 3.10331 4.02940
# Velocity P-wave (km/s) = 6.80710 5.76375 6.30704
#
# Compressibility (1/GPa) = 0.03062845
#
# Stress axis : x y z
#
# Youngs Moduli (GPa) = 90.94819 45.33078 97.58809
#
# Poissons Ratio (x) = 0.02316 0.35145
# Poissons Ratio (y) = 0.04646 0.21712
# Poissons Ratio (z) = 0.32753 0.10085
#
# Static dielectric constant tensor:
#      x y z
#    x 1.826730 0.000000 -0.009320 
#    y 0.000000 1.736380 0.000000 
#    z -0.009320 0.000000 1.759370 
# 
# From -- ./inp_files/7454.got.cif
#   From: 2010.05.17/outbox.cif.g08.bks.cpg/sg3_4_cif.got.tgz:7454.got - 2010.06.03 18:33:08.
