data_PCOD9113363
_publ_section_title
;
Structure prediction by ZEFSAII (Michael W. Deem and Ramdas Pophale) SiO2 
 PCOD9113363
Probable space group: P 2
;
_chemical_formula_sum "Si O2"
_cell_formula_units_Z 16
_cell_length_a 20.220904
_cell_length_b 6.746167
_cell_length_c 12.291809
_cell_angle_alpha 90.000000
_cell_angle_beta 154.446271
_cell_angle_gamma 90.000000
_cell_volume 723.286927
_symmetry_space_group_name_H-M "P 2"
_symmetry_group_IT_number 3
_symmetry_cell_setting 'monoclinic'
loop_
_space_group_symop_operation_xyz
x,y,z
-x,y,-z
loop_
_atom_site_type_symbol
_atom_site_label
_atom_site_fract_x
_atom_site_fract_y
_atom_site_fract_z
Si Si1 0.232403 0.198990 0.832833
Si Si2 0.626115 0.795502 0.590821
Si Si3 0.050396 0.548636 0.949276
Si Si4 0.989546 0.226932 0.294458
Si Si5 0.391451 0.868794 0.966453
Si Si6 0.329902 0.109517 0.526811
Si Si7 0.143199 0.894521 0.413902
Si Si8 0.488425 0.492796 0.754033
O O1 0.149487 0.267135 0.597219
O O2 0.129526 0.232198 0.784732
O O3 0.275244 0.965792 0.883684
O O4 0.377859 0.336550 0.066272
O O5 0.500000 0.829268 0.500000
O O6 0.652258 0.001758 0.563352
O O7 0.536607 0.641425 0.381377
O O8 0.793741 0.681838 0.841932
O O9 0.053493 0.364263 0.870744
O O10 0.909704 0.682055 0.699804
O O11 0.000000 0.505184 0.000000
O O12 0.010324 0.005189 0.282046
O O13 0.290692 0.882671 0.709782
O O14 0.531778 0.019558 0.193973
O O15 0.457617 0.648458 0.075184
O O16 0.180535 0.026621 0.364063
O O17 0.343794 0.346137 0.551064
#
# Coordination Sequence:
#
# PCOD9113363 Si02
#       8
#     2   2   2   2   2   2   2   2
#     4   9  19  41  63 105 129 162 221 285 353 407
#     4  11  25  44  64  92 129 178 232 286 335 395
#     4  12  26  43  64  95 136 187 240 274 330 409
#     4  10  23  38  68  93 134 175 225 279 343 414
#     4   9  20  39  66  96 131 165 212 278 349 414
#     4  10  22  40  63  94 128 168 222 278 338 413
#     4  11  23  41  63  95 135 177 215 279 349 405
#     4  10  21  39  69  91 128 165 216 283 337 401
#
# _framework density 22.121234999999999
#
# number of rings (size 3 to 8) (size 9 to 14) (size 15 to 20)
#    0.000    1.750    1.250    1.875    1.750    6.000 
#    0.000   10.000    0.000    0.000    0.000    0.000 
#    0.000    0.000    0.000    0.000    0.000    0.000 
#
# Total GULP energy -89143.291951 kJ/mol
# GULP energy per Si atom -5571.455747 kJ/mol
# Density = 2.207089 g / cm^3
# Si number density = 22.121235 Si / 1000 Ang^3
#
#
#
# Elastic Constant Matrix: (Units=GPa)
#
#
# Indices 1 2 3 4 5 6 
#
# 1 93.8374 36.1674 36.9279 0.0000 -14.6126 0.0000
# 2 36.1674 107.9045 5.7569 0.0000 -12.9009 0.0000
# 3 36.9279 5.7569 42.0049 0.0000 -4.4040 0.0000
# 4 0.0000 0.0000 0.0000 31.9134 0.0000 3.4708
# 5 -14.6126 -12.9009 -4.4040 0.0000 26.1719 0.0000
# 6 0.0000 0.0000 0.0000 3.4708 0.0000 13.2570
#
#
#
# Elastic Compliance Matrix: (Units=1/GPa)
#
#
# Indices 1 2 3 4 5 6 
#
# 1 0.019911 -0.005108 -0.016188 0.000000 0.005875 0.000000
# 2 -0.005108 0.011188 0.003294 0.000000 0.003218 0.000000
# 3 -0.016188 0.003294 0.037471 0.000000 -0.001109 0.000000
# 4 0.000000 0.000000 0.000000 0.032253 0.000000 -0.008444
# 5 0.005875 0.003218 -0.001109 0.000000 0.042889 0.000000
# 6 0.000000 0.000000 0.000000 -0.008444 0.000000 0.077643
#
#
# Mechanical properties :
#
#
# Convention : Reuss Voigt Hill
#
# Bulk Modulus (GPa) = 30.70640 44.60566 37.65603
# Shear Modulus (GPa) = 18.64191 25.26143 21.95167
#
# Velocity S-wave (km/s) = 2.90611 3.38295 3.15355
# Velocity P-wave (km/s) = 5.01714 5.95542 5.50630
#
# Compressibility (1/GPa) = 0.03256650
#
# Stress axis : x y z
#
# Youngs Moduli (GPa) = 50.22395 89.37854 26.68759
#
# Poissons Ratio (x) = 0.45651 0.43203
# Poissons Ratio (y) = 0.25652 -0.08792
# Poissons Ratio (z) = 0.81304 -0.29443
#
# Static dielectric constant tensor:
#      x y z
#    x 1.967830 0.000000 0.050000 
#    y 0.000000 1.793380 0.000000 
#    z 0.050000 0.000000 1.907680 
# 
# From -- ./inp_files/12625.got.cif
#   From: 2010.05.17/outbox.cif.g08.bks.cpg/sg3_7_cif.got.tgz:12625.got - 2010.06.03 18:33:08.
