data_PCOD9113089
_publ_section_title
;
Structure prediction by ZEFSAII (Michael W. Deem and Ramdas Pophale) SiO2 
 PCOD9113089
Probable space group: P 2
;
_chemical_formula_sum "Si O2"
_cell_formula_units_Z 16
_cell_length_a 5.581344
_cell_length_b 9.697697
_cell_length_c 13.268529
_cell_angle_alpha 90.000000
_cell_angle_beta 95.060689
_cell_angle_gamma 90.000000
_cell_volume 715.375255
_symmetry_space_group_name_H-M "P 2"
_symmetry_group_IT_number 3
_symmetry_cell_setting 'monoclinic'
loop_
_space_group_symop_operation_xyz
x,y,z
-x,y,-z
loop_
_atom_site_type_symbol
_atom_site_label
_atom_site_fract_x
_atom_site_fract_y
_atom_site_fract_z
Si Si1 0.326167 0.642630 0.287241
Si Si2 0.519760 0.198360 0.651380
Si Si3 0.747903 0.888906 0.201202
Si Si4 0.705425 0.418593 0.235383
Si Si5 0.738828 0.948635 0.439360
Si Si6 0.136430 0.425364 0.403030
Si Si7 0.739745 0.958594 0.768834
Si Si8 0.915160 0.611330 0.109478
O O1 0.565382 0.550527 0.279764
O O2 0.223323 0.580961 0.386507
O O3 0.299414 0.806611 0.281397
O O4 0.151871 0.601975 0.188014
O O5 0.437575 0.279134 0.749012
O O6 0.707750 0.079592 0.687721
O O7 0.312801 0.110838 0.588463
O O8 0.647312 0.318830 0.595814
O O9 0.495507 0.962338 0.168966
O O10 0.993911 0.963010 0.178274
O O11 0.765190 0.741707 0.146891
O O12 0.757742 0.883505 0.325857
O O13 0.949473 0.395214 0.306612
O O14 0.766401 0.472594 0.126758
O O15 0.000000 0.929239 0.500000
O O16 0.000000 0.412167 0.500000
O O17 0.500000 0.908393 0.500000
O O18 0.000000 0.631775 0.000000
#
# Coordination Sequence:
#
# PCOD9113089 Si02
#       8
#     2   2   2   2   2   2   2   2
#     4   9  20  41  62  95 127 170 222 280 349 397
#     4  10  24  35  62  94 130 181 227 270 323 403
#     4  10  21  40  62  99 136 165 225 283 333 394
#     4  10  21  40  61  91 136 168 222 284 331 399
#     4  11  24  39  63  96 138 189 230 268 331 413
#     4  10  23  39  60  89 133 182 228 277 327 398
#     4  10  20  39  66  89 129 173 214 272 336 390
#     4  10  21  41  72  98 122 175 233 288 355 416
#
# _framework density 22.365884000000001
#
# number of rings (size 3 to 8) (size 9 to 14) (size 15 to 20)
#    0.000    2.000    1.250    1.500    7.000    2.000 
#    0.000   13.750    0.000    3.000   39.000    0.000 
#    0.000    0.000    0.000    0.000    0.000    0.000 
#
# Total GULP energy -89167.470500 kJ/mol
# GULP energy per Si atom -5572.966906 kJ/mol
# Density = 2.231498 g / cm^3
# Si number density = 22.365884 Si / 1000 Ang^3
#
#
#
# Elastic Constant Matrix: (Units=GPa)
#
#
# Indices 1 2 3 4 5 6 
#
# 1 114.9887 10.3675 15.7399 0.0000 -18.3456 0.0000
# 2 10.3675 101.0442 33.9263 0.0000 -11.4003 0.0000
# 3 15.7399 33.9263 97.8960 0.0000 -27.9783 0.0000
# 4 0.0000 0.0000 0.0000 19.0390 0.0000 -9.9060
# 5 -18.3456 -11.4003 -27.9783 0.0000 20.6622 0.0000
# 6 0.0000 0.0000 0.0000 -9.9060 0.0000 34.2076
#
#
#
# Elastic Compliance Matrix: (Units=1/GPa)
#
#
# Indices 1 2 3 4 5 6 
#
# 1 0.010286 -0.000352 0.001669 0.000000 0.011198 0.000000
# 2 -0.000352 0.011241 -0.003517 0.000000 0.001127 0.000000
# 3 0.001669 -0.003517 0.018000 0.000000 0.023915 0.000000
# 4 0.000000 0.000000 0.000000 0.061841 0.000000 0.017908
# 5 0.011198 0.001127 0.023915 0.000000 0.091345 0.000000
# 6 0.000000 0.000000 0.000000 0.017908 0.000000 0.034419
#
#
# Mechanical properties :
#
#
# Convention : Reuss Voigt Hill
#
# Bulk Modulus (GPa) = 28.46836 48.22181 38.34508
# Shear Modulus (GPa) = 20.55563 31.70813 26.13188
#
# Velocity S-wave (km/s) = 3.03489 3.76932 3.42187
# Velocity P-wave (km/s) = 5.00369 6.36796 5.72660
#
# Compressibility (1/GPa) = 0.03512672
#
# Stress axis : x y z
#
# Youngs Moduli (GPa) = 97.21524 88.96208 55.55514
#
# Poissons Ratio (x) = 0.03133 -0.09270
# Poissons Ratio (y) = 0.03424 0.19537
# Poissons Ratio (z) = -0.16221 0.31285
#
# Static dielectric constant tensor:
#      x y z
#    x 1.941490 0.000000 -0.039100 
#    y 0.000000 1.842000 0.000000 
#    z -0.039100 0.000000 1.825310 
# 
# From -- ./inp_files/9989.got.cif
#   From: 2010.05.17/outbox.cif.g08.bks.cpg/sg3_5_cif.got.tgz:9989.got - 2010.06.03 18:33:08.
