data_PCOD9113853
_publ_section_title
;
Structure prediction by ZEFSAII (Michael W. Deem and Ramdas Pophale) SiO2 
 PCOD9113853
Probable space group: P 2
;
_chemical_formula_sum "Si O2"
_cell_formula_units_Z 12
_cell_length_a 7.785411
_cell_length_b 6.792735
_cell_length_c 14.488077
_cell_angle_alpha 90.000000
_cell_angle_beta 136.465613
_cell_angle_gamma 90.000000
_cell_volume 527.744441
_symmetry_space_group_name_H-M "P 2"
_symmetry_group_IT_number 3
_symmetry_cell_setting 'monoclinic'
loop_
_space_group_symop_operation_xyz
x,y,z
-x,y,-z
loop_
_atom_site_type_symbol
_atom_site_label
_atom_site_fract_x
_atom_site_fract_y
_atom_site_fract_z
Si Si1 0.741100 0.966390 0.884569
Si Si2 0.580780 0.619942 0.187417
Si Si3 0.130723 0.726251 0.341952
Si Si4 0.727191 0.291660 0.030666
Si Si5 0.514437 0.518354 0.372956
Si Si6 0.766797 0.140381 0.695672
O O1 0.518997 0.836842 0.833724
O O2 0.764691 0.160211 0.955206
O O3 0.714763 0.025036 0.769731
O O4 0.000000 0.851077 0.000000
O O5 0.384632 0.497870 0.049043
O O6 0.581474 0.522306 0.290714
O O7 0.848281 0.652568 0.244152
O O8 0.262843 0.637290 0.302055
O O9 0.277255 0.629427 0.485446
O O10 0.179511 0.963496 0.356113
O O11 0.500000 0.201427 0.000000
O O12 0.976991 0.262965 0.187655
O O13 0.455842 0.300321 0.388947
#
# Coordination Sequence:
#
# PCOD9113853 Si02
#       6
#     2   2   2   2   2   2
#     4  10  23  39  69 100 146 190 234 307 380 447
#     4  12  24  44  74 108 148 190 252 308 379 451
#     4  11  26  46  74 106 146 200 252 313 364 454
#     4  11  24  40  69 109 143 191 244 309 378 451
#     4  11  25  46  74 101 148 200 254 308 375 446
#     4  11  23  47  71 105 151 196 251 306 383 447
#
# _framework density 22.738278000000001
#
# number of rings (size 3 to 8) (size 9 to 14) (size 15 to 20)
#    0.000    1.000    3.333    2.500    2.333    6.000 
#    0.000    0.000    0.000    0.000    0.000    0.000 
#    0.000    0.000    0.000    0.000    0.000    0.000 
#
# Total GULP energy -66982.139891 kJ/mol
# GULP energy per Si atom -5581.844991 kJ/mol
# Density = 2.268653 g / cm^3
# Si number density = 22.738278 Si / 1000 Ang^3
#
#
#
# Elastic Constant Matrix: (Units=GPa)
#
#
# Indices 1 2 3 4 5 6 
#
# 1 114.1634 25.6425 21.9596 0.0000 10.2556 0.0000
# 2 25.6425 129.6300 52.6802 0.0000 5.0151 0.0000
# 3 21.9596 52.6802 79.4567 0.0000 -0.0979 0.0000
# 4 0.0000 0.0000 0.0000 19.3890 0.0000 17.2861
# 5 10.2556 5.0151 -0.0979 0.0000 43.2152 0.0000
# 6 0.0000 0.0000 0.0000 17.2861 0.0000 29.0344
#
#
#
# Elastic Compliance Matrix: (Units=1/GPa)
#
#
# Indices 1 2 3 4 5 6 
#
# 1 0.009559 -0.001003 -0.001980 0.000000 -0.002157 0.000000
# 2 -0.001003 0.010732 -0.006839 0.000000 -0.001023 0.000000
# 3 -0.001980 -0.006839 0.017669 0.000000 0.001303 0.000000
# 4 0.000000 0.000000 0.000000 0.109920 0.000000 -0.065443
# 5 -0.002157 -0.001023 0.001303 0.000000 0.023773 0.000000
# 6 0.000000 0.000000 0.000000 -0.065443 0.000000 0.073404
#
#
# Mechanical properties :
#
#
# Convention : Reuss Voigt Hill
#
# Bulk Modulus (GPa) = 54.59737 58.20163 56.39950
# Shear Modulus (GPa) = 18.46337 33.19222 25.82779
#
# Velocity S-wave (km/s) = 2.85264 3.82481 3.37393
# Velocity P-wave (km/s) = 5.90876 6.71993 6.32736
#
# Compressibility (1/GPa) = 0.01831590
#
# Stress axis : x y z
#
# Youngs Moduli (GPa) = 104.61156 93.18261 56.59766
#
# Poissons Ratio (x) = 0.09347 0.11204
# Poissons Ratio (y) = 0.10493 0.38708
# Poissons Ratio (z) = 0.20708 0.63729
#
# Static dielectric constant tensor:
#      x y z
#    x 1.834340 0.000000 0.002140 
#    y 0.000000 1.878660 0.000000 
#    z 0.002140 0.000000 1.905490 
# 
# From -- ./inp_files/14887.got.cif
#   From: 2010.05.17/outbox.cif.g08.bks.cpg/sg3_8_cif.got.tgz:14887.got - 2010.06.03 18:33:08.
