data_PCOD9113639
_publ_section_title
;
Structure prediction by ZEFSAII (Michael W. Deem and Ramdas Pophale) SiO2 
 PCOD9113639
Probable space group: P 2
;
_chemical_formula_sum "Si O2"
_cell_formula_units_Z 11
_cell_length_a 13.516633
_cell_length_b 5.749505
_cell_length_c 7.895665
_cell_angle_alpha 90.000000
_cell_angle_beta 50.114548
_cell_angle_gamma 90.000000
_cell_volume 470.834997
_symmetry_space_group_name_H-M "P 2"
_symmetry_group_IT_number 3
_symmetry_cell_setting 'monoclinic'
loop_
_space_group_symop_operation_xyz
x,y,z
-x,y,-z
loop_
_atom_site_type_symbol
_atom_site_label
_atom_site_fract_x
_atom_site_fract_y
_atom_site_fract_z
Si Si1 0.894030 0.970200 0.882548
Si Si2 0.388138 0.034158 0.409844
Si Si3 0.857277 0.281521 0.402598
Si Si4 0.000000 0.609035 0.500000
Si Si5 0.736495 0.639885 0.282506
Si Si6 0.352441 0.247017 0.827895
O O1 0.924532 0.777693 0.709398
O O2 0.836157 0.829810 0.104161
O O3 0.023174 0.115216 0.769261
O O4 0.781027 0.148431 0.955016
O O5 0.270795 0.129497 0.426836
O O6 0.369289 0.139424 0.620120
O O7 0.525537 0.141154 0.206892
O O8 0.363197 0.762016 0.477326
O O9 0.820428 0.448766 0.287354
O O10 0.902861 0.446242 0.503385
O O11 0.663624 0.518470 0.203568
#
# Coordination Sequence:
#
# PCOD9113639 Si02
#       6
#     2   2   2   1   2   2
#     4  11  24  40  63  92 125 167 212 256 311 374
#     4   9  20  37  62  96 129 158 201 255 314 377
#     4  11  24  40  63  92 125 167 212 256 311 374
#     4  12  26  42  60  84 128 174 210 262 312 356
#     4  10  22  40  68  98 128 162 202 264 318 364
#     4   9  20  37  62  96 129 158 201 255 314 377
#
# _framework density 23.362750999999999
#
# number of rings (size 3 to 8) (size 9 to 14) (size 15 to 20)
#    0.000    1.818    0.000    2.727    0.000   29.091 
#    0.000    0.000    0.000   30.545    0.000    0.000 
#    0.000    0.000    0.000    0.000    0.000    0.000 
#
# Total GULP energy -61471.433526 kJ/mol
# GULP energy per Si atom -5588.312139 kJ/mol
# Density = 2.330958 g / cm^3
# Si number density = 23.362751 Si / 1000 Ang^3
#
#
#
# Elastic Constant Matrix: (Units=GPa)
#
#
# Indices 1 2 3 4 5 6 
#
# 1 142.8608 76.8554 73.7050 0.0000 -54.6558 0.0000
# 2 76.8554 142.9182 48.4855 0.0000 -32.6219 0.0000
# 3 73.7050 48.4855 58.5661 0.0000 -31.7708 0.0000
# 4 0.0000 0.0000 0.0000 26.3271 0.0000 4.3564
# 5 -54.6558 -32.6219 -31.7708 0.0000 46.8360 0.0000
# 6 0.0000 0.0000 0.0000 4.3564 0.0000 34.9484
#
#
#
# Elastic Compliance Matrix: (Units=1/GPa)
#
#
# Indices 1 2 3 4 5 6 
#
# 1 0.024249 -0.003037 -0.021834 0.000000 0.011371 0.000000
# 2 -0.003037 0.010240 -0.004286 0.000000 0.000681 0.000000
# 3 -0.021834 -0.004286 0.051674 0.000000 0.006589 0.000000
# 4 0.000000 0.000000 0.000000 0.038784 0.000000 -0.004834
# 5 0.011371 0.000681 0.006589 0.000000 0.039564 0.000000
# 6 0.000000 0.000000 0.000000 -0.004834 0.000000 0.029216
#
#
# Mechanical properties :
#
#
# Convention : Reuss Voigt Hill
#
# Bulk Modulus (GPa) = 35.90708 82.49300 59.20004
# Shear Modulus (GPa) = 19.13344 31.30893 25.22118
#
# Velocity S-wave (km/s) = 2.86487 3.66474 3.28921
# Velocity P-wave (km/s) = 5.13284 7.30023 6.31029
#
# Compressibility (1/GPa) = 0.02784966
#
# Stress axis : x y z
#
# Youngs Moduli (GPa) = 41.23959 97.66074 19.35192
#
# Poissons Ratio (x) = 0.29662 0.42252
# Poissons Ratio (y) = 0.12525 0.08293
# Poissons Ratio (z) = 0.90041 0.41853
#
# Static dielectric constant tensor:
#      x y z
#    x 1.939010 0.000000 -0.012560 
#    y 0.000000 1.979730 0.000000 
#    z -0.012560 0.000000 1.945350 
# 
# From -- ./inp_files/8142.got.cif
#   From: 2010.05.17/outbox.cif.g08.bks.cpg/sg3_5_cif.got.tgz:8142.got - 2010.06.03 18:33:08.
