data_PCOD9113431
_publ_section_title
;
Structure prediction by ZEFSAII (Michael W. Deem and Ramdas Pophale) SiO2 
 PCOD9113431
Probable space group: P 2
;
_chemical_formula_sum "Si O2"
_cell_formula_units_Z 14
_cell_length_a 8.204535
_cell_length_b 4.799004
_cell_length_c 15.418185
_cell_angle_alpha 90.000000
_cell_angle_beta 125.383321
_cell_angle_gamma 90.000000
_cell_volume 494.941485
_symmetry_space_group_name_H-M "P 2"
_symmetry_group_IT_number 3
_symmetry_cell_setting 'monoclinic'
loop_
_space_group_symop_operation_xyz
x,y,z
-x,y,-z
loop_
_atom_site_type_symbol
_atom_site_label
_atom_site_fract_x
_atom_site_fract_y
_atom_site_fract_z
Si Si1 0.036988 0.625000 0.228940
Si Si2 0.117399 0.280449 0.673068
Si Si3 0.563824 0.649208 0.818438
Si Si4 0.704215 0.969208 0.574319
Si Si5 0.159183 0.164569 0.126233
Si Si6 0.661085 0.951573 0.109023
Si Si7 0.773748 0.809426 0.417907
O O1 0.231035 0.799853 0.320465
O O2 0.084414 0.344260 0.188479
O O3 0.936554 0.568959 0.293353
O O4 0.859830 0.806329 0.128985
O O5 0.201763 0.125641 0.612185
O O6 0.252517 0.145088 0.789787
O O7 0.895524 0.150422 0.610297
O O8 0.650358 0.344515 0.842805
O O9 0.482500 0.732234 0.886920
O O10 0.745949 0.854058 0.845642
O O11 0.374520 0.663594 0.695224
O O12 0.500000 0.140450 0.500000
O O13 0.678475 0.776126 0.482241
O O14 0.000000 0.182631 0.000000
O O15 0.500000 0.105859 0.000000
O O16 0.000000 0.692843 0.500000
#
# Coordination Sequence:
#
# PCOD9113431 Si02
#       7
#     2   2   2   2   2   2   2
#     4  11  25  42  70 101 143 187 249 304 365 449
#     4   9  22  40  63  98 134 178 233 304 355 436
#     4  11  26  47  72 111 146 199 253 308 374 454
#     4  10  21  41  66  95 133 182 235 293 365 438
#     4  12  28  47  75 108 157 199 246 312 383 445
#     4  10  23  42  71  97 139 187 248 304 366 438
#     4   9  20  45  65  98 140 185 239 304 370 428
#
# _framework density 28.286173000000002
#
# number of rings (size 3 to 8) (size 9 to 14) (size 15 to 20)
#    0.000    1.714    0.000    3.000   12.000    1.143 
#    7.714    2.857    0.000    0.000    0.000    0.000 
#    0.000    0.000    0.000    0.000    0.000    0.000 
#
# Total GULP energy -78240.876797 kJ/mol
# GULP energy per Si atom -5588.634057 kJ/mol
# Density = 2.822179 g / cm^3
# Si number density = 28.286173 Si / 1000 Ang^3
#
#
#
# Elastic Constant Matrix: (Units=GPa)
#
#
# Indices 1 2 3 4 5 6 
#
# 1 104.0195 -1.0694 37.7239 0.0000 7.4016 0.0000
# 2 -1.0694 88.7726 17.6702 0.0000 5.5329 0.0000
# 3 37.7239 17.6702 191.0270 0.0000 30.5160 0.0000
# 4 0.0000 0.0000 0.0000 25.1976 0.0000 -0.9270
# 5 7.4016 5.5329 30.5160 0.0000 55.1000 0.0000
# 6 0.0000 0.0000 0.0000 -0.9270 0.0000 35.6857
#
#
#
# Elastic Compliance Matrix: (Units=1/GPa)
#
#
# Indices 1 2 3 4 5 6 
#
# 1 0.010386 0.000553 -0.002052 0.000000 -0.000314 0.000000
# 2 0.000553 0.011525 -0.001074 0.000000 -0.000637 0.000000
# 3 -0.002052 -0.001074 0.006229 0.000000 -0.003066 0.000000
# 4 0.000000 0.000000 0.000000 0.039724 0.000000 0.001032
# 5 -0.000314 -0.000637 -0.003066 0.000000 0.019953 0.000000
# 6 0.000000 0.000000 0.000000 0.001032 0.000000 0.028049
#
#
# Mechanical properties :
#
#
# Convention : Reuss Voigt Hill
#
# Bulk Modulus (GPa) = 43.48740 54.71872 49.10306
# Shear Modulus (GPa) = 38.85718 45.16296 42.01007
#
# Velocity S-wave (km/s) = 3.71039 4.00014 3.85798
# Velocity P-wave (km/s) = 5.81063 6.38134 6.10266
#
# Compressibility (1/GPa) = 0.02299517
#
# Stress axis : x y z
#
# Youngs Moduli (GPa) = 96.28544 86.76943 160.53309
#
# Poissons Ratio (x) = -0.04800 0.32941
# Poissons Ratio (y) = -0.05326 0.17234
# Poissons Ratio (z) = 0.19757 0.09315
#
# Static dielectric constant tensor:
#      x y z
#    x 2.597020 0.000000 -0.122230 
#    y 0.000000 2.425700 0.000000 
#    z -0.122230 0.000000 2.262940 
# 
# From -- ./inp_files/14866.got.cif
#   From: 2010.05.17/outbox.cif.g08.bks.cpg/sg3_8_cif.got.tgz:14866.got - 2010.06.03 18:33:08.
