data_PCOD9113698
_publ_section_title
;
Structure prediction by ZEFSAII (Michael W. Deem and Ramdas Pophale) SiO2 
 PCOD9113698
Probable space group: P 2
;
_chemical_formula_sum "Si O2"
_cell_formula_units_Z 10
_cell_length_a 14.188686
_cell_length_b 5.455889
_cell_length_c 15.079232
_cell_angle_alpha 90.000000
_cell_angle_beta 160.210797
_cell_angle_gamma 90.000000
_cell_volume 395.205844
_symmetry_space_group_name_H-M "P 2"
_symmetry_group_IT_number 3
_symmetry_cell_setting 'monoclinic'
loop_
_space_group_symop_operation_xyz
x,y,z
-x,y,-z
loop_
_atom_site_type_symbol
_atom_site_label
_atom_site_fract_x
_atom_site_fract_y
_atom_site_fract_z
Si Si1 0.986248 0.207660 0.583001
Si Si2 0.679756 0.922106 0.583002
Si Si3 0.765461 0.189496 0.913100
Si Si4 0.982525 0.564879 0.232526
Si Si5 0.439261 0.940259 0.086896
O O1 0.000000 0.339768 0.500000
O O2 0.899928 0.374186 0.590886
O O3 0.277585 0.090904 0.868738
O O4 0.765676 0.986596 0.373865
O O5 0.500000 0.790005 0.500000
O O6 0.781856 0.755575 0.590898
O O7 0.959891 0.038861 0.868738
O O8 0.482060 0.143169 0.373866
O O9 0.869984 0.450995 0.040394
O O10 0.662118 0.064868 0.912119
O O11 0.710803 0.678758 0.040402
#
# Coordination Sequence:
#
# PCOD9113698 Si02
#       5
#     2   2   2   2   2
#     4  11  24  43  68 103 141 179 231 286 338 406
#     4  11  24  43  68 103 141 179 231 286 338 406
#     4  10  22  42  67  95 133 178 227 283 341 404
#     4  10  24  46  74  98 138 190 228 278 350 412
#     4  10  22  42  67  95 133 178 227 283 341 404
#
# _framework density 25.303267999999999
#
# number of rings (size 3 to 8) (size 9 to 14) (size 15 to 20)
#    0.000    1.600    0.000    4.800    0.000   16.000 
#    0.000   16.000    0.000    0.000    0.000    0.000 
#    0.000    0.000    0.000    0.000    0.000    0.000 
#
# Total GULP energy -55903.954326 kJ/mol
# GULP energy per Si atom -5590.395433 kJ/mol
# Density = 2.524568 g / cm^3
# Si number density = 25.303268 Si / 1000 Ang^3
#
#
#
# Elastic Constant Matrix: (Units=GPa)
#
#
# Indices 1 2 3 4 5 6 
#
# 1 127.8065 21.4585 57.7042 0.0000 1.2101 0.0000
# 2 21.4585 75.3125 31.2024 0.0000 0.8437 0.0000
# 3 57.7042 31.2024 156.7464 0.0000 1.2921 0.0000
# 4 0.0000 0.0000 0.0000 34.7422 0.0000 2.2591
# 5 1.2101 0.8437 1.2921 0.0000 42.0473 0.0000
# 6 0.0000 0.0000 0.0000 2.2591 0.0000 8.6392
#
#
#
# Elastic Compliance Matrix: (Units=1/GPa)
#
#
# Indices 1 2 3 4 5 6 
#
# 1 0.009513 -0.001372 -0.003228 0.000000 -0.000147 0.000000
# 2 -0.001372 0.014671 -0.002414 0.000000 -0.000181 0.000000
# 3 -0.003228 -0.002414 0.008049 0.000000 -0.000106 0.000000
# 4 0.000000 0.000000 0.000000 0.029281 0.000000 -0.007657
# 5 -0.000147 -0.000181 -0.000106 0.000000 0.023794 0.000000
# 6 0.000000 0.000000 0.000000 -0.007657 0.000000 0.117754
#
#
# Mechanical properties :
#
#
# Convention : Reuss Voigt Hill
#
# Bulk Modulus (GPa) = 54.92494 64.51061 59.71777
# Shear Modulus (GPa) = 22.40555 33.71910 28.06233
#
# Velocity S-wave (km/s) = 2.97893 3.65444 3.33384
# Velocity P-wave (km/s) = 5.79533 6.58459 6.20253
#
# Compressibility (1/GPa) = 0.01820667
#
# Stress axis : x y z
#
# Youngs Moduli (GPa) = 105.11442 68.16177 124.23136
#
# Poissons Ratio (x) = 0.09349 0.40102
# Poissons Ratio (y) = 0.14418 0.29990
# Poissons Ratio (z) = 0.33931 0.16454
#
# Static dielectric constant tensor:
#      x y z
#    x 2.154150 0.000000 -0.018300 
#    y 0.000000 2.064350 0.000000 
#    z -0.018300 0.000000 1.942610 
# 
# From -- ./inp_files/2766.got.cif
#   From: 2010.05.17/outbox.cif.g08.bks.cpg/sg3_2_cif.got.tgz:2766.got - 2010.06.03 18:33:08.
