data_PCOD9113604
_publ_section_title
;
Structure prediction by ZEFSAII (Michael W. Deem and Ramdas Pophale) SiO2 
 PCOD9113604
Probable space group: P 2
;
_chemical_formula_sum "Si O2"
_cell_formula_units_Z 9
_cell_length_a 13.557362
_cell_length_b 5.170875
_cell_length_c 19.552937
_cell_angle_alpha 90.000000
_cell_angle_beta 159.813456
_cell_angle_gamma 90.000000
_cell_volume 473.007723
_symmetry_space_group_name_H-M "P 2"
_symmetry_group_IT_number 3
_symmetry_cell_setting 'monoclinic'
loop_
_space_group_symop_operation_xyz
x,y,z
-x,y,-z
loop_
_atom_site_type_symbol
_atom_site_label
_atom_site_fract_x
_atom_site_fract_y
_atom_site_fract_z
Si Si1 0.309462 0.244380 0.166280
Si Si2 0.403069 0.742906 0.585363
Si Si3 0.500000 0.566607 0.500000
Si Si4 0.875440 0.341141 0.107236
Si Si5 0.223472 0.834033 0.867296
O O1 0.509712 0.468356 0.326703
O O2 0.439748 0.969047 0.271645
O O3 0.265795 0.282127 0.057378
O O4 0.000000 0.271106 0.000000
O O5 0.502594 0.736425 0.570622
O O6 0.063546 0.780732 0.362885
O O7 0.786642 0.396197 0.683353
O O8 0.755687 0.600000 0.064816
O O9 0.826217 0.100265 0.124866
O O10 0.500000 0.845977 0.000000
#
# Coordination Sequence:
#
# PCOD9113604 Si02
#       5
#     2   2   1   2   2
#     4  12  24  39  61 100 136 160 198 260 334 387
#     4  11  24  39  64  92 131 166 211 255 319 374
#     4  10  22  40  62 100 124 176 202 268 312 392
#     4  11  24  41  67  94 131 165 214 261 323 374
#     4  11  25  46  67  90 125 175 225 261 299 372
#
# _framework density 19.027175
#
# number of rings (size 3 to 8) (size 9 to 14) (size 15 to 20)
#    0.000    0.889    2.222    5.333    6.222    1.778 
#    0.000    6.667    0.000    0.000    0.000    0.000 
#    0.000    0.000    0.000    0.000    0.000    0.000 
#
# Total GULP energy -50367.045021 kJ/mol
# GULP energy per Si atom -5596.338336 kJ/mol
# Density = 1.898387 g / cm^3
# Si number density = 19.027175 Si / 1000 Ang^3
#
#
#
# Elastic Constant Matrix: (Units=GPa)
#
#
# Indices 1 2 3 4 5 6 
#
# 1 90.0848 16.7151 60.2819 0.0000 18.1732 0.0000
# 2 16.7151 78.6294 2.0043 0.0000 17.0438 0.0000
# 3 60.2819 2.0043 79.4291 0.0000 21.1311 0.0000
# 4 0.0000 0.0000 0.0000 17.3694 0.0000 -17.7214
# 5 18.1732 17.0438 21.1311 0.0000 39.1974 0.0000
# 6 0.0000 0.0000 0.0000 -17.7214 0.0000 38.6056
#
#
#
# Elastic Compliance Matrix: (Units=1/GPa)
#
#
# Indices 1 2 3 4 5 6 
#
# 1 0.024178 -0.004853 -0.018453 0.000000 0.000848 0.000000
# 2 -0.004853 0.015167 0.005203 0.000000 -0.007149 0.000000
# 3 -0.018453 0.005203 0.028940 0.000000 -0.009308 0.000000
# 4 0.000000 0.000000 0.000000 0.108288 0.000000 0.049708
# 5 0.000848 -0.007149 -0.009308 0.000000 0.033245 0.000000
# 6 0.000000 0.000000 0.000000 0.049708 0.000000 0.048721
#
#
# Mechanical properties :
#
#
# Convention : Reuss Voigt Hill
#
# Bulk Modulus (GPa) = 31.17494 45.12731 38.15112
# Shear Modulus (GPa) = 16.36989 30.31062 23.34025
#
# Velocity S-wave (km/s) = 2.93634 3.99559 3.50620
# Velocity P-wave (km/s) = 5.28357 6.71231 6.04033
#
# Compressibility (1/GPa) = 0.03207705
#
# Stress axis : x y z
#
# Youngs Moduli (GPa) = 41.35945 65.93392 34.55467
#
# Poissons Ratio (x) = 0.32000 0.63764
# Poissons Ratio (y) = 0.20073 -0.17978
# Poissons Ratio (z) = 0.76321 -0.34304
#
# Static dielectric constant tensor:
#      x y z
#    x 1.647120 0.000000 -0.010920 
#    y 0.000000 1.647620 0.000000 
#    z -0.010920 0.000000 1.645280 
# 
# From -- ./inp_files/4779.got.cif
#   From: 2010.05.17/outbox.cif.g08.bks.cpg/sg3_3_cif.got.tgz:4779.got - 2010.06.03 18:33:08.
