data_PCOD9113845
_publ_section_title
;
Structure prediction by ZEFSAII (Michael W. Deem and Ramdas Pophale) SiO2 
 PCOD9113845
Probable space group: P 2
;
_chemical_formula_sum "Si O2"
_cell_formula_units_Z 9
_cell_length_a 4.744947
_cell_length_b 5.036222
_cell_length_c 15.755228
_cell_angle_alpha 90.000000
_cell_angle_beta 114.730404
_cell_angle_gamma 90.000000
_cell_volume 341.966601
_symmetry_space_group_name_H-M "P 2"
_symmetry_group_IT_number 3
_symmetry_cell_setting 'monoclinic'
loop_
_space_group_symop_operation_xyz
x,y,z
-x,y,-z
loop_
_atom_site_type_symbol
_atom_site_label
_atom_site_fract_x
_atom_site_fract_y
_atom_site_fract_z
Si Si1 0.520338 0.995490 0.811046
Si Si2 0.339920 0.501339 0.066650
Si Si3 0.500000 0.048965 0.500000
Si Si4 0.459461 0.760781 0.357707
Si Si5 0.142955 0.239659 0.624217
O O1 0.477864 0.747988 0.868329
O O2 0.682967 0.859921 0.749004
O O3 0.685583 0.243674 0.876280
O O4 0.221352 0.129786 0.728313
O O5 0.500000 0.413789 0.000000
O O6 0.000000 0.603886 0.000000
O O7 0.277821 0.804241 0.420316
O O8 0.786768 0.261838 0.559987
O O9 0.653298 0.503015 0.362142
O O10 0.680114 0.017720 0.412903
#
# Coordination Sequence:
#
# PCOD9113845 Si02
#       5
#     2   2   1   2   2
#     4  10  22  51  67 106 148 186 235 313 380 438
#     4  12  26  46  80 109 144 187 250 310 382 466
#     4  12  26  42  82 104 140 222 244 310 376 424
#     4  10  24  46  67 101 150 184 251 301 357 455
#     4  10  24  46  67 101 150 184 251 301 357 455
#
# _framework density 26.318359999999998
#
# number of rings (size 3 to 8) (size 9 to 14) (size 15 to 20)
#    1.333    0.000    2.222    2.000    0.000   10.667 
#    0.000    0.000    0.000    0.000    0.000    0.000 
#    0.000    0.000    0.000    0.000    0.000    0.000 
#
# Total GULP energy -50141.299529 kJ/mol
# GULP energy per Si atom -5571.255503 kJ/mol
# Density = 2.625846 g / cm^3
# Si number density = 26.318360 Si / 1000 Ang^3
#
#
#
# Elastic Constant Matrix: (Units=GPa)
#
#
# Indices 1 2 3 4 5 6 
#
# 1 105.2192 40.9417 30.8626 0.0000 6.8785 0.0000
# 2 40.9417 226.2132 61.0982 0.0000 -8.4971 0.0000
# 3 30.8626 61.0982 160.3432 0.0000 -15.4554 0.0000
# 4 0.0000 0.0000 0.0000 -180.1778 0.0000 86.0811
# 5 6.8785 -8.4971 -15.4554 0.0000 30.3555 0.0000
# 6 0.0000 0.0000 0.0000 86.0811 0.0000 -15.3315
#
#
#
# Elastic Compliance Matrix: (Units=1/GPa)
#
#
# Indices 1 2 3 4 5 6 
#
# 1 0.010934 -0.001622 -0.001860 0.000000 -0.003879 0.000000
# 2 -0.001622 0.005174 -0.001561 0.000000 0.001021 0.000000
# 3 -0.001860 -0.001561 0.007559 0.000000 0.003833 0.000000
# 4 0.000000 0.000000 0.000000 0.003299 0.000000 0.018522
# 5 -0.003879 0.001021 0.003833 0.000000 0.036059 0.000000
# 6 0.000000 0.000000 0.000000 0.018522 0.000000 0.038768
#
#
# Mechanical properties :
#
#
# Convention : Reuss Voigt Hill
#
# Bulk Modulus (GPa) = 73.63495 84.17562 78.90528
# Shear Modulus (GPa) = 42.95231 -9.10588 16.92321
#
# Velocity S-wave (km/s) = 4.04422 -1.86210 2.53853
# Velocity P-wave (km/s) = 7.06023 5.23735 6.21598
#
# Compressibility (1/GPa) = 0.01358051
#
# Stress axis : x y z
#
# Youngs Moduli (GPa) = 91.45401 193.26817 132.29306
#
# Poissons Ratio (x) = 0.31352 0.24612
# Poissons Ratio (y) = 0.14836 0.20650
# Poissons Ratio (z) = 0.17014 0.30168
#
# Static dielectric constant tensor:
#      x y z
#    x 3.752320 0.000000 -0.623530 
#    y 0.000000 2.220040 0.000000 
#    z -0.623530 0.000000 2.355970 
# 
# From -- ./inp_files/14543.got.cif
#   From: 2010.05.17/outbox.cif.g08.bks.cpg/sg3_8_cif.got.tgz:14543.got - 2010.06.03 18:33:08.
