data_PCOD9113113
_publ_section_title
;
Structure prediction by ZEFSAII (Michael W. Deem and Ramdas Pophale) SiO2 
 PCOD9113113
Probable space group: P 2
;
_chemical_formula_sum "Si O2"
_cell_formula_units_Z 16
_cell_length_a 8.076161
_cell_length_b 9.979119
_cell_length_c 19.006418
_cell_angle_alpha 90.000000
_cell_angle_beta 148.052084
_cell_angle_gamma 90.000000
_cell_volume 810.540497
_symmetry_space_group_name_H-M "P 2"
_symmetry_group_IT_number 3
_symmetry_cell_setting 'monoclinic'
loop_
_space_group_symop_operation_xyz
x,y,z
-x,y,-z
loop_
_atom_site_type_symbol
_atom_site_label
_atom_site_fract_x
_atom_site_fract_y
_atom_site_fract_z
Si Si1 0.871236 0.015580 0.132978
Si Si2 0.725773 0.338578 0.261067
Si Si3 0.131136 0.087447 0.381381
Si Si4 0.871325 0.816321 0.532427
Si Si5 0.187708 0.740833 0.242295
Si Si6 0.791610 0.501496 0.853583
Si Si7 0.758917 0.281975 0.032602
Si Si8 0.878931 0.587196 0.644109
O O1 0.941316 0.142981 0.109056
O O2 0.986786 0.055122 0.252605
O O3 0.500000 0.003396 0.000000
O O4 0.002505 0.873856 0.155839
O O5 0.534655 0.423238 0.250606
O O6 0.955066 0.212541 0.354637
O O7 0.938495 0.449097 0.298909
O O8 0.441967 0.284139 0.110802
O O9 0.500000 0.112399 0.500000
O O10 0.080180 0.955823 0.410286
O O11 0.502265 0.795480 0.391031
O O12 0.980732 0.692472 0.620238
O O13 0.000000 0.815365 0.500000
O O14 0.254234 0.641922 0.201909
O O15 0.037907 0.654427 0.251336
O O16 0.003582 0.404454 0.882302
O O17 0.000000 0.519571 0.000000
O O18 0.500000 0.294850 0.000000
O O19 0.500000 0.567622 0.500000
#
# Coordination Sequence:
#
# PCOD9113113 Si02
#       8
#     2   2   2   2   2   2   2   2
#     4  11  22  40  68 101 126 171 232 278 325 395
#     4  11  22  40  64  96 136 173 218 285 340 403
#     4  12  22  44  69  97 133 180 235 276 334 416
#     4  11  23  42  64  94 136 172 216 295 353 394
#     4  11  22  42  67  95 132 176 230 279 331 420
#     4  10  24  42  62  98 139 176 220 284 354 399
#     4  10  20  40  65  92 130 173 221 276 333 396
#     4  10  21  40  66  96 124 180 230 277 337 408
#
# _framework density 19.739913999999999
#
# number of rings (size 3 to 8) (size 9 to 14) (size 15 to 20)
#    0.000    1.250    5.000    2.250    0.000    3.500 
#    2.250    2.500    0.000    0.000    0.000    0.000 
#    0.000    0.000    0.000    0.000    0.000    0.000 
#
# Total GULP energy -89295.979438 kJ/mol
# GULP energy per Si atom -5580.998715 kJ/mol
# Density = 1.969498 g / cm^3
# Si number density = 19.739914 Si / 1000 Ang^3
#
#
#
# Elastic Constant Matrix: (Units=GPa)
#
#
# Indices 1 2 3 4 5 6 
#
# 1 68.2539 44.9734 17.7566 0.0000 -5.1544 0.0000
# 2 44.9734 165.8037 46.6595 0.0000 -11.3951 0.0000
# 3 17.7566 46.6595 71.3066 0.0000 -2.7204 0.0000
# 4 0.0000 0.0000 0.0000 81.3037 0.0000 15.2382
# 5 -5.1544 -11.3951 -2.7204 0.0000 20.5085 0.0000
# 6 0.0000 0.0000 0.0000 15.2382 0.0000 35.2923
#
#
#
# Elastic Compliance Matrix: (Units=1/GPa)
#
#
# Indices 1 2 3 4 5 6 
#
# 1 0.018056 -0.004315 -0.001599 0.000000 0.001928 0.000000
# 2 -0.004315 0.008680 -0.004485 0.000000 0.003143 0.000000
# 3 -0.001599 -0.004485 0.017334 0.000000 -0.000595 0.000000
# 4 0.000000 0.000000 0.000000 0.013383 0.000000 -0.005778
# 5 0.001928 0.003143 -0.000595 0.000000 0.050913 0.000000
# 6 0.000000 0.000000 0.000000 -0.005778 0.000000 0.030830
#
#
# Mechanical properties :
#
#
# Convention : Reuss Voigt Hill
#
# Bulk Modulus (GPa) = 42.97108 58.23810 50.60459
# Shear Modulus (GPa) = 29.80602 40.48587 35.14595
#
# Velocity S-wave (km/s) = 3.89001 4.53367 4.22412
# Velocity P-wave (km/s) = 6.48013 7.54800 7.03436
#
# Compressibility (1/GPa) = 0.02327147
#
# Stress axis : x y z
#
# Youngs Moduli (GPa) = 55.38296 115.20852 57.68872
#
# Poissons Ratio (x) = 0.49713 0.09225
# Poissons Ratio (y) = 0.23898 0.25875
# Poissons Ratio (z) = 0.08857 0.51674
#
# Static dielectric constant tensor:
#      x y z
#    x 1.559380 0.000000 -0.067690 
#    y 0.000000 1.706520 0.000000 
#    z -0.067690 0.000000 1.669060 
# 
# From -- ./inp_files/7416.got.cif
#   From: 2010.05.17/outbox.cif.g08.bks.cpg/sg3_4_cif.got.tgz:7416.got - 2010.06.03 18:33:08.
