data_PCOD9113099
_publ_section_title
;
Structure prediction by ZEFSAII (Michael W. Deem and Ramdas Pophale) SiO2 
 PCOD9113099
Probable space group: P 2
;
_chemical_formula_sum "Si O2"
_cell_formula_units_Z 13
_cell_length_a 9.066301
_cell_length_b 7.714949
_cell_length_c 12.780213
_cell_angle_alpha 90.000000
_cell_angle_beta 38.726840
_cell_angle_gamma 90.000000
_cell_volume 559.247050
_symmetry_space_group_name_H-M "P 2"
_symmetry_group_IT_number 3
_symmetry_cell_setting 'monoclinic'
loop_
_space_group_symop_operation_xyz
x,y,z
-x,y,-z
loop_
_atom_site_type_symbol
_atom_site_label
_atom_site_fract_x
_atom_site_fract_y
_atom_site_fract_z
Si Si1 0.805929 0.048720 0.297401
Si Si2 0.552140 0.900331 0.087912
Si Si3 0.397526 0.107327 0.379115
Si Si4 0.583543 0.518373 0.835624
Si Si5 0.901877 0.345914 0.938996
Si Si6 0.000000 0.346453 0.500000
Si Si7 0.035378 0.709977 0.857363
O O1 0.615748 0.159733 0.334050
O O2 0.753768 0.008997 0.447203
O O3 0.039189 0.169523 0.155954
O O4 0.773392 0.858649 0.263076
O O5 0.408610 0.723164 0.189917
O O6 0.500520 0.020421 0.216411
O O7 0.500000 0.971059 0.000000
O O8 0.812364 0.817197 0.938557
O O9 0.201874 0.241134 0.448222
O O10 0.841458 0.450137 0.669630
O O11 0.500000 0.496658 0.000000
O O12 0.368622 0.413556 0.898593
O O13 0.035579 0.514583 0.815717
O O14 0.000000 0.312233 0.000000
O O15 0.000000 0.686570 0.000000
#
# Coordination Sequence:
#
# PCOD9113099 Si02
#       7
#     2   2   2   2   2   1   2
#     4  11  23  44  67  98 145 176 221 295 342 405
#     4  10  23  44  69  95 132 177 233 282 338 412
#     4  11  26  43  62 103 137 180 226 275 356 408
#     4  10  23  45  68  97 134 181 229 284 346 408
#     4  10  21  39  71 101 130 177 237 279 338 413
#     4  12  26  42  66 100 140 178 228 282 342 426
#     4  10  20  39  70 101 127 178 231 275 342 412
#
# _framework density 23.245539999999998
#
# number of rings (size 3 to 8) (size 9 to 14) (size 15 to 20)
#    0.000    1.538    1.538    2.308    4.308    1.231 
#    8.308    1.538    0.000    0.000    0.000    0.000 
#    0.000    0.000    0.000    0.000    0.000    0.000 
#
# Total GULP energy -72401.032838 kJ/mol
# GULP energy per Si atom -5569.310218 kJ/mol
# Density = 2.319263 g / cm^3
# Si number density = 23.245540 Si / 1000 Ang^3
#
#
#
# Elastic Constant Matrix: (Units=GPa)
#
#
# Indices 1 2 3 4 5 6 
#
# 1 88.4283 0.3238 17.5040 0.0000 11.2950 0.0000
# 2 0.3238 108.4743 35.0677 0.0000 6.3998 0.0000
# 3 17.5040 35.0677 101.2034 0.0000 12.6002 0.0000
# 4 0.0000 0.0000 0.0000 -18.6461 0.0000 -0.0181
# 5 11.2950 6.3998 12.6002 0.0000 38.3975 0.0000
# 6 0.0000 0.0000 0.0000 -0.0181 0.0000 21.7521
#
#
#
# Elastic Compliance Matrix: (Units=1/GPa)
#
#
# Indices 1 2 3 4 5 6 
#
# 1 0.012086 0.000784 -0.001984 0.000000 -0.003035 0.000000
# 2 0.000784 0.010445 -0.003659 0.000000 -0.000771 0.000000
# 3 -0.001984 -0.003659 0.011827 0.000000 -0.002687 0.000000
# 4 0.000000 0.000000 0.000000 -0.053630 0.000000 -0.000045
# 5 -0.003035 -0.000771 -0.002687 0.000000 0.027946 0.000000
# 6 0.000000 0.000000 0.000000 -0.000045 0.000000 0.045972
#
#
# Mechanical properties :
#
#
# Convention : Reuss Voigt Hill
#
# Bulk Modulus (GPa) = 40.58427 44.87745 42.73086
# Shear Modulus (GPa) = 68.89218 24.64805 46.77011
#
# Velocity S-wave (km/s) = 5.44987 3.25981 4.49040
# Velocity P-wave (km/s) = 7.55634 5.78932 6.73107
#
# Compressibility (1/GPa) = 0.02464009
#
# Stress axis : x y z
#
# Youngs Moduli (GPa) = 82.73918 95.74170 84.55418
#
# Poissons Ratio (x) = -0.07511 0.16779
# Poissons Ratio (y) = -0.06491 0.30937
# Poissons Ratio (z) = 0.16419 0.35031
#
# Static dielectric constant tensor:
#      x y z
#    x 1.962740 0.000000 -0.105260 
#    y 0.000000 1.994770 0.000000 
#    z -0.105260 0.000000 2.058350 
# 
# From -- ./inp_files/10640.got.cif
#   From: 2010.05.17/outbox.cif.g08.bks.cpg/sg3_6_cif.got.tgz:10640.got - 2010.06.03 18:33:08.
