data_PCOD9114199
_publ_section_title
;
Structure prediction by ZEFSAII (Michael W. Deem and Ramdas Pophale) SiO2 
 PCOD9114199
Probable space group: P 2
;
_chemical_formula_sum "Si O2"
_cell_formula_units_Z 13
_cell_length_a 8.029079
_cell_length_b 8.531973
_cell_length_c 11.538277
_cell_angle_alpha 90.000000
_cell_angle_beta 136.227545
_cell_angle_gamma 90.000000
_cell_volume 546.807268
_symmetry_space_group_name_H-M "P 2"
_symmetry_group_IT_number 3
_symmetry_cell_setting 'monoclinic'
loop_
_space_group_symop_operation_xyz
x,y,z
-x,y,-z
loop_
_atom_site_type_symbol
_atom_site_label
_atom_site_fract_x
_atom_site_fract_y
_atom_site_fract_z
Si Si1 0.140423 0.560810 0.807188
Si Si2 0.764784 0.129562 0.326985
Si Si3 0.493856 0.888847 0.636133
Si Si4 0.355755 0.555279 0.545559
Si Si5 0.541815 0.417960 0.860214
Si Si6 0.788144 0.922947 0.127693
Si Si7 0.000000 0.930026 0.000000
O O1 0.361689 0.541869 0.830241
O O2 0.122096 0.743157 0.831612
O O3 0.907939 0.501944 0.622608
O O4 0.206832 0.456358 0.952913
O O5 0.580734 0.251614 0.177260
O O6 0.000000 0.209553 0.500000
O O7 0.617766 0.032405 0.349136
O O8 0.870282 0.013240 0.282911
O O9 0.500000 0.917530 0.500000
O O10 0.340621 0.732969 0.584222
O O11 0.759499 0.852768 0.823177
O O12 0.500000 0.569439 0.500000
O O13 0.508336 0.448759 0.708484
O O14 0.882899 0.005123 0.057566
O O15 0.500000 0.918207 0.000000
#
# Coordination Sequence:
#
# PCOD9114199 Si02
#       7
#     2   2   2   2   2   2   1
#     4  11  23  44  68  98 132 178 235 290 340 420
#     4  12  25  44  70 102 142 188 236 288 358 428
#     4  11  24  43  69 104 143 184 236 298 349 413
#     4  11  23  42  69 100 137 180 231 289 350 410
#     4  11  25  43  66  98 137 184 231 283 344 422
#     4  12  23  44  72 103 137 181 236 289 354 407
#     4  12  24  42  70 106 144 174 234 296 344 426
#
# _framework density 23.774374000000002
#
# number of rings (size 3 to 8) (size 9 to 14) (size 15 to 20)
#    0.000    0.615    3.077    6.923    2.154    1.231 
#    0.000    3.077    0.000    0.923    0.000    0.000 
#    0.000    0.000    0.000    0.000    0.000    0.000 
#
# Total GULP energy -72642.201379 kJ/mol
# GULP energy per Si atom -5587.861645 kJ/mol
# Density = 2.372026 g / cm^3
# Si number density = 23.774374 Si / 1000 Ang^3
#
#
#
# Elastic Constant Matrix: (Units=GPa)
#
#
# Indices 1 2 3 4 5 6 
#
# 1 86.4435 23.6612 19.8492 0.0000 -21.5761 0.0000
# 2 23.6612 86.8335 44.9803 0.0000 -9.2082 0.0000
# 3 19.8492 44.9803 184.8507 0.0000 -0.0101 0.0000
# 4 0.0000 0.0000 0.0000 24.3389 0.0000 -6.1129
# 5 -21.5761 -9.2082 -0.0101 0.0000 40.9118 0.0000
# 6 0.0000 0.0000 0.0000 -6.1129 0.0000 -2.0092
#
#
#
# Elastic Compliance Matrix: (Units=1/GPa)
#
#
# Indices 1 2 3 4 5 6 
#
# 1 0.014227 -0.002694 -0.000872 0.000000 0.006897 0.000000
# 2 -0.002694 0.014057 -0.003131 0.000000 0.001742 0.000000
# 3 -0.000872 -0.003131 0.006265 0.000000 -0.001163 0.000000
# 4 0.000000 0.000000 0.000000 0.023290 0.000000 -0.070859
# 5 0.006897 0.001742 -0.001163 0.000000 0.028472 0.000000
# 6 0.000000 0.000000 0.000000 -0.070859 0.000000 -0.282131
#
#
# Mechanical properties :
#
#
# Convention : Reuss Voigt Hill
#
# Bulk Modulus (GPa) = 47.26830 59.45657 53.36244
# Shear Modulus (GPa) = -28.51051 30.62411 1.05680
#
# Velocity S-wave (km/s) = -3.46672 3.59292 0.66744
# Velocity P-wave (km/s) = 1.97509 6.50193 4.80500
#
# Compressibility (1/GPa) = 0.02115583
#
# Stress axis : x y z
#
# Youngs Moduli (GPa) = 70.28808 71.13856 159.61061
#
# Poissons Ratio (x) = 0.19163 0.13916
# Poissons Ratio (y) = 0.18934 0.49977
# Poissons Ratio (z) = 0.06128 0.22275
#
# Static dielectric constant tensor:
#      x y z
#    x 1.889030 0.000000 0.006820 
#    y 0.000000 1.916940 0.000000 
#    z 0.006820 0.000000 2.003310 
# 
# From -- ./inp_files/10854.got.cif
#   From: 2010.05.17/outbox.cif.g08.bks.cpg/sg3_6_cif.got.tgz:10854.got - 2010.06.03 18:33:08.
