data_PCOD9114349
_publ_section_title
;
Structure prediction by ZEFSAII (Michael W. Deem and Ramdas Pophale) SiO2 
 PCOD9114349
Probable space group: P 2
;
_chemical_formula_sum "Si O2"
_cell_formula_units_Z 11
_cell_length_a 11.152108
_cell_length_b 6.073193
_cell_length_c 6.138611
_cell_angle_alpha 90.000000
_cell_angle_beta 106.210104
_cell_angle_gamma 90.000000
_cell_volume 399.232582
_symmetry_space_group_name_H-M "P 2"
_symmetry_group_IT_number 3
_symmetry_cell_setting 'monoclinic'
loop_
_space_group_symop_operation_xyz
x,y,z
-x,y,-z
loop_
_atom_site_type_symbol
_atom_site_label
_atom_site_fract_x
_atom_site_fract_y
_atom_site_fract_z
Si Si1 0.000000 0.069041 0.500000
Si Si2 0.336777 0.384292 0.681487
Si Si3 0.829158 0.737116 0.261891
Si Si4 0.162178 0.245953 0.246909
Si Si5 0.000000 0.603522 0.000000
Si Si6 0.500000 0.748375 0.500000
Si Si7 0.658212 0.016358 0.939770
O O1 0.030799 0.209707 0.302203
O O2 0.129643 0.933739 0.562022
O O3 0.202760 0.500990 0.661320
O O4 0.290970 0.251328 0.447493
O O5 0.426070 0.572935 0.621318
O O6 0.370196 0.221721 0.904068
O O7 0.955473 0.732224 0.186786
O O8 0.696038 0.804083 0.097855
O O9 0.204845 0.074497 0.087477
O O10 0.129323 0.477424 0.118270
O O11 0.568233 0.914955 0.707904
#
# Coordination Sequence:
#
# PCOD9114349 Si02
#       7
#     1   2   2   2   1   1   2
#     4  12  22  40  82 120 164 218 262 332 430 528
#     4  12  28  58  80 119 170 216 291 365 422 514
#     4  12  24  48  76 122 164 206 276 334 424 524
#     4  12  24  49  76 122 164 219 276 342 436 514
#     4  12  22  40  82 120 164 218 262 332 430 528
#     4  12  32  58  92 124 160 238 296 364 444 482
#     4  12  28  58  80 119 170 216 291 365 422 514
#
# _framework density 27.552859000000002
#
# number of rings (size 3 to 8) (size 9 to 14) (size 15 to 20)
#    0.000    0.000    3.636    6.545    0.000    1.455 
#    6.545    0.000    0.000    0.000    0.000    0.000 
#    0.000    0.000    0.000    0.000    0.000    0.000 
#
# Total GULP energy -61282.915615 kJ/mol
# GULP energy per Si atom -5571.174147 kJ/mol
# Density = 2.749015 g / cm^3
# Si number density = 27.552859 Si / 1000 Ang^3
#
#
#
# Elastic Constant Matrix: (Units=GPa)
#
#
# Indices 1 2 3 4 5 6 
#
# 1 137.2369 47.4327 44.3965 0.0000 -19.1716 0.0000
# 2 47.4327 80.4397 24.9381 0.0000 0.1203 0.0000
# 3 44.3965 24.9381 109.1578 0.0000 31.2467 0.0000
# 4 0.0000 0.0000 0.0000 46.1972 0.0000 -0.6623
# 5 -19.1716 0.1203 31.2467 0.0000 57.1889 0.0000
# 6 0.0000 0.0000 0.0000 -0.6623 0.0000 77.7356
#
#
#
# Elastic Compliance Matrix: (Units=1/GPa)
#
#
# Indices 1 2 3 4 5 6 
#
# 1 0.011954 -0.005295 -0.005693 0.000000 0.007129 0.000000
# 2 -0.005295 0.015910 -0.001142 0.000000 -0.001184 0.000000
# 3 -0.005693 -0.001142 0.014560 0.000000 -0.009862 0.000000
# 4 0.000000 0.000000 0.000000 0.021649 0.000000 0.000184
# 5 0.007129 -0.001184 -0.009862 0.000000 0.025267 0.000000
# 6 0.000000 0.000000 0.000000 0.000184 0.000000 0.012866
#
#
# Mechanical properties :
#
#
# Convention : Reuss Voigt Hill
#
# Bulk Modulus (GPa) = 55.05343 62.26324 58.65834
# Shear Modulus (GPa) = 37.72989 50.22881 43.97935
#
# Velocity S-wave (km/s) = 3.70451 4.27429 3.99956
# Velocity P-wave (km/s) = 6.19049 6.85611 6.53179
#
# Compressibility (1/GPa) = 0.01816417
#
# Stress axis : x y z
#
# Youngs Moduli (GPa) = 83.65119 62.85471 68.67910
#
# Poissons Ratio (x) = 0.33280 0.39101
# Poissons Ratio (y) = 0.44291 0.07845
# Poissons Ratio (z) = 0.47624 0.07179
#
# Static dielectric constant tensor:
#      x y z
#    x 2.030850 0.000000 -0.009040 
#    y 0.000000 2.038800 0.000000 
#    z -0.009040 0.000000 2.192820 
# 
# From -- ./inp_files/1941.got.cif
#   From: 2010.05.17/outbox.cif.g08.bks.cpg/sg3_1_cif.got.tgz:1941.got - 2010.06.03 18:33:08.
