data_PCOD9114905
_publ_section_title
;
Structure prediction by ZEFSAII (Michael W. Deem and Ramdas Pophale) SiO2 
 PCOD9114905
Probable space group: P 21
;
_chemical_formula_sum "Si O2"
_cell_formula_units_Z 16
_cell_length_a 8.930105
_cell_length_b 10.939749
_cell_length_c 8.351783
_cell_angle_alpha 90.000000
_cell_angle_beta 72.449923
_cell_angle_gamma 90.000000
_cell_volume 777.934019
_symmetry_space_group_name_H-M "P 21"
_symmetry_group_IT_number 4
_symmetry_cell_setting 'monoclinic'
loop_
_space_group_symop_operation_xyz
x,y,z
-x,1/2+y,-z
loop_
_atom_site_type_symbol
_atom_site_label
_atom_site_fract_x
_atom_site_fract_y
_atom_site_fract_z
Si Si1 0.352529 0.005890 0.743541
Si Si2 0.291740 0.049209 0.395579
Si Si3 0.781285 0.259482 0.261781
Si Si4 0.696691 0.012233 0.734686
Si Si5 0.597920 0.106327 0.099824
Si Si6 0.618525 0.738933 0.058599
Si Si7 0.661097 0.281349 0.635728
Si Si8 0.871252 0.777732 0.724492
O O1 0.302808 0.052776 0.584227
O O2 0.334411 0.107741 0.884061
O O3 0.250602 0.887457 0.814799
O O4 0.539324 0.978520 0.687079
O O5 0.464386 0.061495 0.262812
O O6 0.191484 0.160909 0.355590
O O7 0.245978 0.908287 0.367311
O O8 0.746336 0.150842 0.152112
O O9 0.655360 0.260265 0.447337
O O10 0.948390 0.259830 0.292035
O O11 0.827351 0.909709 0.662585
O O12 0.732520 0.154559 0.681828
O O13 0.644402 0.018418 0.938864
O O14 0.510974 0.219811 0.039411
O O15 0.513511 0.795582 0.233753
O O16 0.773815 0.783270 0.922328
#
# Coordination Sequence:
#
# PCOD9114905 Si02
#       8
#     2   2   2   2   2   2   2   2
#     4   9  19  36  62  84 112 153 200 241 286 339
#     4  10  19  36  61  89 115 153 198 241 284 343
#     4  11  22  37  58  89 123 155 187 237 298 351
#     4  10  21  38  60  88 115 151 198 245 285 341
#     4   9  18  34  58  82 111 151 196 236 280 336
#     4   9  19  37  59  84 108 149 198 241 278 335
#     4   9  20  37  61  84 112 151 198 236 282 340
#     4  11  24  37  57  90 126 153 187 237 297 349
#
# _framework density 20.567298999999998
#
# number of rings (size 3 to 8) (size 9 to 14) (size 15 to 20)
#    0.000    2.500    0.000    3.750    0.000   10.000 
#    0.000    2.500    0.000    3.000    0.000    0.000 
#    0.000    0.000    0.000    0.000    0.000    0.000 
#
# Total GULP energy -89130.803598 kJ/mol
# GULP energy per Si atom -5570.675225 kJ/mol
# Density = 2.052049 g / cm^3
# Si number density = 20.567299 Si / 1000 Ang^3
#
#
#
# Elastic Constant Matrix: (Units=GPa)
#
#
# Indices 1 2 3 4 5 6 
#
# 1 90.6094 52.0748 11.2074 0.0000 18.9694 0.0000
# 2 52.0748 122.3647 16.8142 0.0000 20.7069 0.0000
# 3 11.2074 16.8142 54.0004 0.0000 2.1241 0.0000
# 4 0.0000 0.0000 0.0000 21.9572 0.0000 2.0387
# 5 18.9694 20.7069 2.1241 0.0000 16.5198 0.0000
# 6 0.0000 0.0000 0.0000 2.0387 0.0000 6.8593
#
#
#
# Elastic Compliance Matrix: (Units=1/GPa)
#
#
# Indices 1 2 3 4 5 6 
#
# 1 0.016636 -0.004665 -0.001486 0.000000 -0.013065 0.000000
# 2 -0.004665 0.012098 -0.002425 0.000000 -0.009496 0.000000
# 3 -0.001486 -0.002425 0.019494 0.000000 0.002240 0.000000
# 4 0.000000 0.000000 0.000000 0.046836 0.000000 -0.013920
# 5 -0.013065 -0.009496 0.002240 0.000000 0.087150 0.000000
# 6 0.000000 0.000000 0.000000 -0.013920 0.000000 0.149926
#
#
# Mechanical properties :
#
#
# Convention : Reuss Voigt Hill
#
# Bulk Modulus (GPa) = 32.18001 47.46302 39.82152
# Shear Modulus (GPa) = 13.90239 21.52579 17.71409
#
# Velocity S-wave (km/s) = 2.60272 3.23863 2.93793
# Velocity P-wave (km/s) = 4.97115 6.09196 5.55987
#
# Compressibility (1/GPa) = 0.03107519
#
# Stress axis : x y z
#
# Youngs Moduli (GPa) = 60.10923 82.66105 51.29817
#
# Poissons Ratio (x) = 0.38560 0.07625
# Poissons Ratio (y) = 0.28040 0.12441
# Poissons Ratio (z) = 0.08934 0.20047
#
# Static dielectric constant tensor:
#      x y z
#    x 1.701050 0.000000 -0.015650 
#    y 0.000000 1.829700 0.000000 
#    z -0.015650 0.000000 1.748320 
# 
# From -- ./inp_files/5934.got.cif
#   From: 2010.05.17/outbox.cif.g08.bks.cpg/sg4_3_cif.got.tgz:5934.got - 2010.06.03 18:43:04.
