data_PCOD9114909
_publ_section_title
;
Structure prediction by ZEFSAII (Michael W. Deem and Ramdas Pophale) SiO2 
 PCOD9114909
Probable space group: P 21
;
_chemical_formula_sum "Si O2"
_cell_formula_units_Z 14
_cell_length_a 9.024068
_cell_length_b 12.977601
_cell_length_c 5.380802
_cell_angle_alpha 90.000000
_cell_angle_beta 81.148709
_cell_angle_gamma 90.000000
_cell_volume 622.645346
_symmetry_space_group_name_H-M "P 21"
_symmetry_group_IT_number 4
_symmetry_cell_setting 'monoclinic'
loop_
_space_group_symop_operation_xyz
x,y,z
-x,1/2+y,-z
loop_
_atom_site_type_symbol
_atom_site_label
_atom_site_fract_x
_atom_site_fract_y
_atom_site_fract_z
Si Si1 0.902843 0.218770 0.598866
Si Si2 0.573988 0.496817 0.465125
Si Si3 0.409338 0.643071 0.211071
Si Si4 0.689171 0.971640 0.087595
Si Si5 0.480553 0.830720 0.908528
Si Si6 0.808869 0.435195 0.758034
Si Si7 0.020665 0.596215 0.910144
O O1 0.721703 0.202965 0.611521
O O2 0.917104 0.340502 0.654249
O O3 0.971950 0.175039 0.326045
O O4 0.955937 0.156526 0.834071
O O5 0.555116 0.599568 0.306888
O O6 0.445217 0.509097 0.703449
O O7 0.526944 0.387208 0.352106
O O8 0.738807 0.486230 0.531360
O O9 0.328169 0.537637 0.158002
O O10 0.449617 0.711806 0.962359
O O11 0.844487 0.011659 0.153908
O O12 0.634739 0.859220 0.013948
O O13 0.337146 0.886312 0.073273
O O14 0.877856 0.523061 0.912596
#
# Coordination Sequence:
#
# PCOD9114909 Si02
#       7
#     2   2   2   2   2   2   2
#     4  10  23  40  68  89 124 173 209 247 320 375
#     4  10  19  36  62  87 123 154 211 257 313 362
#     4   9  18  36  61  88 119 160 210 251 309 376
#     4   9  19  35  56  88 113 162 202 252 307 365
#     4   9  20  36  59  87 120 162 201 260 309 372
#     4  10  24  39  63  93 123 164 209 264 307 375
#     4  11  23  42  65  90 126 167 212 255 307 377
#
# _framework density 22.484711999999998
#
# number of rings (size 3 to 8) (size 9 to 14) (size 15 to 20)
#    0.000    2.286    1.429    0.000    8.000    1.143 
#    2.571    0.000    0.000    0.000    0.000    0.000 
#    0.000    0.000    0.000    0.000    0.000    0.000 
#
# Total GULP energy -77940.878195 kJ/mol
# GULP energy per Si atom -5567.205585 kJ/mol
# Density = 2.243354 g / cm^3
# Si number density = 22.484712 Si / 1000 Ang^3
#
#
#
# Elastic Constant Matrix: (Units=GPa)
#
#
# Indices 1 2 3 4 5 6 
#
# 1 52.2255 40.4019 27.9255 0.0000 29.2328 0.0000
# 2 40.4019 70.9458 19.4199 0.0000 24.6621 0.0000
# 3 27.9255 19.4199 69.1977 0.0000 18.8435 0.0000
# 4 0.0000 0.0000 0.0000 31.8075 0.0000 7.6054
# 5 29.2328 24.6621 18.8435 0.0000 25.8787 0.0000
# 6 0.0000 0.0000 0.0000 7.6054 0.0000 31.5694
#
#
#
# Elastic Compliance Matrix: (Units=1/GPa)
#
#
# Indices 1 2 3 4 5 6 
#
# 1 0.065867 -0.017185 -0.007430 0.000000 -0.052616 0.000000
# 2 -0.017185 0.025579 0.001383 0.000000 -0.005970 0.000000
# 3 -0.007430 0.001383 0.018878 0.000000 -0.006670 0.000000
# 4 0.000000 0.000000 0.000000 0.033361 0.000000 -0.008037
# 5 -0.052616 -0.005970 -0.006670 0.000000 0.108624 0.000000
# 6 0.000000 0.000000 0.000000 -0.008037 0.000000 0.033612
#
#
# Mechanical properties :
#
#
# Convention : Reuss Voigt Hill
#
# Bulk Modulus (GPa) = 15.65977 40.87374 28.26676
# Shear Modulus (GPa) = 14.13734 24.82590 19.48162
#
# Velocity S-wave (km/s) = 2.51022 3.32644 2.94673
# Velocity P-wave (km/s) = 3.92190 5.74208 4.91695
#
# Compressibility (1/GPa) = 0.06385789
#
# Stress axis : x y z
#
# Youngs Moduli (GPa) = 15.18214 39.09477 52.97062
#
# Poissons Ratio (x) = 0.67186 0.39359
# Poissons Ratio (y) = 0.26091 -0.07324
# Poissons Ratio (z) = 0.11281 -0.05405
#
# Static dielectric constant tensor:
#      x y z
#    x 1.876500 0.000000 0.044020 
#    y 0.000000 1.879660 0.000000 
#    z 0.044020 0.000000 1.944040 
# 
# From -- ./inp_files/1230.got.cif
#   From: 2010.05.17/outbox.cif.g08.bks.cpg/sg4_1_cif.got.tgz:1230.got - 2010.06.03 18:43:04.
