data_PCOD9114130
_publ_section_title
;
Structure prediction by ZEFSAII (Michael W. Deem and Ramdas Pophale) SiO2 
 PCOD9114130
Probable space group: P 2
;
_chemical_formula_sum "Si O2"
_cell_formula_units_Z 13
_cell_length_a 21.811229
_cell_length_b 6.638492
_cell_length_c 18.013515
_cell_angle_alpha 90.000000
_cell_angle_beta 162.590890
_cell_angle_gamma 90.000000
_cell_volume 780.366755
_symmetry_space_group_name_H-M "P 2"
_symmetry_group_IT_number 3
_symmetry_cell_setting 'monoclinic'
loop_
_space_group_symop_operation_xyz
x,y,z
-x,y,-z
loop_
_atom_site_type_symbol
_atom_site_label
_atom_site_fract_x
_atom_site_fract_y
_atom_site_fract_z
Si Si1 0.313196 0.643580 0.905363
Si Si2 0.303831 0.390337 0.607618
Si Si3 0.273335 0.158627 0.273327
Si Si4 0.000000 0.783426 0.000000
Si Si5 0.887869 0.401273 0.775738
Si Si6 0.409571 0.007506 0.819110
Si Si7 0.128934 0.643575 0.536778
O O1 0.255880 0.569443 0.755887
O O2 0.104537 0.657208 0.709110
O O3 0.477987 0.502384 0.134737
O O4 0.417632 0.860185 0.014392
O O5 0.207948 0.400934 0.415887
O O6 0.164577 0.502345 0.507845
O O7 0.339052 0.167031 0.678044
O O8 0.500000 0.156238 0.500000
O O9 0.255557 0.280776 0.330886
O O10 0.178812 0.935634 0.178804
O O11 0.104903 0.280794 0.029563
O O12 0.075167 0.627260 0.150335
O O13 0.224207 0.860154 0.627446
O O14 0.500000 0.098876 0.000000
#
# Coordination Sequence:
#
# PCOD9114130 Si02
#       7
#     2   2   2   1   2   2   2
#     4   9  19  34  50  72 103 140 182 218 248 292
#     4  11  20  33  53  78 107 136 166 210 263 304
#     4   9  19  37  58  76  98 133 171 203 246 310
#     4   8  18  38  56  72  98 134 164 202 254 308
#     4   9  21  36  52  81 111 128 160 212 257 305
#     4   9  18  33  51  70  99 140 178 214 255 296
#     4   9  19  34  50  72 103 140 182 218 248 292
#
# _framework density 16.658833999999999
#
# number of rings (size 3 to 8) (size 9 to 14) (size 15 to 20)
#    0.000    3.077    0.000    2.308    0.000    9.846 
#    0.000    6.154    0.000    0.000    0.000    0.000 
#    0.000    0.000    0.000    0.000    0.000    0.000 
#
# Total GULP energy -72424.922856 kJ/mol
# GULP energy per Si atom -5571.147912 kJ/mol
# Density = 1.662092 g / cm^3
# Si number density = 16.658834 Si / 1000 Ang^3
#
#
#
# Elastic Constant Matrix: (Units=GPa)
#
#
# Indices 1 2 3 4 5 6 
#
# 1 139.7543 68.0679 107.2592 0.0000 -11.4707 0.0000
# 2 68.0679 107.4697 65.5522 0.0000 -5.7531 0.0000
# 3 107.2592 65.5522 136.5435 0.0000 3.9913 0.0000
# 4 0.0000 0.0000 0.0000 8.3011 0.0000 -12.4123
# 5 -11.4707 -5.7531 3.9913 0.0000 48.7801 0.0000
# 6 0.0000 0.0000 0.0000 -12.4123 0.0000 13.7757
#
#
#
# Elastic Compliance Matrix: (Units=1/GPa)
#
#
# Indices 1 2 3 4 5 6 
#
# 1 0.020665 -0.003944 -0.014503 0.000000 0.005581 0.000000
# 2 -0.003944 0.014123 -0.003713 0.000000 0.001042 0.000000
# 3 -0.014503 -0.003713 0.020660 0.000000 -0.005539 0.000000
# 4 0.000000 0.000000 0.000000 -0.346882 0.000000 -0.312551
# 5 0.005581 0.001042 -0.005539 0.000000 0.022389 0.000000
# 6 0.000000 0.000000 0.000000 -0.312551 0.000000 -0.209026
#
#
# Mechanical properties :
#
#
# Convention : Reuss Voigt Hill
#
# Bulk Modulus (GPa) = 89.84797 96.16956 93.00876
# Shear Modulus (GPa) = -11.62679 23.69725 6.03523
#
# Velocity S-wave (km/s) = -2.64471 3.77570 1.90544
# Velocity P-wave (km/s) = 6.68769 8.76710 7.79703
#
# Compressibility (1/GPa) = 0.01112991
#
# Stress axis : x y z
#
# Youngs Moduli (GPa) = 48.39126 70.80518 48.40154
#
# Poissons Ratio (x) = 0.27923 0.70196
# Poissons Ratio (y) = 0.19084 0.17971
# Poissons Ratio (z) = 0.70181 0.26290
#
# Static dielectric constant tensor:
#      x y z
#    x 1.550210 0.000000 0.000160 
#    y 0.000000 1.565010 0.000000 
#    z 0.000160 0.000000 1.550230 
# 
# From -- ./inp_files/15475.got.cif
#   From: 2010.05.17/outbox.cif.g08.bks.cpg/sg3_8_cif.got.tgz:15475.got - 2010.06.03 18:33:08.
