data_PCOD9114467
_publ_section_title
;
Structure prediction by ZEFSAII (Michael W. Deem and Ramdas Pophale) SiO2 
 PCOD9114467
Probable space group: P 21
;
_chemical_formula_sum "Si O2"
_cell_formula_units_Z 16
_cell_length_a 9.235962
_cell_length_b 7.975715
_cell_length_c 17.567639
_cell_angle_alpha 90.000000
_cell_angle_beta 27.486337
_cell_angle_gamma 90.000000
_cell_volume 597.271457
_symmetry_space_group_name_H-M "P 21"
_symmetry_group_IT_number 4
_symmetry_cell_setting 'monoclinic'
loop_
_space_group_symop_operation_xyz
x,y,z
-x,1/2+y,-z
loop_
_atom_site_type_symbol
_atom_site_label
_atom_site_fract_x
_atom_site_fract_y
_atom_site_fract_z
Si Si1 0.528137 0.809880 0.246054
Si Si2 0.893486 0.609544 0.880125
Si Si3 0.858287 0.480751 0.068441
Si Si4 0.772078 0.403831 0.466356
Si Si5 0.065833 0.880487 0.347464
Si Si6 0.421425 0.551201 0.511693
Si Si7 0.405237 0.237245 0.206145
Si Si8 0.528566 0.329502 0.987385
O O1 0.696322 0.633268 0.189377
O O2 0.420125 0.925554 0.366235
O O3 0.207716 0.769488 0.349208
O O4 0.795534 0.911873 0.074192
O O5 0.812565 0.795434 0.889987
O O6 0.175498 0.544325 0.697333
O O7 0.899148 0.561743 0.964803
O O8 0.586401 0.518084 0.989586
O O9 0.632181 0.318465 0.163277
O O10 0.735318 0.527020 0.412622
O O11 0.127437 0.371199 0.323271
O O12 0.624205 0.231427 0.503021
O O13 0.707018 0.917841 0.491043
O O14 0.217009 0.062636 0.299603
O O15 0.235372 0.815770 0.192936
O O16 0.585672 0.235070 0.041168
#
# Coordination Sequence:
#
# PCOD9114467 Si02
#       8
#     2   2   2   2   2   2   2   2
#     4  12  25  43  66  96 132 172 213 264 324 385
#     4  10  18  37  64  90 125 160 213 272 315 375
#     4  11  24  42  63  97 128 169 216 264 321 383
#     4  11  24  45  66  94 132 169 213 265 323 386
#     4  10  21  39  66  89 130 167 212 267 323 369
#     4  10  22  45  62  95 128 170 212 268 315 383
#     4  10  22  41  64  93 129 168 218 266 317 382
#     4  10  16  34  63  90 120 161 207 266 318 361
#
# _framework density 26.788489999999999
#
# number of rings (size 3 to 8) (size 9 to 14) (size 15 to 20)
#    0.000    1.500    6.250    0.750    0.000    3.000 
#    9.000    0.000    0.000    0.000    0.000    0.000 
#    0.000    0.000    0.000    0.000    0.000    0.000 
#
# Total GULP energy -89318.040536 kJ/mol
# GULP energy per Si atom -5582.377533 kJ/mol
# Density = 2.672752 g / cm^3
# Si number density = 26.788490 Si / 1000 Ang^3
#
#
#
# Elastic Constant Matrix: (Units=GPa)
#
#
# Indices 1 2 3 4 5 6 
#
# 1 89.2752 5.8915 25.3115 0.0000 -13.2142 0.0000
# 2 5.8915 56.6519 7.4541 0.0000 -5.3188 0.0000
# 3 25.3115 7.4541 55.3968 0.0000 -11.7613 0.0000
# 4 0.0000 0.0000 0.0000 35.1633 0.0000 -3.9813
# 5 -13.2142 -5.3188 -11.7613 0.0000 32.0481 0.0000
# 6 0.0000 0.0000 0.0000 -3.9813 0.0000 47.2159
#
#
#
# Elastic Compliance Matrix: (Units=1/GPa)
#
#
# Indices 1 2 3 4 5 6 
#
# 1 0.013229 -0.000358 -0.005261 0.000000 0.003465 0.000000
# 2 -0.000358 0.018133 -0.001810 0.000000 0.002198 0.000000
# 3 -0.005261 -0.001810 0.021879 0.000000 0.005560 0.000000
# 4 0.000000 0.000000 0.000000 0.028713 0.000000 0.002421
# 5 0.003465 0.002198 0.005560 0.000000 0.035037 0.000000
# 6 0.000000 0.000000 0.000000 0.002421 0.000000 0.021383
#
#
# Mechanical properties :
#
#
# Convention : Reuss Voigt Hill
#
# Bulk Modulus (GPa) = 26.05239 30.95982 28.50610
# Shear Modulus (GPa) = 30.11545 33.72991 31.92268
#
# Velocity S-wave (km/s) = 3.35654 3.55226 3.45578
# Velocity P-wave (km/s) = 4.97676 5.32982 5.15631
#
# Compressibility (1/GPa) = 0.03838420
#
# Stress axis : x y z
#
# Youngs Moduli (GPa) = 75.58939 55.14701 45.70528
#
# Poissons Ratio (x) = 0.01976 0.24045
# Poissons Ratio (y) = 0.02708 0.08271
# Poissons Ratio (z) = 0.39767 0.09980
#
# Static dielectric constant tensor:
#      x y z
#    x 2.116270 0.000000 -0.042340 
#    y 0.000000 2.280600 0.000000 
#    z -0.042340 0.000000 2.081590 
# 
# From -- ./inp_files/13650.got.cif
#   From: 2010.05.17/outbox.cif.g08.bks.cpg/sg4_7_cif.got.tgz:13650.got - 2010.06.03 18:43:04.
