data_PCOD9114900
_publ_section_title
;
Structure prediction by ZEFSAII (Michael W. Deem and Ramdas Pophale) SiO2 
 PCOD9114900
Probable space group: P 21
;
_chemical_formula_sum "Si O2"
_cell_formula_units_Z 16
_cell_length_a 12.155512
_cell_length_b 5.208357
_cell_length_c 11.575747
_cell_angle_alpha 90.000000
_cell_angle_beta 57.019811
_cell_angle_gamma 90.000000
_cell_volume 614.768931
_symmetry_space_group_name_H-M "P 21"
_symmetry_group_IT_number 4
_symmetry_cell_setting 'monoclinic'
loop_
_space_group_symop_operation_xyz
x,y,z
-x,1/2+y,-z
loop_
_atom_site_type_symbol
_atom_site_label
_atom_site_fract_x
_atom_site_fract_y
_atom_site_fract_z
Si Si1 0.164680 0.429780 0.327226
Si Si2 0.812454 0.394122 0.313025
Si Si3 0.124988 0.925638 0.423074
Si Si4 0.081533 0.796436 0.972201
Si Si5 0.543915 0.148536 0.541142
Si Si6 0.654585 0.016198 0.968309
Si Si7 0.539798 0.523317 0.145661
Si Si8 0.984866 0.895695 0.257650
O O1 0.203993 0.667496 0.384649
O O2 0.206909 0.459061 0.172463
O O3 0.938929 0.411363 0.667254
O O4 0.211114 0.176469 0.367074
O O5 0.005815 0.424402 0.427335
O O6 0.876463 0.667579 0.309784
O O7 0.914263 0.164105 0.276234
O O8 0.802642 0.378238 0.179142
O O9 0.318407 0.802574 0.550077
O O10 0.094224 0.856687 0.098081
O O11 0.036746 0.499076 0.991009
O O12 0.453031 0.380287 0.536391
O O13 0.505523 0.063393 0.694660
O O14 0.571599 0.026947 0.893780
O O15 0.616408 0.262139 0.066717
O O16 0.622953 0.772500 0.064158
#
# Coordination Sequence:
#
# PCOD9114900 Si02
#       8
#     2   2   2   2   2   2   2   2
#     4  10  21  38  57  88 132 165 197 261 333 390
#     4  10  21  38  61  87 114 166 210 254 325 371
#     4  10  21  36  56  94 130 160 202 254 322 397
#     4   8  16  32  54  79 113 140 190 247 287 355
#     4  12  26  46  65  96 136 170 221 286 342 401
#     4  10  21  43  69  95 128 172 228 276 331 391
#     4  10  23  43  68  97 125 170 231 287 324 391
#     4  10  19  36  60  90 118 157 209 255 300 390
#
# _framework density 26.026039000000001
#
# number of rings (size 3 to 8) (size 9 to 14) (size 15 to 20)
#    0.000    2.000    0.000    3.000    1.750    0.000 
#   11.250    0.000    0.000    0.000    0.000    0.000 
#    0.000    0.000    0.000    0.000    0.000    0.000 
#
# Total GULP energy -89349.748302 kJ/mol
# GULP energy per Si atom -5584.359269 kJ/mol
# Density = 2.596680 g / cm^3
# Si number density = 26.026039 Si / 1000 Ang^3
#
#
#
# Elastic Constant Matrix: (Units=GPa)
#
#
# Indices 1 2 3 4 5 6 
#
# 1 42.6688 17.2514 43.8889 0.0000 0.8793 0.0000
# 2 17.2514 229.8308 57.8039 0.0000 -3.7433 0.0000
# 3 43.8889 57.8039 242.6786 0.0000 -5.1316 0.0000
# 4 0.0000 0.0000 0.0000 46.0733 0.0000 0.1934
# 5 0.8793 -3.7433 -5.1316 0.0000 33.7127 0.0000
# 6 0.0000 0.0000 0.0000 0.1934 0.0000 6.5486
#
#
#
# Elastic Compliance Matrix: (Units=1/GPa)
#
#
# Indices 1 2 3 4 5 6 
#
# 1 0.029060 -0.000933 -0.005068 0.000000 -0.001633 0.000000
# 2 -0.000933 0.004662 -0.000933 0.000000 0.000400 0.000000
# 3 -0.005068 -0.000933 0.005277 0.000000 0.000832 0.000000
# 4 0.000000 0.000000 0.000000 0.021707 0.000000 -0.000641
# 5 -0.001633 0.000400 0.000832 0.000000 0.029876 0.000000
# 6 0.000000 0.000000 0.000000 -0.000641 0.000000 0.152723
#
#
# Mechanical properties :
#
#
# Convention : Reuss Voigt Hill
#
# Bulk Modulus (GPa) = 39.79195 83.67406 61.73301
# Shear Modulus (GPa) = 18.82876 43.68253 31.25565
#
# Velocity S-wave (km/s) = 2.69264 4.10129 3.46921
# Velocity P-wave (km/s) = 4.99895 7.39239 6.31019
#
# Compressibility (1/GPa) = 0.02513071
#
# Stress axis : x y z
#
# Youngs Moduli (GPa) = 34.41151 214.48550 189.49854
#
# Poissons Ratio (x) = 0.20018 0.96034
# Poissons Ratio (y) = 0.03212 0.17685
# Poissons Ratio (z) = 0.17439 0.20017
#
# Static dielectric constant tensor:
#      x y z
#    x 2.120440 0.000000 -0.012730 
#    y 0.000000 2.187950 0.000000 
#    z -0.012730 0.000000 2.124170 
# 
# From -- ./inp_files/9362.got.cif
#   From: 2010.05.17/outbox.cif.g08.bks.cpg/sg4_5_cif.got.tgz:9362.got - 2010.06.03 18:43:04.
