data_PCOD9114676
_publ_section_title
;
Structure prediction by ZEFSAII (Michael W. Deem and Ramdas Pophale) SiO2 
 PCOD9114676
Probable space group: P 21
;
_chemical_formula_sum "Si O2"
_cell_formula_units_Z 16
_cell_length_a 7.608794
_cell_length_b 10.691661
_cell_length_c 8.628457
_cell_angle_alpha 90.000000
_cell_angle_beta 66.156730
_cell_angle_gamma 90.000000
_cell_volume 642.024041
_symmetry_space_group_name_H-M "P 21"
_symmetry_group_IT_number 4
_symmetry_cell_setting 'monoclinic'
loop_
_space_group_symop_operation_xyz
x,y,z
-x,1/2+y,-z
loop_
_atom_site_type_symbol
_atom_site_label
_atom_site_fract_x
_atom_site_fract_y
_atom_site_fract_z
Si Si1 0.462596 0.193740 0.603066
Si Si2 0.251384 0.964786 0.652254
Si Si3 0.992138 0.292513 0.068163
Si Si4 0.215426 0.585512 0.712133
Si Si5 0.476711 0.927793 0.249073
Si Si6 0.820082 0.991368 0.797735
Si Si7 0.826793 0.845967 0.487495
Si Si8 0.182238 0.772212 0.201923
O O1 0.669739 0.167307 0.456306
O O2 0.432445 0.293056 0.747434
O O3 0.329419 0.246112 0.512054
O O4 0.384250 0.063054 0.689170
O O5 0.199075 0.854318 0.786491
O O6 0.353705 0.940826 0.453001
O O7 0.044844 0.023981 0.690742
O O8 0.970068 0.154083 0.149760
O O9 0.155569 0.389024 0.070626
O O10 0.951853 0.283736 0.901779
O O11 0.372213 0.541332 0.787308
O O12 0.166268 0.460619 0.636040
O O13 0.332465 0.888492 0.162642
O O14 0.730510 0.130463 0.836401
O O15 0.766890 0.905865 0.671174
O O16 0.039171 0.786910 0.400771
#
# Coordination Sequence:
#
# PCOD9114676 Si02
#       8
#     2   2   2   2   2   2   2   2
#     4  10  18  38  63  91 114 157 209 259 305 359
#     4   9  18  36  59  83 121 153 203 250 304 355
#     4  10  23  41  58  87 136 160 201 249 321 377
#     4  10  22  38  63  89 124 165 196 265 305 372
#     4  10  20  38  62  90 120 157 213 257 301 363
#     4  10  22  38  61  93 116 161 205 262 299 360
#     4  11  22  36  70  90 116 158 216 258 310 353
#     4  12  23  41  62  93 127 165 201 262 311 377
#
# _framework density 24.921185999999999
#
# number of rings (size 3 to 8) (size 9 to 14) (size 15 to 20)
#    0.750    1.000    3.750    0.750    3.500    0.000 
#    2.250    0.000    0.000    0.000    0.000    0.000 
#    0.000    0.000    0.000    0.000    0.000    0.000 
#
# Total GULP energy -89181.056055 kJ/mol
# GULP energy per Si atom -5573.816003 kJ/mol
# Density = 2.486446 g / cm^3
# Si number density = 24.921186 Si / 1000 Ang^3
#
#
#
# Elastic Constant Matrix: (Units=GPa)
#
#
# Indices 1 2 3 4 5 6 
#
# 1 39.5388 12.6536 11.4565 0.0000 14.9143 0.0000
# 2 12.6536 102.3902 32.3028 0.0000 2.0031 0.0000
# 3 11.4565 32.3028 64.1550 0.0000 -0.4820 0.0000
# 4 0.0000 0.0000 0.0000 34.3461 0.0000 6.4273
# 5 14.9143 2.0031 -0.4820 0.0000 29.1163 0.0000
# 6 0.0000 0.0000 0.0000 6.4273 0.0000 44.4808
#
#
#
# Elastic Compliance Matrix: (Units=1/GPa)
#
#
# Indices 1 2 3 4 5 6 
#
# 1 0.034034 -0.002268 -0.005066 0.000000 -0.017361 0.000000
# 2 -0.002268 0.011786 -0.005527 0.000000 0.000259 0.000000
# 3 -0.005066 -0.005527 0.019300 0.000000 0.003295 0.000000
# 4 0.000000 0.000000 0.000000 0.029925 0.000000 -0.004324
# 5 -0.017361 0.000259 0.003295 0.000000 0.043275 0.000000
# 6 0.000000 0.000000 0.000000 -0.004324 0.000000 0.023106
#
#
# Mechanical properties :
#
#
# Convention : Reuss Voigt Hill
#
# Bulk Modulus (GPa) = 25.38286 35.43441 30.40864
# Shear Modulus (GPa) = 24.96505 31.56671 28.26588
#
# Velocity S-wave (km/s) = 3.16849 3.56288 3.37146
# Velocity P-wave (km/s) = 4.85728 5.58345 5.23298
#
# Compressibility (1/GPa) = 0.03939666
#
# Stress axis : x y z
#
# Youngs Moduli (GPa) = 29.38226 84.84977 51.81432
#
# Poissons Ratio (x) = 0.19245 0.26250
# Poissons Ratio (y) = 0.06664 0.28639
# Poissons Ratio (z) = 0.14885 0.46898
#
# Static dielectric constant tensor:
#      x y z
#    x 2.133050 0.000000 -0.012790 
#    y 0.000000 2.159540 0.000000 
#    z -0.012790 0.000000 1.995990 
# 
# From -- ./inp_files/6125.got.cif
#   From: 2010.05.17/outbox.cif.g08.bks.cpg/sg4_4_cif.got.tgz:6125.got - 2010.06.03 18:43:04.
