data_PCOD9114580
_publ_section_title
;
Structure prediction by ZEFSAII (Michael W. Deem and Ramdas Pophale) SiO2 
 PCOD9114580
Probable space group: P 21
;
_chemical_formula_sum "Si O2"
_cell_formula_units_Z 12
_cell_length_a 12.388755
_cell_length_b 6.667885
_cell_length_c 5.508164
_cell_angle_alpha 90.000000
_cell_angle_beta 89.077561
_cell_angle_gamma 90.000000
_cell_volume 454.952799
_symmetry_space_group_name_H-M "P 21"
_symmetry_group_IT_number 4
_symmetry_cell_setting 'monoclinic'
loop_
_space_group_symop_operation_xyz
x,y,z
-x,1/2+y,-z
loop_
_atom_site_type_symbol
_atom_site_label
_atom_site_fract_x
_atom_site_fract_y
_atom_site_fract_z
Si Si1 0.116764 0.089840 0.799355
Si Si2 0.067339 0.303596 0.300112
Si Si3 0.694127 0.233648 0.252422
Si Si4 0.551153 0.832210 0.758220
Si Si5 0.353078 0.249414 0.744814
Si Si6 0.253865 0.638471 0.250965
O O1 0.072859 0.228911 0.576929
O O2 0.244376 0.123252 0.764941
O O3 0.089967 0.153209 0.076728
O O4 0.050012 0.890747 0.748980
O O5 0.160835 0.472134 0.267374
O O6 0.577398 0.336622 0.247767
O O7 0.678274 0.987973 0.256843
O O8 0.748545 0.270786 0.509103
O O9 0.754507 0.260705 0.996068
O O10 0.587015 0.717813 0.512345
O O11 0.627957 0.028946 0.756296
O O12 0.580606 0.724814 0.009511
#
# Coordination Sequence:
#
# PCOD9114580 Si02
#       6
#     2   2   2   2   2   2
#     4  12  23  43  72  97 131 179 222 276 340 398
#     4  12  23  43  72  97 131 179 222 276 340 398
#     4  10  18  32  61  82 112 158 209 243 319 380
#     4  10  18  32  61  82 112 158 209 243 319 380
#     4  10  19  37  58  85 120 162 201 265 326 376
#     4  10  19  37  58  85 120 162 201 265 326 376
#
# _framework density 26.376360999999999
#
# number of rings (size 3 to 8) (size 9 to 14) (size 15 to 20)
#    0.000    1.333    6.667    2.000    0.000    0.000 
#    0.000    0.000   44.000    0.000    0.000    0.000 
#    0.000    0.000    0.000    0.000    0.000    0.000 
#
# Total GULP energy -67244.193386 kJ/mol
# GULP energy per Si atom -5603.682782 kJ/mol
# Density = 2.631633 g / cm^3
# Si number density = 26.376361 Si / 1000 Ang^3
#
#
#
# Elastic Constant Matrix: (Units=GPa)
#
#
# Indices 1 2 3 4 5 6 
#
# 1 154.3443 19.4729 23.6420 0.0000 11.2006 0.0000
# 2 19.4729 65.7370 16.2291 0.0000 -4.6098 0.0000
# 3 23.6420 16.2291 211.1957 0.0000 17.0567 0.0000
# 4 0.0000 0.0000 0.0000 49.0074 0.0000 -1.5103
# 5 11.2006 -4.6098 17.0567 0.0000 48.3027 0.0000
# 6 0.0000 0.0000 0.0000 -1.5103 0.0000 38.3555
#
#
#
# Elastic Compliance Matrix: (Units=1/GPa)
#
#
# Indices 1 2 3 4 5 6 
#
# 1 0.006930 -0.002047 -0.000487 0.000000 -0.001630 0.000000
# 2 -0.002047 0.016293 -0.001222 0.000000 0.002461 0.000000
# 3 -0.000487 -0.001222 0.005027 0.000000 -0.001779 0.000000
# 4 0.000000 0.000000 0.000000 0.020430 0.000000 0.000804
# 5 -0.001630 0.002461 -0.001779 0.000000 0.021944 0.000000
# 6 0.000000 0.000000 0.000000 0.000804 0.000000 0.026104
#
#
# Mechanical properties :
#
#
# Convention : Reuss Voigt Hill
#
# Bulk Modulus (GPa) = 48.21844 61.10722 54.66283
# Shear Modulus (GPa) = 44.98387 51.92867 48.45627
#
# Velocity S-wave (km/s) = 4.13420 4.44188 4.29080
# Velocity P-wave (km/s) = 6.41167 7.03739 6.73180
#
# Compressibility (1/GPa) = 0.02073895
#
# Stress axis : x y z
#
# Youngs Moduli (GPa) = 144.29648 61.37724 198.92683
#
# Poissons Ratio (x) = 0.12564 0.09684
# Poissons Ratio (y) = 0.29538 0.24301
# Poissons Ratio (z) = 0.07024 0.07498
#
# Static dielectric constant tensor:
#      x y z
#    x 1.987320 0.000000 -0.019910 
#    y 0.000000 2.211660 0.000000 
#    z -0.019910 0.000000 2.079150 
# 
# From -- ./inp_files/2454.got.cif
#   From: 2010.05.17/outbox.cif.g08.bks.cpg/sg4_2_cif.got.tgz:2454.got - 2010.06.03 18:43:04.
