data_PCOD9114890
_publ_section_title
;
Structure prediction by ZEFSAII (Michael W. Deem and Ramdas Pophale) SiO2 
 PCOD9114890
Probable space group: P 21
;
_chemical_formula_sum "Si O2"
_cell_formula_units_Z 16
_cell_length_a 7.147311
_cell_length_b 13.268868
_cell_length_c 7.620944
_cell_angle_alpha 90.000000
_cell_angle_beta 90.584049
_cell_angle_gamma 90.000000
_cell_volume 722.707830
_symmetry_space_group_name_H-M "P 21"
_symmetry_group_IT_number 4
_symmetry_cell_setting 'monoclinic'
loop_
_space_group_symop_operation_xyz
x,y,z
-x,1/2+y,-z
loop_
_atom_site_type_symbol
_atom_site_label
_atom_site_fract_x
_atom_site_fract_y
_atom_site_fract_z
Si Si1 0.863691 0.173130 0.086903
Si Si2 0.476002 0.764852 0.783293
Si Si3 0.539488 0.565030 0.559997
Si Si4 0.120024 0.167620 0.542834
Si Si5 0.225105 0.574761 0.269633
Si Si6 0.191555 0.370361 0.370940
Si Si7 0.231498 0.259553 0.910078
Si Si8 0.228208 0.467130 0.740506
O O1 0.755436 0.129593 0.914406
O O2 0.060163 0.210422 0.014498
O O3 0.741760 0.263441 0.169317
O O4 0.864166 0.073741 0.210248
O O5 0.498695 0.669901 0.656628
O O6 0.590757 0.850364 0.681296
O O7 0.589691 0.747952 0.964558
O O8 0.758562 0.572643 0.522409
O O9 0.414796 0.564108 0.382752
O O10 0.448134 0.485662 0.694143
O O11 0.112234 0.257443 0.398438
O O12 0.231943 0.210928 0.715456
O O13 0.918652 0.138214 0.612887
O O14 0.136332 0.462662 0.244308
O O15 0.154837 0.421747 0.558000
O O16 0.204396 0.378620 0.878671
#
# Coordination Sequence:
#
# PCOD9114890 Si02
#       8
#     2   2   2   2   2   2   2   2
#     4  10  21  37  59  82 110 149 183 223 281 330
#     4  10  20  35  55  79 108 145 184 224 274 325
#     4   9  19  35  56  80 109 146 184 225 273 322
#     4   9  19  36  57  82 111 148 184 222 277 328
#     4  10  19  36  58  83 114 143 182 230 273 325
#     4   9  19  35  56  81 112 144 180 229 273 322
#     4  10  20  37  58  83 115 145 183 230 272 327
#     4   9  19  37  55  80 115 144 182 231 273 323
#
# _framework density 22.138960999999998
#
# number of rings (size 3 to 8) (size 9 to 14) (size 15 to 20)
#    0.000    2.500    0.000    1.500    0.000    6.000 
#    0.000   22.500    0.000    0.000    0.000    0.000 
#    0.000    0.000    0.000    0.000    0.000    0.000 
#
# Total GULP energy -89139.613541 kJ/mol
# GULP energy per Si atom -5571.225846 kJ/mol
# Density = 2.208857 g / cm^3
# Si number density = 22.138961 Si / 1000 Ang^3
#
#
#
# Elastic Constant Matrix: (Units=GPa)
#
#
# Indices 1 2 3 4 5 6 
#
# 1 63.1811 23.1825 6.2490 0.0000 -7.3460 0.0000
# 2 23.1825 93.7937 19.8866 0.0000 -11.4683 0.0000
# 3 6.2490 19.8866 91.7938 0.0000 1.8580 0.0000
# 4 0.0000 0.0000 0.0000 33.8223 0.0000 -13.5331
# 5 -7.3460 -11.4683 1.8580 0.0000 33.0261 0.0000
# 6 0.0000 0.0000 0.0000 -13.5331 0.0000 29.4081
#
#
#
# Elastic Compliance Matrix: (Units=1/GPa)
#
#
# Indices 1 2 3 4 5 6 
#
# 1 0.017617 -0.003957 -0.000394 0.000000 0.002567 0.000000
# 2 -0.003957 0.012624 -0.002539 0.000000 0.003646 0.000000
# 3 -0.000394 -0.002539 0.011504 0.000000 -0.001617 0.000000
# 4 0.000000 0.000000 0.000000 0.036239 0.000000 0.016676
# 5 0.002567 0.003646 -0.001617 0.000000 0.032207 0.000000
# 6 0.000000 0.000000 0.000000 0.016676 0.000000 0.041678
#
#
# Mechanical properties :
#
#
# Convention : Reuss Voigt Hill
#
# Bulk Modulus (GPa) = 35.76037 38.60054 37.18045
# Shear Modulus (GPa) = 28.57622 32.54799 30.56210
#
# Velocity S-wave (km/s) = 3.59662 3.83844 3.71949
# Velocity P-wave (km/s) = 5.78233 6.09247 5.93943
#
# Compressibility (1/GPa) = 0.02796392
#
# Stress axis : x y z
#
# Youngs Moduli (GPa) = 56.76409 79.21446 86.92883
#
# Poissons Ratio (x) = 0.31344 0.03425
# Poissons Ratio (y) = 0.22461 0.22074
# Poissons Ratio (z) = 0.02237 0.20115
#
# Static dielectric constant tensor:
#      x y z
#    x 1.833930 0.000000 0.023470 
#    y 0.000000 1.867120 0.000000 
#    z 0.023470 0.000000 1.883820 
# 
# From -- ./inp_files/4679.got.cif
#   From: 2010.05.17/outbox.cif.g08.bks.cpg/sg4_3_cif.got.tgz:4679.got - 2010.06.03 18:43:04.
