data_PCOD9114079
_publ_section_title
;
Structure prediction by ZEFSAII (Michael W. Deem and Ramdas Pophale) SiO2 
 PCOD9114079
Probable space group: P 2
;
_chemical_formula_sum "Si O2"
_cell_formula_units_Z 10
_cell_length_a 7.478420
_cell_length_b 10.502820
_cell_length_c 5.397478
_cell_angle_alpha 90.000000
_cell_angle_beta 115.063758
_cell_angle_gamma 90.000000
_cell_volume 384.022512
_symmetry_space_group_name_H-M "P 2"
_symmetry_group_IT_number 3
_symmetry_cell_setting 'monoclinic'
loop_
_space_group_symop_operation_xyz
x,y,z
-x,y,-z
loop_
_atom_site_type_symbol
_atom_site_label
_atom_site_fract_x
_atom_site_fract_y
_atom_site_fract_z
Si Si1 0.289440 0.701140 0.247506
Si Si2 0.000000 0.259245 0.500000
Si Si3 0.210559 0.404688 0.252493
Si Si4 0.189855 0.948144 0.433769
Si Si5 0.500000 0.846582 0.000000
Si Si6 0.689854 0.157687 0.933767
O O1 0.500000 0.717257 0.500000
O O2 0.249994 0.552915 0.249997
O O3 0.155910 0.809593 0.290201
O O4 0.330865 0.752052 0.998757
O O5 0.830865 0.353775 0.498758
O O6 0.882282 0.178437 0.223512
O O7 0.344094 0.296239 0.209796
O O8 0.000000 0.388565 0.000000
O O9 0.000000 0.966249 0.500000
O O10 0.250000 0.052917 0.250003
O O11 0.382285 0.927391 0.723512
O O12 0.500000 0.139578 0.000000
#
# Coordination Sequence:
#
# PCOD9114079 Si02
#       6
#     2   1   2   2   1   2
#     4  10  25  47  78 118 160 215 275 336 415 498
#     4  10  26  52  78 120 170 208 284 350 404 506
#     4  10  25  47  78 118 160 215 275 336 415 498
#     4  11  28  52  82 119 166 224 278 340 421 492
#     4  10  26  52  78 120 170 208 284 350 404 506
#     4  11  28  52  82 119 166 224 278 340 421 492
#
# _framework density 26.040140999999998
#
# number of rings (size 3 to 8) (size 9 to 14) (size 15 to 20)
#    0.000    1.600    0.000    0.000   11.200    6.400 
#   14.400    0.000    0.000    0.000    0.000    0.000 
#    0.000    0.000    0.000    0.000    0.000    0.000 
#
# Total GULP energy -55781.348772 kJ/mol
# GULP energy per Si atom -5578.134877 kJ/mol
# Density = 2.598087 g / cm^3
# Si number density = 26.040141 Si / 1000 Ang^3
#
#
#
# Elastic Constant Matrix: (Units=GPa)
#
#
# Indices 1 2 3 4 5 6 
#
# 1 190.3893 117.1658 68.5302 0.0000 -33.2708 0.0000
# 2 117.1658 313.8150 92.8597 0.0000 -49.4747 0.0000
# 3 68.5302 92.8597 145.1266 0.0000 -6.5138 0.0000
# 4 0.0000 0.0000 0.0000 26.8164 0.0000 12.7663
# 5 -33.2708 -49.4747 -6.5138 0.0000 57.9593 0.0000
# 6 0.0000 0.0000 0.0000 12.7663 0.0000 17.9537
#
#
#
# Elastic Compliance Matrix: (Units=1/GPa)
#
#
# Indices 1 2 3 4 5 6 
#
# 1 0.007635 -0.001731 -0.002380 0.000000 0.002638 0.000000
# 2 -0.001731 0.004963 -0.002224 0.000000 0.002993 0.000000
# 3 -0.002380 -0.002224 0.009338 0.000000 -0.002215 0.000000
# 4 0.000000 0.000000 0.000000 0.056374 0.000000 -0.040086
# 5 0.002638 0.002993 -0.002215 0.000000 0.021074 0.000000
# 6 0.000000 0.000000 0.000000 -0.040086 0.000000 0.084202
#
#
# Mechanical properties :
#
#
# Convention : Reuss Voigt Hill
#
# Bulk Modulus (GPa) = 107.90602 134.04914 120.97758
# Shear Modulus (GPa) = 25.08252 45.26423 35.17337
#
# Velocity S-wave (km/s) = 3.10695 4.17375 3.67922
# Velocity P-wave (km/s) = 7.37558 8.64966 8.03790
#
# Compressibility (1/GPa) = 0.00926732
#
# Stress axis : x y z
#
# Youngs Moduli (GPa) = 130.97755 201.50854 107.09263
#
# Poissons Ratio (x) = 0.34871 0.25484
# Poissons Ratio (y) = 0.22666 0.23816
# Poissons Ratio (z) = 0.31167 0.44812
#
# Static dielectric constant tensor:
#      x y z
#    x 2.105950 0.000000 -0.093870 
#    y 0.000000 2.194220 0.000000 
#    z -0.093870 0.000000 2.212400 
# 
# From -- ./inp_files/1050.got.cif
#   From: 2010.05.17/outbox.cif.g08.bks.cpg/sg3_1_cif.got.tgz:1050.got - 2010.06.03 18:33:08.
