data_PCOD9114262
_publ_section_title
;
Structure prediction by ZEFSAII (Michael W. Deem and Ramdas Pophale) SiO2 
 PCOD9114262
Probable space group: P 2
;
_chemical_formula_sum "Si O2"
_cell_formula_units_Z 14
_cell_length_a 8.996866
_cell_length_b 6.116977
_cell_length_c 13.498965
_cell_angle_alpha 90.000000
_cell_angle_beta 52.690680
_cell_angle_gamma 90.000000
_cell_volume 590.881579
_symmetry_space_group_name_H-M "P 2"
_symmetry_group_IT_number 3
_symmetry_cell_setting 'monoclinic'
loop_
_space_group_symop_operation_xyz
x,y,z
-x,y,-z
loop_
_atom_site_type_symbol
_atom_site_label
_atom_site_fract_x
_atom_site_fract_y
_atom_site_fract_z
Si Si1 0.500000 0.639091 0.000000
Si Si2 0.568181 0.267686 0.689605
Si Si3 0.500000 0.090825 0.500000
Si Si4 0.766750 0.551501 0.186391
Si Si5 0.038619 0.181196 0.144830
Si Si6 0.836337 0.465440 0.727951
Si Si7 0.325813 0.940791 0.906024
Si Si8 0.140702 0.794354 0.668813
O O1 0.655259 0.518320 0.870533
O O2 0.394787 0.794389 0.967110
O O3 0.521916 0.227781 0.592582
O O4 0.427512 0.461419 0.774248
O O5 0.764336 0.354858 0.654851
O O6 0.493451 0.049156 0.775035
O O7 0.312375 0.943253 0.563924
O O8 0.794478 0.772111 0.111656
O O9 0.756549 0.616709 0.305224
O O10 0.908474 0.348260 0.136643
O O11 0.067378 0.288418 0.240532
O O12 0.965668 0.945535 0.208335
O O13 0.214147 0.135251 0.004287
O O14 0.983468 0.670283 0.665550
#
# Coordination Sequence:
#
# PCOD9114262 Si02
#       8
#     1   2   1   2   2   2   2   2
#     4  12  22  44  74 110 162 196 234 308 400 490
#     4  12  26  47  79 110 152 203 267 318 394 467
#     4  12  26  54  82 106 152 216 274 348 372 448
#     4  11  24  45  72 110 147 204 252 314 393 476
#     4  11  24  45  71 112 158 193 254 324 393 488
#     4  11  25  46  77 117 153 202 252 318 406 485
#     4  12  24  42  72 113 159 202 248 319 400 487
#     4  11  25  50  77 107 151 202 265 323 394 462
#
# _framework density 23.693411000000001
#
# number of rings (size 3 to 8) (size 9 to 14) (size 15 to 20)
#    0.000    0.571    5.714    1.714    0.000    4.000 
#    0.000    0.714    6.286    0.000    0.000    0.000 
#    0.000    0.000    0.000    0.000    0.000    0.000 
#
# Total GULP energy -78082.381724 kJ/mol
# GULP energy per Si atom -5577.312980 kJ/mol
# Density = 2.363948 g / cm^3
# Si number density = 23.693411 Si / 1000 Ang^3
#
#
#
# Elastic Constant Matrix: (Units=GPa)
#
#
# Indices 1 2 3 4 5 6 
#
# 1 156.6327 57.3137 27.0630 0.0000 8.8926 0.0000
# 2 57.3137 79.5627 20.4899 0.0000 11.0886 0.0000
# 3 27.0630 20.4899 61.7353 0.0000 5.7263 0.0000
# 4 0.0000 0.0000 0.0000 13.2272 0.0000 -1.5180
# 5 8.8926 11.0886 5.7263 0.0000 28.7883 0.0000
# 6 0.0000 0.0000 0.0000 -1.5180 0.0000 22.0307
#
#
#
# Elastic Compliance Matrix: (Units=1/GPa)
#
#
# Indices 1 2 3 4 5 6 
#
# 1 0.008876 -0.005884 -0.001930 0.000000 -0.000091 0.000000
# 2 -0.005884 0.018233 -0.003045 0.000000 -0.004599 0.000000
# 3 -0.001930 -0.003045 0.018227 0.000000 -0.001857 0.000000
# 4 0.000000 0.000000 0.000000 0.076205 0.000000 0.005251
# 5 -0.000091 -0.004599 -0.001857 0.000000 0.036905 0.000000
# 6 0.000000 0.000000 0.000000 0.005251 0.000000 0.045753
#
#
# Mechanical properties :
#
#
# Convention : Reuss Voigt Hill
#
# Bulk Modulus (GPa) = 42.34140 56.40711 49.37426
# Shear Modulus (GPa) = 21.38674 25.68017 23.53345
#
# Velocity S-wave (km/s) = 3.00766 3.29576 3.15500
# Velocity P-wave (km/s) = 5.47455 6.19205 5.84432
#
# Compressibility (1/GPa) = 0.02361754
#
# Stress axis : x y z
#
# Youngs Moduli (GPa) = 112.66245 54.84618 54.86376
#
# Poissons Ratio (x) = 0.32273 0.10586
# Poissons Ratio (y) = 0.66294 0.16708
# Poissons Ratio (z) = 0.21739 0.16702
#
# Static dielectric constant tensor:
#      x y z
#    x 2.016210 0.000000 -0.030140 
#    y 0.000000 1.949440 0.000000 
#    z -0.030140 0.000000 1.933480 
# 
# From -- ./inp_files/9260.got.cif
#   From: 2010.05.17/outbox.cif.g08.bks.cpg/sg3_5_cif.got.tgz:9260.got - 2010.06.03 18:33:08.
