data_PCOD9114442
_publ_section_title
;
Structure prediction by ZEFSAII (Michael W. Deem and Ramdas Pophale) SiO2 
 PCOD9114442
Probable space group: P 21
;
_chemical_formula_sum "Si O2"
_cell_formula_units_Z 10
_cell_length_a 14.172433
_cell_length_b 5.739006
_cell_length_c 8.311170
_cell_angle_alpha 90.000000
_cell_angle_beta 33.905656
_cell_angle_gamma 90.000000
_cell_volume 377.088094
_symmetry_space_group_name_H-M "P 21"
_symmetry_group_IT_number 4
_symmetry_cell_setting 'monoclinic'
loop_
_space_group_symop_operation_xyz
x,y,z
-x,1/2+y,-z
loop_
_atom_site_type_symbol
_atom_site_label
_atom_site_fract_x
_atom_site_fract_y
_atom_site_fract_z
Si Si1 0.064140 0.967890 0.597138
Si Si2 0.417720 0.585187 0.391047
Si Si3 0.131645 0.931783 0.879247
Si Si4 0.189674 0.456356 0.440580
Si Si5 0.690006 0.830356 0.168421
O O1 0.105301 0.977308 0.728820
O O2 0.145214 0.715593 0.430800
O O3 0.149265 0.206764 0.411404
O O4 0.859556 0.968387 0.872934
O O5 0.252583 0.712168 0.695708
O O6 0.366119 0.480724 0.291044
O O7 0.571118 0.765750 0.185961
O O8 0.442066 0.408416 0.503944
O O9 0.224999 0.118039 0.856832
O O10 0.951832 0.930270 0.218675
#
# Coordination Sequence:
#
# PCOD9114442 Si02
#       5
#     2   2   2   2   2
#     4  10  17  26  34  38  45  58  66  67  75  90
#     4  11  18  23  31  41  50  54  63  75  81  82
#     4  10  16  24  32  36  44  60  66  66  74  92
#     4  10  17  26  34  38  45  58  66  67  75  90
#     4  11  18  23  31  41  50  54  63  75  81  82
#
# _framework density 26.518999999999998
#
# number of rings (size 3 to 8) (size 9 to 14) (size 15 to 20)
#    0.000    1.600    8.000    1.200    0.000    0.000 
#    0.000    0.000    0.000    0.000    0.000    0.000 
#    0.000    0.000    0.000    0.000    0.000    0.000 
#
# Total GULP energy -55708.798753 kJ/mol
# GULP energy per Si atom -5570.879875 kJ/mol
# Density = 2.645864 g / cm^3
# Si number density = 26.519000 Si / 1000 Ang^3
#
#
#
# Elastic Constant Matrix: (Units=GPa)
#
#
# Indices 1 2 3 4 5 6 
#
# 1 100.4216 22.2989 29.3925 0.0000 -24.7117 0.0000
# 2 22.2989 144.2344 14.2188 0.0000 -5.4662 0.0000
# 3 29.3925 14.2188 57.2747 0.0000 -27.0825 0.0000
# 4 0.0000 0.0000 0.0000 0.6229 0.0000 -2.9231
# 5 -24.7117 -5.4662 -27.0825 0.0000 45.4977 0.0000
# 6 0.0000 0.0000 0.0000 -2.9231 0.0000 5.7885
#
#
#
# Elastic Compliance Matrix: (Units=1/GPa)
#
#
# Indices 1 2 3 4 5 6 
#
# 1 0.012489 -0.001369 -0.004091 0.000000 0.004184 0.000000
# 2 -0.001369 0.007260 -0.001446 0.000000 -0.000732 0.000000
# 3 -0.004091 -0.001446 0.026144 0.000000 0.013166 0.000000
# 4 0.000000 0.000000 0.000000 -1.171971 0.000000 -0.591836
# 5 0.004184 -0.000732 0.013166 0.000000 0.032001 0.000000
# 6 0.000000 0.000000 0.000000 -0.591836 0.000000 -0.126116
#
#
# Mechanical properties :
#
#
# Convention : Reuss Voigt Hill
#
# Bulk Modulus (GPa) = 31.17139 48.19458 39.68299
# Shear Modulus (GPa) = -4.18169 26.11651 10.96741
#
# Velocity S-wave (km/s) = -1.25710 3.14159 2.03584
# Velocity P-wave (km/s) = 3.11012 5.60112 4.53020
#
# Compressibility (1/GPa) = 0.03208070
#
# Stress axis : x y z
#
# Youngs Moduli (GPa) = 80.07108 137.74873 38.24985
#
# Poissons Ratio (x) = 0.18857 0.15648
# Poissons Ratio (y) = 0.10961 0.05530
# Poissons Ratio (z) = 0.32758 0.19916
#
# Static dielectric constant tensor:
#      x y z
#    x 2.214490 0.000000 -0.171240 
#    y 0.000000 2.466300 0.000000 
#    z -0.171240 0.000000 2.177610 
# 
# From -- ./inp_files/14080.got.cif
#   From: 2010.05.17/outbox.cif.g08.bks.cpg/sg4_8_cif.got.tgz:14080.got - 2010.06.03 18:43:04.
