data_PCOD9114978
_publ_section_title
;
Structure prediction by ZEFSAII (Michael W. Deem and Ramdas Pophale) SiO2 
 PCOD9114978
Probable space group: P 21
;
_chemical_formula_sum "Si O2"
_cell_formula_units_Z 14
_cell_length_a 8.028453
_cell_length_b 13.362669
_cell_length_c 9.606912
_cell_angle_alpha 90.000000
_cell_angle_beta 45.839283
_cell_angle_gamma 90.000000
_cell_volume 739.372442
_symmetry_space_group_name_H-M "P 21"
_symmetry_group_IT_number 4
_symmetry_cell_setting 'monoclinic'
loop_
_space_group_symop_operation_xyz
x,y,z
-x,1/2+y,-z
loop_
_atom_site_type_symbol
_atom_site_label
_atom_site_fract_x
_atom_site_fract_y
_atom_site_fract_z
Si Si1 0.430105 0.303070 0.728653
Si Si2 0.130336 0.576188 0.867521
Si Si3 0.824492 0.427428 0.344543
Si Si4 0.647187 0.472894 0.061275
Si Si5 0.089803 0.802759 0.988849
Si Si6 0.320029 0.446456 0.015767
Si Si7 0.506808 0.076674 0.592645
O O1 0.635629 0.370595 0.546849
O O2 0.175399 0.322151 0.809533
O O3 0.394229 0.339178 0.908371
O O4 0.481361 0.187274 0.670410
O O5 0.245338 0.510243 0.923434
O O6 0.289417 0.575829 0.638172
O O7 0.879233 0.535305 0.964736
O O8 0.112772 0.686839 0.941520
O O9 0.717333 0.533896 0.360701
O O10 0.861011 0.360554 0.184794
O O11 0.086972 0.438420 0.244537
O O12 0.474213 0.500524 0.288705
O O13 0.524267 0.493546 0.987326
O O14 0.728476 0.357135 0.016587
#
# Coordination Sequence:
#
# PCOD9114978 Si02
#       7
#     2   2   2   2   2   2   2
#     4  11  19  37  66  90 121 164 208 256 312 367
#     4  12  21  41  66  90 123 168 210 260 311 374
#     4  10  19  38  61  89 124 161 206 257 305 368
#     4  11  24  42  62  92 129 162 210 260 313 381
#     4  10  20  38  63  89 119 166 207 255 313 367
#     4  11  24  39  65  90 127 167 205 263 317 370
#     4  11  21  37  67  90 121 168 210 255 313 371
#
# _framework density 18.934975000000001
#
# number of rings (size 3 to 8) (size 9 to 14) (size 15 to 20)
#    0.000    1.143    8.571    0.000    0.000    2.286 
#    0.000    0.000    0.000    0.000    0.000    0.000 
#    0.000    0.000    0.000    0.000    0.000    0.000 
#
# Total GULP energy -78003.185516 kJ/mol
# GULP energy per Si atom -5571.656108 kJ/mol
# Density = 1.889188 g / cm^3
# Si number density = 18.934975 Si / 1000 Ang^3
#
#
#
# Elastic Constant Matrix: (Units=GPa)
#
#
# Indices 1 2 3 4 5 6 
#
# 1 108.7581 44.5354 36.1628 0.0000 -7.1537 0.0000
# 2 44.5354 125.0858 37.8890 0.0000 -8.5938 0.0000
# 3 36.1628 37.8890 128.8529 0.0000 -12.3800 0.0000
# 4 0.0000 0.0000 0.0000 34.3161 0.0000 3.8232
# 5 -7.1537 -8.5938 -12.3800 0.0000 11.6078 0.0000
# 6 0.0000 0.0000 0.0000 3.8232 0.0000 10.0248
#
#
#
# Elastic Compliance Matrix: (Units=1/GPa)
#
#
# Indices 1 2 3 4 5 6 
#
# 1 0.011358 -0.003273 -0.001989 0.000000 0.002455 0.000000
# 2 -0.003273 0.009904 -0.001653 0.000000 0.003553 0.000000
# 3 -0.001989 -0.001653 0.009548 0.000000 0.007734 0.000000
# 4 0.000000 0.000000 0.000000 0.030434 0.000000 -0.011607
# 5 0.002455 0.003553 0.007734 0.000000 0.098541 0.000000
# 6 0.000000 0.000000 0.000000 -0.011607 0.000000 0.104179
#
#
# Mechanical properties :
#
#
# Convention : Reuss Voigt Hill
#
# Bulk Modulus (GPa) = 58.88840 66.65236 62.77038
# Shear Modulus (GPa) = 17.63959 27.46373 22.55166
#
# Velocity S-wave (km/s) = 3.05550 3.81257 3.45484
# Velocity P-wave (km/s) = 6.60424 7.39311 7.00978
#
# Compressibility (1/GPa) = 0.01698127
#
# Stress axis : x y z
#
# Youngs Moduli (GPa) = 88.04552 100.96584 104.73308
#
# Poissons Ratio (x) = 0.33041 0.20836
# Poissons Ratio (y) = 0.28813 0.17307
# Poissons Ratio (z) = 0.17516 0.16685
#
# Static dielectric constant tensor:
#      x y z
#    x 1.656740 0.000000 -0.018880 
#    y 0.000000 1.702540 0.000000 
#    z -0.018880 0.000000 1.701390 
# 
# From -- ./inp_files/11132.got.cif
#   From: 2010.05.17/outbox.cif.g08.bks.cpg/sg4_6_cif.got.tgz:11132.got - 2010.06.03 18:43:04.
