data_PCOD9114005
_publ_section_title
;
Structure prediction by ZEFSAII (Michael W. Deem and Ramdas Pophale) SiO2 
 PCOD9114005
Probable space group: P 2
;
_chemical_formula_sum "Si O2"
_cell_formula_units_Z 12
_cell_length_a 6.398698
_cell_length_b 5.274632
_cell_length_c 15.364770
_cell_angle_alpha 90.000000
_cell_angle_beta 67.565152
_cell_angle_gamma 90.000000
_cell_volume 479.324266
_symmetry_space_group_name_H-M "P 2"
_symmetry_group_IT_number 3
_symmetry_cell_setting 'monoclinic'
loop_
_space_group_symop_operation_xyz
x,y,z
-x,y,-z
loop_
_atom_site_type_symbol
_atom_site_label
_atom_site_fract_x
_atom_site_fract_y
_atom_site_fract_z
Si Si1 0.174657 0.067300 0.420586
Si Si2 0.423809 0.019012 0.927058
Si Si3 0.500000 0.830961 0.500000
Si Si4 0.876950 0.449452 0.358932
Si Si5 0.742646 0.393283 0.192322
Si Si6 0.000000 0.658393 0.000000
Si Si7 0.319663 0.756616 0.241587
O O1 0.000000 0.880870 0.500000
O O2 0.986056 0.275589 0.418057
O O3 0.389621 0.026479 0.448668
O O4 0.276418 0.986568 0.313274
O O5 0.633810 0.851801 0.861902
O O6 0.356058 0.179600 0.854639
O O7 0.500000 0.170725 0.000000
O O8 0.216048 0.835905 0.979294
O O9 0.681380 0.639394 0.425303
O O10 0.800366 0.310767 0.281492
O O11 0.092791 0.601377 0.289337
O O12 0.941713 0.502210 0.097622
O O13 0.542512 0.600928 0.233618
#
# Coordination Sequence:
#
# PCOD9114005 Si02
#       7
#     2   2   1   2   2   1   2
#     4  12  28  48  81 114 152 208 268 331 407 474
#     4  11  25  45  74 112 155 201 262 319 397 477
#     4  12  28  56  82 116 166 208 272 342 400 486
#     4  12  28  50  82 110 160 206 268 331 406 483
#     4  11  25  46  77 111 155 209 259 328 406 472
#     4  10  24  44  74 108 158 198 260 316 394 474
#     4  11  25  48  74 110 153 199 266 330 396 478
#
# _framework density 25.035243999999999
#
# number of rings (size 3 to 8) (size 9 to 14) (size 15 to 20)
#    0.000    0.667    3.333    2.500    2.333   15.333 
#    0.000    0.000    3.667    0.000    0.000    0.000 
#    0.000    0.000    0.000    0.000    0.000    0.000 
#
# Total GULP energy -66950.948343 kJ/mol
# GULP energy per Si atom -5579.245695 kJ/mol
# Density = 2.497826 g / cm^3
# Si number density = 25.035244 Si / 1000 Ang^3
#
#
#
# Elastic Constant Matrix: (Units=GPa)
#
#
# Indices 1 2 3 4 5 6 
#
# 1 117.3923 52.7360 112.4734 0.0000 21.0114 0.0000
# 2 52.7360 66.9091 42.9213 0.0000 8.5296 0.0000
# 3 112.4734 42.9213 166.0283 0.0000 4.9862 0.0000
# 4 0.0000 0.0000 0.0000 25.4022 0.0000 -8.1237
# 5 21.0114 8.5296 4.9862 0.0000 82.0776 0.0000
# 6 0.0000 0.0000 0.0000 -8.1237 0.0000 39.1334
#
#
#
# Elastic Compliance Matrix: (Units=1/GPa)
#
#
# Indices 1 2 3 4 5 6 
#
# 1 0.035026 -0.014031 -0.019911 0.000000 -0.006299 0.000000
# 2 -0.014031 0.023745 0.003339 0.000000 0.000921 0.000000
# 3 -0.019911 0.003339 0.018540 0.000000 0.003624 0.000000
# 4 0.000000 0.000000 0.000000 0.042166 0.000000 0.008753
# 5 -0.006299 0.000921 0.003624 0.000000 0.013480 0.000000
# 6 0.000000 0.000000 0.000000 0.008753 0.000000 0.027371
#
#
# Mechanical properties :
#
#
# Convention : Reuss Voigt Hill
#
# Bulk Modulus (GPa) = 62.09650 85.17680 73.63665
# Shear Modulus (GPa) = 22.03589 38.80258 30.41924
#
# Velocity S-wave (km/s) = 2.97003 3.94117 3.48955
# Velocity P-wave (km/s) = 6.05135 7.40318 6.76114
#
# Compressibility (1/GPa) = 0.01610397
#
# Stress axis : x y z
#
# Youngs Moduli (GPa) = 28.55026 42.11399 53.93785
#
# Poissons Ratio (x) = 0.59089 1.07398
# Poissons Ratio (y) = 0.40058 -0.18008
# Poissons Ratio (z) = 0.56848 -0.14060
#
# Static dielectric constant tensor:
#      x y z
#    x 2.111580 0.000000 -0.000890 
#    y 0.000000 2.102470 0.000000 
#    z -0.000890 0.000000 2.101190 
# 
# From -- ./inp_files/2821.got.cif
#   From: 2010.05.17/outbox.cif.g08.bks.cpg/sg3_2_cif.got.tgz:2821.got - 2010.06.03 18:33:08.
