data_PCOD9114287
_publ_section_title
;
Structure prediction by ZEFSAII (Michael W. Deem and Ramdas Pophale) SiO2 
 PCOD9114287
Probable space group: P 2
;
_chemical_formula_sum "Si O2"
_cell_formula_units_Z 16
_cell_length_a 8.789320
_cell_length_b 10.603812
_cell_length_c 8.293828
_cell_angle_alpha 90.000000
_cell_angle_beta 116.575602
_cell_angle_gamma 90.000000
_cell_volume 691.317129
_symmetry_space_group_name_H-M "P 2"
_symmetry_group_IT_number 3
_symmetry_cell_setting 'monoclinic'
loop_
_space_group_symop_operation_xyz
x,y,z
-x,y,-z
loop_
_atom_site_type_symbol
_atom_site_label
_atom_site_fract_x
_atom_site_fract_y
_atom_site_fract_z
Si Si1 0.693610 0.855350 0.619482
Si Si2 0.352046 0.492890 0.047040
Si Si3 0.513612 0.249044 0.313089
Si Si4 0.037524 0.163760 0.841430
Si Si5 0.988547 0.431170 0.308081
Si Si6 0.695401 0.587371 0.647795
Si Si7 0.357383 0.002301 0.072995
Si Si8 0.182271 0.080543 0.503498
O O1 0.500000 0.819086 0.500000
O O2 0.780709 0.719401 0.635112
O O3 0.696193 0.905635 0.808076
O O4 0.724388 0.948571 0.480655
O O5 0.431274 0.365404 0.173514
O O6 0.321116 0.593393 0.169282
O O7 0.500000 0.534156 0.000000
O O8 0.176902 0.479478 0.866240
O O9 0.500000 0.265039 0.500000
O O10 0.426301 0.124461 0.201127
O O11 0.708745 0.199864 0.385582
O O12 0.041221 0.282789 0.727889
O O13 0.865224 0.098446 0.706458
O O14 0.189109 0.062651 0.908161
O O15 0.000000 0.215547 0.000000
O O16 0.000000 0.466506 0.500000
O O17 0.170060 0.476240 0.324322
O O18 0.500000 0.559985 0.500000
O O19 0.500000 0.968926 0.000000
O O20 0.000000 0.065380 0.500000
#
# Coordination Sequence:
#
# PCOD9114287 Si02
#       8
#     2   2   2   2   2   2   2   2
#     4  11  24  50  75 103 142 195 253 302 360 436
#     4  12  27  47  73 112 145 192 246 301 372 445
#     4  12  23  44  74 104 153 192 233 292 371 442
#     4  12  24  41  66 108 152 187 234 292 367 439
#     4  12  28  48  73 108 150 191 243 308 369 440
#     4  11  27  51  79 103 143 201 254 308 368 428
#     4  12  23  43  70 108 147 193 237 295 361 442
#     4  12  25  41  70 110 150 191 235 297 366 436
#
# _framework density 23.144226
#
# number of rings (size 3 to 8) (size 9 to 14) (size 15 to 20)
#    0.000    0.250    5.000    3.750    7.000    1.000 
#    4.500    0.000    0.000    0.000    0.000    0.000 
#    0.000    0.000    0.000    0.000    0.000    0.000 
#
# Total GULP energy -89135.641641 kJ/mol
# GULP energy per Si atom -5570.977603 kJ/mol
# Density = 2.309155 g / cm^3
# Si number density = 23.144226 Si / 1000 Ang^3
#
#
#
# Elastic Constant Matrix: (Units=GPa)
#
#
# Indices 1 2 3 4 5 6 
#
# 1 120.0457 13.5070 26.7909 0.0000 0.5855 0.0000
# 2 13.5070 61.8395 5.2661 0.0000 0.0955 0.0000
# 3 26.7909 5.2661 119.1697 0.0000 13.6410 0.0000
# 4 0.0000 0.0000 0.0000 1.2324 0.0000 3.8790
# 5 0.5855 0.0955 13.6410 0.0000 46.6310 0.0000
# 6 0.0000 0.0000 0.0000 3.8790 0.0000 19.5027
#
#
#
# Elastic Compliance Matrix: (Units=1/GPa)
#
#
# Indices 1 2 3 4 5 6 
#
# 1 0.008974 -0.001791 -0.001993 0.000000 0.000474 0.000000
# 2 -0.001791 0.016591 -0.000341 0.000000 0.000088 0.000000
# 3 -0.001993 -0.000341 0.009158 0.000000 -0.002653 0.000000
# 4 0.000000 0.000000 0.000000 2.169515 0.000000 -0.431503
# 5 0.000474 0.000088 -0.002653 0.000000 0.022215 0.000000
# 6 0.000000 0.000000 0.000000 -0.431503 0.000000 0.137098
#
#
# Mechanical properties :
#
#
# Convention : Reuss Voigt Hill
#
# Bulk Modulus (GPa) = 37.77211 43.57588 40.67400
# Shear Modulus (GPa) = 2.10029 30.50594 16.30312
#
# Velocity S-wave (km/s) = 0.95365 3.63448 2.65696
# Velocity P-wave (km/s) = 4.19146 6.03998 5.19855
#
# Compressibility (1/GPa) = 0.02647456
#
# Stress axis : x y z
#
# Youngs Moduli (GPa) = 111.43213 60.27364 109.19266
#
# Poissons Ratio (x) = 0.10796 0.21758
# Poissons Ratio (y) = 0.19959 0.03719
# Poissons Ratio (z) = 0.22204 0.02053
#
# Static dielectric constant tensor:
#      x y z
#    x 1.767410 0.000000 0.098910 
#    y 0.000000 2.044460 0.000000 
#    z 0.098910 0.000000 2.079410 
# 
# From -- ./inp_files/6033.got.cif
#   From: 2010.05.17/outbox.cif.g08.bks.cpg/sg3_4_cif.got.tgz:6033.got - 2010.06.03 18:33:08.
