data_PCOD9114478
_publ_section_title
;
Structure prediction by ZEFSAII (Michael W. Deem and Ramdas Pophale) SiO2 
 PCOD9114478
Probable space group: P 21
;
_chemical_formula_sum "Si O2"
_cell_formula_units_Z 16
_cell_length_a 9.524348
_cell_length_b 5.479186
_cell_length_c 18.048080
_cell_angle_alpha 90.000000
_cell_angle_beta 60.627774
_cell_angle_gamma 90.000000
_cell_volume 820.777824
_symmetry_space_group_name_H-M "P 21"
_symmetry_group_IT_number 4
_symmetry_cell_setting 'monoclinic'
loop_
_space_group_symop_operation_xyz
x,y,z
-x,1/2+y,-z
loop_
_atom_site_type_symbol
_atom_site_label
_atom_site_fract_x
_atom_site_fract_y
_atom_site_fract_z
Si Si1 0.608452 0.416370 0.648143
Si Si2 0.212916 0.370324 0.184238
Si Si3 0.807579 0.016383 0.508921
Si Si4 0.262816 0.865914 0.115106
Si Si5 0.562020 0.852309 0.154445
Si Si6 0.096899 0.257850 0.374597
Si Si7 0.395372 0.856671 0.914676
Si Si8 0.451227 0.179755 0.473907
O O1 0.675279 0.197451 0.579319
O O2 0.507495 0.334095 0.744985
O O3 0.762241 0.564567 0.640720
O O4 0.505575 0.591571 0.620436
O O5 0.166581 0.617501 0.154703
O O6 0.146923 0.374162 0.284487
O O7 0.408756 0.364959 0.136434
O O8 0.169635 0.116629 0.155547
O O9 0.922632 0.137300 0.419362
O O10 0.908816 0.941986 0.554922
O O11 0.729303 0.778913 0.492089
O O12 0.410017 0.861466 0.136528
O O13 0.337058 0.857207 0.014216
O O14 0.657693 0.608097 0.109639
O O15 0.649824 0.108355 0.115925
O O16 0.534204 0.430914 0.481637
#
# Coordination Sequence:
#
# PCOD9114478 Si02
#       8
#     2   2   2   2   2   2   2   2
#     4  11  21  36  55  79 110 143 188 235 278 331
#     4  10  18  28  42  62  99 137 181 213 244 308
#     4  11  22  35  58  80 111 148 185 238 284 333
#     4  10  17  28  42  62  97 146 189 202 245 315
#     4  10  18  27  44  68  96 132 180 216 257 307
#     4  11  21  32  50  83 113 143 188 227 279 336
#     4  10  17  27  42  64  97 144 186 204 247 316
#     4  11  24  43  59  76 101 147 203 241 290 330
#
# _framework density 19.493703
#
# number of rings (size 3 to 8) (size 9 to 14) (size 15 to 20)
#    0.000    1.500    5.000    5.250    1.750    0.000 
#    0.000    0.000    0.000    0.000    0.000    0.000 
#    0.000    0.000    0.000    9.000   15.500    0.625 
#
# Total GULP energy -89150.556902 kJ/mol
# GULP energy per Si atom -5571.909806 kJ/mol
# Density = 1.944933 g / cm^3
# Si number density = 19.493703 Si / 1000 Ang^3
#
#
#
# Elastic Constant Matrix: (Units=GPa)
#
#
# Indices 1 2 3 4 5 6 
#
# 1 21.2321 21.5544 32.4707 0.0000 12.9279 0.0000
# 2 21.5544 166.8619 41.3366 0.0000 14.6780 0.0000
# 3 32.4707 41.3366 115.9927 0.0000 20.1596 0.0000
# 4 0.0000 0.0000 0.0000 7.6690 0.0000 13.0838
# 5 12.9279 14.6780 20.1596 0.0000 9.7265 0.0000
# 6 0.0000 0.0000 0.0000 13.0838 0.0000 -2.8558
#
#
#
# Elastic Compliance Matrix: (Units=1/GPa)
#
#
# Indices 1 2 3 4 5 6 
#
# 1 0.277416 -0.002346 -0.020872 0.000000 -0.321925 0.000000
# 2 -0.002346 0.007008 -0.000851 0.000000 -0.005692 0.000000
# 3 -0.020872 -0.000851 0.015197 0.000000 -0.002471 0.000000
# 4 0.000000 0.000000 0.000000 0.014790 0.000000 0.067761
# 5 -0.321925 -0.005692 -0.002471 0.000000 0.544409 0.000000
# 6 0.000000 0.000000 0.000000 0.067761 0.000000 -0.039718
#
#
# Mechanical properties :
#
#
# Convention : Reuss Voigt Hill
#
# Bulk Modulus (GPa) = 3.97644 54.97888 29.47766
# Shear Modulus (GPa) = 5.25725 16.82294 11.04009
#
# Velocity S-wave (km/s) = 1.64400 2.94086 2.38237
# Velocity P-wave (km/s) = 2.37654 6.30842 4.76677
#
# Compressibility (1/GPa) = 0.25148091
#
# Stress axis : x y z
#
# Youngs Moduli (GPa) = 3.60469 142.70113 65.80247
#
# Poissons Ratio (x) = 0.33483 1.37345
# Poissons Ratio (y) = 0.00846 0.05601
# Poissons Ratio (z) = 0.07524 0.12146
#
# Static dielectric constant tensor:
#      x y z
#    x 1.719730 0.000000 0.008800 
#    y 0.000000 1.823470 0.000000 
#    z 0.008800 0.000000 1.646480 
# 
# From -- ./inp_files/14134.got.cif
#   From: 2010.05.17/outbox.cif.g08.bks.cpg/sg4_8_cif.got.tgz:14134.got - 2010.06.03 18:43:04.
