data_PCOD9114838
_publ_section_title
;
Structure prediction by ZEFSAII (Michael W. Deem and Ramdas Pophale) SiO2 
 PCOD9114838
Probable space group: P 21
;
_chemical_formula_sum "Si O2"
_cell_formula_units_Z 16
_cell_length_a 5.409882
_cell_length_b 5.001735
_cell_length_c 25.042687
_cell_angle_alpha 90.000000
_cell_angle_beta 116.390231
_cell_angle_gamma 90.000000
_cell_volume 607.008010
_symmetry_space_group_name_H-M "P 21"
_symmetry_group_IT_number 4
_symmetry_cell_setting 'monoclinic'
loop_
_space_group_symop_operation_xyz
x,y,z
-x,1/2+y,-z
loop_
_atom_site_type_symbol
_atom_site_label
_atom_site_fract_x
_atom_site_fract_y
_atom_site_fract_z
Si Si1 0.010639 0.488670 0.116861
Si Si2 0.652073 0.506658 0.500853
Si Si3 0.074461 0.315377 0.245422
Si Si4 0.191359 0.331759 0.751516
Si Si5 0.333873 0.988979 0.123854
Si Si6 0.187747 0.840180 0.004843
Si Si7 0.571073 0.012483 0.627026
Si Si8 0.080054 0.331044 0.624848
O O1 0.077560 0.797015 0.113965
O O2 0.028945 0.416020 0.180664
O O3 0.258039 0.298798 0.118156
O O4 0.763462 0.402716 0.052865
O O5 0.569057 0.816073 0.490559
O O6 0.621988 0.389385 0.438058
O O7 0.922547 0.480988 0.562431
O O8 0.847031 0.513951 0.251499
O O9 0.330957 0.366605 0.309754
O O10 0.047240 0.996032 0.241132
O O11 0.452351 0.419400 0.809799
O O12 0.158905 0.454651 0.689447
O O13 0.415766 0.897350 0.071948
O O14 0.050988 0.553257 0.000615
O O15 0.369400 0.237453 0.629785
O O16 0.846853 0.112919 0.622198
#
# Coordination Sequence:
#
# PCOD9114838 Si02
#       8
#     2   2   2   2   2   2   2   2
#     4  10  19  35  58  84 114 159 209 263 319 383
#     4  10  22  44  68  98 132 172 216 268 324 386
#     4  11  23  40  59  89 125 164 209 264 321 383
#     4  11  23  40  59  89 125 164 209 264 321 383
#     4  10  19  35  58  84 114 159 209 263 319 383
#     4   8  16  30  52  80 112 150 204 258 316 378
#     4  10  23  43  67  96 131 171 216 266 322 384
#     4  10  23  43  67  96 131 171 216 266 322 384
#
# _framework density 26.358792000000001
#
# number of rings (size 3 to 8) (size 9 to 14) (size 15 to 20)
#    0.000    2.000    0.000    3.000    0.000    6.000 
#    0.000   12.500    0.000    0.000    0.000    0.000 
#    0.000    0.000    0.000    0.000    0.000    0.625 
#
# Total GULP energy -89234.506796 kJ/mol
# GULP energy per Si atom -5577.156675 kJ/mol
# Density = 2.629880 g / cm^3
# Si number density = 26.358792 Si / 1000 Ang^3
#
#
#
# Elastic Constant Matrix: (Units=GPa)
#
#
# Indices 1 2 3 4 5 6 
#
# 1 29.1861 18.7389 24.0150 0.0000 -3.6600 0.0000
# 2 18.7389 97.9754 20.7962 0.0000 0.4826 0.0000
# 3 24.0150 20.7962 291.7487 0.0000 -12.0684 0.0000
# 4 0.0000 0.0000 0.0000 42.9600 0.0000 -0.4845
# 5 -3.6600 0.4826 -12.0684 0.0000 29.3738 0.0000
# 6 0.0000 0.0000 0.0000 -0.4845 0.0000 26.5535
#
#
#
# Elastic Compliance Matrix: (Units=1/GPa)
#
#
# Indices 1 2 3 4 5 6 
#
# 1 0.041819 -0.007438 -0.002738 0.000000 0.004208 0.000000
# 2 -0.007438 0.011693 -0.000272 0.000000 -0.001231 0.000000
# 3 -0.002738 -0.000272 0.003722 0.000000 0.001192 0.000000
# 4 0.000000 0.000000 0.000000 0.023282 0.000000 0.000425
# 5 0.004208 -0.001231 0.001192 0.000000 0.035078 0.000000
# 6 0.000000 0.000000 0.000000 0.000425 0.000000 0.037668
#
#
# Mechanical properties :
#
#
# Convention : Reuss Voigt Hill
#
# Bulk Modulus (GPa) = 27.51972 60.66781 44.09377
# Shear Modulus (GPa) = 26.84264 43.46813 35.15539
#
# Velocity S-wave (km/s) = 3.19463 4.06531 3.65598
# Velocity P-wave (km/s) = 4.90619 6.71579 5.88101
#
# Compressibility (1/GPa) = 0.03633757
#
# Stress axis : x y z
#
# Youngs Moduli (GPa) = 23.91255 85.52076 268.69370
#
# Poissons Ratio (x) = 0.63610 0.73569
# Poissons Ratio (y) = 0.17786 0.07313
# Poissons Ratio (z) = 0.06547 0.02328
#
# Static dielectric constant tensor:
#      x y z
#    x 2.147650 0.000000 -0.038110 
#    y 0.000000 2.045590 0.000000 
#    z -0.038110 0.000000 2.210210 
# 
# From -- ./inp_files/16024.got.cif
#   From: 2010.05.17/outbox.cif.g08.bks.cpg/sg4_9_cif.got.tgz:16024.got - 2010.06.03 18:43:04.
