data_PCOD9114948
_publ_section_title
;
Structure prediction by ZEFSAII (Michael W. Deem and Ramdas Pophale) SiO2 
 PCOD9114948
Probable space group: P 21
;
_chemical_formula_sum "Si O2"
_cell_formula_units_Z 16
_cell_length_a 9.291247
_cell_length_b 10.739407
_cell_length_c 10.108949
_cell_angle_alpha 90.000000
_cell_angle_beta 136.350498
_cell_angle_gamma 90.000000
_cell_volume 696.247344
_symmetry_space_group_name_H-M "P 21"
_symmetry_group_IT_number 4
_symmetry_cell_setting 'monoclinic'
loop_
_space_group_symop_operation_xyz
x,y,z
-x,1/2+y,-z
loop_
_atom_site_type_symbol
_atom_site_label
_atom_site_fract_x
_atom_site_fract_y
_atom_site_fract_z
Si Si1 0.991019 0.718470 0.912646
Si Si2 0.633805 0.418756 0.853761
Si Si3 0.847880 0.070671 0.752608
Si Si4 0.157723 0.004674 0.748813
Si Si5 0.400249 0.202284 0.789292
Si Si6 0.453249 0.159614 0.359413
Si Si7 0.442182 0.803020 0.837662
Si Si8 0.726416 0.008591 0.939318
O O1 0.164024 0.827279 0.022078
O O2 0.995118 0.665335 0.067334
O O3 0.090994 0.602442 0.895778
O O4 0.750138 0.725838 0.716899
O O5 0.430484 0.331948 0.734766
O O6 0.611729 0.518451 0.723916
O O7 0.677135 0.492648 0.019128
O O8 0.645353 0.149300 0.584684
O O9 0.793091 0.975488 0.834439
O O10 0.942062 0.009914 0.684420
O O11 0.189580 0.134423 0.692930
O O12 0.233121 0.887692 0.711210
O O13 0.524816 0.096846 0.793195
O O14 0.531266 0.224333 0.011996
O O15 0.537360 0.226624 0.283040
O O16 0.645712 0.894572 0.969972
#
# Coordination Sequence:
#
# PCOD9114948 Si02
#       8
#     2   2   2   2   2   2   2   2
#     4   9  21  39  60  88 124 159 201 260 305 353
#     4  10  19  37  62  90 120 158 207 248 307 368
#     4  10  22  41  61  91 127 156 206 262 306 367
#     4  10  19  40  62  86 127 158 198 261 315 354
#     4   9  17  36  65  87 115 169 200 248 311 373
#     4  12  23  37  65  97 119 164 213 248 312 376
#     4  10  20  34  67  89 120 165 207 249 310 377
#     4   8  19  38  60  88 124 161 200 256 316 348
#
# _framework density 22.980339000000001
#
# number of rings (size 3 to 8) (size 9 to 14) (size 15 to 20)
#    0.750    1.500    2.500    0.000    3.500    1.000 
#    2.250    0.000   13.750    0.000    0.000    0.000 
#    0.000    0.000    0.000    0.000    0.000    0.000 
#
# Total GULP energy -89108.290781 kJ/mol
# GULP energy per Si atom -5569.268174 kJ/mol
# Density = 2.292803 g / cm^3
# Si number density = 22.980339 Si / 1000 Ang^3
#
#
#
# Elastic Constant Matrix: (Units=GPa)
#
#
# Indices 1 2 3 4 5 6 
#
# 1 143.6637 33.6984 6.9237 0.0000 14.1325 0.0000
# 2 33.6984 76.8499 -3.7020 0.0000 6.3032 0.0000
# 3 6.9237 -3.7020 33.4185 0.0000 14.6806 0.0000
# 4 0.0000 0.0000 0.0000 13.2683 0.0000 2.7596
# 5 14.1325 6.3032 14.6806 0.0000 17.3773 0.0000
# 6 0.0000 0.0000 0.0000 2.7596 0.0000 40.2922
#
#
#
# Elastic Compliance Matrix: (Units=1/GPa)
#
#
# Indices 1 2 3 4 5 6 
#
# 1 0.008258 -0.003086 0.000645 0.000000 -0.006141 0.000000
# 2 -0.003086 0.015300 0.005835 0.000000 -0.007970 0.000000
# 3 0.000645 0.005835 0.050243 0.000000 -0.045087 0.000000
# 4 0.000000 0.000000 0.000000 0.076457 0.000000 -0.005236
# 5 -0.006141 -0.007970 -0.045087 0.000000 0.103522 0.000000
# 6 0.000000 0.000000 0.000000 -0.005236 0.000000 0.025177
#
#
# Mechanical properties :
#
#
# Convention : Reuss Voigt Hill
#
# Bulk Modulus (GPa) = 12.40854 36.41914 24.41384
# Shear Modulus (GPa) = 16.72067 28.65504 22.68785
#
# Velocity S-wave (km/s) = 2.70035 3.53503 3.14550
# Velocity P-wave (km/s) = 3.89023 5.70476 4.88253
#
# Compressibility (1/GPa) = 0.08058968
#
# Stress axis : x y z
#
# Youngs Moduli (GPa) = 121.09982 65.35759 19.90334
#
# Poissons Ratio (x) = 0.20170 -0.01284
# Poissons Ratio (y) = 0.37373 -0.11614
# Poissons Ratio (z) = -0.07813 -0.38139
#
# Static dielectric constant tensor:
#      x y z
#    x 1.898820 0.000000 0.028730 
#    y 0.000000 1.941310 0.000000 
#    z 0.028730 0.000000 1.811940 
# 
# From -- ./inp_files/11371.got.cif
#   From: 2010.05.17/outbox.cif.g08.bks.cpg/sg4_6_cif.got.tgz:11371.got - 2010.06.03 18:43:04.
