data_PCOD9114761
_publ_section_title
;
Structure prediction by ZEFSAII (Michael W. Deem and Ramdas Pophale) SiO2 
 PCOD9114761
Probable space group: P 21
;
_chemical_formula_sum "Si O2"
_cell_formula_units_Z 16
_cell_length_a 24.124734
_cell_length_b 5.327819
_cell_length_c 9.515087
_cell_angle_alpha 90.000000
_cell_angle_beta 151.693853
_cell_angle_gamma 90.000000
_cell_volume 579.923137
_symmetry_space_group_name_H-M "P 21"
_symmetry_group_IT_number 4
_symmetry_cell_setting 'monoclinic'
loop_
_space_group_symop_operation_xyz
x,y,z
-x,1/2+y,-z
loop_
_atom_site_type_symbol
_atom_site_label
_atom_site_fract_x
_atom_site_fract_y
_atom_site_fract_z
Si Si1 0.264908 0.878170 0.234042
Si Si2 0.173968 0.229347 0.634004
Si Si3 0.527766 0.433191 0.483777
Si Si4 0.596913 0.704045 0.034959
Si Si5 0.060194 0.214712 0.944167
Si Si6 0.875480 0.229001 0.312141
Si Si7 0.620714 0.890590 0.403674
Si Si8 0.076253 0.719565 0.080427
O O1 0.344472 0.835963 0.270025
O O2 0.321465 0.668594 0.461213
O O3 0.301336 0.171153 0.346031
O O4 0.143753 0.765933 0.897002
O O5 0.276853 0.176299 0.753927
O O6 0.182314 0.482306 0.745823
O O7 0.051087 0.237182 0.276767
O O8 0.163863 0.991195 0.709971
O O9 0.528591 0.706843 0.552612
O O10 0.460049 0.424306 0.185483
O O11 0.603920 0.787457 0.210289
O O12 0.509177 0.466110 0.827854
O O13 0.008812 0.215312 0.673615
O O14 0.126946 0.459338 0.143639
O O15 0.134663 0.968113 0.148750
O O16 0.951483 0.221402 0.815917
#
# Coordination Sequence:
#
# PCOD9114761 Si02
#       8
#     2   2   2   2   2   2   2   2
#     4  11  22  37  51  72  98 128 172 210 245 299
#     4  10  20  31  54  79 106 133 166 215 261 307
#     4  11  21  32  50  72  95 120 148 198 256 299
#     4  11  23  40  54  72  97 132 174 212 255 299
#     4   8  14  25  45  69 107 137 158 190 242 314
#     4  10  19  33  52  81 108 135 163 206 263 310
#     4  11  25  38  54  68  93 135 177 215 245 289
#     4   8  14  26  42  73 104 134 162 192 245 307
#
# _framework density 27.589863000000001
#
# number of rings (size 3 to 8) (size 9 to 14) (size 15 to 20)
#    0.000    2.000    0.000    5.250    0.000    5.000 
#    0.000    0.000    0.000    0.000    0.000    1.750 
#    0.000    0.000    0.000    0.125    0.000    0.000 
#
# Total GULP energy -89507.444817 kJ/mol
# GULP energy per Si atom -5594.215301 kJ/mol
# Density = 2.752707 g / cm^3
# Si number density = 27.589863 Si / 1000 Ang^3
#
#
#
# Elastic Constant Matrix: (Units=GPa)
#
#
# Indices 1 2 3 4 5 6 
#
# 1 72.6805 46.9576 13.6486 0.0000 10.5839 0.0000
# 2 46.9576 252.5896 42.1188 0.0000 -7.4448 0.0000
# 3 13.6486 42.1188 124.3652 0.0000 -24.3885 0.0000
# 4 0.0000 0.0000 0.0000 45.6962 0.0000 -3.6189
# 5 10.5839 -7.4448 -24.3885 0.0000 45.9885 0.0000
# 6 0.0000 0.0000 0.0000 -3.6189 0.0000 53.4709
#
#
#
# Elastic Compliance Matrix: (Units=1/GPa)
#
#
# Indices 1 2 3 4 5 6 
#
# 1 0.016810 -0.002968 -0.001889 0.000000 -0.005351 0.000000
# 2 -0.002968 0.004720 -0.001104 0.000000 0.000862 0.000000
# 3 -0.001889 -0.001104 0.009679 0.000000 0.005389 0.000000
# 4 0.000000 0.000000 0.000000 0.022002 0.000000 0.001489
# 5 -0.005351 0.000862 0.005389 0.000000 0.025973 0.000000
# 6 0.000000 0.000000 0.000000 0.001489 0.000000 0.018803
#
#
# Mechanical properties :
#
#
# Convention : Reuss Voigt Hill
#
# Bulk Modulus (GPa) = 51.84670 72.78726 62.31698
# Shear Modulus (GPa) = 42.97834 52.15847 47.56841
#
# Velocity S-wave (km/s) = 3.95113 4.35270 4.15676
# Velocity P-wave (km/s) = 6.29666 7.19030 6.75827
#
# Compressibility (1/GPa) = 0.01928763
#
# Stress axis : x y z
#
# Youngs Moduli (GPa) = 59.48739 211.85570 103.31863
#
# Poissons Ratio (x) = 0.62875 0.19518
# Poissons Ratio (y) = 0.17655 0.11405
# Poissons Ratio (z) = 0.11238 0.23387
#
# Static dielectric constant tensor:
#      x y z
#    x 3.051540 0.000000 -0.301510 
#    y 0.000000 2.211620 0.000000 
#    z -0.301510 0.000000 2.431020 
# 
# From -- ./inp_files/10092.got.cif
#   From: 2010.05.17/outbox.cif.g08.bks.cpg/sg4_6_cif.got.tgz:10092.got - 2010.06.03 18:43:04.
