data_PCOD9114517
_publ_section_title
;
Structure prediction by ZEFSAII (Michael W. Deem and Ramdas Pophale) SiO2 
 PCOD9114517
Probable space group: P 21
;
_chemical_formula_sum "Si O2"
_cell_formula_units_Z 16
_cell_length_a 10.788735
_cell_length_b 7.921684
_cell_length_c 9.721579
_cell_angle_alpha 90.000000
_cell_angle_beta 42.896723
_cell_angle_gamma 90.000000
_cell_volume 565.545021
_symmetry_space_group_name_H-M "P 21"
_symmetry_group_IT_number 4
_symmetry_cell_setting 'monoclinic'
loop_
_space_group_symop_operation_xyz
x,y,z
-x,1/2+y,-z
loop_
_atom_site_type_symbol
_atom_site_label
_atom_site_fract_x
_atom_site_fract_y
_atom_site_fract_z
Si Si1 0.746506 0.682120 0.920089
Si Si2 0.519460 0.457294 0.955641
Si Si3 0.969281 0.759878 0.310589
Si Si4 0.273947 0.765435 0.654476
Si Si5 0.327784 0.635228 0.872693
Si Si6 0.107011 0.901726 0.549220
Si Si7 0.144444 0.288656 0.901803
Si Si8 0.747436 0.061653 0.590946
O O1 0.563510 0.787715 0.040854
O O2 0.915940 0.806771 0.747024
O O3 0.713595 0.518792 0.854164
O O4 0.765984 0.651410 0.067735
O O5 0.394944 0.477472 0.192982
O O6 0.473103 0.583499 0.867688
O O7 0.196174 0.746224 0.394858
O O8 0.851648 0.764174 0.263620
O O9 0.931888 0.596547 0.434551
O O10 0.170092 0.727941 0.086885
O O11 0.395636 0.746511 0.689249
O O12 0.306850 0.611692 0.521109
O O13 0.253586 0.911211 0.558966
O O14 0.069452 0.772579 0.884721
O O15 0.234817 0.466324 0.878346
O O16 0.911322 0.928796 0.437111
#
# Coordination Sequence:
#
# PCOD9114517 Si02
#       8
#     2   2   2   2   2   2   2   2
#     4  10  22  45  58  91 136 181 222 256 319 432
#     4  11  24  43  63  89 138 182 220 258 332 406
#     4  11  18  35  69 101 127 162 217 288 340 379
#     4   8  16  33  59  93 126 148 208 279 333 359
#     4  10  17  34  60  97 125 169 215 267 322 405
#     4   9  19  41  63 100 132 156 221 288 328 382
#     4   9  16  33  64  93 124 162 218 275 319 387
#     4  10  22  38  66 104 126 166 217 287 339 380
#
# _framework density 28.291295000000002
#
# number of rings (size 3 to 8) (size 9 to 14) (size 15 to 20)
#    0.750    1.500    5.000    0.000    0.000    2.000 
#    4.500    0.000    5.500    0.000    0.000    0.000 
#    0.000    0.000    0.000    0.000    0.000    0.000 
#
# Total GULP energy -89318.392303 kJ/mol
# GULP energy per Si atom -5582.399519 kJ/mol
# Density = 2.822690 g / cm^3
# Si number density = 28.291295 Si / 1000 Ang^3
#
#
#
# Elastic Constant Matrix: (Units=GPa)
#
#
# Indices 1 2 3 4 5 6 
#
# 1 104.1335 33.4795 49.3409 0.0000 28.1794 0.0000
# 2 33.4795 100.1881 20.4652 0.0000 20.1014 0.0000
# 3 49.3409 20.4652 113.9356 0.0000 -3.3787 0.0000
# 4 0.0000 0.0000 0.0000 31.5935 0.0000 9.7832
# 5 28.1794 20.1014 -3.3787 0.0000 45.2901 0.0000
# 6 0.0000 0.0000 0.0000 9.7832 0.0000 37.8045
#
#
#
# Elastic Compliance Matrix: (Units=1/GPa)
#
#
# Indices 1 2 3 4 5 6 
#
# 1 0.016149 -0.002047 -0.006912 0.000000 -0.009655 0.000000
# 2 -0.002047 0.011751 -0.001344 0.000000 -0.004042 0.000000
# 3 -0.006912 -0.001344 0.012184 0.000000 0.005806 0.000000
# 4 0.000000 0.000000 0.000000 0.034409 0.000000 -0.008905
# 5 -0.009655 -0.004042 0.005806 0.000000 0.030314 0.000000
# 6 0.000000 0.000000 0.000000 -0.008905 0.000000 0.028756
#
#
# Mechanical properties :
#
#
# Convention : Reuss Voigt Hill
#
# Bulk Modulus (GPa) = 51.34280 58.31427 54.82853
# Shear Modulus (GPa) = 31.12109 37.26907 34.19508
#
# Velocity S-wave (km/s) = 3.32026 3.63345 3.48038
# Velocity P-wave (km/s) = 5.73464 6.18542 5.96429
#
# Compressibility (1/GPa) = 0.01947693
#
# Stress axis : x y z
#
# Youngs Moduli (GPa) = 61.92295 85.10014 82.07622
#
# Poissons Ratio (x) = 0.17424 0.56732
# Poissons Ratio (y) = 0.12678 0.11030
# Poissons Ratio (z) = 0.42802 0.11437
#
# Static dielectric constant tensor:
#      x y z
#    x 2.281590 0.000000 -0.036320 
#    y 0.000000 2.241520 0.000000 
#    z -0.036320 0.000000 2.276970 
# 
# From -- ./inp_files/6053.got.cif
#   From: 2010.05.17/outbox.cif.g08.bks.cpg/sg4_4_cif.got.tgz:6053.got - 2010.06.03 18:43:04.
