data_PCOD9114536
_publ_section_title
;
Structure prediction by ZEFSAII (Michael W. Deem and Ramdas Pophale) SiO2 
 PCOD9114536
Probable space group: P 21
;
_chemical_formula_sum "Si O2"
_cell_formula_units_Z 16
_cell_length_a 11.067929
_cell_length_b 9.313967
_cell_length_c 18.644810
_cell_angle_alpha 90.000000
_cell_angle_beta 160.814175
_cell_angle_gamma 90.000000
_cell_volume 631.640821
_symmetry_space_group_name_H-M "P 21"
_symmetry_group_IT_number 4
_symmetry_cell_setting 'monoclinic'
loop_
_space_group_symop_operation_xyz
x,y,z
-x,1/2+y,-z
loop_
_atom_site_type_symbol
_atom_site_label
_atom_site_fract_x
_atom_site_fract_y
_atom_site_fract_z
Si Si1 0.718344 0.783820 0.010550
Si Si2 0.457833 0.827958 0.490968
Si Si3 0.093714 0.531576 0.153469
Si Si4 0.106799 0.507748 0.639792
Si Si5 0.203712 0.253188 0.789021
Si Si6 0.293038 0.252177 0.511438
Si Si7 0.363293 0.340663 0.196414
Si Si8 0.233338 0.557684 0.545685
O O1 0.105417 0.869384 0.244246
O O2 0.778433 0.617633 0.018647
O O3 0.575161 0.767331 0.012311
O O4 0.602272 0.852386 0.870061
O O5 0.215161 0.739803 0.412198
O O6 0.718568 0.744329 0.581906
O O7 0.676916 0.947670 0.656605
O O8 0.330578 0.668055 0.258048
O O9 0.035438 0.417762 0.056781
O O10 0.309523 0.397055 0.805999
O O11 0.018435 0.666150 0.620025
O O12 0.708055 0.429246 0.419561
O O13 0.193058 0.508193 0.605012
O O14 0.149391 0.129501 0.699083
O O15 0.298839 0.417283 0.535637
O O16 0.444803 0.177654 0.266144
#
# Coordination Sequence:
#
# PCOD9114536 Si02
#       8
#     2   2   2   2   2   2   2   2
#     4   9  19  32  55  81 109 145 174 223 287 321
#     4   9  17  32  55  76 106 141 174 218 275 330
#     4  10  18  35  53  79 113 144 176 222 275 345
#     4  10  20  37  55  78 109 149 192 229 259 326
#     4   9  18  36  54  77 109 141 183 225 277 321
#     4  10  18  28  55  81 101 138 188 222 265 322
#     4  10  20  37  53  80 118 142 180 235 273 318
#     4  11  20  33  58  80 105 150 193 220 267 327
#
# _framework density 25.330850999999999
#
# number of rings (size 3 to 8) (size 9 to 14) (size 15 to 20)
#    0.750    1.500    3.750    2.250    0.000    2.000 
#    0.000    1.250    0.000    6.000    0.000    0.000 
#    0.000    0.000    0.000    0.000    0.000    0.000 
#
# Total GULP energy -89068.394976 kJ/mol
# GULP energy per Si atom -5566.774686 kJ/mol
# Density = 2.527320 g / cm^3
# Si number density = 25.330851 Si / 1000 Ang^3
#
#
#
# Elastic Constant Matrix: (Units=GPa)
#
#
# Indices 1 2 3 4 5 6 
#
# 1 130.4401 43.1937 16.0117 0.0000 -33.5850 0.0000
# 2 43.1937 125.6956 13.3036 0.0000 -18.8082 0.0000
# 3 16.0117 13.3036 70.8858 0.0000 -42.2825 0.0000
# 4 0.0000 0.0000 0.0000 30.6605 0.0000 -7.3883
# 5 -33.5850 -18.8082 -42.2825 0.0000 51.1891 0.0000
# 6 0.0000 0.0000 0.0000 -7.3883 0.0000 58.4343
#
#
#
# Elastic Compliance Matrix: (Units=1/GPa)
#
#
# Indices 1 2 3 4 5 6 
#
# 1 0.010317 -0.002620 0.003203 0.000000 0.008452 0.000000
# 2 -0.002620 0.009094 -0.000290 0.000000 0.001383 0.000000
# 3 0.003203 -0.000290 0.028835 0.000000 0.025813 0.000000
# 4 0.000000 0.000000 0.000000 0.033640 0.000000 0.004253
# 5 0.008452 0.001383 0.025813 0.000000 0.046910 0.000000
# 6 0.000000 0.000000 0.000000 0.004253 0.000000 0.017651
#
#
# Mechanical properties :
#
#
# Convention : Reuss Voigt Hill
#
# Bulk Modulus (GPa) = 20.47863 52.44885 36.46374
# Shear Modulus (GPa) = 30.83799 45.02428 37.93113
#
# Velocity S-wave (km/s) = 3.49292 4.22055 3.87386
# Velocity P-wave (km/s) = 4.93653 6.67092 5.86816
#
# Compressibility (1/GPa) = 0.04883139
#
# Stress axis : x y z
#
# Youngs Moduli (GPa) = 96.92985 109.96834 34.67996
#
# Poissons Ratio (x) = 0.28807 -0.11107
# Poissons Ratio (y) = 0.25391 0.01006
# Poissons Ratio (z) = -0.31042 0.03189
#
# Static dielectric constant tensor:
#      x y z
#    x 2.071490 0.000000 0.151410 
#    y 0.000000 2.044380 0.000000 
#    z 0.151410 0.000000 2.186100 
# 
# From -- ./inp_files/15134.got.cif
#   From: 2010.05.17/outbox.cif.g08.bks.cpg/sg4_8_cif.got.tgz:15134.got - 2010.06.03 18:43:04.
