data_PCOD9114026
_publ_section_title
;
Structure prediction by ZEFSAII (Michael W. Deem and Ramdas Pophale) SiO2 
 PCOD9114026
Probable space group: P 2
;
_chemical_formula_sum "Si O2"
_cell_formula_units_Z 10
_cell_length_a 5.345481
_cell_length_b 4.877150
_cell_length_c 15.815196
_cell_angle_alpha 90.000000
_cell_angle_beta 104.124416
_cell_angle_gamma 90.000000
_cell_volume 399.848418
_symmetry_space_group_name_H-M "P 2"
_symmetry_group_IT_number 3
_symmetry_cell_setting 'monoclinic'
loop_
_space_group_symop_operation_xyz
x,y,z
-x,y,-z
loop_
_atom_site_type_symbol
_atom_site_label
_atom_site_fract_x
_atom_site_fract_y
_atom_site_fract_z
Si Si1 0.061970 0.661930 0.097198
Si Si2 0.438708 0.947780 0.237556
Si Si3 0.764860 0.729527 0.522042
Si Si4 0.477281 0.460208 0.356446
Si Si5 0.432258 0.294922 0.902444
O O1 0.313901 0.470510 0.102176
O O2 0.817964 0.485031 0.106668
O O3 0.161960 0.876996 0.173942
O O4 0.000000 0.787401 0.000000
O O5 0.428389 0.171199 0.310765
O O6 0.598311 0.071940 0.173046
O O7 0.544767 0.671482 0.287546
O O8 0.500000 0.901968 0.500000
O O9 0.695011 0.496065 0.446189
O O10 0.770256 0.588055 0.613732
O O11 0.000000 0.881963 0.500000
O O12 0.500000 0.170794 0.000000
#
# Coordination Sequence:
#
# PCOD9114026 Si02
#       5
#     2   2   2   2   2
#     4  10  24  46  70 100 144 198 247 299 361 424
#     4  12  22  49  68 112 140 192 240 309 342 440
#     4   8  20  46  70 100 142 184 222 292 360 444
#     4   9  24  42  74 104 142 182 238 290 368 423
#     4  10  24  46  70 100 144 198 247 299 361 424
#
# _framework density 25.009474999999998
#
# number of rings (size 3 to 8) (size 9 to 14) (size 15 to 20)
#    1.200    0.800    2.000    0.000    0.000   11.200 
#    7.200    2.000    0.000    0.000    0.000    0.000 
#    0.000    0.000    0.000    0.000    0.000    0.000 
#
# Total GULP energy -55870.400121 kJ/mol
# GULP energy per Si atom -5587.040012 kJ/mol
# Density = 2.495255 g / cm^3
# Si number density = 25.009475 Si / 1000 Ang^3
#
#
#
# Elastic Constant Matrix: (Units=GPa)
#
#
# Indices 1 2 3 4 5 6 
#
# 1 164.8587 21.3167 6.6677 0.0000 -10.4180 0.0000
# 2 21.3167 91.3332 46.9979 0.0000 7.3776 0.0000
# 3 6.6677 46.9979 153.1318 0.0000 -7.6674 0.0000
# 4 0.0000 0.0000 0.0000 40.2778 0.0000 -1.2836
# 5 -10.4180 7.3776 -7.6674 0.0000 23.7402 0.0000
# 6 0.0000 0.0000 0.0000 -1.2836 0.0000 32.0549
#
#
#
# Elastic Compliance Matrix: (Units=1/GPa)
#
#
# Indices 1 2 3 4 5 6 
#
# 1 0.006551 -0.002110 0.000548 0.000000 0.003708 0.000000
# 2 -0.002110 0.014406 -0.004676 0.000000 -0.006913 0.000000
# 3 0.000548 -0.004676 0.008158 0.000000 0.004328 0.000000
# 4 0.000000 0.000000 0.000000 0.024859 0.000000 0.000995
# 5 0.003708 -0.006913 0.004328 0.000000 0.047296 0.000000
# 6 0.000000 0.000000 0.000000 0.000995 0.000000 0.031236
#
#
# Mechanical properties :
#
#
# Convention : Reuss Voigt Hill
#
# Bulk Modulus (GPa) = 60.09968 62.14313 61.12141
# Shear Modulus (GPa) = 33.21631 41.50402 37.36016
#
# Velocity S-wave (km/s) = 3.64833 4.07815 3.86922
# Velocity P-wave (km/s) = 6.46761 6.86126 6.66734
#
# Compressibility (1/GPa) = 0.01663902
#
# Stress axis : x y z
#
# Youngs Moduli (GPa) = 152.65267 69.41633 122.57664
#
# Poissons Ratio (x) = 0.14650 -0.06719
# Poissons Ratio (y) = 0.32217 0.57311
# Poissons Ratio (z) = -0.08367 0.32456
#
# Static dielectric constant tensor:
#      x y z
#    x 2.093610 0.000000 0.015360 
#    y 0.000000 1.969250 0.000000 
#    z 0.015360 0.000000 1.990020 
# 
# From -- ./inp_files/12812.got.cif
#   From: 2010.05.17/outbox.cif.g08.bks.cpg/sg3_7_cif.got.tgz:12812.got - 2010.06.03 18:33:08.
