data_PCOD9114228
_publ_section_title
;
Structure prediction by ZEFSAII (Michael W. Deem and Ramdas Pophale) SiO2 
 PCOD9114228
Probable space group: P 2
;
_chemical_formula_sum "Si O2"
_cell_formula_units_Z 12
_cell_length_a 9.623534
_cell_length_b 5.098021
_cell_length_c 17.000515
_cell_angle_alpha 90.000000
_cell_angle_beta 33.824550
_cell_angle_gamma 90.000000
_cell_volume 464.281910
_symmetry_space_group_name_H-M "P 2"
_symmetry_group_IT_number 3
_symmetry_cell_setting 'monoclinic'
loop_
_space_group_symop_operation_xyz
x,y,z
-x,y,-z
loop_
_atom_site_type_symbol
_atom_site_label
_atom_site_fract_x
_atom_site_fract_y
_atom_site_fract_z
Si Si1 0.876832 0.656280 0.787205
Si Si2 0.288634 0.813850 0.798587
Si Si3 0.504238 0.490198 0.165845
Si Si4 0.131324 0.140654 0.097181
Si Si5 0.369016 0.511076 0.485113
Si Si6 0.244513 0.169363 0.409233
O O1 0.651164 0.619974 0.831768
O O2 0.916135 0.399145 0.825326
O O3 0.143754 0.698639 0.618247
O O4 0.815433 0.904177 0.869301
O O5 0.282563 0.639684 0.881968
O O6 0.410424 0.635298 0.671877
O O7 0.514325 0.001628 0.712800
O O8 0.078224 0.007830 0.861801
O O9 0.290660 0.408180 0.327975
O O10 0.643021 0.242115 0.062408
O O11 0.500000 0.399234 0.500000
O O12 0.235682 0.284994 0.499444
O O13 0.000000 0.018414 0.500000
#
# Coordination Sequence:
#
# PCOD9114228 Si02
#       6
#     2   2   2   2   2   2
#     4  12  28  52  86 123 169 219 285 354 422 512
#     4  11  28  49  81 122 168 223 278 355 426 503
#     4  11  29  53  82 119 172 225 287 346 423 516
#     4  12  30  56  82 123 169 227 284 344 428 510
#     4  11  23  46  79 123 159 212 270 353 425 500
#     4  11  25  46  79 119 165 216 276 346 430 497
#
# _framework density 25.846364000000001
#
# number of rings (size 3 to 8) (size 9 to 14) (size 15 to 20)
#    0.000    0.667    3.333    1.500   11.667    2.667 
#    0.000    0.000    0.000    0.000    0.000    0.000 
#    0.000    0.000    0.000    0.000    0.000    0.000 
#
# Total GULP energy -67160.199095 kJ/mol
# GULP energy per Si atom -5596.683258 kJ/mol
# Density = 2.578754 g / cm^3
# Si number density = 25.846364 Si / 1000 Ang^3
#
#
#
# Elastic Constant Matrix: (Units=GPa)
#
#
# Indices 1 2 3 4 5 6 
#
# 1 201.4301 83.8458 72.8515 0.0000 2.6024 0.0000
# 2 83.8458 121.9417 27.8069 0.0000 19.3978 0.0000
# 3 72.8515 27.8069 76.6789 0.0000 9.3430 0.0000
# 4 0.0000 0.0000 0.0000 24.5383 0.0000 5.2175
# 5 2.6024 19.3978 9.3430 0.0000 41.0712 0.0000
# 6 0.0000 0.0000 0.0000 5.2175 0.0000 46.4234
#
#
#
# Elastic Compliance Matrix: (Units=1/GPa)
#
#
# Indices 1 2 3 4 5 6 
#
# 1 0.010293 -0.005852 -0.008140 0.000000 0.003963 0.000000
# 2 -0.005852 0.012811 0.001652 0.000000 -0.006055 0.000000
# 3 -0.008140 0.001652 0.020785 0.000000 -0.004992 0.000000
# 4 0.000000 0.000000 0.000000 0.041750 0.000000 -0.004692
# 5 0.003963 -0.006055 -0.004992 0.000000 0.028093 0.000000
# 6 0.000000 0.000000 0.000000 -0.004692 0.000000 0.022068
#
#
# Mechanical properties :
#
#
# Convention : Reuss Voigt Hill
#
# Bulk Modulus (GPa) = 52.06106 85.45102 68.75604
# Shear Modulus (GPa) = 29.96112 36.77633 33.36872
#
# Velocity S-wave (km/s) = 3.40840 3.77620 3.59700
# Velocity P-wave (km/s) = 5.97292 7.22121 6.62652
#
# Compressibility (1/GPa) = 0.01920821
#
# Stress axis : x y z
#
# Youngs Moduli (GPa) = 97.15185 78.05897 48.11245
#
# Poissons Ratio (x) = 0.45678 0.39165
# Poissons Ratio (y) = 0.56850 -0.07947
# Poissons Ratio (z) = 0.79084 -0.12893
#
# Static dielectric constant tensor:
#      x y z
#    x 2.111600 0.000000 0.057830 
#    y 0.000000 2.087160 0.000000 
#    z 0.057830 0.000000 2.114610 
# 
# From -- ./inp_files/13292.got.cif
#   From: 2010.05.17/outbox.cif.g08.bks.cpg/sg3_7_cif.got.tgz:13292.got - 2010.06.03 18:33:08.
