data_PCOD9114418
_publ_section_title
;
Structure prediction by ZEFSAII (Michael W. Deem and Ramdas Pophale) SiO2 
 PCOD9114418
Probable space group: P 2
;
_chemical_formula_sum "Si O2"
_cell_formula_units_Z 13
_cell_length_a 15.000000
_cell_length_b 9.000000
_cell_length_c 15.000000
_cell_angle_alpha 90.000000
_cell_angle_beta 20.000000
_cell_angle_gamma 90.000000
_cell_volume 692.590790
_symmetry_space_group_name_H-M "P 2"
_symmetry_group_IT_number 3
_symmetry_cell_setting 'monoclinic'
loop_
_space_group_symop_operation_xyz
x,y,z
-x,y,-z
loop_
_atom_site_type_symbol
_atom_site_label
_atom_site_fract_x
_atom_site_fract_y
_atom_site_fract_z
Si Si1 0.362933 0.303790 0.784943
Si Si2 0.500000 0.537320 0.500000
Si Si3 0.916257 0.009316 0.478085
Si Si4 0.584892 0.807873 0.015866
Si Si5 0.121093 0.102528 0.690595
Si Si6 0.402680 0.609078 0.831403
Si Si7 0.145203 0.744384 0.712680
O O1 0.375100 0.420337 0.689137
O O2 0.608940 0.191926 0.546475
O O3 0.395056 0.430761 0.830972
O O4 0.109909 0.199880 0.044236
O O5 0.281952 0.652956 0.666211
O O6 0.000000 0.070661 0.500000
O O7 0.135875 0.885508 0.254184
O O8 0.918203 0.098285 0.381256
O O9 0.631866 0.931871 0.752883
O O10 0.500000 0.752932 0.000000
O O11 0.602064 0.671919 0.065753
O O12 0.137054 0.927791 0.711581
O O13 0.663865 0.680540 0.543637
O O14 0.147675 0.682380 0.023851
#
# Coordination Sequence:
#
# PCOD9114418 Si02
#       7
#     2   1   2   2   2   2   2
#     4  11  26  40  67  86 140 158 211 259 349 369
#     4  10  26  50  60  96 116 184 208 280 320 390
#     4  10  20  35  62  96 132 164 212 263 306 366
#     4  10  18  33  61  93 125 164 217 265 296 364
#     4  12  22  42  64 102 120 176 203 272 310 394
#     4  11  20  41  60  95 120 176 200 266 308 397
#     4  11  23  40  72  83 126 155 234 255 314 374
#
# _framework density 18.770102000000001
#
# number of rings (size 3 to 8) (size 9 to 14) (size 15 to 20)
#    0.000    1.231    3.077    3.692    0.000    6.154 
#    0.000    4.615    0.000    0.000    0.000    0.000 
#    0.000    0.000    0.000    0.000    0.000    0.000 
#
# Total GULP energy -72426.528812 kJ/mol
# GULP energy per Si atom -5571.271447 kJ/mol
# Density = 1.872738 g / cm^3
# Si number density = 18.770102 Si / 1000 Ang^3
#
#
#
# Elastic Constant Matrix: (Units=GPa)
#
#
# Indices 1 2 3 4 5 6 
#
# 1 98.2375 28.7244 7.0102 0.0000 15.1598 0.0000
# 2 28.7244 141.7304 32.6082 0.0000 0.0619 0.0000
# 3 7.0102 32.6082 96.9490 0.0000 3.0602 0.0000
# 4 0.0000 0.0000 0.0000 42.3947 0.0000 5.5051
# 5 15.1598 0.0619 3.0602 0.0000 26.5277 0.0000
# 6 0.0000 0.0000 0.0000 5.5051 0.0000 43.8913
#
#
#
# Elastic Compliance Matrix: (Units=1/GPa)
#
#
# Indices 1 2 3 4 5 6 
#
# 1 0.011941 -0.002458 0.000179 0.000000 -0.006839 0.000000
# 2 -0.002458 0.008156 -0.002619 0.000000 0.001688 0.000000
# 3 0.000179 -0.002619 0.011226 0.000000 -0.001391 0.000000
# 4 0.000000 0.000000 0.000000 0.023978 0.000000 -0.003007
# 5 -0.006839 0.001688 -0.001391 0.000000 0.041761 0.000000
# 6 0.000000 0.000000 0.000000 -0.003007 0.000000 0.023161
#
#
# Mechanical properties :
#
#
# Convention : Reuss Voigt Hill
#
# Bulk Modulus (GPa) = 46.45214 52.62249 49.53731
# Shear Modulus (GPa) = 36.44470 40.46768 38.45619
#
# Velocity S-wave (km/s) = 4.41118 4.64827 4.53128
# Velocity P-wave (km/s) = 7.12365 7.54352 7.33659
#
# Compressibility (1/GPa) = 0.02152754
#
# Stress axis : x y z
#
# Youngs Moduli (GPa) = 83.74684 122.61518 89.07566
#
# Poissons Ratio (x) = 0.30142 -0.01597
# Poissons Ratio (y) = 0.20587 0.23325
# Poissons Ratio (z) = -0.01501 0.32108
#
# Static dielectric constant tensor:
#      x y z
#    x 1.745450 0.000000 0.029060 
#    y 0.000000 1.610180 0.000000 
#    z 0.029060 0.000000 1.663610 
# 
# From -- ./inp_files/13961.got.cif
#   From: 2010.05.17/outbox.ucp.g08.bks.cvg/sg3_7_cif.got.tgz:13961.got - 2010.06.11 12:50:29.
