data_PCOD9114050
_publ_section_title
;
Structure prediction by ZEFSAII (Michael W. Deem and Ramdas Pophale) SiO2 
 PCOD9114050
Probable space group: P 2
;
_chemical_formula_sum "Si O2"
_cell_formula_units_Z 10
_cell_length_a 17.517250
_cell_length_b 5.292527
_cell_length_c 12.452877
_cell_angle_alpha 90.000000
_cell_angle_beta 159.176539
_cell_angle_gamma 90.000000
_cell_volume 410.417388
_symmetry_space_group_name_H-M "P 2"
_symmetry_group_IT_number 3
_symmetry_cell_setting 'monoclinic'
loop_
_space_group_symop_operation_xyz
x,y,z
-x,y,-z
loop_
_atom_site_type_symbol
_atom_site_label
_atom_site_fract_x
_atom_site_fract_y
_atom_site_fract_z
Si Si1 0.910645 0.986560 0.184116
Si Si2 0.851729 0.473949 0.452995
Si Si3 0.857457 0.952406 0.728671
Si Si4 0.478437 0.578114 0.799691
Si Si5 0.521162 0.253070 0.404078
O O1 0.986059 0.705379 0.312322
O O2 0.991881 0.031936 0.170008
O O3 0.028501 0.208248 0.406991
O O4 0.658246 0.037096 0.849747
O O5 0.694297 0.437413 0.349513
O O6 0.695542 0.572296 0.153483
O O7 0.653908 0.829972 0.400365
O O8 0.752675 0.155482 0.670280
O O9 0.000000 0.785303 0.000000
O O10 0.525586 0.460299 0.746767
O O11 0.500000 0.335072 0.500000
#
# Coordination Sequence:
#
# PCOD9114050 Si02
#       5
#     2   2   2   2   2
#     4  11  25  46  75 107 146 192 243 300 369 427
#     4  10  24  48  76 107 146 192 241 303 366 434
#     4  11  24  47  71 102 149 196 244 302 363 431
#     4  10  25  44  76 103 145 194 245 300 365 436
#     4  12  26  44  72 107 147 191 249 299 365 440
#
# _framework density 24.365438000000001
#
# number of rings (size 3 to 8) (size 9 to 14) (size 15 to 20)
#    0.000    1.200    4.000    0.000    5.600    7.200 
#    0.000    0.000    0.000    0.000    0.000    0.000 
#    0.000    0.000    0.000    0.000    0.000    0.000 
#
# Total GULP energy -55862.996028 kJ/mol
# GULP energy per Si atom -5586.299603 kJ/mol
# Density = 2.430998 g / cm^3
# Si number density = 24.365438 Si / 1000 Ang^3
#
#
#
# Elastic Constant Matrix: (Units=GPa)
#
#
# Indices 1 2 3 4 5 6 
#
# 1 121.8724 19.3788 16.4108 0.0000 14.3701 0.0000
# 2 19.3788 59.0408 16.5910 0.0000 4.0661 0.0000
# 3 16.4108 16.5910 76.2399 0.0000 0.0668 0.0000
# 4 0.0000 0.0000 0.0000 34.8198 0.0000 23.4118
# 5 14.3701 4.0661 0.0668 0.0000 46.7809 0.0000
# 6 0.0000 0.0000 0.0000 23.4118 0.0000 45.6956
#
#
#
# Elastic Compliance Matrix: (Units=1/GPa)
#
#
# Indices 1 2 3 4 5 6 
#
# 1 0.009084 -0.002402 -0.001430 0.000000 -0.002580 0.000000
# 2 -0.002402 0.018791 -0.003571 0.000000 -0.000890 0.000000
# 3 -0.001430 -0.003571 0.014201 0.000000 0.000730 0.000000
# 4 0.000000 0.000000 0.000000 0.043812 0.000000 -0.022447
# 5 -0.002580 -0.000890 0.000730 0.000000 0.022245 0.000000
# 6 0.000000 0.000000 0.000000 -0.022447 0.000000 0.033384
#
#
# Mechanical properties :
#
#
# Convention : Reuss Voigt Hill
#
# Bulk Modulus (GPa) = 36.67276 40.21272 38.44274
# Shear Modulus (GPa) = 30.22724 39.11076 34.66900
#
# Velocity S-wave (km/s) = 3.52601 4.01081 3.77620
# Velocity P-wave (km/s) = 5.62679 6.16349 5.90124
#
# Compressibility (1/GPa) = 0.02726819
#
# Stress axis : x y z
#
# Youngs Moduli (GPa) = 110.08346 53.21774 70.41798
#
# Poissons Ratio (x) = 0.12783 0.10072
# Poissons Ratio (y) = 0.26442 0.25149
# Poissons Ratio (z) = 0.15746 0.19006
#
# Static dielectric constant tensor:
#      x y z
#    x 1.925700 0.000000 -0.027540 
#    y 0.000000 1.964430 0.000000 
#    z -0.027540 0.000000 1.922480 
# 
# From -- ./inp_files/9212.got.cif
#   From: 2010.05.17/outbox.cif.g08.bks.cpg/sg3_5_cif.got.tgz:9212.got - 2010.06.03 18:33:08.
