data_PCOD9114221
_publ_section_title
;
Structure prediction by ZEFSAII (Michael W. Deem and Ramdas Pophale) SiO2 
 PCOD9114221
Probable space group: P 2
;
_chemical_formula_sum "Si O2"
_cell_formula_units_Z 13
_cell_length_a 11.567217
_cell_length_b 8.636858
_cell_length_c 8.269713
_cell_angle_alpha 90.000000
_cell_angle_beta 137.561327
_cell_angle_gamma 90.000000
_cell_volume 557.507360
_symmetry_space_group_name_H-M "P 2"
_symmetry_group_IT_number 3
_symmetry_cell_setting 'monoclinic'
loop_
_space_group_symop_operation_xyz
x,y,z
-x,y,-z
loop_
_atom_site_type_symbol
_atom_site_label
_atom_site_fract_x
_atom_site_fract_y
_atom_site_fract_z
Si Si1 0.750078 0.128520 0.914469
Si Si2 0.594159 0.731209 0.429141
Si Si3 0.846546 0.830681 0.219130
Si Si4 0.500000 0.708868 0.000000
Si Si5 0.074808 0.271246 0.399975
Si Si6 0.051781 0.588554 0.230575
Si Si7 0.383039 0.094006 0.588397
O O1 0.567186 0.175208 0.804750
O O2 0.698651 0.120958 0.673747
O O3 0.914145 0.232841 0.117748
O O4 0.808336 0.964366 0.050426
O O5 0.500000 0.695455 0.500000
O O6 0.795713 0.707381 0.648120
O O7 0.570790 0.912415 0.363872
O O8 0.526995 0.634798 0.204937
O O9 0.907194 0.678116 0.183358
O O10 0.000000 0.871487 0.500000
O O11 0.677528 0.799525 0.150301
O O12 0.234548 0.155569 0.549968
O O13 0.000000 0.262879 0.500000
O O14 0.124471 0.445847 0.407421
O O15 0.000000 0.532854 0.000000
#
# Coordination Sequence:
#
# PCOD9114221 Si02
#       7
#     2   2   2   1   2   2   2
#     4  11  23  44  74 102 138 184 236 298 354 419
#     4  12  24  47  75 113 140 185 243 305 364 426
#     4  12  24  44  73 110 142 186 235 298 363 420
#     4  12  24  42  74 104 158 174 242 298 358 424
#     4  12  29  47  67 101 147 190 239 287 359 437
#     4  12  26  48  72 100 148 190 242 296 361 435
#     4  11  23  47  72 105 140 181 241 294 355 424
#
# _framework density 23.318076999999999
#
# number of rings (size 3 to 8) (size 9 to 14) (size 15 to 20)
#    0.000    0.308    4.615    5.077    2.154    0.615 
#    8.308    0.000    0.000    0.000    0.000    0.000 
#    0.000    0.000    0.000    0.000    0.000    0.000 
#
# Total GULP energy -72693.524509 kJ/mol
# GULP energy per Si atom -5591.809578 kJ/mol
# Density = 2.326500 g / cm^3
# Si number density = 23.318077 Si / 1000 Ang^3
#
#
#
# Elastic Constant Matrix: (Units=GPa)
#
#
# Indices 1 2 3 4 5 6 
#
# 1 151.0092 23.6278 36.0447 0.0000 2.6933 0.0000
# 2 23.6278 48.9197 11.0488 0.0000 3.9486 0.0000
# 3 36.0447 11.0488 92.2675 0.0000 14.0503 0.0000
# 4 0.0000 0.0000 0.0000 6.5430 0.0000 -3.3488
# 5 2.6933 3.9486 14.0503 0.0000 50.9399 0.0000
# 6 0.0000 0.0000 0.0000 -3.3488 0.0000 19.0434
#
#
#
# Elastic Compliance Matrix: (Units=1/GPa)
#
#
# Indices 1 2 3 4 5 6 
#
# 1 0.007763 -0.003178 -0.002742 0.000000 0.000592 0.000000
# 2 -0.003178 0.022357 -0.001250 0.000000 -0.001220 0.000000
# 3 -0.002742 -0.001250 0.012549 0.000000 -0.003219 0.000000
# 4 0.000000 0.000000 0.000000 0.167952 0.000000 0.029534
# 5 0.000592 -0.001220 -0.003219 0.000000 0.020582 0.000000
# 6 0.000000 0.000000 0.000000 0.029534 0.000000 0.057705
#
#
# Mechanical properties :
#
#
# Convention : Reuss Voigt Hill
#
# Bulk Modulus (GPa) = 35.29910 48.18212 41.74061
# Shear Modulus (GPa) = 15.99010 30.07026 23.03018
#
# Velocity S-wave (km/s) = 2.62150 3.59495 3.14610
# Velocity P-wave (km/s) = 4.93295 6.15950 5.58003
#
# Compressibility (1/GPa) = 0.02832934
#
# Stress axis : x y z
#
# Youngs Moduli (GPa) = 128.80946 44.72788 79.68552
#
# Poissons Ratio (x) = 0.14215 0.21853
# Poissons Ratio (y) = 0.40937 0.09960
# Poissons Ratio (z) = 0.35325 0.05591
#
# Static dielectric constant tensor:
#      x y z
#    x 1.891410 0.000000 -0.020630 
#    y 0.000000 1.869230 0.000000 
#    z -0.020630 0.000000 1.914360 
# 
# From -- ./inp_files/7581.got.cif
#   From: 2010.05.17/outbox.cif.g08.bks.cpg/sg3_4_cif.got.tgz:7581.got - 2010.06.03 18:33:08.
