data_PCOD9114454
_publ_section_title
;
Structure prediction by ZEFSAII (Michael W. Deem and Ramdas Pophale) SiO2 
 PCOD9114454
Probable space group: P 21
;
_chemical_formula_sum "Si O2"
_cell_formula_units_Z 16
_cell_length_a 11.561180
_cell_length_b 15.176401
_cell_length_c 5.433458
_cell_angle_alpha 90.000000
_cell_angle_beta 61.967689
_cell_angle_gamma 90.000000
_cell_volume 841.495671
_symmetry_space_group_name_H-M "P 21"
_symmetry_group_IT_number 4
_symmetry_cell_setting 'monoclinic'
loop_
_space_group_symop_operation_xyz
x,y,z
-x,1/2+y,-z
loop_
_atom_site_type_symbol
_atom_site_label
_atom_site_fract_x
_atom_site_fract_y
_atom_site_fract_z
Si Si1 0.110994 0.405730 0.389012
Si Si2 0.744099 0.432951 0.255908
Si Si3 0.949699 0.598888 0.050308
Si Si4 0.184300 0.933986 0.315693
Si Si5 0.790887 0.985355 0.209108
Si Si6 0.373450 0.108437 0.126544
Si Si7 0.502208 0.553864 0.497798
Si Si8 0.116992 0.201301 0.383001
O O1 0.186807 0.430546 0.562253
O O2 0.079318 0.302777 0.420680
O O3 0.969675 0.454731 0.530331
O O4 0.186809 0.430549 0.064148
O O5 0.840436 0.519904 0.159571
O O6 0.780051 0.384531 0.470022
O O7 0.596146 0.467268 0.403860
O O8 0.780051 0.384531 0.969889
O O9 0.929672 0.654796 0.318745
O O10 0.929668 0.654798 0.821934
O O11 0.092632 0.556511 0.907371
O O12 0.276903 0.021480 0.223090
O O13 0.648325 0.027978 0.351673
O O14 0.456802 0.103409 0.793852
O O15 0.456804 0.103407 0.292527
O O16 0.274683 0.189864 0.225314
#
# Coordination Sequence:
#
# PCOD9114454 Si02
#       8
#     2   2   2   2   2   2   2   2
#     4  12  23  36  55  90 126 147 178 251 312 336
#     4  10  16  32  59  79 101 141 199 232 256 321
#     4  12  19  38  61  85 107 150 202 244 274 335
#     4  10  16  32  55  81 103 143 189 236 273 316
#     4  12  23  38  58  88 120 149 191 246 289 339
#     4  10  17  35  57  83 100 150 203 231 250 347
#     4  10  20  32  58  82 104 138 190 230 279 319
#     4  12  22  35  61  88 115 150 198 238 299 343
#
# _framework density 19.013764999999999
#
# number of rings (size 3 to 8) (size 9 to 14) (size 15 to 20)
#    0.000    1.000    7.500    2.250    0.000    0.000 
#    0.000    0.000    0.000   18.000    0.000    0.000 
#    0.000    0.000    0.000    0.000    0.000    0.000 
#
# Total GULP energy -89286.350793 kJ/mol
# GULP energy per Si atom -5580.396925 kJ/mol
# Density = 1.897049 g / cm^3
# Si number density = 19.013765 Si / 1000 Ang^3
#
#
#
# Elastic Constant Matrix: (Units=GPa)
#
#
# Indices 1 2 3 4 5 6 
#
# 1 110.0196 30.7962 78.2277 0.0000 -1.8399 0.0000
# 2 30.7962 56.7358 36.0694 0.0000 4.5622 0.0000
# 3 78.2277 36.0694 155.0240 0.0000 40.8023 0.0000
# 4 0.0000 0.0000 0.0000 12.3611 0.0000 0.8267
# 5 -1.8399 4.5622 40.8023 0.0000 51.7653 0.0000
# 6 0.0000 0.0000 0.0000 0.8267 0.0000 11.4072
#
#
#
# Elastic Compliance Matrix: (Units=1/GPa)
#
#
# Indices 1 2 3 4 5 6 
#
# 1 0.017784 -0.003687 -0.010559 0.000000 0.009280 0.000000
# 2 -0.003687 0.021706 -0.003346 0.000000 0.000594 0.000000
# 3 -0.010559 -0.003346 0.015871 0.000000 -0.012590 0.000000
# 4 0.000000 0.000000 0.000000 0.081293 0.000000 -0.005891
# 5 0.009280 0.000594 -0.012590 0.000000 0.029519 0.000000
# 6 0.000000 0.000000 0.000000 -0.005891 0.000000 0.088091
#
#
# Mechanical properties :
#
#
# Convention : Reuss Voigt Hill
#
# Bulk Modulus (GPa) = 49.55879 67.99620 58.77749
# Shear Modulus (GPa) = 16.88195 26.88580 21.88387
#
# Velocity S-wave (km/s) = 2.98297 3.76442 3.39624
# Velocity P-wave (km/s) = 6.16323 7.39822 6.80878
#
# Compressibility (1/GPa) = 0.02017806
#
# Stress axis : x y z
#
# Youngs Moduli (GPa) = 56.23012 46.06948 63.00789
#
# Poissons Ratio (x) = 0.16985 0.66528
# Poissons Ratio (y) = 0.20731 0.21084
# Poissons Ratio (z) = 0.59372 0.15416
#
# Static dielectric constant tensor:
#      x y z
#    x 1.669390 0.000000 0.046300 
#    y 0.000000 1.648790 0.000000 
#    z 0.046300 0.000000 1.722850 
# 
# From -- ./inp_files/3172.got.cif
#   From: 2010.05.17/outbox.cif.g08.bks.cpg/sg4_2_cif.got.tgz:3172.got - 2010.06.03 18:43:04.
