data_PCOD9114169
_publ_section_title
;
Structure prediction by ZEFSAII (Michael W. Deem and Ramdas Pophale) SiO2 
 PCOD9114169
Probable space group: P 2
;
_chemical_formula_sum "Si O2"
_cell_formula_units_Z 16
_cell_length_a 19.788118
_cell_length_b 5.379076
_cell_length_c 9.866607
_cell_angle_alpha 90.000000
_cell_angle_beta 128.921607
_cell_angle_gamma 90.000000
_cell_volume 817.077224
_symmetry_space_group_name_H-M "P 2"
_symmetry_group_IT_number 3
_symmetry_cell_setting 'monoclinic'
loop_
_space_group_symop_operation_xyz
x,y,z
-x,y,-z
loop_
_atom_site_type_symbol
_atom_site_label
_atom_site_fract_x
_atom_site_fract_y
_atom_site_fract_z
Si Si1 0.421092 0.512520 0.294222
Si Si2 0.870114 0.146148 0.975838
Si Si3 0.976001 0.748813 0.835943
Si Si4 0.648704 0.099984 0.397436
Si Si5 0.325233 0.019409 0.249144
Si Si6 0.845613 0.133725 0.644897
Si Si7 0.456429 0.600295 0.799871
Si Si8 0.000406 0.370934 0.340076
O O1 0.500000 0.484108 0.500000
O O2 0.370395 0.249528 0.226735
O O3 0.466846 0.589979 0.213209
O O4 0.361843 0.746269 0.263149
O O5 0.910364 0.302648 0.150063
O O6 0.949436 0.955598 0.054736
O O7 0.778381 0.028595 0.901189
O O8 0.851158 0.259602 0.801731
O O9 0.987099 0.648438 0.698836
O O10 0.879132 0.854824 0.717332
O O11 0.000000 0.584982 0.000000
O O12 0.654682 0.076151 0.567897
O O13 0.747800 0.127421 0.471865
O O14 0.598719 0.350100 0.294734
O O15 0.601073 0.849409 0.288963
O O16 0.917052 0.239890 0.630916
O O17 0.500000 0.596680 0.000000
O O18 0.000000 0.336758 0.500000
#
# Coordination Sequence:
#
# PCOD9114169 Si02
#       8
#     2   2   2   2   2   2   2   2
#     4  12  22  42  68  94 131 163 213 261 325 373
#     4   9  21  39  61  91 119 157 212 256 307 358
#     4   9  18  36  61  86 119 157 204 253 308 365
#     4  11  22  42  69  96 127 162 220 263 311 380
#     4  11  22  39  70 101 122 162 215 276 310 368
#     4   9  21  39  64  90 114 162 209 262 300 360
#     4  12  26  44  64  94 132 174 208 256 323 386
#     4  11  22  38  59  87 130 164 197 247 315 378
#
# _framework density 19.581994000000002
#
# number of rings (size 3 to 8) (size 9 to 14) (size 15 to 20)
#    0.000    1.500    2.500    3.375    3.500    2.000 
#    4.500    0.000    0.000    0.000    0.000    0.000 
#    0.000    0.000    0.000    0.000    0.000    0.000 
#
# Total GULP energy -89148.129231 kJ/mol
# GULP energy per Si atom -5571.758077 kJ/mol
# Density = 1.953742 g / cm^3
# Si number density = 19.581994 Si / 1000 Ang^3
#
#
#
# Elastic Constant Matrix: (Units=GPa)
#
#
# Indices 1 2 3 4 5 6 
#
# 1 85.4677 6.7988 42.2289 0.0000 9.5075 0.0000
# 2 6.7988 74.7012 16.0005 0.0000 20.5769 0.0000
# 3 42.2289 16.0005 97.7456 0.0000 -4.5940 0.0000
# 4 0.0000 0.0000 0.0000 -32.5600 0.0000 7.8665
# 5 9.5075 20.5769 -4.5940 0.0000 45.0733 0.0000
# 6 0.0000 0.0000 0.0000 7.8665 0.0000 18.0546
#
#
#
# Elastic Compliance Matrix: (Units=1/GPa)
#
#
# Indices 1 2 3 4 5 6 
#
# 1 0.015680 0.001412 -0.007226 0.000000 -0.004688 0.000000
# 2 0.001412 0.016272 -0.003654 0.000000 -0.008099 0.000000
# 3 -0.007226 -0.003654 0.014168 0.000000 0.004636 0.000000
# 4 0.000000 0.000000 0.000000 -0.027787 0.000000 0.012107
# 5 -0.004688 -0.008099 0.004636 0.000000 0.027345 0.000000
# 6 0.000000 0.000000 0.000000 0.012107 0.000000 0.050112
#
#
# Mechanical properties :
#
#
# Convention : Reuss Voigt Hill
#
# Bulk Modulus (GPa) = 36.78608 43.10787 39.94698
# Shear Modulus (GPa) = 40.39217 18.97268 29.68243
#
# Velocity S-wave (km/s) = 4.54664 3.11607 3.89755
# Velocity P-wave (km/s) = 6.81095 5.91678 6.37955
#
# Compressibility (1/GPa) = 0.02718420
#
# Stress axis : x y z
#
# Youngs Moduli (GPa) = 63.77705 61.45633 70.57968
#
# Poissons Ratio (x) = -0.08678 0.50998
# Poissons Ratio (y) = -0.09006 0.25792
# Poissons Ratio (z) = 0.46082 0.22458
#
# Static dielectric constant tensor:
#      x y z
#    x 1.662460 0.000000 -0.038830 
#    y 0.000000 1.799970 0.000000 
#    z -0.038830 0.000000 1.697020 
# 
# From -- ./inp_files/8948.got.cif
#   From: 2010.05.17/outbox.cif.g08.bks.cpg/sg3_5_cif.got.tgz:8948.got - 2010.06.03 18:33:08.
