data_PCOD9114293
_publ_section_title
;
Structure prediction by ZEFSAII (Michael W. Deem and Ramdas Pophale) SiO2 
 PCOD9114293
Probable space group: P 2
;
_chemical_formula_sum "Si O2"
_cell_formula_units_Z 13
_cell_length_a 8.264785
_cell_length_b 7.526920
_cell_length_c 8.845766
_cell_angle_alpha 90.000000
_cell_angle_beta 64.337735
_cell_angle_gamma 90.000000
_cell_volume 496.002381
_symmetry_space_group_name_H-M "P 2"
_symmetry_group_IT_number 3
_symmetry_cell_setting 'monoclinic'
loop_
_space_group_symop_operation_xyz
x,y,z
-x,y,-z
loop_
_atom_site_type_symbol
_atom_site_label
_atom_site_fract_x
_atom_site_fract_y
_atom_site_fract_z
Si Si1 0.110885 0.776660 0.613833
Si Si2 0.293473 0.436034 0.532517
Si Si3 0.489553 0.547305 0.824573
Si Si4 0.811092 0.269162 0.010056
Si Si5 0.500000 0.959545 0.500000
Si Si6 0.423815 0.961758 0.856722
Si Si7 0.986327 0.148986 0.326587
O O1 0.145217 0.576698 0.652766
O O2 0.317216 0.845548 0.548948
O O3 0.000000 0.761402 0.500000
O O4 0.011047 0.944461 0.729241
O O5 0.500000 0.451984 0.500000
O O6 0.332554 0.495852 0.341727
O O7 0.204044 0.249573 0.612777
O O8 0.336140 0.400499 0.865083
O O9 0.432615 0.751885 0.819496
O O10 0.500000 0.540879 0.000000
O O11 0.760549 0.067222 0.068305
O O12 0.000000 0.318768 0.000000
O O13 0.851956 0.256092 0.814920
O O14 0.503636 0.045833 0.668081
O O15 0.500000 0.989246 0.000000
O O16 0.000000 0.142608 0.500000
#
# Coordination Sequence:
#
# PCOD9114293 Si02
#       7
#     2   2   2   2   1   2   2
#     4  11  25  43  75 109 148 197 259 314 383 463
#     4  12  24  43  72 105 141 200 254 308 381 466
#     4  11  25  44  74 104 147 200 255 315 389 461
#     4  12  27  47  68 113 153 198 255 321 392 461
#     4  12  24  50  76 118 152 206 264 306 406 466
#     4  11  27  48  79 110 154 200 261 321 390 463
#     4  11  27  43  70 104 148 197 249 315 384 454
#
# _framework density 26.209551999999999
#
# number of rings (size 3 to 8) (size 9 to 14) (size 15 to 20)
#    0.000    0.615    2.308    3.692    7.538    1.846 
#    0.000    0.000    0.000    0.000    0.000    0.000 
#    0.000    0.000    0.000    0.000    0.000    0.000 
#
# Total GULP energy -72414.808795 kJ/mol
# GULP energy per Si atom -5570.369907 kJ/mol
# Density = 2.614990 g / cm^3
# Si number density = 26.209552 Si / 1000 Ang^3
#
#
#
# Elastic Constant Matrix: (Units=GPa)
#
#
# Indices 1 2 3 4 5 6 
#
# 1 84.0323 30.6878 9.4555 0.0000 23.0256 0.0000
# 2 30.6878 146.2033 35.8848 0.0000 -4.4779 0.0000
# 3 9.4555 35.8848 153.3663 0.0000 10.3083 0.0000
# 4 0.0000 0.0000 0.0000 30.8429 0.0000 -6.3056
# 5 23.0256 -4.4779 10.3083 0.0000 42.8307 0.0000
# 6 0.0000 0.0000 0.0000 -6.3056 0.0000 25.4661
#
#
#
# Elastic Compliance Matrix: (Units=1/GPa)
#
#
# Indices 1 2 3 4 5 6 
#
# 1 0.015626 -0.003674 0.000495 0.000000 -0.008904 0.000000
# 2 -0.003674 0.008180 -0.001909 0.000000 0.003290 0.000000
# 3 0.000495 -0.001909 0.007082 0.000000 -0.002170 0.000000
# 4 0.000000 0.000000 0.000000 0.034151 0.000000 0.008456
# 5 -0.008904 0.003290 -0.002170 0.000000 0.029000 0.000000
# 6 0.000000 0.000000 0.000000 0.008456 0.000000 0.041362
#
#
# Mechanical properties :
#
#
# Convention : Reuss Voigt Hill
#
# Bulk Modulus (GPa) = 48.27988 59.51758 53.89873
# Shear Modulus (GPa) = 32.79089 40.33287 36.56188
#
# Velocity S-wave (km/s) = 3.54093 3.92709 3.73900
# Velocity P-wave (km/s) = 5.93113 6.58182 6.26493
#
# Compressibility (1/GPa) = 0.02071256
#
# Stress axis : x y z
#
# Youngs Moduli (GPa) = 63.99642 122.24699 141.19769
#
# Poissons Ratio (x) = 0.44913 -0.06985
# Poissons Ratio (y) = 0.23512 0.26949
# Poissons Ratio (z) = -0.03166 0.23332
#
# Static dielectric constant tensor:
#      x y z
#    x 2.102220 0.000000 0.144810 
#    y 0.000000 2.109240 0.000000 
#    z 0.144810 0.000000 2.151090 
# 
# From -- ./inp_files/5511.got.cif
#   From: 2010.05.17/outbox.cif.g08.bks.cpg/sg3_3_cif.got.tgz:5511.got - 2010.06.03 18:33:08.
