data_PCOD9114734
_publ_section_title
;
Structure prediction by ZEFSAII (Michael W. Deem and Ramdas Pophale) SiO2 
 PCOD9114734
Probable space group: P 21
;
_chemical_formula_sum "Si O2"
_cell_formula_units_Z 16
_cell_length_a 25.963843
_cell_length_b 5.253140
_cell_length_c 9.265666
_cell_angle_alpha 90.000000
_cell_angle_beta 145.366148
_cell_angle_gamma 90.000000
_cell_volume 718.232670
_symmetry_space_group_name_H-M "P 21"
_symmetry_group_IT_number 4
_symmetry_cell_setting 'monoclinic'
loop_
_space_group_symop_operation_xyz
x,y,z
-x,1/2+y,-z
loop_
_atom_site_type_symbol
_atom_site_label
_atom_site_fract_x
_atom_site_fract_y
_atom_site_fract_z
Si Si1 0.083773 0.305730 0.205869
Si Si2 0.870100 0.299485 0.748915
Si Si3 0.530833 0.458367 0.155408
Si Si4 0.725367 0.772724 0.866837
Si Si5 0.097799 0.357053 0.609291
Si Si6 0.266617 0.787555 0.301670
Si Si7 0.988252 0.855099 0.281305
Si Si8 0.473445 0.078558 0.522343
O O1 0.980577 0.309803 0.025042
O O2 0.067280 0.326944 0.994259
O O3 0.140509 0.552892 0.372570
O O4 0.142619 0.058570 0.365333
O O5 0.809938 0.281561 0.751555
O O6 0.636503 0.376388 0.411305
O O7 0.499080 0.514578 0.247720
O O8 0.481764 0.217823 0.965912
O O9 0.759965 0.512945 0.869723
O O10 0.626741 0.698043 0.694932
O O11 0.721510 0.014986 0.749280
O O12 0.794982 0.844067 0.153018
O O13 0.050938 0.609841 0.444124
O O14 0.078056 0.361981 0.735535
O O15 0.048965 0.107380 0.435210
O O16 0.526691 0.310459 0.565793
#
# Coordination Sequence:
#
# PCOD9114734 Si02
#       8
#     2   2   2   2   2   2   2   2
#     4  10  20  34  52  76 111 150 189 235 286 344
#     4  10  20  34  55  79 106 147 194 236 285 342
#     4  11  23  42  66  96 128 161 204 259 320 380
#     4  11  22  38  61  88 115 149 200 251 293 355
#     4  10  20  32  51  76 107 144 186 227 277 334
#     4  11  21  37  62  88 115 150 199 252 295 355
#     4  10  19  32  49  75 109 146 180 225 280 334
#     4  11  23  43  68  94 125 163 206 257 318 382
#
# _framework density 22.276903999999998
#
# number of rings (size 3 to 8) (size 9 to 14) (size 15 to 20)
#    0.000    1.500    0.000    7.500    0.000    2.000 
#    0.000    3.750    0.000    0.000    0.000    0.000 
#    0.000    0.000    0.000    0.000    0.000    0.000 
#
# Total GULP energy -89375.779295 kJ/mol
# GULP energy per Si atom -5585.986206 kJ/mol
# Density = 2.222620 g / cm^3
# Si number density = 22.276904 Si / 1000 Ang^3
#
#
#
# Elastic Constant Matrix: (Units=GPa)
#
#
# Indices 1 2 3 4 5 6 
#
# 1 133.5242 42.7934 26.4302 0.0000 -15.2903 0.0000
# 2 42.7934 202.0690 27.2676 0.0000 -0.6588 0.0000
# 3 26.4302 27.2676 75.6510 0.0000 -17.3191 0.0000
# 4 0.0000 0.0000 0.0000 29.8013 0.0000 -1.4384
# 5 -15.2903 -0.6588 -17.3191 0.0000 32.2245 0.0000
# 6 0.0000 0.0000 0.0000 -1.4384 0.0000 37.8297
#
#
#
# Elastic Compliance Matrix: (Units=1/GPa)
#
#
# Indices 1 2 3 4 5 6 
#
# 1 0.008709 -0.001599 -0.001742 0.000000 0.003163 0.000000
# 2 -0.001599 0.005525 -0.001803 0.000000 -0.001615 0.000000
# 3 -0.001742 -0.001803 0.016283 0.000000 0.007888 0.000000
# 4 0.000000 0.000000 0.000000 0.033617 0.000000 0.001278
# 5 0.003163 -0.001615 0.007888 0.000000 0.036739 0.000000
# 6 0.000000 0.000000 0.000000 0.001278 0.000000 0.026483
#
#
# Mechanical properties :
#
#
# Convention : Reuss Voigt Hill
#
# Bulk Modulus (GPa) = 49.43219 67.13629 58.28424
# Shear Modulus (GPa) = 34.62916 40.95462 37.79189
#
# Velocity S-wave (km/s) = 3.94698 4.29235 4.12328
# Velocity P-wave (km/s) = 6.55817 7.40056 6.99206
#
# Compressibility (1/GPa) = 0.02022973
#
# Stress axis : x y z
#
# Youngs Moduli (GPa) = 114.82642 180.98237 61.41478
#
# Poissons Ratio (x) = 0.28938 0.10699
# Poissons Ratio (y) = 0.18360 0.11070
# Poissons Ratio (z) = 0.20004 0.32624
#
# Static dielectric constant tensor:
#      x y z
#    x 1.871120 0.000000 -0.040460 
#    y 0.000000 1.951380 0.000000 
#    z -0.040460 0.000000 1.808940 
# 
# From -- ./inp_files/10021.got.cif
#   From: 2010.05.17/outbox.cif.g08.bks.cpg/sg4_6_cif.got.tgz:10021.got - 2010.06.03 18:43:04.
