data_PCOD9114781
_publ_section_title
;
Structure prediction by ZEFSAII (Michael W. Deem and Ramdas Pophale) SiO2 
 PCOD9114781
Probable space group: P 21
;
_chemical_formula_sum "Si O2"
_cell_formula_units_Z 16
_cell_length_a 18.560698
_cell_length_b 5.153127
_cell_length_c 8.837374
_cell_angle_alpha 90.000000
_cell_angle_beta 120.433139
_cell_angle_gamma 90.000000
_cell_volume 728.797547
_symmetry_space_group_name_H-M "P 21"
_symmetry_group_IT_number 4
_symmetry_cell_setting 'monoclinic'
loop_
_space_group_symop_operation_xyz
x,y,z
-x,1/2+y,-z
loop_
_atom_site_type_symbol
_atom_site_label
_atom_site_fract_x
_atom_site_fract_y
_atom_site_fract_z
Si Si1 0.264869 0.108800 0.833779
Si Si2 0.691666 0.940379 0.854309
Si Si3 0.508160 0.065477 0.615021
Si Si4 0.177138 0.613409 0.788362
Si Si5 0.918533 0.093179 0.774620
Si Si6 0.270046 0.424069 0.456622
Si Si7 0.980618 0.092868 0.185799
Si Si8 0.353203 0.930997 0.661066
O O1 0.221717 0.383205 0.742463
O O2 0.344885 0.004214 0.828254
O O3 0.193540 0.893222 0.737584
O O4 0.292692 0.176908 0.034504
O O5 0.599405 0.045117 0.786043
O O6 0.702756 0.916700 0.689263
O O7 0.764378 0.119193 0.999295
O O8 0.497939 0.337973 0.517901
O O9 0.436871 0.011485 0.663120
O O10 0.084894 0.555109 0.748109
O O11 0.823751 0.027613 0.637699
O O12 0.949824 0.370239 0.749446
O O13 0.933328 0.078380 0.972311
O O14 0.977352 0.873704 0.764193
O O15 0.282559 0.129501 0.523564
O O16 0.329715 0.634365 0.602291
#
# Coordination Sequence:
#
# PCOD9114781 Si02
#       8
#     2   2   2   2   2   2   2   2
#     4  10  24  41  64  91 125 172 219 250 320 377
#     4  10  24  40  67  94 121 169 212 261 309 388
#     4  12  24  42  64  97 129 160 209 265 322 379
#     4  10  21  39  65  89 125 167 211 258 311 381
#     4  10  20  33  55  96 125 158 199 270 312 373
#     4  12  23  40  69  91 131 162 219 257 331 373
#     4  10  19  33  58  91 129 154 205 261 323 353
#     4  12  25  44  64  93 129 174 202 272 318 380
#
# _framework density 21.953973999999999
#
# number of rings (size 3 to 8) (size 9 to 14) (size 15 to 20)
#    0.750    0.500    3.750    2.250    3.500    1.000 
#    2.250    0.000    0.000   15.000    0.000    0.000 
#    0.000    0.000    0.000    0.000    0.000    0.000 
#
# Total GULP energy -89343.220708 kJ/mol
# GULP energy per Si atom -5583.951294 kJ/mol
# Density = 2.190401 g / cm^3
# Si number density = 21.953974 Si / 1000 Ang^3
#
#
#
# Elastic Constant Matrix: (Units=GPa)
#
#
# Indices 1 2 3 4 5 6 
#
# 1 111.7073 -7.2991 13.0990 0.0000 -6.8231 0.0000
# 2 -7.2991 84.3564 11.5539 0.0000 -18.7564 0.0000
# 3 13.0990 11.5539 20.4962 0.0000 -3.6643 0.0000
# 4 0.0000 0.0000 0.0000 21.8448 0.0000 -3.6528
# 5 -6.8231 -18.7564 -3.6643 0.0000 30.0603 0.0000
# 6 0.0000 0.0000 0.0000 -3.6528 0.0000 30.5673
#
#
#
# Elastic Compliance Matrix: (Units=1/GPa)
#
#
# Indices 1 2 3 4 5 6 
#
# 1 0.010172 0.002563 -0.007408 0.000000 0.003005 0.000000
# 2 0.002563 0.015272 -0.008627 0.000000 0.009059 0.000000
# 3 -0.007408 -0.008627 0.058397 0.000000 0.000054 0.000000
# 4 0.000000 0.000000 0.000000 0.046711 0.000000 0.005582
# 5 0.003005 0.009059 0.000054 0.000000 0.039608 0.000000
# 6 0.000000 0.000000 0.000000 0.005582 0.000000 0.033382
#
#
# Mechanical properties :
#
#
# Convention : Reuss Voigt Hill
#
# Bulk Modulus (GPa) = 17.57606 27.91860 22.74733
# Shear Modulus (GPa) = 20.04398 29.77490 24.90944
#
# Velocity S-wave (km/s) = 3.02487 3.68671 3.37207
# Velocity P-wave (km/s) = 4.49700 5.55580 5.05420
#
# Compressibility (1/GPa) = 0.05689557
#
# Stress axis : x y z
#
# Youngs Moduli (GPa) = 98.31229 65.47853 17.12419
#
# Poissons Ratio (x) = -0.16782 0.12686
# Poissons Ratio (y) = -0.25197 0.14774
# Poissons Ratio (z) = 0.72832 0.56491
#
# Static dielectric constant tensor:
#      x y z
#    x 1.828650 0.000000 -0.072180 
#    y 0.000000 1.795710 0.000000 
#    z -0.072180 0.000000 1.875430 
# 
# From -- ./inp_files/9439.got.cif
#   From: 2010.05.17/outbox.cif.g08.bks.cpg/sg4_5_cif.got.tgz:9439.got - 2010.06.03 18:43:04.
