data_PCOD9114904
_publ_section_title
;
Structure prediction by ZEFSAII (Michael W. Deem and Ramdas Pophale) SiO2 
 PCOD9114904
Probable space group: P 21
;
_chemical_formula_sum "Si O2"
_cell_formula_units_Z 16
_cell_length_a 8.573618
_cell_length_b 10.075654
_cell_length_c 10.624829
_cell_angle_alpha 90.000000
_cell_angle_beta 48.095766
_cell_angle_gamma 90.000000
_cell_volume 683.101568
_symmetry_space_group_name_H-M "P 21"
_symmetry_group_IT_number 4
_symmetry_cell_setting 'monoclinic'
loop_
_space_group_symop_operation_xyz
x,y,z
-x,1/2+y,-z
loop_
_atom_site_type_symbol
_atom_site_label
_atom_site_fract_x
_atom_site_fract_y
_atom_site_fract_z
Si Si1 0.424482 0.737010 0.682660
Si Si2 0.856201 0.822881 0.322875
Si Si3 0.973795 0.293412 0.511708
Si Si4 0.568910 0.862539 0.833247
Si Si5 0.585756 0.614745 0.985850
Si Si6 0.600595 0.472028 0.715171
Si Si7 0.751952 0.116922 0.443092
Si Si8 0.667777 0.707022 0.197357
O O1 0.625000 0.788136 0.498827
O O2 0.399036 0.832087 0.816012
O O3 0.494605 0.592232 0.696348
O O4 0.248557 0.720076 0.672741
O O5 0.020321 0.777826 0.340625
O O6 0.855289 0.749237 0.189548
O O7 0.842343 0.981603 0.337863
O O8 0.208562 0.321860 0.343013
O O9 0.822240 0.413189 0.552177
O O10 0.892349 0.166405 0.481693
O O11 0.521976 0.758369 0.969149
O O12 0.583758 0.013435 0.866896
O O13 0.647289 0.532207 0.828378
O O14 0.728243 0.639205 0.032347
O O15 0.449222 0.344685 0.779332
O O16 0.512852 0.121012 0.630043
#
# Coordination Sequence:
#
# PCOD9114904 Si02
#       8
#     2   2   2   2   2   2   2   2
#     4   9  19  36  58  90 122 165 216 261 314 390
#     4  10  20  34  57  91 124 163 212 273 324 378
#     4  10  23  38  63  94 124 166 211 285 323 368
#     4  10  22  40  66  94 128 167 221 267 322 391
#     4  11  21  40  64  94 128 177 216 254 320 406
#     4  10  20  38  63  90 123 165 217 266 323 379
#     4  10  20  36  62  89 127 163 219 274 324 373
#     4  10  19  36  61  88 122 172 214 256 322 393
#
# _framework density 23.422578000000001
#
# number of rings (size 3 to 8) (size 9 to 14) (size 15 to 20)
#    0.000    2.000    2.500    1.500    5.250    0.000 
#    0.000    0.000    2.750    6.000    0.000    0.000 
#    0.000    0.000    0.000    0.000    0.000    0.000 
#
# Total GULP energy -89233.468801 kJ/mol
# GULP energy per Si atom -5577.091800 kJ/mol
# Density = 2.336927 g / cm^3
# Si number density = 23.422578 Si / 1000 Ang^3
#
#
#
# Elastic Constant Matrix: (Units=GPa)
#
#
# Indices 1 2 3 4 5 6 
#
# 1 125.1633 25.0824 31.4166 0.0000 33.1037 0.0000
# 2 25.0824 65.7179 17.9803 0.0000 7.2210 0.0000
# 3 31.4166 17.9803 30.7755 0.0000 17.8781 0.0000
# 4 0.0000 0.0000 0.0000 32.3039 0.0000 11.7761
# 5 33.1037 7.2210 17.8781 0.0000 38.3820 0.0000
# 6 0.0000 0.0000 0.0000 11.7761 0.0000 34.7947
#
#
#
# Elastic Compliance Matrix: (Units=1/GPa)
#
#
# Indices 1 2 3 4 5 6 
#
# 1 0.011917 -0.001834 -0.007298 0.000000 -0.006534 0.000000
# 2 -0.001834 0.018516 -0.010750 0.000000 0.003105 0.000000
# 3 -0.007298 -0.010750 0.056748 0.000000 -0.018116 0.000000
# 4 0.000000 0.000000 0.000000 0.035313 0.000000 -0.011951
# 5 -0.006534 0.003105 -0.018116 0.000000 0.039543 0.000000
# 6 0.000000 0.000000 0.000000 -0.011951 0.000000 0.032785
#
#
# Mechanical properties :
#
#
# Convention : Reuss Voigt Hill
#
# Bulk Modulus (GPa) = 21.08925 41.17948 31.13437
# Shear Modulus (GPa) = 19.96863 30.90794 25.43828
#
# Velocity S-wave (km/s) = 2.92299 3.63654 3.29911
# Velocity P-wave (km/s) = 4.51832 5.93733 5.27575
#
# Compressibility (1/GPa) = 0.04741751
#
# Stress axis : x y z
#
# Youngs Moduli (GPa) = 83.91364 54.00627 17.62162
#
# Poissons Ratio (x) = 0.09903 0.12861
# Poissons Ratio (y) = 0.15386 0.18943
# Poissons Ratio (z) = 0.61244 0.58057
#
# Static dielectric constant tensor:
#      x y z
#    x 1.932900 0.000000 0.050200 
#    y 0.000000 1.937500 0.000000 
#    z 0.050200 0.000000 1.911170 
# 
# From -- ./inp_files/11156.got.cif
#   From: 2010.05.17/outbox.cif.g08.bks.cpg/sg4_6_cif.got.tgz:11156.got - 2010.06.03 18:43:04.
