data_PCOD9114883
_publ_section_title
;
Structure prediction by ZEFSAII (Michael W. Deem and Ramdas Pophale) SiO2 
 PCOD9114883
Probable space group: P 21
;
_chemical_formula_sum "Si O2"
_cell_formula_units_Z 16
_cell_length_a 16.275680
_cell_length_b 5.066789
_cell_length_c 10.464586
_cell_angle_alpha 90.000000
_cell_angle_beta 110.737753
_cell_angle_gamma 90.000000
_cell_volume 807.055834
_symmetry_space_group_name_H-M "P 21"
_symmetry_group_IT_number 4
_symmetry_cell_setting 'monoclinic'
loop_
_space_group_symop_operation_xyz
x,y,z
-x,1/2+y,-z
loop_
_atom_site_type_symbol
_atom_site_label
_atom_site_fract_x
_atom_site_fract_y
_atom_site_fract_z
Si Si1 0.556231 0.293400 0.559879
Si Si2 0.335195 0.195898 0.734668
Si Si3 0.201583 0.335605 0.128639
Si Si4 0.360225 0.322659 0.026503
Si Si5 0.457472 0.819380 0.154263
Si Si6 0.979181 0.733398 0.066937
Si Si7 0.155564 0.836936 0.272150
Si Si8 0.711778 0.192628 0.447167
O O1 0.521521 0.583331 0.505922
O O2 0.577910 0.291100 0.720818
O O3 0.635983 0.211366 0.513471
O O4 0.439884 0.252690 0.785241
O O5 0.289086 0.405279 0.615661
O O6 0.313621 0.905111 0.674233
O O7 0.312526 0.245499 0.869482
O O8 0.293406 0.311480 0.107863
O O9 0.188588 0.616522 0.189020
O O10 0.185935 0.115423 0.229428
O O11 0.123765 0.291789 0.981771
O O12 0.403899 0.609282 0.041613
O O13 0.437117 0.111796 0.095299
O O14 0.049675 0.809850 0.213054
O O15 0.991738 0.429209 0.033542
O O16 0.200016 0.774184 0.430958
#
# Coordination Sequence:
#
# PCOD9114883 Si02
#       8
#     2   2   2   2   2   2   2   2
#     4  12  21  36  55  77 105 132 172 223 276 314
#     4  12  25  40  53  75 111 152 187 223 267 313
#     4  10  19  36  57  87 112 136 177 224 277 317
#     4  12  24  38  58  78 106 146 191 230 257 318
#     4  12  23  40  57  78 104 143 192 230 273 309
#     4   8  16  31  55  83 113 136 163 218 277 327
#     4  10  20  35  59  87 111 138 175 220 278 333
#     4  12  22  38  56  79 110 145 181 222 273 331
#
# _framework density 19.825147000000001
#
# number of rings (size 3 to 8) (size 9 to 14) (size 15 to 20)
#    0.000    1.000    2.500    6.000    0.000    0.000 
#    0.000    0.000    0.000    1.500    0.000    0.000 
#    0.000    0.000    0.000    0.000    0.000    0.000 
#
# Total GULP energy -89452.879450 kJ/mol
# GULP energy per Si atom -5590.804966 kJ/mol
# Density = 1.978002 g / cm^3
# Si number density = 19.825147 Si / 1000 Ang^3
#
#
#
# Elastic Constant Matrix: (Units=GPa)
#
#
# Indices 1 2 3 4 5 6 
#
# 1 29.3419 3.5870 5.6846 0.0000 17.6532 0.0000
# 2 3.5870 60.6106 -17.5370 0.0000 -7.3925 0.0000
# 3 5.6846 -17.5370 59.9983 0.0000 1.8069 0.0000
# 4 0.0000 0.0000 0.0000 32.3124 0.0000 4.4665
# 5 17.6532 -7.3925 1.8069 0.0000 32.7340 0.0000
# 6 0.0000 0.0000 0.0000 4.4665 0.0000 14.5131
#
#
#
# Elastic Compliance Matrix: (Units=1/GPa)
#
#
# Indices 1 2 3 4 5 6 
#
# 1 0.055621 -0.009181 -0.006999 0.000000 -0.031683 0.000000
# 2 -0.009181 0.020019 0.006447 0.000000 0.009117 0.000000
# 3 -0.006999 0.006447 0.019089 0.000000 0.004177 0.000000
# 4 0.000000 0.000000 0.000000 0.032323 0.000000 -0.009947
# 5 -0.031683 0.009117 0.004177 0.000000 0.049464 0.000000
# 6 0.000000 0.000000 0.000000 -0.009947 0.000000 0.071964
#
#
# Mechanical properties :
#
#
# Convention : Reuss Voigt Hill
#
# Bulk Modulus (GPa) = 13.28693 14.82445 14.05569
# Shear Modulus (GPa) = 17.06278 26.45965 21.76122
#
# Velocity S-wave (km/s) = 2.93689 3.65725 3.31669
# Velocity P-wave (km/s) = 4.26814 5.03267 4.66609
#
# Compressibility (1/GPa) = 0.07526196
#
# Stress axis : x y z
#
# Youngs Moduli (GPa) = 17.97879 49.95170 52.38659
#
# Poissons Ratio (x) = 0.45862 0.36667
# Poissons Ratio (y) = 0.16507 -0.33773
# Poissons Ratio (z) = 0.12584 -0.32203
#
# Static dielectric constant tensor:
#      x y z
#    x 1.698990 0.000000 0.029560 
#    y 0.000000 1.684700 0.000000 
#    z 0.029560 0.000000 1.713290 
# 
# From -- ./inp_files/8651.got.cif
#   From: 2010.05.17/outbox.cif.g08.bks.cpg/sg4_5_cif.got.tgz:8651.got - 2010.06.03 18:43:04.
