data_PCOD9114053
_publ_section_title
;
Structure prediction by ZEFSAII (Michael W. Deem and Ramdas Pophale) SiO2 
 PCOD9114053
Probable space group: P 2
;
_chemical_formula_sum "Si O2"
_cell_formula_units_Z 14
_cell_length_a 12.778345
_cell_length_b 8.790401
_cell_length_c 5.203069
_cell_angle_alpha 90.000000
_cell_angle_beta 94.923783
_cell_angle_gamma 90.000000
_cell_volume 582.287228
_symmetry_space_group_name_H-M "P 2"
_symmetry_group_IT_number 3
_symmetry_cell_setting 'monoclinic'
loop_
_space_group_symop_operation_xyz
x,y,z
-x,y,-z
loop_
_atom_site_type_symbol
_atom_site_label
_atom_site_fract_x
_atom_site_fract_y
_atom_site_fract_z
Si Si1 0.436011 0.066390 0.749232
Si Si2 0.201745 0.741308 0.260792
Si Si3 0.500000 0.476047 0.000000
Si Si4 0.725112 0.425818 0.896513
Si Si5 0.775110 0.245751 0.395417
Si Si6 0.000000 0.741919 0.500000
Si Si7 0.400414 0.743806 0.666177
Si Si8 0.103961 0.988839 0.882422
O O1 0.500000 0.060283 0.500000
O O2 0.336801 0.165557 0.659848
O O3 0.402278 0.897047 0.834293
O O4 0.500000 0.131379 0.000000
O O5 0.250008 0.604759 0.107812
O O6 0.092633 0.672285 0.349920
O O7 0.290515 0.756737 0.496713
O O8 0.177614 0.902370 0.111402
O O9 0.402439 0.404119 0.139276
O O10 0.570365 0.586011 0.195554
O O11 0.776288 0.326924 0.673576
O O12 0.774729 0.370149 0.171991
O O13 0.852304 0.112993 0.308230
O O14 0.064338 0.847674 0.707334
O O15 0.500000 0.760287 0.500000
O O16 0.000000 0.052735 0.000000
#
# Coordination Sequence:
#
# PCOD9114053 Si02
#       8
#     2   2   1   2   2   1   2   2
#     4  11  25  42  68 106 143 192 257 317 372 442
#     4  11  25  48  77 117 145 208 264 329 388 473
#     4  12  26  48  72 110 162 222 262 320 392 478
#     4  12  30  47  76 109 165 209 256 316 401 476
#     4  12  29  49  73 110 155 211 250 326 392 489
#     4  10  24  48  88 108 152 186 268 342 390 456
#     4  11  23  41  75 108 150 195 269 324 379 456
#     4  10  26  50  85 113 147 200 266 337 403 465
#
# _framework density 24.043119000000001
#
# number of rings (size 3 to 8) (size 9 to 14) (size 15 to 20)
#    0.000    0.857    2.143    2.571   19.000    0.000 
#    2.571    0.000    0.000    0.000    0.000    0.000 
#    0.000    0.000    0.000    0.000    0.000    0.000 
#
# Total GULP energy -78191.963999 kJ/mol
# GULP energy per Si atom -5585.140286 kJ/mol
# Density = 2.398840 g / cm^3
# Si number density = 24.043119 Si / 1000 Ang^3
#
#
#
# Elastic Constant Matrix: (Units=GPa)
#
#
# Indices 1 2 3 4 5 6 
#
# 1 133.7072 27.5550 35.0400 0.0000 -18.3765 0.0000
# 2 27.5550 67.5240 7.4440 0.0000 -9.3354 0.0000
# 3 35.0400 7.4440 86.8432 0.0000 -7.0258 0.0000
# 4 0.0000 0.0000 0.0000 42.2121 0.0000 -7.2279
# 5 -18.3765 -9.3354 -7.0258 0.0000 46.9931 0.0000
# 6 0.0000 0.0000 0.0000 -7.2279 0.0000 27.9218
#
#
#
# Elastic Compliance Matrix: (Units=1/GPa)
#
#
# Indices 1 2 3 4 5 6 
#
# 1 0.009329 -0.003092 -0.003293 0.000000 0.002541 0.000000
# 2 -0.003092 0.016352 0.000011 0.000000 0.002041 0.000000
# 3 -0.003293 0.000011 0.012895 0.000000 0.000642 0.000000
# 4 0.000000 0.000000 0.000000 0.024789 0.000000 0.006417
# 5 0.002541 0.002041 0.000642 0.000000 0.022775 0.000000
# 6 0.000000 0.000000 0.000000 0.006417 0.000000 0.037475
#
#
# Mechanical properties :
#
#
# Convention : Reuss Voigt Hill
#
# Bulk Modulus (GPa) = 38.71952 47.57248 43.14600
# Shear Modulus (GPa) = 34.48922 37.96110 36.22516
#
# Velocity S-wave (km/s) = 3.79155 3.97782 3.88580
# Velocity P-wave (km/s) = 5.94197 6.39739 6.17388
#
# Compressibility (1/GPa) = 0.02582676
#
# Stress axis : x y z
#
# Youngs Moduli (GPa) = 107.19654 61.15303 77.55061
#
# Poissons Ratio (x) = 0.18911 0.25540
# Poissons Ratio (y) = 0.33150 -0.00087
# Poissons Ratio (z) = 0.35303 -0.00068
#
# Static dielectric constant tensor:
#      x y z
#    x 1.940380 0.000000 -0.038630 
#    y 0.000000 1.977220 0.000000 
#    z -0.038630 0.000000 1.937230 
# 
# From -- ./inp_files/2269.got.cif
#   From: 2010.05.17/outbox.cif.g08.bks.cpg/sg3_2_cif.got.tgz:2269.got - 2010.06.03 18:33:08.
