data_PCOD9114728
_publ_section_title
;
Structure prediction by ZEFSAII (Michael W. Deem and Ramdas Pophale) SiO2 
 PCOD9114728
Probable space group: P 21
;
_chemical_formula_sum "Si O2"
_cell_formula_units_Z 16
_cell_length_a 28.112216
_cell_length_b 5.132678
_cell_length_c 17.032881
_cell_angle_alpha 90.000000
_cell_angle_beta 20.864206
_cell_angle_gamma 90.000000
_cell_volume 875.317110
_symmetry_space_group_name_H-M "P 21"
_symmetry_group_IT_number 4
_symmetry_cell_setting 'monoclinic'
loop_
_space_group_symop_operation_xyz
x,y,z
-x,1/2+y,-z
loop_
_atom_site_type_symbol
_atom_site_label
_atom_site_fract_x
_atom_site_fract_y
_atom_site_fract_z
Si Si1 0.407605 0.518580 0.962283
Si Si2 0.793576 0.946488 0.969108
Si Si3 0.439275 0.777849 0.136230
Si Si4 0.828241 0.696145 0.756140
Si Si5 0.957002 0.755768 0.396843
Si Si6 0.373122 0.821312 0.877285
Si Si7 0.201761 0.749898 0.405374
Si Si8 0.566057 0.630916 0.362292
O O1 0.513290 0.358404 0.850289
O O2 0.460790 0.709647 0.812607
O O3 0.303215 0.336281 0.077130
O O4 0.315561 0.673325 0.166447
O O5 0.897017 0.145908 0.846997
O O6 0.864363 0.801084 0.786526
O O7 0.674951 0.106998 0.110603
O O8 0.717447 0.737593 0.140052
O O9 0.282279 0.737497 0.362780
O O10 0.514865 0.519627 0.989859
O O11 0.937485 0.749108 0.521668
O O12 0.767275 0.411943 0.866280
O O13 0.853905 0.536028 0.525235
O O14 0.912985 0.033408 0.430454
O O15 0.436545 0.045335 0.725590
O O16 0.528403 0.371969 0.468574
#
# Coordination Sequence:
#
# PCOD9114728 Si02
#       8
#     2   2   2   2   2   2   2   2
#     4   9  18  31  48  73 106 144 190 234 260 315
#     4  10  23  33  54  76 104 148 189 221 277 326
#     4  10  19  31  51  70 101 152 201 230 270 311
#     4   9  19  30  46  73 108 141 185 221 266 303
#     4  11  22  33  49  71 112 149 188 227 252 323
#     4  10  19  35  52  80 103 143 185 225 279 325
#     4  10  20  33  46  73 105 152 193 224 261 303
#     4  11  22  40  58  74 103 141 183 242 289 332
#
# _framework density 18.27909
#
# number of rings (size 3 to 8) (size 9 to 14) (size 15 to 20)
#    0.000    2.000    2.500    2.250    7.000    0.000 
#    0.000    0.000    0.000    0.000    0.000    0.000 
#    0.000    0.000   17.000    2.750    0.250    0.750 
#
# Total GULP energy -89199.453203 kJ/mol
# GULP energy per Si atom -5574.965825 kJ/mol
# Density = 1.823749 g / cm^3
# Si number density = 18.279090 Si / 1000 Ang^3
#
#
#
# Elastic Constant Matrix: (Units=GPa)
#
#
# Indices 1 2 3 4 5 6 
#
# 1 61.4327 17.8418 28.5575 0.0000 -13.3547 0.0000
# 2 17.8418 84.7859 16.7455 0.0000 -0.0537 0.0000
# 3 28.5575 16.7455 49.6436 0.0000 1.6525 0.0000
# 4 0.0000 0.0000 0.0000 31.4991 0.0000 -0.0581
# 5 -13.3547 -0.0537 1.6525 0.0000 14.3579 0.0000
# 6 0.0000 0.0000 0.0000 -0.0581 0.0000 35.3671
#
#
#
# Elastic Compliance Matrix: (Units=1/GPa)
#
#
# Indices 1 2 3 4 5 6 
#
# 1 0.033369 -0.003205 -0.019221 0.000000 0.033238 0.000000
# 2 -0.003205 0.012948 -0.002436 0.000000 -0.002652 0.000000
# 3 -0.019221 -0.002436 0.032743 0.000000 -0.021656 0.000000
# 4 0.000000 0.000000 0.000000 0.031747 0.000000 0.000052
# 5 0.033238 -0.002652 -0.021656 0.000000 0.103046 0.000000
# 6 0.000000 0.000000 0.000000 0.000052 0.000000 0.028275
#
#
# Mechanical properties :
#
#
# Convention : Reuss Voigt Hill
#
# Bulk Modulus (GPa) = 34.08635 35.79465 34.94050
# Shear Modulus (GPa) = 16.57651 25.09263 20.83457
#
# Velocity S-wave (km/s) = 3.01467 3.70908 3.37976
# Velocity P-wave (km/s) = 5.55030 6.16181 5.86403
#
# Compressibility (1/GPa) = 0.02933726
#
# Stress axis : x y z
#
# Youngs Moduli (GPa) = 29.96754 77.23082 30.54087
#
# Poissons Ratio (x) = 0.24751 0.58703
# Poissons Ratio (y) = 0.09604 0.07439
# Poissons Ratio (z) = 0.57601 0.18812
#
# Static dielectric constant tensor:
#      x y z
#    x 1.665180 0.000000 -0.002000 
#    y 0.000000 1.741190 0.000000 
#    z -0.002000 0.000000 1.658570 
# 
# From -- ./inp_files/15429.got.cif
#   From: 2010.05.17/outbox.cif.g08.bks.cpg/sg4_8_cif.got.tgz:15429.got - 2010.06.03 18:43:04.
