data_PCOD9114903
_publ_section_title
;
Structure prediction by ZEFSAII (Michael W. Deem and Ramdas Pophale) SiO2 
 PCOD9114903
Probable space group: P 21
;
_chemical_formula_sum "Si O2"
_cell_formula_units_Z 16
_cell_length_a 6.804626
_cell_length_b 5.129688
_cell_length_c 20.208503
_cell_angle_alpha 90.000000
_cell_angle_beta 119.335331
_cell_angle_gamma 90.000000
_cell_volume 614.936038
_symmetry_space_group_name_H-M "P 21"
_symmetry_group_IT_number 4
_symmetry_cell_setting 'monoclinic'
loop_
_space_group_symop_operation_xyz
x,y,z
-x,1/2+y,-z
loop_
_atom_site_type_symbol
_atom_site_label
_atom_site_fract_x
_atom_site_fract_y
_atom_site_fract_z
Si Si1 0.890962 0.173580 0.155236
Si Si2 0.436909 0.069838 0.030052
Si Si3 0.939950 0.833825 0.284443
Si Si4 0.329757 0.683297 0.674354
Si Si5 0.126905 0.034342 0.544874
Si Si6 0.018850 0.672181 0.092786
Si Si7 0.513113 0.061016 0.792181
Si Si8 0.428802 0.770692 0.349719
O O1 0.618634 0.154141 0.113972
O O2 0.982289 0.068656 0.239198
O O3 0.964649 0.452669 0.140041
O O4 0.970890 0.956727 0.114724
O O5 0.506217 0.277112 0.983580
O O6 0.169068 0.110144 0.994098
O O7 0.843960 0.964221 0.333912
O O8 0.181414 0.709854 0.333450
O O9 0.730027 0.662042 0.224211
O O10 0.173244 0.920927 0.625939
O O11 0.478927 0.765863 0.761679
O O12 0.490628 0.571257 0.644074
O O13 0.380239 0.137291 0.573924
O O14 0.961962 0.276850 0.506851
O O15 0.284031 0.629391 0.125404
O O16 0.570282 0.187624 0.728726
#
# Coordination Sequence:
#
# PCOD9114903 Si02
#       8
#     2   2   2   2   2   2   2   2
#     4  10  20  35  62  90 124 170 217 263 326 375
#     4   8  16  31  55  86 116 163 221 264 307 387
#     4  11  23  38  65 100 134 164 216 269 317 379
#     4  10  23  40  68  95 132 162 214 261 317 372
#     4  11  22  44  77  95 126 175 209 251 319 384
#     4  10  19  36  61  87 123 171 220 263 325 375
#     4  10  22  36  60  93 132 165 212 269 322 374
#     4  10  21  42  68  96 127 172 209 260 317 380
#
# _framework density 26.018967
#
# number of rings (size 3 to 8) (size 9 to 14) (size 15 to 20)
#    0.000    2.000    2.500    0.750    3.500    2.000 
#    0.000    0.000   13.750    0.000    0.000    0.000 
#    0.000    0.000    0.000    0.000    0.000    0.000 
#
# Total GULP energy -89409.831346 kJ/mol
# GULP energy per Si atom -5588.114459 kJ/mol
# Density = 2.595975 g / cm^3
# Si number density = 26.018967 Si / 1000 Ang^3
#
#
#
# Elastic Constant Matrix: (Units=GPa)
#
#
# Indices 1 2 3 4 5 6 
#
# 1 123.0652 38.5060 46.1843 0.0000 59.5694 0.0000
# 2 38.5060 125.4038 26.0715 0.0000 17.7118 0.0000
# 3 46.1843 26.0715 113.2252 0.0000 50.9324 0.0000
# 4 0.0000 0.0000 0.0000 43.4898 0.0000 7.7679
# 5 59.5694 17.7118 50.9324 0.0000 55.8179 0.0000
# 6 0.0000 0.0000 0.0000 7.7679 0.0000 18.7557
#
#
#
# Elastic Compliance Matrix: (Units=1/GPa)
#
#
# Indices 1 2 3 4 5 6 
#
# 1 0.018238 -0.003209 0.002709 0.000000 -0.020918 0.000000
# 2 -0.003209 0.009017 -0.001731 0.000000 0.002143 0.000000
# 3 0.002709 -0.001731 0.015570 0.000000 -0.016549 0.000000
# 4 0.000000 0.000000 0.000000 0.024831 0.000000 -0.010284
# 5 -0.020918 0.002143 -0.016549 0.000000 0.054659 0.000000
# 6 0.000000 0.000000 0.000000 -0.010284 0.000000 0.057576
#
#
# Mechanical properties :
#
#
# Convention : Reuss Voigt Hill
#
# Bulk Modulus (GPa) = 26.06729 64.80196 45.43463
# Shear Modulus (GPa) = 25.36243 40.34151 32.85197
#
# Velocity S-wave (km/s) = 3.12551 3.94187 3.55719
# Velocity P-wave (km/s) = 4.80265 6.75851 5.86272
#
# Compressibility (1/GPa) = 0.03836225
#
# Stress axis : x y z
#
# Youngs Moduli (GPa) = 54.82911 110.90380 64.22696
#
# Poissons Ratio (x) = 0.35589 -0.17400
# Poissons Ratio (y) = 0.17595 0.11121
# Poissons Ratio (z) = -0.14854 0.19203
#
# Static dielectric constant tensor:
#      x y z
#    x 2.064240 0.000000 0.007830 
#    y 0.000000 2.168460 0.000000 
#    z 0.007830 0.000000 2.081990 
# 
# From -- ./inp_files/4363.got.cif
#   From: 2010.05.17/outbox.cif.g08.bks.cpg/sg4_3_cif.got.tgz:4363.got - 2010.06.03 18:43:04.
