data_PCOD9114852
_publ_section_title
;
Structure prediction by ZEFSAII (Michael W. Deem and Ramdas Pophale) SiO2 
 PCOD9114852
Probable space group: P 21
;
_chemical_formula_sum "Si O2"
_cell_formula_units_Z 16
_cell_length_a 5.398569
_cell_length_b 17.600077
_cell_length_c 9.843758
_cell_angle_alpha 90.000000
_cell_angle_beta 44.881529
_cell_angle_gamma 90.000000
_cell_volume 659.992957
_symmetry_space_group_name_H-M "P 21"
_symmetry_group_IT_number 4
_symmetry_cell_setting 'monoclinic'
loop_
_space_group_symop_operation_xyz
x,y,z
-x,1/2+y,-z
loop_
_atom_site_type_symbol
_atom_site_label
_atom_site_fract_x
_atom_site_fract_y
_atom_site_fract_z
Si Si1 0.629794 0.459850 0.123812
Si Si2 0.208917 0.325028 0.211116
Si Si3 0.744092 0.857669 0.115797
Si Si4 0.824817 0.180856 0.323682
Si Si5 0.767319 0.477588 0.627227
Si Si6 0.857036 0.218237 0.997464
Si Si7 0.522429 0.535219 0.435451
Si Si8 0.465659 0.579910 0.959935
O O1 0.331971 0.394050 0.258923
O O2 0.718124 0.505920 0.225092
O O3 0.491701 0.522221 0.072985
O O4 0.962800 0.414045 0.934391
O O5 0.907658 0.263107 0.359093
O O6 0.150324 0.359131 0.084401
O O7 0.555439 0.273538 0.060638
O O8 0.367927 0.892953 0.290437
O O9 0.799933 0.770490 0.136082
O O10 0.555822 0.123783 0.500934
O O11 0.185880 0.132624 0.176435
O O12 0.747018 0.198765 0.195759
O O13 0.710704 0.499428 0.492918
O O14 0.487099 0.531127 0.815309
O O15 0.135347 0.499716 0.552625
O O16 0.845935 0.140699 0.919448
#
# Coordination Sequence:
#
# PCOD9114852 Si02
#       8
#     2   2   2   2   2   2   2   2
#     4  11  23  37  61  98 127 164 212 273 319 371
#     4   9  19  35  62  88 121 160 217 257 317 380
#     4  10  20  37  64  90 120 165 218 265 313 378
#     4   9  18  37  59  86 119 174 209 254 315 392
#     4  11  22  40  63  90 124 167 212 259 311 380
#     4   9  18  34  61  91 117 159 220 261 313 373
#     4  11  25  39  62  94 134 167 206 260 326 382
#     4  10  19  35  62  89 120 160 220 265 306 370
#
# _framework density 24.242681999999999
#
# number of rings (size 3 to 8) (size 9 to 14) (size 15 to 20)
#    0.000    2.000    2.500    1.500    3.500    0.000 
#    0.000    1.250    0.000    0.000    0.000    0.000 
#    0.000    0.000    0.000    0.000    0.000    0.000 
#
# Total GULP energy -89387.423634 kJ/mol
# GULP energy per Si atom -5586.713977 kJ/mol
# Density = 2.418751 g / cm^3
# Si number density = 24.242682 Si / 1000 Ang^3
#
#
#
# Elastic Constant Matrix: (Units=GPa)
#
#
# Indices 1 2 3 4 5 6 
#
# 1 81.4592 32.9238 20.5792 0.0000 9.6076 0.0000
# 2 32.9238 134.1897 27.7315 0.0000 15.1680 0.0000
# 3 20.5792 27.7315 60.4553 0.0000 7.1992 0.0000
# 4 0.0000 0.0000 0.0000 29.2038 0.0000 8.1338
# 5 9.6076 15.1680 7.1992 0.0000 39.8207 0.0000
# 6 0.0000 0.0000 0.0000 8.1338 0.0000 51.4523
#
#
#
# Elastic Compliance Matrix: (Units=1/GPa)
#
#
# Indices 1 2 3 4 5 6 
#
# 1 0.014432 -0.002609 -0.003495 0.000000 -0.001857 0.000000
# 2 -0.002609 0.008957 -0.002953 0.000000 -0.002248 0.000000
# 3 -0.003495 -0.002953 0.019266 0.000000 -0.001515 0.000000
# 4 0.000000 0.000000 0.000000 0.035819 0.000000 -0.005662
# 5 -0.001857 -0.002248 -0.001515 0.000000 0.026691 0.000000
# 6 0.000000 0.000000 0.000000 -0.005662 0.000000 0.020331
#
#
# Mechanical properties :
#
#
# Convention : Reuss Voigt Hill
#
# Bulk Modulus (GPa) = 40.74724 48.73035 44.73879
# Shear Modulus (GPa) = 32.94044 37.08668 35.01356
#
# Velocity S-wave (km/s) = 3.69016 3.91552 3.80451
# Velocity P-wave (km/s) = 5.91616 6.37075 6.14766
#
# Compressibility (1/GPa) = 0.02454154
#
# Stress axis : x y z
#
# Youngs Moduli (GPa) = 69.28819 111.64983 51.90568
#
# Poissons Ratio (x) = 0.29129 0.18141
# Poissons Ratio (y) = 0.18077 0.15326
# Poissons Ratio (z) = 0.24217 0.32966
#
# Static dielectric constant tensor:
#      x y z
#    x 1.966020 0.000000 -0.045750 
#    y 0.000000 1.957750 0.000000 
#    z -0.045750 0.000000 1.950320 
# 
# From -- ./inp_files/1599.got.cif
#   From: 2010.05.17/outbox.cif.g08.bks.cpg/sg4_1_cif.got.tgz:1599.got - 2010.06.03 18:43:04.
