data_PCOD9114313
_publ_section_title
;
Structure prediction by ZEFSAII (Michael W. Deem and Ramdas Pophale) SiO2 
 PCOD9114313
Probable space group: P 2
;
_chemical_formula_sum "Si O2"
_cell_formula_units_Z 11
_cell_length_a 8.854461
_cell_length_b 6.044139
_cell_length_c 13.474058
_cell_angle_alpha 90.000000
_cell_angle_beta 40.424748
_cell_angle_gamma 90.000000
_cell_volume 467.595862
_symmetry_space_group_name_H-M "P 2"
_symmetry_group_IT_number 3
_symmetry_cell_setting 'monoclinic'
loop_
_space_group_symop_operation_xyz
x,y,z
-x,y,-z
loop_
_atom_site_type_symbol
_atom_site_label
_atom_site_fract_x
_atom_site_fract_y
_atom_site_fract_z
Si Si1 0.000000 0.085240 0.000000
Si Si2 0.238854 0.448320 0.012065
Si Si3 0.843506 0.785858 0.230014
Si Si4 0.000000 0.788183 0.500000
Si Si5 0.500000 0.436530 0.500000
Si Si6 0.238559 0.424912 0.249177
Si Si7 0.843161 0.087355 0.426773
O O1 0.107227 0.243053 0.029886
O O2 0.803119 0.946283 0.157250
O O3 0.250593 0.436527 0.124677
O O4 0.082598 0.665775 0.077242
O O5 0.500223 0.436565 0.841096
O O6 0.660844 0.595499 0.351527
O O7 0.868212 0.936578 0.315962
O O8 0.893022 0.630361 0.637101
O O9 0.802879 0.927014 0.539932
O O10 0.660473 0.277578 0.487896
O O11 0.082132 0.207592 0.340424
#
# Coordination Sequence:
#
# PCOD9114313 Si02
#       7
#     1   2   2   1   1   2   2
#     4  12  26  52  78 116 148 208 262 310 396 454
#     4  11  25  53  78 111 158 196 256 321 378 471
#     4  12  25  52  78 111 154 207 257 317 388 447
#     4  12  26  52  78 116 148 208 262 310 396 454
#     4  12  26  52  78 106 160 206 262 326 364 462
#     4  11  25  53  78 111 158 196 256 321 378 471
#     4  12  25  52  78 111 154 207 257 317 388 447
#
# _framework density 23.524585999999999
#
# number of rings (size 3 to 8) (size 9 to 14) (size 15 to 20)
#    0.000    0.364    5.455    1.636    0.000    1.455 
#   49.091    0.000    0.000    0.000    0.000    0.000 
#    0.000    0.000    0.000    0.000    0.000    0.000 
#
# Total GULP energy -61504.236100 kJ/mol
# GULP energy per Si atom -5591.294191 kJ/mol
# Density = 2.347104 g / cm^3
# Si number density = 23.524586 Si / 1000 Ang^3
#
#
#
# Elastic Constant Matrix: (Units=GPa)
#
#
# Indices 1 2 3 4 5 6 
#
# 1 89.0176 73.0758 77.6524 0.0000 15.5314 0.0000
# 2 73.0758 146.5930 70.7932 0.0000 3.5248 0.0000
# 3 77.6524 70.7932 85.2150 0.0000 -9.8881 0.0000
# 4 0.0000 0.0000 0.0000 76.3040 0.0000 -29.6378
# 5 15.5314 3.5248 -9.8881 0.0000 46.3645 0.0000
# 6 0.0000 0.0000 0.0000 -29.6378 0.0000 59.2082
#
#
#
# Elastic Compliance Matrix: (Units=1/GPa)
#
#
# Indices 1 2 3 4 5 6 
#
# 1 0.204939 -0.005305 -0.195091 0.000000 -0.109855 0.000000
# 2 -0.005305 0.011939 -0.005110 0.000000 -0.000220 0.000000
# 3 -0.195091 -0.005110 0.206496 0.000000 0.109780 0.000000
# 4 0.000000 0.000000 0.000000 0.016269 0.000000 0.008144
# 5 -0.109855 -0.000220 0.109780 0.000000 0.081798 0.000000
# 6 0.000000 0.000000 0.000000 0.008144 0.000000 0.020966
#
#
# Mechanical properties :
#
#
# Convention : Reuss Voigt Hill
#
# Bulk Modulus (GPa) = 80.89377 84.87426 82.88401
# Shear Modulus (GPa) = 5.22172 42.99562 24.10867
#
# Velocity S-wave (km/s) = 1.49148 4.27979 3.20477
# Velocity P-wave (km/s) = 6.11781 7.78327 7.00025
#
# Compressibility (1/GPa) = 0.01236189
#
# Stress axis : x y z
#
# Youngs Moduli (GPa) = 4.87949 83.75822 4.84271
#
# Poissons Ratio (x) = 0.44437 0.94477
# Poissons Ratio (y) = 0.02589 0.02474
# Poissons Ratio (z) = 0.95195 0.42796
#
# Static dielectric constant tensor:
#      x y z
#    x 1.887790 0.000000 -0.071770 
#    y 0.000000 1.911150 0.000000 
#    z -0.071770 0.000000 1.929230 
# 
# From -- ./inp_files/7925.got.cif
#   From: 2010.05.17/outbox.cif.g08.bks.cpg/sg3_4_cif.got.tgz:7925.got - 2010.06.03 18:33:08.
