data_PCOD9114487
_publ_section_title
;
Structure prediction by ZEFSAII (Michael W. Deem and Ramdas Pophale) SiO2 
 PCOD9114487
Probable space group: P 21
;
_chemical_formula_sum "Si O2"
_cell_formula_units_Z 16
_cell_length_a 7.558959
_cell_length_b 5.474865
_cell_length_c 19.359409
_cell_angle_alpha 90.000000
_cell_angle_beta 55.729240
_cell_angle_gamma 90.000000
_cell_volume 662.079791
_symmetry_space_group_name_H-M "P 21"
_symmetry_group_IT_number 4
_symmetry_cell_setting 'monoclinic'
loop_
_space_group_symop_operation_xyz
x,y,z
-x,1/2+y,-z
loop_
_atom_site_type_symbol
_atom_site_label
_atom_site_fract_x
_atom_site_fract_y
_atom_site_fract_z
Si Si1 0.937183 0.726480 0.609538
Si Si2 0.333395 0.724950 0.626997
Si Si3 0.902488 0.225798 0.580300
Si Si4 0.828875 0.227272 0.191165
Si Si5 0.721006 0.726437 0.398576
Si Si6 0.595200 0.144740 0.965408
Si Si7 0.968001 0.228610 0.802817
Si Si8 0.876982 0.300341 0.030602
O O1 0.809196 0.475084 0.631207
O O2 0.095495 0.727792 0.640898
O O3 0.075238 0.726133 0.507174
O O4 0.807743 0.976813 0.631272
O O5 0.330857 0.717285 0.709474
O O6 0.417688 0.467547 0.582670
O O7 0.416033 0.986501 0.586115
O O8 0.145010 0.224491 0.560061
O O9 0.948459 0.484344 0.177819
O O10 0.754942 0.240409 0.128897
O O11 0.968963 0.983141 0.174145
O O12 0.907055 0.731609 0.297705
O O13 0.713078 0.192257 0.866118
O O14 0.414208 0.355903 0.013356
O O15 0.740591 0.255414 0.993569
O O16 0.947594 0.583039 0.012884
#
# Coordination Sequence:
#
# PCOD9114487 Si02
#       8
#     2   2   2   2   2   2   2   2
#     4   8  12  18  27  44  71 102 127 162 203 251
#     4   8  14  21  34  54  77 100 135 174 214 248
#     4   8  12  18  28  44  69 100 135 160 197 249
#     4  10  17  30  48  67  83 112 153 191 217 265
#     4   8  14  22  35  53  73 104 139 174 204 252
#     4  12  24  36  50  72  98 122 150 196 247 284
#     4  10  18  31  47  64  88 114 149 187 227 268
#     4  12  21  36  55  72  91 122 160 196 231 279
#
# _framework density 24.166273
#
# number of rings (size 3 to 8) (size 9 to 14) (size 15 to 20)
#    0.000    2.500    2.500    1.500    0.000    0.000 
#    0.000    0.000    0.000    0.000    0.000    0.000 
#    0.000    0.000    0.000    2.250    0.000    3.250 
#
# Total GULP energy -89127.618383 kJ/mol
# GULP energy per Si atom -5570.476149 kJ/mol
# Density = 2.411127 g / cm^3
# Si number density = 24.166273 Si / 1000 Ang^3
#
#
#
# Elastic Constant Matrix: (Units=GPa)
#
#
# Indices 1 2 3 4 5 6 
#
# 1 24.2599 -4.6960 21.7679 0.0000 12.6574 0.0000
# 2 -4.6960 214.0529 6.8190 0.0000 -1.8025 0.0000
# 3 21.7679 6.8190 136.6032 0.0000 0.4237 0.0000
# 4 0.0000 0.0000 0.0000 22.1070 0.0000 13.0892
# 5 12.6574 -1.8025 0.4237 0.0000 23.6354 0.0000
# 6 0.0000 0.0000 0.0000 13.0892 0.0000 -10.1188
#
#
#
# Elastic Compliance Matrix: (Units=1/GPa)
#
#
# Indices 1 2 3 4 5 6 
#
# 1 0.071551 0.001612 -0.011364 0.000000 -0.037991 0.000000
# 2 0.001612 0.004719 -0.000491 0.000000 -0.000495 0.000000
# 3 -0.011364 -0.000491 0.009138 0.000000 0.005885 0.000000
# 4 0.000000 0.000000 0.000000 0.025616 0.000000 0.033135
# 5 -0.037991 -0.000495 0.005885 0.000000 0.062511 0.000000
# 6 0.000000 0.000000 0.000000 0.033135 0.000000 -0.055964
#
#
# Mechanical properties :
#
#
# Convention : Reuss Voigt Hill
#
# Bulk Modulus (GPa) = 15.40351 46.96640 31.18495
# Shear Modulus (GPa) = 31.30934 30.52641 30.91788
#
# Velocity S-wave (km/s) = 3.60332 3.55798 3.58072
# Velocity P-wave (km/s) = 4.86823 6.02958 5.47976
#
# Compressibility (1/GPa) = 0.06492028
#
# Stress axis : x y z
#
# Youngs Moduli (GPa) = 13.97610 211.92836 109.43743
#
# Poissons Ratio (x) = -0.34159 1.24368
# Poissons Ratio (y) = -0.02253 0.05372
# Poissons Ratio (z) = 0.15883 0.10403
#
# Static dielectric constant tensor:
#      x y z
#    x 1.912520 0.000000 -0.005730 
#    y 0.000000 2.352930 0.000000 
#    z -0.005730 0.000000 1.853770 
# 
# From -- ./inp_files/9354.got.cif
#   From: 2010.05.17/outbox.cif.g08.bks.cpg/sg4_5_cif.got.tgz:9354.got - 2010.06.03 18:43:04.
