data_PCOD9114979
_publ_section_title
;
Structure prediction by ZEFSAII (Michael W. Deem and Ramdas Pophale) SiO2 
 PCOD9114979
Probable space group: P 21
;
_chemical_formula_sum "Si O2"
_cell_formula_units_Z 12
_cell_length_a 7.275110
_cell_length_b 5.278657
_cell_length_c 22.229434
_cell_angle_alpha 90.000000
_cell_angle_beta 40.172989
_cell_angle_gamma 90.000000
_cell_volume 550.702182
_symmetry_space_group_name_H-M "P 21"
_symmetry_group_IT_number 4
_symmetry_cell_setting 'monoclinic'
loop_
_space_group_symop_operation_xyz
x,y,z
-x,1/2+y,-z
loop_
_atom_site_type_symbol
_atom_site_label
_atom_site_fract_x
_atom_site_fract_y
_atom_site_fract_z
Si Si1 0.534584 0.166520 0.030401
Si Si2 0.556127 0.116934 0.285779
Si Si3 0.896998 0.273906 0.557949
Si Si4 0.124549 0.247526 0.861194
Si Si5 0.755314 0.031746 0.709090
Si Si6 0.980168 0.918814 0.780091
O O1 0.285485 0.231456 0.139228
O O2 0.498047 0.385790 0.988366
O O3 0.859377 0.209330 0.971740
O O4 0.319003 0.269413 0.307477
O O5 0.717306 0.280583 0.294449
O O6 0.424309 0.877883 0.353140
O O7 0.799339 0.032487 0.177522
O O8 0.060297 0.520821 0.492054
O O9 0.946667 0.189259 0.614207
O O10 0.434627 0.140252 0.800448
O O11 0.015149 0.109600 0.827487
O O12 0.910541 0.027796 0.733158
#
# Coordination Sequence:
#
# PCOD9114979 Si02
#       6
#     2   2   2   2   2   2
#     4  10  19  38  61  90 132 180 221 257 309 374
#     4  10  20  40  69  89 131 168 213 260 333 375
#     4  11  22  43  73  93 124 173 210 267 338 399
#     4   9  20  38  59  89 134 178 212 259 317 371
#     4  10  22  40  67  98 128 167 217 269 324 383
#     4  10  21  39  65  97 129 176 215 268 313 378
#
# _framework density 21.790364
#
# number of rings (size 3 to 8) (size 9 to 14) (size 15 to 20)
#    0.000    2.000    3.333    0.000    0.000    2.667 
#    3.000    0.000   14.667    0.000    0.000    0.000 
#    0.000    0.000    0.000    0.000    0.000    0.000 
#
# Total GULP energy -66856.300951 kJ/mol
# GULP energy per Si atom -5571.358413 kJ/mol
# Density = 2.174077 g / cm^3
# Si number density = 21.790364 Si / 1000 Ang^3
#
#
#
# Elastic Constant Matrix: (Units=GPa)
#
#
# Indices 1 2 3 4 5 6 
#
# 1 81.4126 12.1589 -11.4075 0.0000 16.2426 0.0000
# 2 12.1589 78.1509 3.8341 0.0000 -2.0962 0.0000
# 3 -11.4075 3.8341 37.7794 0.0000 -0.9077 0.0000
# 4 0.0000 0.0000 0.0000 47.7624 0.0000 -19.6796
# 5 16.2426 -2.0962 -0.9077 0.0000 16.9407 0.0000
# 6 0.0000 0.0000 0.0000 -19.6796 0.0000 5.9855
#
#
#
# Elastic Compliance Matrix: (Units=1/GPa)
#
#
# Indices 1 2 3 4 5 6 
#
# 1 0.016691 -0.003274 0.004984 0.000000 -0.016141 0.000000
# 2 -0.003274 0.013541 -0.002250 0.000000 0.004694 0.000000
# 3 0.004984 -0.002250 0.028117 0.000000 -0.003551 0.000000
# 4 0.000000 0.000000 0.000000 -0.059023 0.000000 -0.194064
# 5 -0.016141 0.004694 -0.003551 0.000000 0.074896 0.000000
# 6 0.000000 0.000000 0.000000 -0.194064 0.000000 -0.470991
#
#
# Mechanical properties :
#
#
# Convention : Reuss Voigt Hill
#
# Bulk Modulus (GPa) = 17.46130 22.94600 20.20365
# Shear Modulus (GPa) = -13.27675 26.98819 6.85572
#
# Velocity S-wave (km/s) = -2.47107 3.52310 1.77568
# Velocity P-wave (km/s) = 0.33295 5.20604 3.67369
#
# Compressibility (1/GPa) = 0.05726951
#
# Stress axis : x y z
#
# Youngs Moduli (GPa) = 59.91306 73.84712 35.56506
#
# Poissons Ratio (x) = 0.24180 -0.17727
# Poissons Ratio (y) = 0.19617 0.08003
# Poissons Ratio (z) = -0.29862 0.16617
#
# Static dielectric constant tensor:
#      x y z
#    x 1.758700 0.000000 -0.029980 
#    y 0.000000 1.910770 0.000000 
#    z -0.029980 0.000000 1.902710 
# 
# From -- ./inp_files/3832.got.cif
#   From: 2010.05.17/outbox.cif.g08.bks.cpg/sg4_2_cif.got.tgz:3832.got - 2010.06.03 18:43:04.
