data_PCOD9114720
_publ_section_title
;
Structure prediction by ZEFSAII (Michael W. Deem and Ramdas Pophale) SiO2 
 PCOD9114720
Probable space group: P 21
;
_chemical_formula_sum "Si O2"
_cell_formula_units_Z 12
_cell_length_a 12.276084
_cell_length_b 4.934058
_cell_length_c 10.348076
_cell_angle_alpha 90.000000
_cell_angle_beta 69.191509
_cell_angle_gamma 90.000000
_cell_volume 585.908624
_symmetry_space_group_name_H-M "P 21"
_symmetry_group_IT_number 4
_symmetry_cell_setting 'monoclinic'
loop_
_space_group_symop_operation_xyz
x,y,z
-x,1/2+y,-z
loop_
_atom_site_type_symbol
_atom_site_label
_atom_site_fract_x
_atom_site_fract_y
_atom_site_fract_z
Si Si1 0.023985 0.134830 0.910166
Si Si2 0.846375 0.347766 0.603197
Si Si3 0.267275 0.382768 0.718627
Si Si4 0.635938 0.628960 0.568031
Si Si5 0.591556 0.397717 0.321048
Si Si6 0.947539 0.850687 0.685268
O O1 0.141362 0.279567 0.811058
O O2 0.962238 0.974461 0.819788
O O3 0.953307 0.388458 0.999242
O O4 0.719794 0.456586 0.622186
O O5 0.857495 0.041983 0.646181
O O6 0.928947 0.375431 0.441829
O O7 0.905139 0.544182 0.685550
O O8 0.287263 0.326643 0.556988
O O9 0.303338 0.684930 0.736996
O O10 0.362332 0.185271 0.745337
O O11 0.577812 0.435540 0.482869
O O12 0.530479 0.788626 0.677894
#
# Coordination Sequence:
#
# PCOD9114720 Si02
#       6
#     2   2   2   2   2   2
#     4  12  24  39  60  79 109 152 198 229 261 317
#     4  10  21  31  58  74 121 138 170 220 290 343
#     4  10  20  34  50  81 113 138 178 236 267 318
#     4  10  19  31  53  86 111 150 164 222 287 340
#     4  10  19  30  53  80 123 134 179 219 280 351
#     4  10  21  37  48  84 105 150 177 220 277 333
#
# _framework density 20.481007999999999
#
# number of rings (size 3 to 8) (size 9 to 14) (size 15 to 20)
#    1.000    0.667    3.333    2.000    2.333    1.333 
#    0.000    0.000    0.000    0.000    0.000   23.333 
#    0.000    0.000    0.000    0.000    0.000    0.000 
#
# Total GULP energy -66964.739399 kJ/mol
# GULP energy per Si atom -5580.394950 kJ/mol
# Density = 2.043439 g / cm^3
# Si number density = 20.481008 Si / 1000 Ang^3
#
#
#
# Elastic Constant Matrix: (Units=GPa)
#
#
# Indices 1 2 3 4 5 6 
#
# 1 55.3321 -17.2772 -0.5222 0.0000 -1.8135 0.0000
# 2 -17.2772 76.3146 4.5932 0.0000 -2.8747 0.0000
# 3 -0.5222 4.5932 36.6806 0.0000 2.4928 0.0000
# 4 0.0000 0.0000 0.0000 18.5768 0.0000 -2.6351
# 5 -1.8135 -2.8747 2.4928 0.0000 15.6621 0.0000
# 6 0.0000 0.0000 0.0000 -2.6351 0.0000 23.1354
#
#
#
# Elastic Compliance Matrix: (Units=1/GPa)
#
#
# Indices 1 2 3 4 5 6 
#
# 1 0.019606 0.004590 -0.000513 0.000000 0.003194 0.000000
# 2 0.004590 0.014393 -0.001974 0.000000 0.003487 0.000000
# 3 -0.000513 -0.001974 0.027832 0.000000 -0.004852 0.000000
# 4 0.000000 0.000000 0.000000 0.054715 0.000000 0.006232
# 5 0.003194 0.003487 -0.004852 0.000000 0.065631 0.000000
# 6 0.000000 0.000000 0.000000 0.006232 0.000000 0.043934
#
#
# Mechanical properties :
#
#
# Convention : Reuss Voigt Hill
#
# Bulk Modulus (GPa) = 15.14306 15.76832 15.45569
# Shear Modulus (GPa) = 20.49891 23.57709 22.03800
#
# Velocity S-wave (km/s) = 3.16709 3.39657 3.28383
# Velocity P-wave (km/s) = 4.55892 4.80603 4.68410
#
# Compressibility (1/GPa) = 0.06603687
#
# Stress axis : x y z
#
# Youngs Moduli (GPa) = 51.00560 69.47852 35.92990
#
# Poissons Ratio (x) = -0.31889 0.01842
# Poissons Ratio (y) = -0.23411 0.07092
# Poissons Ratio (z) = 0.02615 0.13715
#
# Static dielectric constant tensor:
#      x y z
#    x 1.745200 0.000000 -0.002250 
#    y 0.000000 1.757410 0.000000 
#    z -0.002250 0.000000 1.744910 
# 
# From -- ./inp_files/7331.got.cif
#   From: 2010.05.17/outbox.cif.g08.bks.cpg/sg4_4_cif.got.tgz:7331.got - 2010.06.03 18:43:04.
