data_PCOD9114210
_publ_section_title
;
Structure prediction by ZEFSAII (Michael W. Deem and Ramdas Pophale) SiO2 
 PCOD9114210
Probable space group: P 2
;
_chemical_formula_sum "Si O2"
_cell_formula_units_Z 14
_cell_length_a 11.015903
_cell_length_b 9.424687
_cell_length_c 9.305121
_cell_angle_alpha 90.000000
_cell_angle_beta 137.554493
_cell_angle_gamma 90.000000
_cell_volume 651.990420
_symmetry_space_group_name_H-M "P 2"
_symmetry_group_IT_number 3
_symmetry_cell_setting 'monoclinic'
loop_
_space_group_symop_operation_xyz
x,y,z
-x,y,-z
loop_
_atom_site_type_symbol
_atom_site_label
_atom_site_fract_x
_atom_site_fract_y
_atom_site_fract_z
Si Si1 0.890496 0.666370 0.648445
Si Si2 0.748398 0.119761 0.740074
Si Si3 0.735662 0.549849 0.021072
Si Si4 0.500000 0.328754 0.000000
Si Si5 0.000000 0.875582 0.000000
Si Si6 0.541509 0.780715 0.198783
Si Si7 0.279917 0.430080 0.301363
Si Si8 0.444057 0.100500 0.706027
O O1 0.944148 0.777183 0.819946
O O2 0.743331 0.738658 0.417731
O O3 0.787858 0.536771 0.636282
O O4 0.080285 0.611561 0.751995
O O5 0.811579 0.277184 0.758952
O O6 0.592369 0.151000 0.720150
O O7 0.711559 0.066297 0.545557
O O8 0.846784 0.989873 0.902222
O O9 0.638777 0.434496 0.039549
O O10 0.602489 0.677177 0.852791
O O11 0.780908 0.478682 0.908908
O O12 0.421746 0.221315 0.808132
O O13 0.508191 0.947417 0.188958
O O14 0.500000 0.743661 0.000000
O O15 0.500000 0.424428 0.500000
#
# Coordination Sequence:
#
# PCOD9114210 Si02
#       8
#     2   2   2   1   1   2   2   2
#     4  12  27  45  73 112 145 187 253 305 362 437
#     4  11  24  40  70 106 140 184 239 302 364 427
#     4  12  25  46  73 104 145 192 244 302 365 434
#     4  12  24  46  76 106 144 200 242 296 370 448
#     4  12  24  42  70 110 148 182 242 312 368 426
#     4  12  26  46  72 102 145 197 238 301 368 436
#     4  12  22  42  74 109 145 185 242 310 368 426
#     4  11  23  43  71 101 140 189 242 290 367 435
#
# _framework density 21.472708000000001
#
# number of rings (size 3 to 8) (size 9 to 14) (size 15 to 20)
#    0.000    0.286    8.571    0.857    2.000    0.571 
#    0.000    0.000    3.143    0.000    0.000    0.000 
#    0.000    0.000    0.000    0.000    0.000    0.000 
#
# Total GULP energy -78063.397214 kJ/mol
# GULP energy per Si atom -5575.956944 kJ/mol
# Density = 2.142383 g / cm^3
# Si number density = 21.472708 Si / 1000 Ang^3
#
#
#
# Elastic Constant Matrix: (Units=GPa)
#
#
# Indices 1 2 3 4 5 6 
#
# 1 42.4227 17.7044 15.6676 0.0000 5.9884 0.0000
# 2 17.7044 144.4893 24.7601 0.0000 9.5079 0.0000
# 3 15.6676 24.7601 115.2334 0.0000 9.8110 0.0000
# 4 0.0000 0.0000 0.0000 207.0719 0.0000 -88.2220
# 5 5.9884 9.5079 9.8110 0.0000 33.3145 0.0000
# 6 0.0000 0.0000 0.0000 -88.2220 0.0000 68.3503
#
#
#
# Elastic Compliance Matrix: (Units=1/GPa)
#
#
# Indices 1 2 3 4 5 6 
#
# 1 0.026080 -0.002519 -0.002735 0.000000 -0.003164 0.000000
# 2 -0.002519 0.007517 -0.001158 0.000000 -0.001352 0.000000
# 3 -0.002735 -0.001158 0.009466 0.000000 -0.001966 0.000000
# 4 0.000000 0.000000 0.000000 0.010730 0.000000 0.013849
# 5 -0.003164 -0.001352 -0.001966 0.000000 0.031550 0.000000
# 6 0.000000 0.000000 0.000000 0.013849 0.000000 0.032506
#
#
# Mechanical properties :
#
#
# Convention : Reuss Voigt Hill
#
# Bulk Modulus (GPa) = 33.06916 46.48995 39.77956
# Shear Modulus (GPa) = 35.52344 78.01488 56.76916
#
# Velocity S-wave (km/s) = 4.07179 6.03415 5.14735
# Velocity P-wave (km/s) = 6.12698 8.38127 7.34117
#
# Compressibility (1/GPa) = 0.03023965
#
# Stress axis : x y z
#
# Youngs Moduli (GPa) = 38.34321 133.03432 105.64071
#
# Poissons Ratio (x) = 0.33507 0.28897
# Poissons Ratio (y) = 0.09658 0.12229
# Poissons Ratio (z) = 0.10489 0.15400
#
# Static dielectric constant tensor:
#      x y z
#    x 1.223150 0.000000 -0.147190 
#    y 0.000000 1.775950 0.000000 
#    z -0.147190 0.000000 1.903140 
# 
# From -- ./inp_files/7604.got.cif
#   From: 2010.05.17/outbox.cif.g08.bks.cpg/sg3_4_cif.got.tgz:7604.got - 2010.06.03 18:33:08.
