data_PCOD9114968
_publ_section_title
;
Structure prediction by ZEFSAII (Michael W. Deem and Ramdas Pophale) SiO2 
 PCOD9114968
Probable space group: P 21
;
_chemical_formula_sum "Si O2"
_cell_formula_units_Z 16
_cell_length_a 7.422003
_cell_length_b 10.331913
_cell_length_c 13.532091
_cell_angle_alpha 90.000000
_cell_angle_beta 39.073109
_cell_angle_gamma 90.000000
_cell_volume 654.066663
_symmetry_space_group_name_H-M "P 21"
_symmetry_group_IT_number 4
_symmetry_cell_setting 'monoclinic'
loop_
_space_group_symop_operation_xyz
x,y,z
-x,1/2+y,-z
loop_
_atom_site_type_symbol
_atom_site_label
_atom_site_fract_x
_atom_site_fract_y
_atom_site_fract_z
Si Si1 0.431342 0.966640 0.919120
Si Si2 0.898167 0.391585 0.115769
Si Si3 0.303760 0.715744 0.654217
Si Si4 0.479237 0.983271 0.127028
Si Si5 0.064421 0.939297 0.630399
Si Si6 0.795484 0.627476 0.587615
Si Si7 0.382574 0.089956 0.637426
Si Si8 0.583148 0.220023 0.727888
O O1 0.190949 0.890550 0.959820
O O2 0.738505 0.897005 0.775418
O O3 0.487844 0.104803 0.842388
O O4 0.376816 0.982020 0.058046
O O5 0.931471 0.257063 0.162355
O O6 0.634998 0.466418 0.282442
O O7 0.175359 0.480178 0.013631
O O8 0.264285 0.832004 0.593253
O O9 0.575263 0.701954 0.610761
O O10 0.356551 0.599175 0.552967
O O11 0.413707 0.848962 0.210468
O O12 0.340150 0.098394 0.249004
O O13 0.104309 0.691038 0.450220
O O14 0.156016 0.987827 0.485291
O O15 0.112346 0.065806 0.680695
O O16 0.383217 0.206936 0.715424
#
# Coordination Sequence:
#
# PCOD9114968 Si02
#       8
#     2   2   2   2   2   2   2   2
#     4  10  22  46  69  97 142 178 230 285 345 421
#     4  10  23  42  66 100 139 182 225 283 350 405
#     4  10  19  37  68  98 127 183 222 275 346 396
#     4  12  24  47  69  97 144 179 228 297 340 408
#     4   9  18  41  65  91 138 177 222 287 337 413
#     4  10  24  41  65 101 136 179 238 282 340 421
#     4   9  18  38  66  93 136 175 219 280 335 407
#     4  10  24  44  68 101 138 187 232 283 349 413
#
# _framework density 24.462337999999999
#
# number of rings (size 3 to 8) (size 9 to 14) (size 15 to 20)
#    0.000    2.000    2.500    0.750    0.000    8.000 
#   15.750    0.000    0.000    0.000    0.000    0.000 
#    0.000    0.000    0.000    0.000    0.000    0.000 
#
# Total GULP energy -89182.270594 kJ/mol
# GULP energy per Si atom -5573.891912 kJ/mol
# Density = 2.440666 g / cm^3
# Si number density = 24.462338 Si / 1000 Ang^3
#
#
#
# Elastic Constant Matrix: (Units=GPa)
#
#
# Indices 1 2 3 4 5 6 
#
# 1 64.8207 18.6485 61.9019 0.0000 27.5847 0.0000
# 2 18.6485 74.7678 50.5068 0.0000 -0.9713 0.0000
# 3 61.9019 50.5068 157.9216 0.0000 20.1186 0.0000
# 4 0.0000 0.0000 0.0000 44.8261 0.0000 3.5393
# 5 27.5847 -0.9713 20.1186 0.0000 42.3567 0.0000
# 6 0.0000 0.0000 0.0000 3.5393 0.0000 26.1690
#
#
#
# Elastic Compliance Matrix: (Units=1/GPa)
#
#
# Indices 1 2 3 4 5 6 
#
# 1 0.032579 -0.001433 -0.010224 0.000000 -0.016394 0.000000
# 2 -0.001433 0.017534 -0.005552 0.000000 0.003972 0.000000
# 3 -0.010224 -0.005552 0.012010 0.000000 0.000826 0.000000
# 4 0.000000 0.000000 0.000000 0.022549 0.000000 -0.003050
# 5 -0.016394 0.003972 0.000826 0.000000 0.033984 0.000000
# 6 0.000000 0.000000 0.000000 -0.003050 0.000000 0.038626
#
#
# Mechanical properties :
#
#
# Convention : Reuss Voigt Hill
#
# Bulk Modulus (GPa) = 36.09268 62.18049 49.13659
# Shear Modulus (GPa) = 24.88365 33.76722 29.32543
#
# Velocity S-wave (km/s) = 3.19285 3.71937 3.46612
# Velocity P-wave (km/s) = 5.32718 6.62714 6.01240
#
# Compressibility (1/GPa) = 0.02770645
#
# Stress axis : x y z
#
# Youngs Moduli (GPa) = 30.69464 57.03075 83.26252
#
# Poissons Ratio (x) = 0.08170 0.85124
# Poissons Ratio (y) = 0.04397 0.46231
# Poissons Ratio (z) = 0.31381 0.31666
#
# Static dielectric constant tensor:
#      x y z
#    x 1.926560 0.000000 0.002700 
#    y 0.000000 2.034790 0.000000 
#    z 0.002700 0.000000 1.996250 
# 
# From -- ./inp_files/10854.got.cif
#   From: 2010.05.17/outbox.cif.g08.bks.cpg/sg4_6_cif.got.tgz:10854.got - 2010.06.03 18:43:04.
