data_PCOD9114006
_publ_section_title
;
Structure prediction by ZEFSAII (Michael W. Deem and Ramdas Pophale) SiO2 
 PCOD9114006
Probable space group: P 2
;
_chemical_formula_sum "Si O2"
_cell_formula_units_Z 10
_cell_length_a 5.880382
_cell_length_b 5.165137
_cell_length_c 13.020908
_cell_angle_alpha 90.000000
_cell_angle_beta 72.544323
_cell_angle_gamma 90.000000
_cell_volume 377.271451
_symmetry_space_group_name_H-M "P 2"
_symmetry_group_IT_number 3
_symmetry_cell_setting 'monoclinic'
loop_
_space_group_symop_operation_xyz
x,y,z
-x,y,-z
loop_
_atom_site_type_symbol
_atom_site_label
_atom_site_fract_x
_atom_site_fract_y
_atom_site_fract_z
Si Si1 0.054645 0.689630 0.607059
Si Si2 0.508541 0.014675 0.105390
Si Si3 0.651678 0.072106 0.293330
Si Si4 0.917318 0.433273 0.821130
Si Si5 0.000000 0.832628 0.000000
Si Si6 0.500000 0.327878 0.500000
O O1 0.268405 0.493688 0.552500
O O2 0.000000 0.789504 0.500000
O O3 0.876796 0.544930 0.710724
O O4 0.164737 0.903156 0.666935
O O5 0.506535 0.928683 0.223291
O O6 0.309103 0.240993 0.125748
O O7 0.500000 0.851193 0.000000
O O8 0.794005 0.033485 0.058272
O O9 0.463688 0.165185 0.402462
O O10 0.821620 0.300129 0.226832
O O11 0.950322 0.648737 0.906933
#
# Coordination Sequence:
#
# PCOD9114006 Si02
#       6
#     2   2   2   2   1   1
#     4  11  24  46  76 110 154 206 263 321 402 467
#     4  12  26  47  80 113 154 212 263 325 398 468
#     4  11  24  48  73 113 158 199 274 324 385 493
#     4  11  26  48  77 111 159 206 260 333 397 465
#     4  12  26  54  80 120 158 210 272 324 392 484
#     4  10  24  44  74 110 152 204 250 336 388 468
#
# _framework density 26.50611
#
# number of rings (size 3 to 8) (size 9 to 14) (size 15 to 20)
#    0.000    0.800    2.000    4.200    0.000    8.800 
#    0.000    0.000    0.000    0.000    0.000    0.000 
#    0.000    0.000    0.000    0.000    0.000    0.000 
#
# Total GULP energy -55679.588684 kJ/mol
# GULP energy per Si atom -5567.958868 kJ/mol
# Density = 2.644578 g / cm^3
# Si number density = 26.506110 Si / 1000 Ang^3
#
#
#
# Elastic Constant Matrix: (Units=GPa)
#
#
# Indices 1 2 3 4 5 6 
#
# 1 82.5000 34.8335 71.3603 0.0000 -9.3876 0.0000
# 2 34.8335 52.0069 70.2407 0.0000 -14.0779 0.0000
# 3 71.3603 70.2407 239.5331 0.0000 33.1504 0.0000
# 4 0.0000 0.0000 0.0000 26.1694 0.0000 -13.6942
# 5 -9.3876 -14.0779 33.1504 0.0000 81.0702 0.0000
# 6 0.0000 0.0000 0.0000 -13.6942 0.0000 64.3703
#
#
#
# Elastic Compliance Matrix: (Units=1/GPa)
#
#
# Indices 1 2 3 4 5 6 
#
# 1 0.018594 -0.006130 -0.004126 0.000000 0.002776 0.000000
# 2 -0.006130 0.043681 -0.012650 0.000000 0.012048 0.000000
# 3 -0.004126 -0.012650 0.010053 0.000000 -0.006785 0.000000
# 4 0.000000 0.000000 0.000000 0.043000 0.000000 0.009148
# 5 0.002776 0.012048 -0.006785 0.000000 0.017523 0.000000
# 6 0.000000 0.000000 0.000000 0.009148 0.000000 0.017481
#
#
# Mechanical properties :
#
#
# Convention : Reuss Voigt Hill
#
# Bulk Modulus (GPa) = 37.71457 80.76768 59.24113
# Shear Modulus (GPa) = 24.39239 47.49567 35.94403
#
# Velocity S-wave (km/s) = 3.03686 4.23765 3.68647
# Velocity P-wave (km/s) = 5.15327 7.38113 6.36543
#
# Compressibility (1/GPa) = 0.02651495
#
# Stress axis : x y z
#
# Youngs Moduli (GPa) = 53.77993 22.89347 99.47736
#
# Poissons Ratio (x) = 0.14034 0.41045
# Poissons Ratio (y) = 0.32968 1.25839
# Poissons Ratio (z) = 0.22190 0.28960
#
# Static dielectric constant tensor:
#      x y z
#    x 2.246240 0.000000 0.107300 
#    y 0.000000 2.182600 0.000000 
#    z 0.107300 0.000000 2.229120 
# 
# From -- ./inp_files/9702.got.cif
#   From: 2010.05.17/outbox.cif.g08.bks.cpg/sg3_5_cif.got.tgz:9702.got - 2010.06.03 18:33:08.
