data_PCOD9114158
_publ_section_title
;
Structure prediction by ZEFSAII (Michael W. Deem and Ramdas Pophale) SiO2 
 PCOD9114158
Probable space group: P 2
;
_chemical_formula_sum "Si O2"
_cell_formula_units_Z 13
_cell_length_a 9.697604
_cell_length_b 7.503298
_cell_length_c 13.028270
_cell_angle_alpha 90.000000
_cell_angle_beta 36.581359
_cell_angle_gamma 90.000000
_cell_volume 564.967105
_symmetry_space_group_name_H-M "P 2"
_symmetry_group_IT_number 3
_symmetry_cell_setting 'monoclinic'
loop_
_space_group_symop_operation_xyz
x,y,z
-x,y,-z
loop_
_atom_site_type_symbol
_atom_site_label
_atom_site_fract_x
_atom_site_fract_y
_atom_site_fract_z
Si Si1 0.489832 0.573190 0.776161
Si Si2 0.178957 0.842644 0.075813
Si Si3 0.265095 0.636029 0.693592
Si Si4 0.010891 0.359608 0.283917
Si Si5 0.000000 0.574075 0.500000
Si Si6 0.903697 0.019674 0.670079
Si Si7 0.579475 0.204282 0.093654
O O1 0.340942 0.590920 0.762600
O O2 0.749289 0.652440 0.618832
O O3 0.503248 0.359829 0.781613
O O4 0.356662 0.686772 0.941693
O O5 0.930867 0.784272 0.184112
O O6 0.144875 0.865502 0.218883
O O7 0.267575 0.028426 0.974178
O O8 0.500000 0.698435 0.500000
O O9 0.156846 0.472589 0.690513
O O10 0.932295 0.163323 0.369663
O O11 0.054030 0.463307 0.364037
O O12 0.248280 0.317865 0.082042
O O13 0.655000 0.114269 0.806114
O O14 0.000000 0.979969 0.500000
#
# Coordination Sequence:
#
# PCOD9114158 Si02
#       7
#     2   2   2   2   1   2   2
#     4  12  26  52  79 116 161 211 273 327 405 475
#     4  11  27  49  74 115 163 213 258 329 403 485
#     4  12  27  50  74 115 161 214 272 325 395 492
#     4  11  21  44  76 114 150 203 260 320 402 462
#     4  12  24  42  86 116 152 208 262 338 394 468
#     4  11  24  49  77 121 161 201 273 338 402 476
#     4  11  25  48  80 114 158 208 266 333 397 475
#
# _framework density 23.010190999999999
#
# number of rings (size 3 to 8) (size 9 to 14) (size 15 to 20)
#    0.000    0.615    5.385    2.308    0.000    3.692 
#   13.846    3.077    0.000    0.000    0.000    0.000 
#    0.000    0.000    0.000    0.000    0.000    0.000 
#
# Total GULP energy -72592.593335 kJ/mol
# GULP energy per Si atom -5584.045641 kJ/mol
# Density = 2.295782 g / cm^3
# Si number density = 23.010191 Si / 1000 Ang^3
#
#
#
# Elastic Constant Matrix: (Units=GPa)
#
#
# Indices 1 2 3 4 5 6 
#
# 1 155.8859 57.7430 48.3589 0.0000 -10.8807 0.0000
# 2 57.7430 129.6518 43.7948 0.0000 -9.5504 0.0000
# 3 48.3589 43.7948 98.6625 0.0000 -29.2204 0.0000
# 4 0.0000 0.0000 0.0000 3.3246 0.0000 57.6186
# 5 -10.8807 -9.5504 -29.2204 0.0000 46.3063 0.0000
# 6 0.0000 0.0000 0.0000 57.6186 0.0000 -138.6506
#
#
#
# Elastic Compliance Matrix: (Units=1/GPa)
#
#
# Indices 1 2 3 4 5 6 
#
# 1 0.008326 -0.002725 -0.003024 0.000000 -0.000514 0.000000
# 2 -0.002725 0.009991 -0.003294 0.000000 -0.000658 0.000000
# 3 -0.003024 -0.003294 0.015580 0.000000 0.008441 0.000000
# 4 0.000000 0.000000 0.000000 0.036672 0.000000 0.015240
# 5 -0.000514 -0.000658 0.008441 0.000000 0.026666 0.000000
# 6 0.000000 0.000000 0.000000 0.015240 0.000000 -0.000879
#
#
# Mechanical properties :
#
#
# Convention : Reuss Voigt Hill
#
# Bulk Modulus (GPa) = 63.24464 75.99928 69.62196
# Shear Modulus (GPa) = 41.76717 -2.18370 19.79173
#
# Velocity S-wave (km/s) = 4.26509 -0.97523 2.93598
# Velocity P-wave (km/s) = 7.19721 5.64200 6.46653
#
# Compressibility (1/GPa) = 0.01581162
#
# Stress axis : x y z
#
# Youngs Moduli (GPa) = 120.09930 100.09264 64.18500
#
# Poissons Ratio (x) = 0.27273 0.19408
# Poissons Ratio (y) = 0.32724 0.21144
# Poissons Ratio (z) = 0.36315 0.32973
#
# Static dielectric constant tensor:
#      x y z
#    x 2.127780 0.000000 0.412610 
#    y 0.000000 1.948330 0.000000 
#    z 0.412610 0.000000 2.388030 
# 
# From -- ./inp_files/10648.got.cif
#   From: 2010.05.17/outbox.cif.g08.bks.cpg/sg3_6_cif.got.tgz:10648.got - 2010.06.03 18:33:08.
