data_PCOD9114923
_publ_section_title
;
Structure prediction by ZEFSAII (Michael W. Deem and Ramdas Pophale) SiO2 
 PCOD9114923
Probable space group: P 21
;
_chemical_formula_sum "Si O2"
_cell_formula_units_Z 14
_cell_length_a 12.436912
_cell_length_b 7.115374
_cell_length_c 7.478302
_cell_angle_alpha 90.000000
_cell_angle_beta 56.506287
_cell_angle_gamma 90.000000
_cell_volume 551.888598
_symmetry_space_group_name_H-M "P 21"
_symmetry_group_IT_number 4
_symmetry_cell_setting 'monoclinic'
loop_
_space_group_symop_operation_xyz
x,y,z
-x,1/2+y,-z
loop_
_atom_site_type_symbol
_atom_site_label
_atom_site_fract_x
_atom_site_fract_y
_atom_site_fract_z
Si Si1 0.373725 0.745990 0.092772
Si Si2 0.718897 0.297304 0.182284
Si Si3 0.931050 0.821564 0.708610
Si Si4 0.251364 0.114795 0.605807
Si Si5 0.187165 0.697597 0.558463
Si Si6 0.659867 0.683424 0.851032
Si Si7 0.011717 0.741830 0.227830
O O1 0.269430 0.639105 0.310926
O O2 0.335140 0.962363 0.120725
O O3 0.363481 0.697120 0.894413
O O4 0.516964 0.742573 0.038122
O O5 0.677073 0.503270 0.299538
O O6 0.737348 0.153679 0.330528
O O7 0.864723 0.332487 0.977763
O O8 0.782860 0.764330 0.838361
O O9 0.033875 0.675908 0.702507
O O10 0.978523 0.816751 0.457032
O O11 0.943763 0.026063 0.781896
O O12 0.328284 0.214777 0.375507
O O13 0.122591 0.236121 0.759512
O O14 0.197516 0.926309 0.554996
#
# Coordination Sequence:
#
# PCOD9114923 Si02
#       7
#     2   2   2   2   2   2   2
#     4  11  22  42  65  91 125 183 210 267 329 379
#     4  10  20  37  66  89 129 168 211 270 322 374
#     4  10  20  39  65  96 132 164 218 263 318 391
#     4   7  18  39  54  90 128 157 209 263 306 387
#     4   8  18  39  60  91 124 159 209 264 308 386
#     4  10  23  40  67  91 132 174 216 264 323 392
#     4  10  19  36  65  98 126 171 209 271 328 377
#
# _framework density 25.367439000000001
#
# number of rings (size 3 to 8) (size 9 to 14) (size 15 to 20)
#    0.857    1.714    1.429    0.857    2.000    1.143 
#    2.571    0.000    0.000    0.000    0.000    0.000 
#    0.000    0.000    0.000    0.000    0.000    0.000 
#
# Total GULP energy -78085.435793 kJ/mol
# GULP energy per Si atom -5577.531128 kJ/mol
# Density = 2.530970 g / cm^3
# Si number density = 25.367439 Si / 1000 Ang^3
#
#
#
# Elastic Constant Matrix: (Units=GPa)
#
#
# Indices 1 2 3 4 5 6 
#
# 1 125.6820 1.9272 43.4252 0.0000 -3.5853 0.0000
# 2 1.9272 54.8097 1.3743 0.0000 -3.6673 0.0000
# 3 43.4252 1.3743 54.9047 0.0000 -2.4992 0.0000
# 4 0.0000 0.0000 0.0000 22.2805 0.0000 2.3673
# 5 -3.5853 -3.6673 -2.4992 0.0000 40.4866 0.0000
# 6 0.0000 0.0000 0.0000 2.3673 0.0000 22.5211
#
#
#
# Elastic Compliance Matrix: (Units=1/GPa)
#
#
# Indices 1 2 3 4 5 6 
#
# 1 0.010957 -0.000140 -0.008644 0.000000 0.000424 0.000000
# 2 -0.000140 0.018366 -0.000274 0.000000 0.001634 0.000000
# 3 -0.008644 -0.000274 0.025091 0.000000 0.000759 0.000000
# 4 0.000000 0.000000 0.000000 0.045389 0.000000 -0.004771
# 5 0.000424 0.001634 0.000759 0.000000 0.024932 0.000000
# 6 0.000000 0.000000 0.000000 -0.004771 0.000000 0.044904
#
#
# Mechanical properties :
#
#
# Convention : Reuss Voigt Hill
#
# Bulk Modulus (GPa) = 27.54961 36.53888 32.04424
# Shear Modulus (GPa) = 25.01806 29.63563 27.32684
#
# Velocity S-wave (km/s) = 3.14383 3.42168 3.28570
# Velocity P-wave (km/s) = 4.90531 5.48139 5.20133
#
# Compressibility (1/GPa) = 0.03629816
#
# Stress axis : x y z
#
# Youngs Moduli (GPa) = 91.26322 54.44817 39.85477
#
# Poissons Ratio (x) = 0.00763 0.34449
# Poissons Ratio (y) = 0.01279 0.01094
# Poissons Ratio (z) = 0.78884 0.01494
#
# Static dielectric constant tensor:
#      x y z
#    x 2.167210 0.000000 0.157900 
#    y 0.000000 2.019260 0.000000 
#    z 0.157900 0.000000 2.128920 
# 
# From -- ./inp_files/7803.got.cif
#   From: 2010.05.17/outbox.cif.g08.bks.cpg/sg4_4_cif.got.tgz:7803.got - 2010.06.03 18:43:04.
