data_PCOD9114268
_publ_section_title
;
Structure prediction by ZEFSAII (Michael W. Deem and Ramdas Pophale) SiO2 
 PCOD9114268
Probable space group: P 2
;
_chemical_formula_sum "Si O2"
_cell_formula_units_Z 14
_cell_length_a 7.800187
_cell_length_b 6.834432
_cell_length_c 13.498352
_cell_angle_alpha 90.000000
_cell_angle_beta 52.950058
_cell_angle_gamma 90.000000
_cell_volume 574.316492
_symmetry_space_group_name_H-M "P 2"
_symmetry_group_IT_number 3
_symmetry_cell_setting 'monoclinic'
loop_
_space_group_symop_operation_xyz
x,y,z
-x,y,-z
loop_
_atom_site_type_symbol
_atom_site_label
_atom_site_fract_x
_atom_site_fract_y
_atom_site_fract_z
Si Si1 0.500000 0.674441 0.500000
Si Si2 0.000000 0.004178 0.000000
Si Si3 0.053883 0.052227 0.343284
Si Si4 0.694149 0.652253 0.072171
Si Si5 0.615203 0.992462 0.600771
Si Si6 0.213429 0.740724 0.175554
Si Si7 0.747447 0.300001 0.211231
Si Si8 0.096999 0.456624 0.633350
O O1 0.467554 0.819908 0.606118
O O2 0.321405 0.531896 0.513741
O O3 0.800814 0.853586 0.070962
O O4 0.931292 0.153849 0.109066
O O5 0.220021 0.962797 0.365349
O O6 0.148783 0.968345 0.207353
O O7 0.798044 0.021278 0.451151
O O8 0.051979 0.286523 0.356734
O O9 0.448826 0.696100 0.132238
O O10 0.714694 0.468749 0.138658
O O11 0.805164 0.638159 0.924816
O O12 0.463292 0.171105 0.687192
O O13 0.043526 0.648306 0.308588
O O14 0.829609 0.392428 0.283474
#
# Coordination Sequence:
#
# PCOD9114268 Si02
#       8
#     1   1   2   2   2   2   2   2
#     4  12  26  46  76 116 148 208 256 334 390 468
#     4  12  24  44  70 104 146 194 252 316 386 458
#     4  11  24  48  70 109 147 205 247 321 392 468
#     4  11  26  44  71 110 142 205 255 316 395 458
#     4  11  25  47  75 106 153 193 260 312 402 457
#     4  11  24  46  70 101 155 192 258 312 380 477
#     4  12  26  44  74 109 150 195 260 324 382 472
#     4  12  25  43  73 103 150 192 255 317 390 455
#
# _framework density 24.376804
#
# number of rings (size 3 to 8) (size 9 to 14) (size 15 to 20)
#    0.000    0.571    1.429    6.429    6.000    0.000 
#    5.143    2.857    0.000    0.000    0.000    0.000 
#    0.000    0.000    0.000    0.000    0.000    0.000 
#
# Total GULP energy -78076.081649 kJ/mol
# GULP energy per Si atom -5576.862975 kJ/mol
# Density = 2.432132 g / cm^3
# Si number density = 24.376804 Si / 1000 Ang^3
#
#
#
# Elastic Constant Matrix: (Units=GPa)
#
#
# Indices 1 2 3 4 5 6 
#
# 1 83.2877 38.7978 27.1849 0.0000 17.5371 0.0000
# 2 38.7978 119.4036 38.8483 0.0000 20.9417 0.0000
# 3 27.1849 38.8483 75.9439 0.0000 1.6223 0.0000
# 4 0.0000 0.0000 0.0000 66.6606 0.0000 1.4677
# 5 17.5371 20.9417 1.6223 0.0000 27.2298 0.0000
# 6 0.0000 0.0000 0.0000 1.4677 0.0000 68.7228
#
#
#
# Elastic Compliance Matrix: (Units=1/GPa)
#
#
# Indices 1 2 3 4 5 6 
#
# 1 0.016345 -0.002385 -0.004451 0.000000 -0.008427 0.000000
# 2 -0.002385 0.012160 -0.005206 0.000000 -0.007506 0.000000
# 3 -0.004451 -0.005206 0.017299 0.000000 0.005840 0.000000
# 4 0.000000 0.000000 0.000000 0.015008 0.000000 -0.000321
# 5 -0.008427 -0.007506 0.005840 0.000000 0.047577 0.000000
# 6 0.000000 0.000000 0.000000 -0.000321 0.000000 0.014558
#
#
# Mechanical properties :
#
#
# Convention : Reuss Voigt Hill
#
# Bulk Modulus (GPa) = 46.03998 54.25523 50.14760
# Shear Modulus (GPa) = 32.41038 44.10961 38.25999
#
# Velocity S-wave (km/s) = 3.65027 4.25843 3.96602
# Velocity P-wave (km/s) = 6.05753 6.81793 6.44895
#
# Compressibility (1/GPa) = 0.02172025
#
# Stress axis : x y z
#
# Youngs Moduli (GPa) = 61.18201 82.23550 57.80550
#
# Poissons Ratio (x) = 0.19611 0.25728
# Poissons Ratio (y) = 0.14590 0.30096
# Poissons Ratio (z) = 0.27231 0.42815
#
# Static dielectric constant tensor:
#      x y z
#    x 1.934750 0.000000 0.000030 
#    y 0.000000 2.012290 0.000000 
#    z 0.000030 0.000000 2.073960 
# 
# From -- ./inp_files/8391.got.cif
#   From: 2010.05.17/outbox.cif.g08.bks.cpg/sg3_5_cif.got.tgz:8391.got - 2010.06.03 18:33:08.
