data_PCOD9114175
_publ_section_title
;
Structure prediction by ZEFSAII (Michael W. Deem and Ramdas Pophale) SiO2 
 PCOD9114175
Probable space group: P 2
;
_chemical_formula_sum "Si O2"
_cell_formula_units_Z 16
_cell_length_a 9.244533
_cell_length_b 8.836490
_cell_length_c 19.625335
_cell_angle_alpha 90.000000
_cell_angle_beta 27.885545
_cell_angle_gamma 90.000000
_cell_volume 749.817486
_symmetry_space_group_name_H-M "P 2"
_symmetry_group_IT_number 3
_symmetry_cell_setting 'monoclinic'
loop_
_space_group_symop_operation_xyz
x,y,z
-x,y,-z
loop_
_atom_site_type_symbol
_atom_site_label
_atom_site_fract_x
_atom_site_fract_y
_atom_site_fract_z
Si Si1 0.593126 0.314080 0.117956
Si Si2 0.688275 0.637600 0.357211
Si Si3 0.358111 0.660965 0.864908
Si Si4 0.837254 0.331867 0.223445
Si Si5 0.349579 0.819437 0.382947
Si Si6 0.711243 0.819304 0.843987
Si Si7 0.629963 0.156672 0.656958
Si Si8 0.788879 0.160037 0.827672
O O1 0.596027 0.482526 0.144974
O O2 0.527436 0.192462 0.204506
O O3 0.309232 0.286524 0.185206
O O4 0.908415 0.302515 0.942222
O O5 0.500000 0.573305 0.500000
O O6 0.830002 0.503694 0.251944
O O7 0.454455 0.743406 0.410294
O O8 0.976923 0.731016 0.266898
O O9 0.508292 0.713801 0.733225
O O10 0.516448 0.746494 0.863036
O O11 0.000000 0.694259 0.000000
O O12 0.504883 0.286346 0.334771
O O13 0.926442 0.219316 0.247482
O O14 0.000000 0.830064 0.500000
O O15 0.471125 0.991481 0.327225
O O16 0.805277 0.993267 0.789173
O O17 0.500000 0.816867 0.000000
O O18 0.000000 0.164132 0.500000
O O19 0.500000 0.152739 0.000000
#
# Coordination Sequence:
#
# PCOD9114175 Si02
#       8
#     2   2   2   2   2   2   2   2
#     4  11  22  41  66  95 130 171 217 270 329 388
#     4  12  26  44  68  97 132 178 222 274 335 394
#     4  12  24  39  65  97 129 170 217 273 329 388
#     4  11  23  43  65  95 131 170 220 272 327 394
#     4  11  25  45  64  93 134 174 221 272 329 396
#     4  11  22  41  66  96 130 170 221 273 328 395
#     4  11  25  42  64  94 131 172 217 269 326 391
#     4   9  21  39  64  93 125 165 216 273 325 382
#
# _framework density 21.338526000000002
#
# number of rings (size 3 to 8) (size 9 to 14) (size 15 to 20)
#    0.000    1.000    0.000    7.125    0.000    9.000 
#    0.000    1.875    0.000    0.000    0.000    0.000 
#    0.000    0.000    0.000    0.000    0.000    0.000 
#
# Total GULP energy -89380.356760 kJ/mol
# GULP energy per Si atom -5586.272298 kJ/mol
# Density = 2.128996 g / cm^3
# Si number density = 21.338526 Si / 1000 Ang^3
#
#
#
# Elastic Constant Matrix: (Units=GPa)
#
#
# Indices 1 2 3 4 5 6 
#
# 1 127.8094 55.5894 32.7943 0.0000 -8.0673 0.0000
# 2 55.5894 79.2798 13.2853 0.0000 -8.8341 0.0000
# 3 32.7943 13.2853 63.3771 0.0000 -2.1530 0.0000
# 4 0.0000 0.0000 0.0000 22.4369 0.0000 0.7622
# 5 -8.0673 -8.8341 -2.1530 0.0000 29.2615 0.0000
# 6 0.0000 0.0000 0.0000 0.7622 0.0000 37.8159
#
#
#
# Elastic Compliance Matrix: (Units=1/GPa)
#
#
# Indices 1 2 3 4 5 6 
#
# 1 0.012543 -0.007910 -0.004808 0.000000 0.000716 0.000000
# 2 -0.007910 0.018485 0.000334 0.000000 0.003425 0.000000
# 3 -0.004808 0.000334 0.018200 0.000000 0.000114 0.000000
# 4 0.000000 0.000000 0.000000 0.044600 0.000000 -0.000899
# 5 0.000716 0.003425 0.000114 0.000000 0.035414 0.000000
# 6 0.000000 0.000000 0.000000 -0.000899 0.000000 0.026462
#
#
# Mechanical properties :
#
#
# Convention : Reuss Voigt Hill
#
# Bulk Modulus (GPa) = 40.87996 52.64491 46.76243
# Shear Modulus (GPa) = 26.50747 29.15601 27.83174
#
# Velocity S-wave (km/s) = 3.52836 3.70043 3.61542
# Velocity P-wave (km/s) = 5.98318 6.55610 6.27618
#
# Compressibility (1/GPa) = 0.02446187
#
# Stress axis : x y z
#
# Youngs Moduli (GPa) = 79.72416 54.09743 54.94399
#
# Poissons Ratio (x) = 0.42788 0.26418
# Poissons Ratio (y) = 0.63058 -0.01836
# Poissons Ratio (z) = 0.38332 -0.01808
#
# Static dielectric constant tensor:
#      x y z
#    x 1.790160 0.000000 0.029410 
#    y 0.000000 1.759860 0.000000 
#    z 0.029410 0.000000 1.755900 
# 
# From -- ./inp_files/15044.got.cif
#   From: 2010.05.17/outbox.cif.g08.bks.cpg/sg3_8_cif.got.tgz:15044.got - 2010.06.03 18:33:08.
