data_PCOD9114864
_publ_section_title
;
Structure prediction by ZEFSAII (Michael W. Deem and Ramdas Pophale) SiO2 
 PCOD9114864
Probable space group: P 21
;
_chemical_formula_sum "Si O2"
_cell_formula_units_Z 16
_cell_length_a 18.812985
_cell_length_b 6.889114
_cell_length_c 13.216828
_cell_angle_alpha 90.000000
_cell_angle_beta 157.896378
_cell_angle_gamma 90.000000
_cell_volume 644.559071
_symmetry_space_group_name_H-M "P 21"
_symmetry_group_IT_number 4
_symmetry_cell_setting 'monoclinic'
loop_
_space_group_symop_operation_xyz
x,y,z
-x,1/2+y,-z
loop_
_atom_site_type_symbol
_atom_site_label
_atom_site_fract_x
_atom_site_fract_y
_atom_site_fract_z
Si Si1 0.568644 0.694980 0.014390
Si Si2 0.576343 0.763802 0.699553
Si Si3 0.458375 0.440555 0.677365
Si Si4 0.931474 0.136014 0.834343
Si Si5 0.946659 0.905359 0.154455
Si Si6 0.212236 0.828933 0.675027
Si Si7 0.856492 0.284469 0.945034
Si Si8 0.358269 0.558830 0.026384
O O1 0.744807 0.561353 0.279740
O O2 0.620058 0.899984 0.033164
O O3 0.497098 0.553232 0.832318
O O4 0.398479 0.736608 0.867119
O O5 0.584446 0.547512 0.758127
O O6 0.366970 0.787691 0.377392
O O7 0.744826 0.823638 0.847782
O O8 0.629953 0.915572 0.860504
O O9 0.250221 0.508471 0.382394
O O10 0.485766 0.216252 0.734247
O O11 0.973862 0.205675 0.002391
O O12 0.900029 0.327332 0.724573
O O13 0.065976 0.999673 0.946095
O O14 0.022025 0.812860 0.358370
O O15 0.912475 0.135941 0.107028
O O16 0.206678 0.715250 0.776020
#
# Coordination Sequence:
#
# PCOD9114864 Si02
#       8
#     2   2   2   2   2   2   2   2
#     4  10  19  35  64  99 131 170 223 285 349 407
#     4  10  26  47  65  97 139 194 230 273 358 426
#     4   9  21  40  69  95 130 179 227 281 353 400
#     4  11  23  41  70 101 131 177 235 295 345 409
#     4  12  27  45  67 106 144 180 236 294 343 437
#     4  11  22  38  66 102 137 178 229 288 357 407
#     4  11  26  42  70 100 137 182 229 295 352 411
#     4  10  22  42  69  96 137 180 223 295 343 421
#
# _framework density 24.823170999999999
#
# number of rings (size 3 to 8) (size 9 to 14) (size 15 to 20)
#    0.000    1.500    3.750    0.000    5.250    2.000 
#    6.750    0.000    0.000    0.000    0.000    0.000 
#    0.000    0.000    0.000    0.000    0.000    0.000 
#
# Total GULP energy -89094.264118 kJ/mol
# GULP energy per Si atom -5568.391507 kJ/mol
# Density = 2.476667 g / cm^3
# Si number density = 24.823171 Si / 1000 Ang^3
#
#
#
# Elastic Constant Matrix: (Units=GPa)
#
#
# Indices 1 2 3 4 5 6 
#
# 1 35.4557 16.8663 11.6393 0.0000 -5.2806 0.0000
# 2 16.8663 150.7634 29.2346 0.0000 7.9466 0.0000
# 3 11.6393 29.2346 81.1727 0.0000 -5.8822 0.0000
# 4 0.0000 0.0000 0.0000 23.1794 0.0000 -10.4384
# 5 -5.2806 7.9466 -5.8822 0.0000 25.6098 0.0000
# 6 0.0000 0.0000 0.0000 -10.4384 0.0000 27.8773
#
#
#
# Elastic Compliance Matrix: (Units=1/GPa)
#
#
# Indices 1 2 3 4 5 6 
#
# 1 0.031774 -0.003370 -0.002839 0.000000 0.006945 0.000000
# 2 -0.003370 0.007699 -0.002556 0.000000 -0.003671 0.000000
# 3 -0.002839 -0.002556 0.013893 0.000000 0.003399 0.000000
# 4 0.000000 0.000000 0.000000 0.051892 0.000000 0.019430
# 5 0.006945 -0.003671 0.003399 0.000000 0.042399 0.000000
# 6 0.000000 0.000000 0.000000 0.019430 0.000000 0.043147
#
#
# Mechanical properties :
#
#
# Convention : Reuss Voigt Hill
#
# Bulk Modulus (GPa) = 27.90452 42.54136 35.22294
# Shear Modulus (GPa) = 22.69851 29.31008 26.00430
#
# Velocity S-wave (km/s) = 3.02720 3.43994 3.24015
# Velocity P-wave (km/s) = 4.84606 5.74043 5.31210
#
# Compressibility (1/GPa) = 0.03583648
#
# Stress axis : x y z
#
# Youngs Moduli (GPa) = 31.47251 129.88732 71.97775
#
# Poissons Ratio (x) = 0.43775 0.20434
# Poissons Ratio (y) = 0.10607 0.18394
# Poissons Ratio (z) = 0.08935 0.33194
#
# Static dielectric constant tensor:
#      x y z
#    x 2.068170 0.000000 -0.075490 
#    y 0.000000 2.059600 0.000000 
#    z -0.075490 0.000000 2.994060 
# 
# From -- ./inp_files/14419.got.cif
#   From: 2010.05.17/outbox.cif.g08.bks.cpg/sg4_8_cif.got.tgz:14419.got - 2010.06.03 18:43:04.
