data_PCOD9114381
_publ_section_title
;
Structure prediction by ZEFSAII (Michael W. Deem and Ramdas Pophale) SiO2 
 PCOD9114381
Probable space group: P 2
;
_chemical_formula_sum "Si O2"
_cell_formula_units_Z 13
_cell_length_a 9.372924
_cell_length_b 5.395022
_cell_length_c 11.077762
_cell_angle_alpha 90.000000
_cell_angle_beta 100.346971
_cell_angle_gamma 90.000000
_cell_volume 551.061220
_symmetry_space_group_name_H-M "P 2"
_symmetry_group_IT_number 3
_symmetry_cell_setting 'monoclinic'
loop_
_space_group_symop_operation_xyz
x,y,z
-x,y,-z
loop_
_atom_site_type_symbol
_atom_site_label
_atom_site_fract_x
_atom_site_fract_y
_atom_site_fract_z
Si Si1 0.000236 0.193030 0.678825
Si Si2 0.784861 0.409742 0.459896
Si Si3 0.000000 0.809225 0.500000
Si Si4 0.783726 0.242456 0.846674
Si Si5 0.525129 0.344874 0.271308
Si Si6 0.171919 0.743165 0.010063
Si Si7 0.598832 0.845268 0.135956
O O1 0.864128 0.227794 0.564868
O O2 0.935970 0.241296 0.798647
O O3 0.129110 0.368315 0.654274
O O4 0.047320 0.930642 0.634547
O O5 0.619397 0.370137 0.406600
O O6 0.852355 0.665615 0.513796
O O7 0.646462 0.303990 0.741493
O O8 0.783472 0.465509 0.943267
O O9 0.767437 0.966833 0.896903
O O10 0.552427 0.602313 0.204031
O O11 0.579938 0.102078 0.205540
O O12 0.239232 0.805193 0.890714
O O13 0.000000 0.758079 0.000000
O O14 0.500000 0.855376 0.000000
#
# Coordination Sequence:
#
# PCOD9114381 Si02
#       7
#     2   2   1   2   2   2   2
#     4   9  22  40  66  92 137 162 217 272 316 387
#     4   9  22  40  66  97 126 172 217 260 328 393
#     4   8  18  42  64  96 130 170 212 266 328 374
#     4  12  25  44  66 100 131 171 214 273 322 384
#     4  12  25  41  72  97 127 177 219 254 337 382
#     4  12  28  44  66  98 132 170 223 266 327 376
#     4  12  24  47  66  92 136 173 210 274 314 396
#
# _framework density 23.590845000000002
#
# number of rings (size 3 to 8) (size 9 to 14) (size 15 to 20)
#    0.000    1.538    3.077    1.846   12.923    0.615 
#    0.000    0.000    0.000    0.000    0.000    0.000 
#    0.000    0.000    0.000    0.000    0.000    0.000 
#
# Total GULP energy -72522.314159 kJ/mol
# GULP energy per Si atom -5578.639551 kJ/mol
# Density = 2.353715 g / cm^3
# Si number density = 23.590845 Si / 1000 Ang^3
#
#
#
# Elastic Constant Matrix: (Units=GPa)
#
#
# Indices 1 2 3 4 5 6 
#
# 1 89.5111 -7.9755 -0.8934 0.0000 4.0907 0.0000
# 2 -7.9755 113.2078 6.3587 0.0000 -2.8388 0.0000
# 3 -0.8934 6.3587 36.5430 0.0000 12.2283 0.0000
# 4 0.0000 0.0000 0.0000 -4.4812 0.0000 -4.0746
# 5 4.0907 -2.8388 12.2283 0.0000 58.8330 0.0000
# 6 0.0000 0.0000 0.0000 -4.0746 0.0000 14.6960
#
#
#
# Elastic Compliance Matrix: (Units=1/GPa)
#
#
# Indices 1 2 3 4 5 6 
#
# 1 0.011281 0.000750 0.000425 0.000000 -0.000837 0.000000
# 2 0.000750 0.009006 -0.001802 0.000000 0.000757 0.000000
# 3 0.000425 -0.001802 0.029801 0.000000 -0.006311 0.000000
# 4 0.000000 0.000000 0.000000 -0.178224 0.000000 -0.049414
# 5 -0.000837 0.000757 -0.006311 0.000000 0.018404 0.000000
# 6 0.000000 0.000000 0.000000 -0.049414 0.000000 0.054345
#
#
# Mechanical properties :
#
#
# Convention : Reuss Voigt Hill
#
# Bulk Modulus (GPa) = 20.47749 26.02683 23.25216
# Shear Modulus (GPa) = -132.08313 29.92771 -51.07771
#
# Velocity S-wave (km/s) = -7.49071 3.56563 -4.65817
# Velocity P-wave (km/s) = 8.13112 5.29227 4.36503
#
# Compressibility (1/GPa) = 0.04883411
#
# Stress axis : x y z
#
# Youngs Moduli (GPa) = 88.64386 111.03272 33.55632
#
# Poissons Ratio (x) = -0.08326 -0.01427
# Poissons Ratio (y) = -0.06647 0.06047
# Poissons Ratio (z) = -0.03770 0.20010
#
# Static dielectric constant tensor:
#      x y z
#    x 1.947240 0.000000 0.012840 
#    y 0.000000 2.002800 0.000000 
#    z 0.012840 0.000000 1.906790 
# 
# From -- ./inp_files/9536.got.cif
#   From: 2010.05.17/outbox.cif.g08.bks.cpg/sg3_5_cif.got.tgz:9536.got - 2010.06.03 18:33:08.
