data_PCOD9114632
_publ_section_title
;
Structure prediction by ZEFSAII (Michael W. Deem and Ramdas Pophale) SiO2 
 PCOD9114632
Probable space group: P 21
;
_chemical_formula_sum "Si O2"
_cell_formula_units_Z 16
_cell_length_a 10.692969
_cell_length_b 7.919786
_cell_length_c 14.598023
_cell_angle_alpha 90.000000
_cell_angle_beta 150.285039
_cell_angle_gamma 90.000000
_cell_volume 612.790444
_symmetry_space_group_name_H-M "P 21"
_symmetry_group_IT_number 4
_symmetry_cell_setting 'monoclinic'
loop_
_space_group_symop_operation_xyz
x,y,z
-x,1/2+y,-z
loop_
_atom_site_type_symbol
_atom_site_label
_atom_site_fract_x
_atom_site_fract_y
_atom_site_fract_z
Si Si1 0.654223 0.171670 0.720743
Si Si2 0.553203 0.913334 0.893067
Si Si3 0.993697 0.059650 0.537449
Si Si4 0.174291 0.096007 0.995162
Si Si5 0.877268 0.734031 0.551545
Si Si6 0.910667 0.232302 0.110304
Si Si7 0.946285 0.787142 0.257736
Si Si8 0.669940 0.501157 0.620845
O O1 0.397900 0.148780 0.614340
O O2 0.640140 0.365677 0.680207
O O3 0.947465 0.133592 0.922159
O O4 0.585120 0.054773 0.589149
O O5 0.271558 0.976188 0.719125
O O6 0.615364 0.746949 0.869597
O O7 0.667454 0.865465 0.066238
O O8 0.730351 0.071426 0.978836
O O9 0.955816 0.120774 0.410478
O O10 0.991130 0.219214 0.603565
O O11 0.823155 0.912632 0.468712
O O12 0.069722 0.135573 0.825760
O O13 0.209872 0.895444 0.014076
O O14 0.027068 0.758081 0.741711
O O15 0.188148 0.169255 0.255529
O O16 0.148474 0.912077 0.339806
#
# Coordination Sequence:
#
# PCOD9114632 Si02
#       8
#     2   2   2   2   2   2   2   2
#     4  10  18  35  58  95 128 158 210 271 322 379
#     4   9  22  40  67  93 123 166 217 275 306 378
#     4  12  25  43  60  92 138 172 221 255 325 402
#     4   9  18  38  66 100 119 153 219 276 320 368
#     4  11  26  38  61  89 136 177 204 258 332 388
#     4  10  18  40  65 100 121 163 212 266 333 368
#     4   8  19  37  58  91 119 167 213 266 305 367
#     4   9  18  29  61  92 128 156 208 275 319 368
#
# _framework density 26.110067000000001
#
# number of rings (size 3 to 8) (size 9 to 14) (size 15 to 20)
#    0.750    1.500    2.500    1.500    8.750    0.000 
#    2.250    0.000    2.750    0.000    0.000    0.000 
#    0.000    0.000    0.000    0.000    0.000    0.000 
#
# Total GULP energy -89356.468629 kJ/mol
# GULP energy per Si atom -5584.779289 kJ/mol
# Density = 2.605064 g / cm^3
# Si number density = 26.110067 Si / 1000 Ang^3
#
#
#
# Elastic Constant Matrix: (Units=GPa)
#
#
# Indices 1 2 3 4 5 6 
#
# 1 86.9266 15.6127 33.2407 0.0000 -7.5784 0.0000
# 2 15.6127 145.8343 7.2753 0.0000 -1.7825 0.0000
# 3 33.2407 7.2753 76.2640 0.0000 -1.8778 0.0000
# 4 0.0000 0.0000 0.0000 17.3265 0.0000 12.3772
# 5 -7.5784 -1.7825 -1.8778 0.0000 32.2608 0.0000
# 6 0.0000 0.0000 0.0000 12.3772 0.0000 33.2957
#
#
#
# Elastic Compliance Matrix: (Units=1/GPa)
#
#
# Indices 1 2 3 4 5 6 
#
# 1 0.014284 -0.001192 -0.006040 0.000000 0.002938 0.000000
# 2 -0.001192 0.006993 -0.000145 0.000000 0.000098 0.000000
# 3 -0.006040 -0.000145 0.015746 0.000000 -0.000510 0.000000
# 4 0.000000 0.000000 0.000000 0.078583 0.000000 -0.029212
# 5 0.002938 0.000098 -0.000510 0.000000 0.031663 0.000000
# 6 0.000000 0.000000 0.000000 -0.029212 0.000000 0.040893
#
#
# Mechanical properties :
#
#
# Convention : Reuss Voigt Hill
#
# Bulk Modulus (GPa) = 44.90485 46.80914 45.85699
# Shear Modulus (GPa) = 23.77119 33.43635 28.60377
#
# Velocity S-wave (km/s) = 3.02059 3.58242 3.31344
# Velocity P-wave (km/s) = 5.42226 5.92268 5.67799
#
# Compressibility (1/GPa) = 0.02226931
#
# Stress axis : x y z
#
# Youngs Moduli (GPa) = 70.00961 142.99718 63.50773
#
# Poissons Ratio (x) = 0.17045 0.38357
# Poissons Ratio (y) = 0.08345 0.00922
# Poissons Ratio (z) = 0.42284 0.02076
#
# Static dielectric constant tensor:
#      x y z
#    x 2.108540 0.000000 -0.025440 
#    y 0.000000 2.124840 0.000000 
#    z -0.025440 0.000000 2.021570 
# 
# From -- ./inp_files/15171.got.cif
#   From: 2010.05.17/outbox.cif.g08.bks.cpg/sg4_8_cif.got.tgz:15171.got - 2010.06.03 18:43:04.
