data_PCOD9114839
_publ_section_title
;
Structure prediction by ZEFSAII (Michael W. Deem and Ramdas Pophale) SiO2 
 PCOD9114839
Probable space group: P 21
;
_chemical_formula_sum "Si O2"
_cell_formula_units_Z 14
_cell_length_a 17.233100
_cell_length_b 4.914876
_cell_length_c 8.956367
_cell_angle_alpha 90.000000
_cell_angle_beta 135.020063
_cell_angle_gamma 90.000000
_cell_volume 536.217185
_symmetry_space_group_name_H-M "P 21"
_symmetry_group_IT_number 4
_symmetry_cell_setting 'monoclinic'
loop_
_space_group_symop_operation_xyz
x,y,z
-x,1/2+y,-z
loop_
_atom_site_type_symbol
_atom_site_label
_atom_site_fract_x
_atom_site_fract_y
_atom_site_fract_z
Si Si1 0.439125 0.737130 0.605332
Si Si2 0.047353 0.696855 0.986872
Si Si3 0.458241 0.918389 0.025273
Si Si4 0.335504 0.529009 0.164373
Si Si5 0.115428 0.323490 0.461447
Si Si6 0.239638 0.048554 0.883447
Si Si7 0.218536 0.830172 0.441971
O O1 0.482983 0.456575 0.734915
O O2 0.377658 0.673938 0.369671
O O3 0.347563 0.842062 0.595122
O O4 0.547160 0.917034 0.735954
O O5 0.009361 0.800899 0.772429
O O6 0.168218 0.741954 0.213611
O O7 0.019010 0.384969 0.983344
O O8 0.527499 0.115702 0.012101
O O9 0.338078 0.044567 0.892343
O O10 0.265187 0.251144 0.056026
O O11 0.260255 0.743864 0.971080
O O12 0.138926 0.183807 0.653368
O O13 0.170079 0.616585 0.499699
O O14 0.174479 0.123844 0.424097
#
# Coordination Sequence:
#
# PCOD9114839 Si02
#       7
#     2   2   2   2   2   2   2
#     4  11  23  40  56  75 110 146 188 229 268 318
#     4   8  16  31  52  84 115 140 174 219 282 345
#     4  11  21  32  50  76 102 127 166 220 270 317
#     4  11  25  38  54  74 103 152 193 223 258 317
#     4  10  19  35  58  86 117 142 174 232 290 332
#     4  11  22  37  53  76 106 144 186 219 270 331
#     4  10  20  33  59  87 111 145 183 228 284 338
#
# _framework density 26.108822
#
# number of rings (size 3 to 8) (size 9 to 14) (size 15 to 20)
#    0.000    1.714    0.000    6.000    0.000    5.714 
#    0.000    0.000    0.000    1.714    0.000    0.000 
#    0.000    0.000    0.000    0.000    0.000    0.000 
#
# Total GULP energy -78159.225187 kJ/mol
# GULP energy per Si atom -5582.801799 kJ/mol
# Density = 2.604940 g / cm^3
# Si number density = 26.108822 Si / 1000 Ang^3
#
#
#
# Elastic Constant Matrix: (Units=GPa)
#
#
# Indices 1 2 3 4 5 6 
#
# 1 24.3514 5.3828 -0.2060 0.0000 5.7488 0.0000
# 2 5.3828 126.0454 4.2549 0.0000 -5.2171 0.0000
# 3 -0.2060 4.2549 141.1190 0.0000 2.3071 0.0000
# 4 0.0000 0.0000 0.0000 33.8442 0.0000 0.7716
# 5 5.7488 -5.2171 2.3071 0.0000 34.9911 0.0000
# 6 0.0000 0.0000 0.0000 0.7716 0.0000 5.8635
#
#
#
# Elastic Compliance Matrix: (Units=1/GPa)
#
#
# Indices 1 2 3 4 5 6 
#
# 1 0.043306 -0.002166 0.000250 0.000000 -0.007454 0.000000
# 2 -0.002166 0.008101 -0.000273 0.000000 0.001582 0.000000
# 3 0.000250 -0.000273 0.007104 0.000000 -0.000550 0.000000
# 4 0.000000 0.000000 0.000000 0.029636 0.000000 -0.003900
# 5 -0.007454 0.001582 -0.000550 0.000000 0.030075 0.000000
# 6 0.000000 0.000000 0.000000 -0.003900 0.000000 0.171060
#
#
# Mechanical properties :
#
#
# Convention : Reuss Voigt Hill
#
# Bulk Modulus (GPa) = 18.47326 34.48660 26.47993
# Shear Modulus (GPa) = 16.04080 33.74537 24.89308
#
# Velocity S-wave (km/s) = 2.48136 3.59902 3.09113
# Velocity P-wave (km/s) = 3.91157 5.52341 4.78584
#
# Compressibility (1/GPa) = 0.05413229
#
# Stress axis : x y z
#
# Youngs Moduli (GPa) = 23.09140 123.44366 140.76937
#
# Poissons Ratio (x) = 0.26743 -0.03525
# Poissons Ratio (y) = 0.05003 0.03847
# Poissons Ratio (z) = -0.00578 0.03373
#
# Static dielectric constant tensor:
#      x y z
#    x 2.059020 0.000000 0.006810 
#    y 0.000000 1.951800 0.000000 
#    z 0.006810 0.000000 2.206780 
# 
# From -- ./inp_files/10066.got.cif
#   From: 2010.05.17/outbox.cif.g08.bks.cpg/sg4_6_cif.got.tgz:10066.got - 2010.06.03 18:43:04.
