data_PCOD9114643
_publ_section_title
;
Structure prediction by ZEFSAII (Michael W. Deem and Ramdas Pophale) SiO2 
 PCOD9114643
Probable space group: P 21
;
_chemical_formula_sum "Si O2"
_cell_formula_units_Z 16
_cell_length_a 8.133550
_cell_length_b 11.061539
_cell_length_c 7.037119
_cell_angle_alpha 90.000000
_cell_angle_beta 68.028015
_cell_angle_gamma 90.000000
_cell_volume 587.140699
_symmetry_space_group_name_H-M "P 21"
_symmetry_group_IT_number 4
_symmetry_cell_setting 'monoclinic'
loop_
_space_group_symop_operation_xyz
x,y,z
-x,1/2+y,-z
loop_
_atom_site_type_symbol
_atom_site_label
_atom_site_fract_x
_atom_site_fract_y
_atom_site_fract_z
Si Si1 0.220175 0.052740 0.609363
Si Si2 0.554190 0.797893 0.960996
Si Si3 0.800656 0.999691 0.240281
Si Si4 0.145157 0.417526 0.296388
Si Si5 0.479027 0.052626 0.135069
Si Si6 0.264794 0.656125 0.394702
Si Si7 0.977138 0.785667 0.277705
Si Si8 0.478879 0.845558 0.559521
O O1 0.328575 0.071719 0.364497
O O2 0.155196 0.178278 0.728555
O O3 0.034694 0.984912 0.665645
O O4 0.343515 0.955304 0.655852
O O5 0.536416 0.657611 0.017350
O O6 0.517077 0.793956 0.750428
O O7 0.758198 0.837128 0.900275
O O8 0.451561 0.913205 0.086259
O O9 0.683006 0.060932 0.127249
O O10 0.848118 0.105343 0.371125
O O11 0.965914 0.906957 0.154726
O O12 0.644781 0.910284 0.386989
O O13 0.285588 0.521714 0.295667
O O14 0.099215 0.331158 0.488575
O O15 0.402004 0.743439 0.447688
O O16 0.161939 0.729960 0.274219
#
# Coordination Sequence:
#
# PCOD9114643 Si02
#       8
#     2   2   2   2   2   2   2   2
#     4  10  21  38  67  97 123 165 221 284 327 394
#     4  12  24  43  63  94 139 185 214 275 330 397
#     4  10  21  37  62  92 121 172 214 274 321 392
#     4  10  20  38  66  95 121 169 217 276 330 382
#     4  11  25  42  64  96 143 179 220 270 336 391
#     4  10  19  33  61  97 121 153 215 276 327 384
#     4  10  18  35  63  94 126 153 214 267 336 375
#     4  11  20  34  64  91 124 160 225 266 331 381
#
# _framework density 27.250709000000001
#
# number of rings (size 3 to 8) (size 9 to 14) (size 15 to 20)
#    0.000    1.500    6.250    0.000    1.750    3.000 
#    0.000    0.000    8.250    1.500    0.000    0.000 
#    0.000    0.000    0.000    0.000    0.000    0.000 
#
# Total GULP energy -89272.172460 kJ/mol
# GULP energy per Si atom -5579.510779 kJ/mol
# Density = 2.718868 g / cm^3
# Si number density = 27.250709 Si / 1000 Ang^3
#
#
#
# Elastic Constant Matrix: (Units=GPa)
#
#
# Indices 1 2 3 4 5 6 
#
# 1 103.7691 50.0314 12.4317 0.0000 6.3948 0.0000
# 2 50.0314 146.0732 21.3787 0.0000 -1.1791 0.0000
# 3 12.4317 21.3787 56.5469 0.0000 16.7098 0.0000
# 4 0.0000 0.0000 0.0000 45.0798 0.0000 -1.0147
# 5 6.3948 -1.1791 16.7098 0.0000 26.9945 0.0000
# 6 0.0000 0.0000 0.0000 -1.0147 0.0000 68.5317
#
#
#
# Elastic Compliance Matrix: (Units=1/GPa)
#
#
# Indices 1 2 3 4 5 6 
#
# 1 0.011778 -0.004022 -0.000235 0.000000 -0.002820 0.000000
# 2 -0.004022 0.008757 -0.003453 0.000000 0.003473 0.000000
# 3 -0.000235 -0.003453 0.023339 0.000000 -0.014542 0.000000
# 4 0.000000 0.000000 0.000000 0.022190 0.000000 0.000329
# 5 -0.002820 0.003473 -0.014542 0.000000 0.046866 0.000000
# 6 0.000000 0.000000 0.000000 0.000329 0.000000 0.014597
#
#
# Mechanical properties :
#
#
# Convention : Reuss Voigt Hill
#
# Bulk Modulus (GPa) = 35.14538 52.67477 43.91008
# Shear Modulus (GPa) = 32.80158 42.95768 37.87963
#
# Velocity S-wave (km/s) = 3.47320 3.97468 3.73237
# Velocity P-wave (km/s) = 5.38602 6.35891 5.89258
#
# Compressibility (1/GPa) = 0.02845324
#
# Stress axis : x y z
#
# Youngs Moduli (GPa) = 84.90291 114.19506 42.84733
#
# Poissons Ratio (x) = 0.45935 0.01008
# Poissons Ratio (y) = 0.34152 0.14793
# Poissons Ratio (z) = 0.01997 0.39427
#
# Static dielectric constant tensor:
#      x y z
#    x 2.282350 0.000000 0.020670 
#    y 0.000000 2.155730 0.000000 
#    z 0.020670 0.000000 2.248490 
# 
# From -- ./inp_files/6251.got.cif
#   From: 2010.05.17/outbox.cif.g08.bks.cpg/sg4_4_cif.got.tgz:6251.got - 2010.06.03 18:43:04.
