data_PCOD9114744
_publ_section_title
;
Structure prediction by ZEFSAII (Michael W. Deem and Ramdas Pophale) SiO2 
 PCOD9114744
Probable space group: P 21
;
_chemical_formula_sum "Si O2"
_cell_formula_units_Z 16
_cell_length_a 9.053005
_cell_length_b 8.476260
_cell_length_c 11.433964
_cell_angle_alpha 90.000000
_cell_angle_beta 103.021166
_cell_angle_gamma 90.000000
_cell_volume 854.831885
_symmetry_space_group_name_H-M "P 21"
_symmetry_group_IT_number 4
_symmetry_cell_setting 'monoclinic'
loop_
_space_group_symop_operation_xyz
x,y,z
-x,1/2+y,-z
loop_
_atom_site_type_symbol
_atom_site_label
_atom_site_fract_x
_atom_site_fract_y
_atom_site_fract_z
Si Si1 0.600542 0.005560 0.751107
Si Si2 0.648734 0.683611 0.646807
Si Si3 0.489977 0.527216 0.827508
Si Si4 0.875654 0.485122 0.537533
Si Si5 0.727369 0.599932 0.303125
Si Si6 0.334829 0.685967 0.455597
Si Si7 0.773278 0.957643 0.371194
Si Si8 0.531726 0.677904 0.072812
O O1 0.420697 0.999939 0.685835
O O2 0.662516 0.143484 0.679870
O O3 0.590022 0.063855 0.882750
O O4 0.674390 0.842281 0.726412
O O5 0.596032 0.553500 0.733500
O O6 0.787802 0.619689 0.595491
O O7 0.504062 0.713568 0.536096
O O8 0.320714 0.548405 0.745862
O O9 0.499862 0.354890 0.888543
O O10 0.524764 0.653050 0.934473
O O11 0.866752 0.524969 0.396889
O O12 0.778699 0.327756 0.539731
O O13 0.047240 0.467516 0.608053
O O14 0.719966 0.778018 0.349268
O O15 0.693230 0.622312 0.159049
O O16 0.275996 0.533721 0.515857
#
# Coordination Sequence:
#
# PCOD9114744 Si02
#       8
#     2   2   2   2   2   2   2   2
#     4  10  19  32  55  81 104 138 182 240 266 310
#     4  11  19  32  55  81 108 142 189 229 267 324
#     4  10  20  35  58  82 106 141 187 234 278 324
#     4  12  21  34  54  83 120 147 181 224 288 341
#     4   9  19  35  53  80 111 144 184 226 274 322
#     4  11  19  32  53  82 107 148 185 225 273 324
#     4  10  23  35  53  81 121 151 173 227 287 346
#     4   9  18  33  55  82 105 137 187 243 267 317
#
# _framework density 18.717131999999999
#
# number of rings (size 3 to 8) (size 9 to 14) (size 15 to 20)
#    0.750    1.000    2.500    3.000    1.750    0.000 
#    0.000    0.000    0.000   10.500    0.000    0.000 
#    0.000    0.000    0.000    0.000    0.000    0.000 
#
# Total GULP energy -89117.918284 kJ/mol
# GULP energy per Si atom -5569.869893 kJ/mol
# Density = 1.867453 g / cm^3
# Si number density = 18.717132 Si / 1000 Ang^3
#
#
#
# Elastic Constant Matrix: (Units=GPa)
#
#
# Indices 1 2 3 4 5 6 
#
# 1 40.5741 -6.4394 20.6352 0.0000 2.3099 0.0000
# 2 -6.4394 30.1048 -0.9638 0.0000 3.4987 0.0000
# 3 20.6352 -0.9638 85.2072 0.0000 1.7092 0.0000
# 4 0.0000 0.0000 0.0000 32.2986 0.0000 -5.1720
# 5 2.3099 3.4987 1.7092 0.0000 14.7606 0.0000
# 6 0.0000 0.0000 0.0000 -5.1720 0.0000 7.7363
#
#
#
# Elastic Compliance Matrix: (Units=1/GPa)
#
#
# Indices 1 2 3 4 5 6 
#
# 1 0.029571 0.006731 -0.006977 0.000000 -0.005415 0.000000
# 2 0.006731 0.035716 -0.001038 0.000000 -0.009399 0.000000
# 3 -0.006977 -0.001038 0.013418 0.000000 -0.000216 0.000000
# 4 0.000000 0.000000 0.000000 0.034673 0.000000 0.023180
# 5 -0.005415 -0.009399 -0.000216 0.000000 0.070848 0.000000
# 6 0.000000 0.000000 0.000000 0.023180 0.000000 0.144758
#
#
# Mechanical properties :
#
#
# Convention : Reuss Voigt Hill
#
# Bulk Modulus (GPa) = 13.13380 20.26112 16.69746
# Shear Modulus (GPa) = 14.00835 20.46939 17.23887
#
# Velocity S-wave (km/s) = 2.73870 3.31058 3.03812
# Velocity P-wave (km/s) = 4.12709 5.04595 4.60947
#
# Compressibility (1/GPa) = 0.07613945
#
# Stress axis : x y z
#
# Youngs Moduli (GPa) = 33.81692 27.99850 74.52531
#
# Poissons Ratio (x) = -0.18846 0.51993
# Poissons Ratio (y) = -0.22763 0.07733
# Poissons Ratio (z) = 0.23593 0.02905
#
# Static dielectric constant tensor:
#      x y z
#    x 1.620720 0.000000 -0.001150 
#    y 0.000000 1.707010 0.000000 
#    z -0.001150 0.000000 1.658340 
# 
# From -- ./inp_files/7502.got.cif
#   From: 2010.05.17/outbox.cif.g08.bks.cpg/sg4_4_cif.got.tgz:7502.got - 2010.06.03 18:43:04.
