data_PCOD9114224
_publ_section_title
;
Structure prediction by ZEFSAII (Michael W. Deem and Ramdas Pophale) SiO2 
 PCOD9114224
Probable space group: P 2
;
_chemical_formula_sum "Si O2"
_cell_formula_units_Z 8
_cell_length_a 8.193884
_cell_length_b 6.508327
_cell_length_c 9.143972
_cell_angle_alpha 90.000000
_cell_angle_beta 47.311377
_cell_angle_gamma 90.000000
_cell_volume 358.435072
_symmetry_space_group_name_H-M "P 2"
_symmetry_group_IT_number 3
_symmetry_cell_setting 'monoclinic'
loop_
_space_group_symop_operation_xyz
x,y,z
-x,y,-z
loop_
_atom_site_type_symbol
_atom_site_label
_atom_site_fract_x
_atom_site_fract_y
_atom_site_fract_z
Si Si1 0.527034 0.536840 0.727648
Si Si2 0.000000 0.903096 0.000000
Si Si3 0.256762 0.199580 0.010273
Si Si4 0.500000 0.867998 0.000000
Si Si5 0.870988 0.540567 0.270860
O O1 0.751510 0.543767 0.498994
O O2 0.325075 0.526722 0.732089
O O3 0.476903 0.331852 0.848742
O O4 0.515579 0.723740 0.848451
O O5 0.978715 0.753941 0.151991
O O6 0.202921 0.058779 0.900856
O O7 0.055105 0.360607 0.154849
O O8 0.295697 0.026555 0.108042
#
# Coordination Sequence:
#
# PCOD9114224 Si02
#       5
#     2   1   2   1   2
#     4  11  24  46  70 106 142 183 234 292 341 414
#     4  12  20  44  72 102 138 182 230 284 342 412
#     4  12  23  46  73 101 142 185 228 288 348 413
#     4  12  26  46  72 104 148 180 224 296 362 396
#     4  11  23  45  74 103 140 184 242 283 335 424
#
# _framework density 22.319241000000002
#
# number of rings (size 3 to 8) (size 9 to 14) (size 15 to 20)
#    0.000    0.500    7.500    0.750    0.000    2.000 
#    0.000   18.750    0.000    0.000    0.000    0.000 
#    0.000    0.000    0.000    0.000    0.000    0.000 
#
# Total GULP energy -44626.944515 kJ/mol
# GULP energy per Si atom -5578.368064 kJ/mol
# Density = 2.226844 g / cm^3
# Si number density = 22.319241 Si / 1000 Ang^3
#
#
#
# Elastic Constant Matrix: (Units=GPa)
#
#
# Indices 1 2 3 4 5 6 
#
# 1 71.7694 76.7864 44.3936 0.0000 8.8451 0.0000
# 2 76.7864 208.7086 95.5137 0.0000 -0.1582 0.0000
# 3 44.3936 95.5137 176.7355 0.0000 -3.5289 0.0000
# 4 0.0000 0.0000 0.0000 2.9549 0.0000 4.8140
# 5 8.8451 -0.1582 -3.5289 0.0000 23.3376 0.0000
# 6 0.0000 0.0000 0.0000 4.8140 0.0000 74.9466
#
#
#
# Elastic Compliance Matrix: (Units=1/GPa)
#
#
# Indices 1 2 3 4 5 6 
#
# 1 0.025459 -0.008445 -0.002031 0.000000 -0.010014 0.000000
# 2 -0.008445 0.009172 -0.002779 0.000000 0.002843 0.000000
# 3 -0.002031 -0.002779 0.007708 0.000000 0.001917 0.000000
# 4 0.000000 0.000000 0.000000 0.377969 0.000000 -0.024278
# 5 -0.010014 0.002843 0.001917 0.000000 0.046954 0.000000
# 6 0.000000 0.000000 0.000000 -0.024278 0.000000 0.014902
#
#
# Mechanical properties :
#
#
# Convention : Reuss Voigt Hill
#
# Bulk Modulus (GPa) = 63.17099 98.95564 81.06332
# Shear Modulus (GPa) = 9.72856 36.28249 23.00553
#
# Velocity S-wave (km/s) = 2.09004 4.03627 3.21401
# Velocity P-wave (km/s) = 5.84715 8.13355 7.08321
#
# Compressibility (1/GPa) = 0.01583005
#
# Stress axis : x y z
#
# Youngs Moduli (GPa) = 39.27878 109.02456 129.72711
#
# Poissons Ratio (x) = 0.92069 0.26349
# Poissons Ratio (y) = 0.33170 0.36051
# Poissons Ratio (z) = 0.07978 0.30298
#
# Static dielectric constant tensor:
#      x y z
#    x 1.998800 0.000000 0.017560 
#    y 0.000000 1.814830 0.000000 
#    z 0.017560 0.000000 1.779810 
# 
# From -- ./inp_files/4649.got.cif
#   From: 2010.05.17/outbox.cif.g08.bks.cpg/sg3_3_cif.got.tgz:4649.got - 2010.06.03 18:33:08.
