data_PCOD9114503
_publ_section_title
;
Structure prediction by ZEFSAII (Michael W. Deem and Ramdas Pophale) SiO2 
 PCOD9114503
Probable space group: P 21
;
_chemical_formula_sum "Si O2"
_cell_formula_units_Z 16
_cell_length_a 7.482160
_cell_length_b 9.659371
_cell_length_c 8.693520
_cell_angle_alpha 90.000000
_cell_angle_beta 78.732407
_cell_angle_gamma 90.000000
_cell_volume 616.196019
_symmetry_space_group_name_H-M "P 21"
_symmetry_group_IT_number 4
_symmetry_cell_setting 'monoclinic'
loop_
_space_group_symop_operation_xyz
x,y,z
-x,1/2+y,-z
loop_
_atom_site_type_symbol
_atom_site_label
_atom_site_fract_x
_atom_site_fract_y
_atom_site_fract_z
Si Si1 0.903044 0.536610 0.966682
Si Si2 0.633963 0.002475 0.575768
Si Si3 0.619944 0.311815 0.036737
Si Si4 0.819480 0.199182 0.292366
Si Si5 0.017680 0.754486 0.158716
Si Si6 0.501833 0.254301 0.761734
Si Si7 0.744997 0.437618 0.519178
Si Si8 0.802349 0.744570 0.464774
O O1 0.004344 0.639404 0.828331
O O2 0.021753 0.395873 0.927971
O O3 0.700716 0.468025 0.002956
O O4 0.913218 0.618870 0.123178
O O5 0.434326 0.966762 0.551753
O O6 0.737777 0.860971 0.592734
O O7 0.736954 0.083492 0.420331
O O8 0.597661 0.107367 0.717800
O O9 0.452563 0.286497 0.948245
O O10 0.777139 0.225795 0.922096
O O11 0.658956 0.250907 0.200061
O O12 0.857511 0.331400 0.394182
O O13 0.982756 0.783997 0.341530
O O14 0.649014 0.370440 0.683733
O O15 0.345923 0.257995 0.653505
O O16 0.824112 0.591068 0.527199
#
# Coordination Sequence:
#
# PCOD9114503 Si02
#       8
#     2   2   2   2   2   2   2   2
#     4   9  18  31  55  77 109 144 187 221 275 333
#     4   9  17  33  54  78 106 146 187 217 268 339
#     4   9  19  34  56  79 111 139 180 232 282 312
#     4  10  17  34  56  78 104 154 185 222 271 340
#     4   9  18  32  55  75 106 142 188 222 266 336
#     4   9  19  35  54  78 113 142 176 236 283 308
#     4   9  19  31  55  76 109 147 186 214 276 331
#     4  10  17  32  55  79 102 146 193 220 259 345
#
# _framework density 25.965761000000001
#
# number of rings (size 3 to 8) (size 9 to 14) (size 15 to 20)
#    0.750    2.000    1.250    1.500    0.000    0.000 
#    0.000   11.250    5.500    0.000    0.000    0.000 
#    0.000    0.000    0.000    0.000    0.000    0.000 
#
# Total GULP energy -89164.595486 kJ/mol
# GULP energy per Si atom -5572.787218 kJ/mol
# Density = 2.590666 g / cm^3
# Si number density = 25.965761 Si / 1000 Ang^3
#
#
#
# Elastic Constant Matrix: (Units=GPa)
#
#
# Indices 1 2 3 4 5 6 
#
# 1 50.1289 6.4947 12.5907 0.0000 3.0183 0.0000
# 2 6.4947 134.3187 37.8393 0.0000 4.7550 0.0000
# 3 12.5907 37.8393 87.6792 0.0000 17.1529 0.0000
# 4 0.0000 0.0000 0.0000 25.4549 0.0000 -12.0512
# 5 3.0183 4.7550 17.1529 0.0000 43.6164 0.0000
# 6 0.0000 0.0000 0.0000 -12.0512 0.0000 21.4874
#
#
#
# Elastic Compliance Matrix: (Units=1/GPa)
#
#
# Indices 1 2 3 4 5 6 
#
# 1 0.020703 -0.000193 -0.002831 0.000000 -0.000298 0.000000
# 2 -0.000193 0.008490 -0.003746 0.000000 0.000561 0.000000
# 3 -0.002831 -0.003746 0.014420 0.000000 -0.005066 0.000000
# 4 0.000000 0.000000 0.000000 0.053487 0.000000 0.029998
# 5 -0.000298 0.000561 -0.005066 0.000000 0.024879 0.000000
# 6 0.000000 0.000000 0.000000 0.029998 0.000000 0.063363
#
#
# Mechanical properties :
#
#
# Convention : Reuss Voigt Hill
#
# Bulk Modulus (GPa) = 33.25384 42.88624 38.07004
# Shear Modulus (GPa) = 23.93420 32.45852 28.19636
#
# Velocity S-wave (km/s) = 3.03934 3.53944 3.29888
# Velocity P-wave (km/s) = 5.01512 5.76679 5.40404
#
# Compressibility (1/GPa) = 0.03007171
#
# Stress axis : x y z
#
# Youngs Moduli (GPa) = 48.30297 117.78949 69.35023
#
# Poissons Ratio (x) = 0.02272 0.19635
# Poissons Ratio (y) = 0.00932 0.25978
# Poissons Ratio (z) = 0.13676 0.44123
#
# Static dielectric constant tensor:
#      x y z
#    x 2.224460 0.000000 0.081790 
#    y 0.000000 2.063740 0.000000 
#    z 0.081790 0.000000 2.094250 
# 
# From -- ./inp_files/7555.got.cif
#   From: 2010.05.17/outbox.cif.g08.bks.cpg/sg4_4_cif.got.tgz:7555.got - 2010.06.03 18:43:04.
