data_PCOD9114488
_publ_section_title
;
Structure prediction by ZEFSAII (Michael W. Deem and Ramdas Pophale) SiO2 
 PCOD9114488
Probable space group: P 21
;
_chemical_formula_sum "Si O2"
_cell_formula_units_Z 16
_cell_length_a 11.856475
_cell_length_b 5.472038
_cell_length_c 19.378696
_cell_angle_alpha 90.000000
_cell_angle_beta 39.793609
_cell_angle_gamma 90.000000
_cell_volume 804.684253
_symmetry_space_group_name_H-M "P 21"
_symmetry_group_IT_number 4
_symmetry_cell_setting 'monoclinic'
loop_
_space_group_symop_operation_xyz
x,y,z
-x,1/2+y,-z
loop_
_atom_site_type_symbol
_atom_site_label
_atom_site_fract_x
_atom_site_fract_y
_atom_site_fract_z
Si Si1 0.851270 0.434110 0.266017
Si Si2 0.388113 0.605536 0.796879
Si Si3 0.016363 0.651845 0.921489
Si Si4 0.415992 0.997766 0.011886
Si Si5 0.453728 0.996549 0.425000
Si Si6 0.610221 0.609979 0.136946
Si Si7 0.429496 0.489259 0.474908
Si Si8 0.996041 0.434256 0.789397
O O1 0.939052 0.382966 0.149474
O O2 0.640975 0.469452 0.357334
O O3 0.930173 0.671819 0.265210
O O4 0.907172 0.184191 0.279044
O O5 0.175531 0.622969 0.899109
O O6 0.436344 0.533804 0.695788
O O7 0.456857 0.378456 0.809787
O O8 0.449938 0.876639 0.789510
O O9 0.023949 0.441776 0.859445
O O10 0.822575 0.639211 0.042814
O O11 0.210291 0.963187 0.126746
O O12 0.511283 0.743733 0.986335
O O13 0.428121 0.047619 0.924329
O O14 0.344189 0.243442 0.486409
O O15 0.566062 0.987638 0.443901
O O16 0.362664 0.735031 0.471330
#
# Coordination Sequence:
#
# PCOD9114488 Si02
#       8
#     2   2   2   2   2   2   2   2
#     4  10  17  30  50  71 107 128 178 214 253 283
#     4  12  21  34  48  73 113 144 176 201 255 298
#     4   9  21  30  51  68 110 143 172 202 248 286
#     4  11  22  40  58  72 101 135 173 228 280 308
#     4  10  20  31  48  70 103 145 192 214 245 304
#     4  11  25  33  50  77 100 139 181 211 246 331
#     4  10  18  32  49  72  99 147 187 218 254 288
#     4   9  20  30  52  77  99 129 173 210 257 312
#
# _framework density 19.883573999999999
#
# number of rings (size 3 to 8) (size 9 to 14) (size 15 to 20)
#    0.750    1.000    1.250    4.500    5.250    0.000 
#    0.000    0.000    0.000    0.000    0.000    0.000 
#    0.000   20.000    0.000    0.000    0.000    0.000 
#
# Total GULP energy -89146.766422 kJ/mol
# GULP energy per Si atom -5571.672901 kJ/mol
# Density = 1.983832 g / cm^3
# Si number density = 19.883574 Si / 1000 Ang^3
#
#
#
# Elastic Constant Matrix: (Units=GPa)
#
#
# Indices 1 2 3 4 5 6 
#
# 1 50.6657 36.6795 2.3647 0.0000 -4.6006 0.0000
# 2 36.6795 206.3815 33.7307 0.0000 -2.4935 0.0000
# 3 2.3647 33.7307 76.0014 0.0000 2.5674 0.0000
# 4 0.0000 0.0000 0.0000 28.0409 0.0000 10.8297
# 5 -4.6006 -2.4935 2.5674 0.0000 14.9265 0.0000
# 6 0.0000 0.0000 0.0000 10.8297 0.0000 19.4550
#
#
#
# Elastic Compliance Matrix: (Units=1/GPa)
#
#
# Indices 1 2 3 4 5 6 
#
# 1 0.023324 -0.004222 0.000934 0.000000 0.006323 0.000000
# 2 -0.004222 0.006013 -0.002542 0.000000 0.000141 0.000000
# 3 0.000934 -0.002542 0.014345 0.000000 -0.002604 0.000000
# 4 0.000000 0.000000 0.000000 0.045429 0.000000 -0.025288
# 5 0.006323 0.000141 -0.002604 0.000000 0.069415 0.000000
# 6 0.000000 0.000000 0.000000 -0.025288 0.000000 0.065477
#
#
# Mechanical properties :
#
#
# Convention : Reuss Voigt Hill
#
# Bulk Modulus (GPa) = 31.22753 53.17759 42.20256
# Shear Modulus (GPa) = 20.29751 29.83606 25.06678
#
# Velocity S-wave (km/s) = 3.19849 3.87788 3.55445
# Velocity P-wave (km/s) = 5.42031 6.84494 6.17385
#
# Compressibility (1/GPa) = 0.03202303
#
# Stress axis : x y z
#
# Youngs Moduli (GPa) = 42.87429 166.31057 69.71203
#
# Poissons Ratio (x) = 0.70210 -0.06513
# Poissons Ratio (y) = 0.18100 0.17721
# Poissons Ratio (z) = -0.04006 0.42276
#
# Static dielectric constant tensor:
#      x y z
#    x 1.648430 0.000000 -0.004290 
#    y 0.000000 1.834280 0.000000 
#    z -0.004290 0.000000 1.795600 
# 
# From -- ./inp_files/13844.got.cif
#   From: 2010.05.17/outbox.cif.g08.bks.cpg/sg4_7_cif.got.tgz:13844.got - 2010.06.03 18:43:04.
