data_PCOD9114466
_publ_section_title
;
Structure prediction by ZEFSAII (Michael W. Deem and Ramdas Pophale) SiO2 
 PCOD9114466
Probable space group: P 21
;
_chemical_formula_sum "Si O2"
_cell_formula_units_Z 16
_cell_length_a 9.077747
_cell_length_b 12.121574
_cell_length_c 7.440486
_cell_angle_alpha 90.000000
_cell_angle_beta 87.839168
_cell_angle_gamma 90.000000
_cell_volume 818.143473
_symmetry_space_group_name_H-M "P 21"
_symmetry_group_IT_number 4
_symmetry_cell_setting 'monoclinic'
loop_
_space_group_symop_operation_xyz
x,y,z
-x,1/2+y,-z
loop_
_atom_site_type_symbol
_atom_site_label
_atom_site_fract_x
_atom_site_fract_y
_atom_site_fract_z
Si Si1 0.698840 0.908440 0.261694
Si Si2 0.134046 0.076262 0.088100
Si Si3 0.953274 0.257880 0.264180
Si Si4 0.965562 0.351487 0.854732
Si Si5 0.328914 0.656708 0.833260
Si Si6 0.626819 0.760401 0.947314
Si Si7 0.882330 0.119782 0.817026
Si Si8 0.201726 0.400650 0.358405
O O1 0.701442 0.881250 0.470844
O O2 0.872194 0.898031 0.196132
O O3 0.644800 0.033347 0.238545
O O4 0.614703 0.823208 0.137289
O O5 0.276126 0.149017 0.037767
O O6 0.045806 0.144526 0.244585
O O7 0.149878 0.951151 0.150465
O O8 0.025748 0.075431 0.919494
O O9 0.784171 0.223363 0.289781
O O10 0.042430 0.341572 0.383551
O O11 0.966941 0.310190 0.062030
O O12 0.925212 0.241358 0.747345
O O13 0.473728 0.725754 0.867019
O O14 0.242605 0.637252 0.025692
O O15 0.716661 0.843299 0.813099
O O16 0.828507 0.028725 0.680480
#
# Coordination Sequence:
#
# PCOD9114466 Si02
#       8
#     2   2   2   2   2   2   2   2
#     4  12  21  39  65  90 118 170 198 250 325 361
#     4   9  15  32  63  83 118 151 201 246 296 354
#     4   9  17  34  61  89 115 153 198 258 294 353
#     4  10  16  34  62  86 119 149 210 247 302 362
#     4  10  21  37  65  85 124 169 202 237 321 368
#     4  11  22  42  60  89 127 165 198 256 301 377
#     4  10  18  37  60  89 116 160 196 261 299 350
#     4  11  22  39  64  87 129 153 207 263 304 353
#
# _framework density 19.556471999999999
#
# number of rings (size 3 to 8) (size 9 to 14) (size 15 to 20)
#    0.000    2.000    8.750    0.000    0.000    3.000 
#    2.250    0.000    2.750    0.000    0.000    0.000 
#    0.000    0.000    0.000    0.000    0.000    0.000 
#
# Total GULP energy -89230.081798 kJ/mol
# GULP energy per Si atom -5576.880112 kJ/mol
# Density = 1.951196 g / cm^3
# Si number density = 19.556472 Si / 1000 Ang^3
#
#
#
# Elastic Constant Matrix: (Units=GPa)
#
#
# Indices 1 2 3 4 5 6 
#
# 1 73.8405 31.8981 10.4535 0.0000 22.7820 0.0000
# 2 31.8981 143.8282 29.1710 0.0000 18.5061 0.0000
# 3 10.4535 29.1710 51.0977 0.0000 13.7351 0.0000
# 4 0.0000 0.0000 0.0000 16.8362 0.0000 11.3372
# 5 22.7820 18.5061 13.7351 0.0000 16.6221 0.0000
# 6 0.0000 0.0000 0.0000 11.3372 0.0000 27.7422
#
#
#
# Elastic Compliance Matrix: (Units=1/GPa)
#
#
# Indices 1 2 3 4 5 6 
#
# 1 0.024940 -0.001992 0.005948 0.000000 -0.036879 0.000000
# 2 -0.001992 0.008607 -0.003425 0.000000 -0.004021 0.000000
# 3 0.005948 -0.003425 0.027607 0.000000 -0.027152 0.000000
# 4 0.000000 0.000000 0.000000 0.081946 0.000000 -0.033488
# 5 -0.036879 -0.004021 -0.027152 0.000000 0.137620 0.000000
# 6 0.000000 0.000000 0.000000 -0.033488 0.000000 0.049732
#
#
# Mechanical properties :
#
#
# Convention : Reuss Voigt Hill
#
# Bulk Modulus (GPa) = 16.07315 45.75685 30.91500
# Shear Modulus (GPa) = 14.28052 25.38968 19.83510
#
# Velocity S-wave (km/s) = 2.70519 3.60707 3.18818
# Velocity P-wave (km/s) = 4.24194 6.38717 5.42172
#
# Compressibility (1/GPa) = 0.06221557
#
# Stress axis : x y z
#
# Youngs Moduli (GPa) = 40.09703 116.18901 36.22256
#
# Poissons Ratio (x) = 0.23149 -0.21547
# Poissons Ratio (y) = 0.07989 0.12406
# Poissons Ratio (z) = -0.23851 0.39793
#
# Static dielectric constant tensor:
#      x y z
#    x 1.681400 0.000000 -0.000070 
#    y 0.000000 1.724910 0.000000 
#    z -0.000070 0.000000 1.706150 
# 
# From -- ./inp_files/6121.got.cif
#   From: 2010.05.17/outbox.cif.g08.bks.cpg/sg4_4_cif.got.tgz:6121.got - 2010.06.03 18:43:04.
