data_PCOD9114375
_publ_section_title
;
Structure prediction by ZEFSAII (Michael W. Deem and Ramdas Pophale) SiO2 
 PCOD9114375
Probable space group: P 2
;
_chemical_formula_sum "Si O2"
_cell_formula_units_Z 14
_cell_length_a 12.616803
_cell_length_b 7.238193
_cell_length_c 6.569723
_cell_angle_alpha 90.000000
_cell_angle_beta 95.740251
_cell_angle_gamma 90.000000
_cell_volume 596.957364
_symmetry_space_group_name_H-M "P 2"
_symmetry_group_IT_number 3
_symmetry_cell_setting 'monoclinic'
loop_
_space_group_symop_operation_xyz
x,y,z
-x,y,-z
loop_
_atom_site_type_symbol
_atom_site_label
_atom_site_fract_x
_atom_site_fract_y
_atom_site_fract_z
Si Si1 0.000000 0.484510 0.000000
Si Si2 0.623690 0.191455 0.085172
Si Si3 0.686292 0.528128 0.381264
Si Si4 0.143459 0.775858 0.830022
Si Si5 0.000000 0.880358 0.500000
Si Si6 0.191168 0.897942 0.291816
Si Si7 0.399203 0.880659 0.594226
Si Si8 0.208410 0.301836 0.234359
O O1 0.056055 0.617809 0.849158
O O2 0.898480 0.377156 0.890905
O O3 0.657112 0.347949 0.250220
O O4 0.632323 0.999302 0.213808
O O5 0.500000 0.207371 0.000000
O O6 0.702226 0.227836 0.908966
O O7 0.765917 0.662778 0.271051
O O8 0.583843 0.663783 0.361469
O O9 0.737591 0.449600 0.601394
O O10 0.077715 0.940743 0.703859
O O11 0.183357 0.846343 0.055336
O O12 0.901609 0.792409 0.605864
O O13 0.169129 0.113566 0.332891
O O14 0.305865 0.869582 0.409516
O O15 0.500000 0.968159 0.500000
#
# Coordination Sequence:
#
# PCOD9114375 Si02
#       8
#     1   2   2   2   1   2   2   2
#     4  12  24  42  70 108 150 202 248 312 370 462
#     4  12  29  51  78 110 154 199 255 331 388 460
#     4  12  27  49  80 111 151 204 256 317 391 468
#     4  12  24  47  73 111 155 201 256 313 387 457
#     4  12  24  42  76 106 152 200 256 310 384 460
#     4  12  26  45  76 108 154 200 259 322 388 463
#     4  12  28  51  78 110 151 201 262 325 390 466
#     4  12  28  47  73 113 155 198 261 317 387 463
#
# _framework density 23.452261
#
# number of rings (size 3 to 8) (size 9 to 14) (size 15 to 20)
#    0.000    0.000    5.714    3.429    4.000    1.714 
#    0.000    0.000    0.000    0.000    0.000    0.000 
#    0.000    0.000    0.000    0.000    0.000    0.000 
#
# Total GULP energy -78029.900305 kJ/mol
# GULP energy per Si atom -5573.564307 kJ/mol
# Density = 2.339888 g / cm^3
# Si number density = 23.452261 Si / 1000 Ang^3
#
#
#
# Elastic Constant Matrix: (Units=GPa)
#
#
# Indices 1 2 3 4 5 6 
#
# 1 145.3655 25.0447 72.3385 0.0000 -3.6908 0.0000
# 2 25.0447 112.0793 30.4580 0.0000 -0.7046 0.0000
# 3 72.3385 30.4580 141.1598 0.0000 8.8872 0.0000
# 4 0.0000 0.0000 0.0000 50.5996 0.0000 16.1816
# 5 -3.6908 -0.7046 8.8872 0.0000 49.4386 0.0000
# 6 0.0000 0.0000 0.0000 16.1816 0.0000 29.8421
#
#
#
# Elastic Compliance Matrix: (Units=1/GPa)
#
#
# Indices 1 2 3 4 5 6 
#
# 1 0.009422 -0.000804 -0.004752 0.000000 0.001546 0.000000
# 2 -0.000804 0.009559 -0.001674 0.000000 0.000377 0.000000
# 3 -0.004752 -0.001674 0.010018 0.000000 -0.002179 0.000000
# 4 0.000000 0.000000 0.000000 0.023909 0.000000 -0.012964
# 5 0.001546 0.000377 -0.002179 0.000000 0.020740 0.000000
# 6 0.000000 0.000000 0.000000 -0.012964 0.000000 0.040540
#
#
# Mechanical properties :
#
#
# Convention : Reuss Voigt Hill
#
# Bulk Modulus (GPa) = 68.78568 72.69855 70.74212
# Shear Modulus (GPa) = 37.45477 44.02697 40.74087
#
# Velocity S-wave (km/s) = 4.00066 4.33748 4.17247
# Velocity P-wave (km/s) = 7.12279 7.49339 7.31044
#
# Compressibility (1/GPa) = 0.01453791
#
# Stress axis : x y z
#
# Youngs Moduli (GPa) = 106.13659 104.61007 99.82151
#
# Poissons Ratio (x) = 0.08413 0.47436
# Poissons Ratio (y) = 0.08536 0.16712
# Poissons Ratio (z) = 0.50437 0.17514
#
# Static dielectric constant tensor:
#      x y z
#    x 1.763620 0.000000 -0.042700 
#    y 0.000000 1.953290 0.000000 
#    z -0.042700 0.000000 1.966420 
# 
# From -- ./inp_files/2267.got.cif
#   From: 2010.05.17/outbox.cif.g08.bks.cpg/sg3_2_cif.got.tgz:2267.got - 2010.06.03 18:33:08.
