data_PCOD9114981
_publ_section_title
;
Structure prediction by ZEFSAII (Michael W. Deem and Ramdas Pophale) SiO2 
 PCOD9114981
Probable space group: P 21
;
_chemical_formula_sum "Si O2"
_cell_formula_units_Z 16
_cell_length_a 8.950765
_cell_length_b 8.612957
_cell_length_c 17.793909
_cell_angle_alpha 90.000000
_cell_angle_beta 38.594185
_cell_angle_gamma 90.000000
_cell_volume 855.715428
_symmetry_space_group_name_H-M "P 21"
_symmetry_group_IT_number 4
_symmetry_cell_setting 'monoclinic'
loop_
_space_group_symop_operation_xyz
x,y,z
-x,1/2+y,-z
loop_
_atom_site_type_symbol
_atom_site_label
_atom_site_fract_x
_atom_site_fract_y
_atom_site_fract_z
Si Si1 0.685800 0.274020 0.984712
Si Si2 0.861524 0.008392 0.210523
Si Si3 0.215818 0.033321 0.637746
Si Si4 0.322251 0.527247 0.144837
Si Si5 0.469927 0.225436 0.649832
Si Si6 0.661236 0.191043 0.417764
Si Si7 0.132235 0.753170 0.928270
Si Si8 0.343935 0.096736 0.847045
O O1 0.691444 0.143933 0.919377
O O2 0.899701 0.403161 0.892176
O O3 0.435094 0.364294 0.075789
O O4 0.715597 0.207339 0.057353
O O5 0.628292 0.897578 0.298786
O O6 0.847757 0.089061 0.298033
O O7 0.844250 0.140217 0.152853
O O8 0.324067 0.866629 0.614740
O O9 0.241119 0.138403 0.701878
O O10 0.397304 0.118000 0.509638
O O11 0.946229 0.013141 0.718883
O O12 0.500516 0.584238 0.139404
O O13 0.667683 0.203419 0.506654
O O14 0.511541 0.142477 0.711702
O O15 0.209715 0.931974 0.884140
O O16 0.858100 0.728156 0.062212
#
# Coordination Sequence:
#
# PCOD9114981 Si02
#       8
#     2   2   2   2   2   2   2   2
#     4  11  24  41  57  98 132 163 210 252 332 380
#     4  12  20  38  65  89 123 158 217 259 301 376
#     4  10  20  39  64  86 123 157 214 263 309 367
#     4  11  24  38  61  91 134 163 197 270 327 374
#     4  10  19  38  62  89 115 160 215 259 292 378
#     4  10  21  37  67  91 113 167 218 256 310 372
#     4  11  21  37  61  91 121 171 213 254 304 388
#     4  11  21  38  61  91 127 165 210 257 321 371
#
# _framework density 18.697804000000001
#
# number of rings (size 3 to 8) (size 9 to 14) (size 15 to 20)
#    0.750    0.500    6.250    0.750    1.750    3.000 
#    0.000    0.000   11.000    0.000    0.000    0.000 
#    0.000    0.000    0.000    0.000    0.000    0.000 
#
# Total GULP energy -89093.673340 kJ/mol
# GULP energy per Si atom -5568.354584 kJ/mol
# Density = 1.865525 g / cm^3
# Si number density = 18.697804 Si / 1000 Ang^3
#
#
#
# Elastic Constant Matrix: (Units=GPa)
#
#
# Indices 1 2 3 4 5 6 
#
# 1 25.1783 3.9699 18.1549 0.0000 0.5259 0.0000
# 2 3.9699 39.4001 12.3194 0.0000 -0.2577 0.0000
# 3 18.1549 12.3194 68.5039 0.0000 16.8832 0.0000
# 4 0.0000 0.0000 0.0000 32.9763 0.0000 4.0732
# 5 0.5259 -0.2577 16.8832 0.0000 37.0159 0.0000
# 6 0.0000 0.0000 0.0000 4.0732 0.0000 28.8289
#
#
#
# Elastic Compliance Matrix: (Units=1/GPa)
#
#
# Indices 1 2 3 4 5 6 
#
# 1 0.050277 -0.000422 -0.014727 0.000000 0.006000 0.000000
# 2 -0.000422 0.027137 -0.005427 0.000000 0.002670 0.000000
# 3 -0.014727 -0.005427 0.021896 0.000000 -0.009815 0.000000
# 4 0.000000 0.000000 0.000000 0.030863 0.000000 -0.004361
# 5 0.006000 0.002670 -0.009815 0.000000 0.031426 0.000000
# 6 0.000000 0.000000 0.000000 -0.004361 0.000000 0.035304
#
#
# Mechanical properties :
#
#
# Convention : Reuss Voigt Hill
#
# Bulk Modulus (GPa) = 17.19424 22.44118 19.81771
# Shear Modulus (GPa) = 19.42197 26.34008 22.88103
#
# Velocity S-wave (km/s) = 3.22643 3.75737 3.50198
# Velocity P-wave (km/s) = 4.80579 5.55445 5.19363
#
# Compressibility (1/GPa) = 0.05815900
#
# Stress axis : x y z
#
# Youngs Moduli (GPa) = 19.88975 36.84956 45.67109
#
# Poissons Ratio (x) = 0.01554 0.67261
# Poissons Ratio (y) = 0.00839 0.24784
# Poissons Ratio (z) = 0.29292 0.19997
#
# Static dielectric constant tensor:
#      x y z
#    x 1.625480 0.000000 0.029630 
#    y 0.000000 1.675280 0.000000 
#    z 0.029630 0.000000 1.687980 
# 
# From -- ./inp_files/14881.got.cif
#   From: 2010.05.17/outbox.cif.g08.bks.cpg/sg4_8_cif.got.tgz:14881.got - 2010.06.03 18:43:04.
