data_PCOD9114878
_publ_section_title
;
Structure prediction by ZEFSAII (Michael W. Deem and Ramdas Pophale) SiO2 
 PCOD9114878
Probable space group: P 21
;
_chemical_formula_sum "Si O2"
_cell_formula_units_Z 16
_cell_length_a 10.098493
_cell_length_b 5.202407
_cell_length_c 19.367620
_cell_angle_alpha 90.000000
_cell_angle_beta 123.802836
_cell_angle_gamma 90.000000
_cell_volume 845.503998
_symmetry_space_group_name_H-M "P 21"
_symmetry_group_IT_number 4
_symmetry_cell_setting 'monoclinic'
loop_
_space_group_symop_operation_xyz
x,y,z
-x,1/2+y,-z
loop_
_atom_site_type_symbol
_atom_site_label
_atom_site_fract_x
_atom_site_fract_y
_atom_site_fract_z
Si Si1 0.881041 0.603070 0.708691
Si Si2 0.622739 0.574268 0.112266
Si Si3 0.971631 0.611514 0.582584
Si Si4 0.800139 0.111583 0.472263
Si Si5 0.075236 0.182142 0.989795
Si Si6 0.565164 0.574531 0.929133
Si Si7 0.015697 0.100956 0.810782
Si Si8 0.475966 0.185533 0.446680
O O1 0.906291 0.319684 0.745708
O O2 0.699110 0.654250 0.635082
O O3 0.981772 0.630391 0.667290
O O4 0.943140 0.819529 0.778810
O O5 0.555523 0.306444 0.120301
O O6 0.810802 0.610585 0.175089
O O7 0.518503 0.806264 0.112099
O O8 0.594593 0.573180 0.020841
O O9 0.135185 0.624233 0.587021
O O10 0.886621 0.343915 0.538057
O O11 0.862152 0.844767 0.522831
O O12 0.613549 0.144144 0.430002
O O13 0.040679 0.159743 0.898383
O O14 0.262741 0.122712 0.054242
O O15 0.027184 0.463941 0.001594
O O16 0.497370 0.462708 0.488500
#
# Coordination Sequence:
#
# PCOD9114878 Si02
#       8
#     2   2   2   2   2   2   2   2
#     4  12  22  37  59  89 123 157 200 249 313 360
#     4   9  17  33  54  83 108 132 185 232 284 332
#     4  10  20  34  60  83 113 150 193 250 298 345
#     4  10  19  36  56  87 112 146 203 251 285 336
#     4  11  22  39  63  89 118 158 202 238 289 366
#     4   9  17  31  58  83 104 137 181 240 274 324
#     4  11  24  38  60  88 118 155 192 249 309 359
#     4  12  21  36  60  90 116 159 210 251 286 354
#
# _framework density 18.923625000000001
#
# number of rings (size 3 to 8) (size 9 to 14) (size 15 to 20)
#    0.000    1.500    2.500    3.750    0.000    4.000 
#    0.000    0.000   16.500    0.000    0.000    0.000 
#    0.000    0.000    0.000    0.000    0.000    0.000 
#
# Total GULP energy -89381.002424 kJ/mol
# GULP energy per Si atom -5586.312652 kJ/mol
# Density = 1.888055 g / cm^3
# Si number density = 18.923625 Si / 1000 Ang^3
#
#
#
# Elastic Constant Matrix: (Units=GPa)
#
#
# Indices 1 2 3 4 5 6 
#
# 1 75.6647 -22.9914 10.4807 0.0000 3.1336 0.0000
# 2 -22.9914 57.7581 -10.4212 0.0000 -2.0575 0.0000
# 3 10.4807 -10.4212 32.6716 0.0000 6.1623 0.0000
# 4 0.0000 0.0000 0.0000 29.1060 0.0000 0.1776
# 5 3.1336 -2.0575 6.1623 0.0000 28.5214 0.0000
# 6 0.0000 0.0000 0.0000 0.1776 0.0000 25.2473
#
#
#
# Elastic Compliance Matrix: (Units=1/GPa)
#
#
# Indices 1 2 3 4 5 6 
#
# 1 0.015346 0.005538 -0.003037 0.000000 -0.000630 0.000000
# 2 0.005538 0.020370 0.004752 0.000000 -0.000166 0.000000
# 3 -0.003037 0.004752 0.034371 0.000000 -0.006750 0.000000
# 4 0.000000 0.000000 0.000000 0.034359 0.000000 -0.000242
# 5 -0.000630 -0.000166 -0.006750 0.000000 0.036577 0.000000
# 6 0.000000 0.000000 0.000000 -0.000242 0.000000 0.039610
#
#
# Mechanical properties :
#
#
# Convention : Reuss Voigt Hill
#
# Bulk Modulus (GPa) = 11.82153 13.35896 12.59025
# Shear Modulus (GPa) = 25.73026 29.17668 27.45347
#
# Velocity S-wave (km/s) = 3.69140 3.93085 3.81300
# Velocity P-wave (km/s) = 4.94258 5.26088 5.10421
#
# Compressibility (1/GPa) = 0.08459142
#
# Stress axis : x y z
#
# Youngs Moduli (GPa) = 65.16424 49.09277 29.09451
#
# Poissons Ratio (x) = -0.27188 0.08837
# Poissons Ratio (y) = -0.36089 -0.13825
# Poissons Ratio (z) = 0.19793 -0.23328
#
# Static dielectric constant tensor:
#      x y z
#    x 1.662010 0.000000 -0.003870 
#    y 0.000000 1.635440 0.000000 
#    z -0.003870 0.000000 1.629040 
# 
# From -- ./inp_files/14856.got.cif
#   From: 2010.05.17/outbox.cif.g08.bks.cpg/sg4_8_cif.got.tgz:14856.got - 2010.06.03 18:43:04.
