data_PCOD9114815
_publ_section_title
;
Structure prediction by ZEFSAII (Michael W. Deem and Ramdas Pophale) SiO2 
 PCOD9114815
Probable space group: P 21
;
_chemical_formula_sum "Si O2"
_cell_formula_units_Z 16
_cell_length_a 15.110416
_cell_length_b 7.881071
_cell_length_c 5.599635
_cell_angle_alpha 90.000000
_cell_angle_beta 104.222968
_cell_angle_gamma 90.000000
_cell_volume 646.398920
_symmetry_space_group_name_H-M "P 21"
_symmetry_group_IT_number 4
_symmetry_cell_setting 'monoclinic'
loop_
_space_group_symop_operation_xyz
x,y,z
-x,1/2+y,-z
loop_
_atom_site_type_symbol
_atom_site_label
_atom_site_fract_x
_atom_site_fract_y
_atom_site_fract_z
Si Si1 0.307530 0.650600 0.711192
Si Si2 0.111203 0.961444 0.321841
Si Si3 0.841460 0.942135 0.593796
Si Si4 0.725499 0.685810 0.771527
Si Si5 0.575684 0.879771 0.452872
Si Si6 0.018577 0.645784 0.038465
Si Si7 0.842698 0.633049 0.236724
Si Si8 0.612895 0.215011 0.732168
O O1 0.205056 0.591555 0.586941
O O2 0.367221 0.476005 0.716736
O O3 0.338587 0.753012 0.492511
O O4 0.327458 0.721936 0.986719
O O5 0.205954 0.046551 0.295085
O O6 0.132233 0.957795 0.616582
O O7 0.084840 0.801719 0.142263
O O8 0.017765 0.076520 0.237863
O O9 0.931309 0.995117 0.788445
O O10 0.770613 0.871375 0.745894
O O11 0.852762 0.785459 0.427483
O O12 0.627787 0.713360 0.589883
O O13 0.741858 0.645586 0.058978
O O14 0.475310 0.832531 0.303935
O O15 0.577972 0.021727 0.663589
O O16 0.920610 0.670681 0.096940
#
# Coordination Sequence:
#
# PCOD9114815 Si02
#       8
#     2   2   2   2   2   2   2   2
#     4   9  22  38  62  89 122 157 203 240 307 357
#     4  10  21  35  53  82 110 149 187 240 284 350
#     4  10  20  37  59  80 111 156 189 244 289 358
#     4   9  19  39  56  81 111 151 188 238 288 356
#     4   9  21  38  63  88 120 158 199 247 303 361
#     4  11  21  36  54  82 114 148 195 236 291 343
#     4  10  19  34  58  78 113 144 195 233 296 343
#     4  10  21  39  63  90 121 157 204 246 302 362
#
# _framework density 24.752517999999998
#
# number of rings (size 3 to 8) (size 9 to 14) (size 15 to 20)
#    0.750    1.500    0.000    3.750    1.750    1.000 
#    2.250    1.250    0.000    0.000    0.000    0.000 
#    0.000    0.000    0.000    0.000    0.000    0.000 
#
# Total GULP energy -89187.844906 kJ/mol
# GULP energy per Si atom -5574.240307 kJ/mol
# Density = 2.469618 g / cm^3
# Si number density = 24.752518 Si / 1000 Ang^3
#
#
#
# Elastic Constant Matrix: (Units=GPa)
#
#
# Indices 1 2 3 4 5 6 
#
# 1 24.1276 13.5010 13.6424 0.0000 9.5666 0.0000
# 2 13.5010 70.3271 13.3442 0.0000 7.5614 0.0000
# 3 13.6424 13.3442 146.8130 0.0000 15.8906 0.0000
# 4 0.0000 0.0000 0.0000 23.6486 0.0000 21.7652
# 5 9.5666 7.5614 15.8906 0.0000 24.8292 0.0000
# 6 0.0000 0.0000 0.0000 21.7652 0.0000 30.8947
#
#
#
# Elastic Compliance Matrix: (Units=1/GPa)
#
#
# Indices 1 2 3 4 5 6 
#
# 1 0.054023 -0.008100 -0.002469 0.000000 -0.016768 0.000000
# 2 -0.008100 0.016030 -0.000552 0.000000 -0.001408 0.000000
# 3 -0.002469 -0.000552 0.007489 0.000000 -0.003673 0.000000
# 4 0.000000 0.000000 0.000000 0.120264 0.000000 -0.084725
# 5 -0.016768 -0.001408 -0.003673 0.000000 0.049516 0.000000
# 6 0.000000 0.000000 0.000000 -0.084725 0.000000 0.092057
#
#
# Mechanical properties :
#
#
# Convention : Reuss Voigt Hill
#
# Bulk Modulus (GPa) = 18.08288 35.80477 26.94383
# Shear Modulus (GPa) = 13.15605 29.25983 21.20794
#
# Velocity S-wave (km/s) = 2.30794 3.44189 2.93029
# Velocity P-wave (km/s) = 3.79782 5.50382 4.72839
#
# Compressibility (1/GPa) = 0.05530091
#
# Stress axis : x y z
#
# Youngs Moduli (GPa) = 18.51052 62.38183 133.53698
#
# Poissons Ratio (x) = 0.50528 0.32969
# Poissons Ratio (y) = 0.14993 0.07371
# Poissons Ratio (z) = 0.04570 0.03444
#
# Static dielectric constant tensor:
#      x y z
#    x 1.981170 0.000000 -0.110750 
#    y 0.000000 2.112680 0.000000 
#    z -0.110750 0.000000 2.140030 
# 
# From -- ./inp_files/4082.got.cif
#   From: 2010.05.17/outbox.cif.g08.bks.cpg/sg4_3_cif.got.tgz:4082.got - 2010.06.03 18:43:04.
