data_PCOD9114023
_publ_section_title
;
Structure prediction by ZEFSAII (Michael W. Deem and Ramdas Pophale) SiO2 
 PCOD9114023
Probable space group: P 2
;
_chemical_formula_sum "Si O2"
_cell_formula_units_Z 15
_cell_length_a 19.643032
_cell_length_b 5.247161
_cell_length_c 14.474306
_cell_angle_alpha 90.000000
_cell_angle_beta 157.785077
_cell_angle_gamma 90.000000
_cell_volume 564.048665
_symmetry_space_group_name_H-M "P 2"
_symmetry_group_IT_number 3
_symmetry_cell_setting 'monoclinic'
loop_
_space_group_symop_operation_xyz
x,y,z
-x,y,-z
loop_
_atom_site_type_symbol
_atom_site_label
_atom_site_fract_x
_atom_site_fract_y
_atom_site_fract_z
Si Si1 0.021875 0.839140 0.693130
Si Si2 0.000000 0.097116 0.000000
Si Si3 0.701266 0.497123 0.268882
Si Si4 0.696825 0.550993 0.833688
Si Si5 0.674488 0.705642 0.605675
Si Si6 0.828738 0.201126 0.599586
Si Si7 0.508594 0.302802 0.284755
Si Si8 0.197675 0.215402 0.768077
O O1 0.851729 0.703839 0.431492
O O2 0.942519 0.027103 0.671817
O O3 0.146023 0.981718 0.772303
O O4 0.136016 0.633477 0.894894
O O5 0.175778 0.919610 0.207916
O O6 0.042547 0.235646 0.149947
O O7 0.753150 0.422107 0.437970
O O8 0.720336 0.238530 0.231577
O O9 0.500000 0.592721 0.000000
O O10 0.721957 0.543202 0.756889
O O11 0.538207 0.762851 0.649712
O O12 0.602804 0.302095 0.759418
O O13 0.657095 0.517597 0.496854
O O14 0.636717 0.091370 0.399650
O O15 0.350196 0.368316 0.015227
O O16 0.000000 0.325114 0.500000
#
# Coordination Sequence:
#
# PCOD9114023 Si02
#       8
#     2   1   2   2   2   2   2   2
#     4  12  28  50  86 113 162 206 273 335 399 481
#     4  12  26  46  80 120 164 210 276 330 404 480
#     4  12  29  56  79 114 166 220 263 329 413 474
#     4   9  21  47  74 110 154 207 259 316 401 467
#     4   9  22  45  74 112 156 208 261 320 400 479
#     4  12  28  50  73 124 157 208 270 333 397 486
#     4  10  24  45  76 111 161 205 258 327 400 468
#     4  12  26  50  77 121 155 205 282 325 399 480
#
# _framework density 26.593450000000001
#
# number of rings (size 3 to 8) (size 9 to 14) (size 15 to 20)
#    0.800    0.267    4.000    0.800    3.733    4.800 
#    2.400    0.000    0.000    0.000    0.000    0.000 
#    0.000    0.000    0.000    0.000    0.000    0.000 
#
# Total GULP energy -83595.310156 kJ/mol
# GULP energy per Si atom -5573.020677 kJ/mol
# Density = 2.653292 g / cm^3
# Si number density = 26.593450 Si / 1000 Ang^3
#
#
#
# Elastic Constant Matrix: (Units=GPa)
#
#
# Indices 1 2 3 4 5 6 
#
# 1 127.7550 28.1319 45.3834 0.0000 -44.1551 0.0000
# 2 28.1319 63.4501 46.3845 0.0000 -8.6757 0.0000
# 3 45.3834 46.3845 213.7380 0.0000 -5.6379 0.0000
# 4 0.0000 0.0000 0.0000 23.2990 0.0000 -0.5376
# 5 -44.1551 -8.6757 -5.6379 0.0000 50.5959 0.0000
# 6 0.0000 0.0000 0.0000 -0.5376 0.0000 12.7399
#
#
#
# Elastic Compliance Matrix: (Units=1/GPa)
#
#
# Indices 1 2 3 4 5 6 
#
# 1 0.012688 -0.002897 -0.001792 0.000000 0.010377 0.000000
# 2 -0.002897 0.019788 -0.003667 0.000000 0.000456 0.000000
# 3 -0.001792 -0.003667 0.005814 0.000000 -0.001545 0.000000
# 4 0.000000 0.000000 0.000000 0.042962 0.000000 0.001813
# 5 0.010377 0.000456 -0.001545 0.000000 0.028726 0.000000
# 6 0.000000 0.000000 0.000000 0.001813 0.000000 0.078570
#
#
# Mechanical properties :
#
#
# Convention : Reuss Voigt Hill
#
# Bulk Modulus (GPa) = 46.34173 71.63809 58.98991
# Shear Modulus (GPa) = 23.53449 36.32983 29.93216
#
# Velocity S-wave (km/s) = 2.97808 3.70011 3.35856
# Velocity P-wave (km/s) = 5.41194 6.72690 6.10493
#
# Compressibility (1/GPa) = 0.02157882
#
# Stress axis : x y z
#
# Youngs Moduli (GPa) = 78.81245 50.53545 171.99389
#
# Poissons Ratio (x) = 0.14640 0.30817
# Poissons Ratio (y) = 0.22832 0.63073
# Poissons Ratio (z) = 0.14121 0.18532
#
# Static dielectric constant tensor:
#      x y z
#    x 2.224710 0.000000 0.064890 
#    y 0.000000 2.126450 0.000000 
#    z 0.064890 0.000000 2.036480 
# 
# From -- ./inp_files/14320.got.cif
#   From: 2010.05.17/outbox.cif.g08.bks.cpg/sg3_8_cif.got.tgz:14320.got - 2010.06.03 18:33:08.
