data_PCOD9114214
_publ_section_title
;
Structure prediction by ZEFSAII (Michael W. Deem and Ramdas Pophale) SiO2 
 PCOD9114214
Probable space group: P 2
;
_chemical_formula_sum "Si O2"
_cell_formula_units_Z 16
_cell_length_a 8.479559
_cell_length_b 8.910355
_cell_length_c 11.782991
_cell_angle_alpha 90.000000
_cell_angle_beta 126.885853
_cell_angle_gamma 90.000000
_cell_volume 712.070634
_symmetry_space_group_name_H-M "P 2"
_symmetry_group_IT_number 3
_symmetry_cell_setting 'monoclinic'
loop_
_space_group_symop_operation_xyz
x,y,z
-x,y,-z
loop_
_atom_site_type_symbol
_atom_site_label
_atom_site_fract_x
_atom_site_fract_y
_atom_site_fract_z
Si Si1 0.210689 0.787990 0.559548
Si Si2 0.283801 0.093194 0.459379
Si Si3 0.707940 0.569802 0.605321
Si Si4 0.778505 0.414170 0.959091
Si Si5 0.038207 0.317222 0.738709
Si Si6 0.224527 0.732443 0.123508
Si Si7 0.619177 0.253582 0.274478
Si Si8 0.470024 0.925836 0.854341
O O1 0.302178 0.676480 0.508552
O O2 0.313370 0.819029 0.723979
O O3 0.000000 0.727219 0.500000
O O4 0.203952 0.946233 0.489673
O O5 0.500000 0.057394 0.500000
O O6 0.330183 0.213610 0.575958
O O7 0.103128 0.169877 0.312869
O O8 0.500000 0.485133 0.500000
O O9 0.736001 0.669492 0.732363
O O10 0.889899 0.457149 0.680728
O O11 0.727404 0.590856 0.937602
O O12 0.588270 0.340534 0.818521
O O13 0.810395 0.334231 0.092057
O O14 0.000000 0.403649 0.000000
O O15 0.183098 0.323004 0.693712
O O16 0.341672 0.880115 0.139633
O O17 0.000000 0.764923 0.000000
O O18 0.587586 0.097085 0.193349
O O19 0.500000 0.898576 0.000000
#
# Coordination Sequence:
#
# PCOD9114214 Si02
#       8
#     2   2   2   2   2   2   2   2
#     4  11  26  44  69 104 143 185 238 303 364 430
#     4  11  24  44  71  99 137 186 241 301 362 428
#     4  12  25  47  73 105 143 191 248 296 360 431
#     4  11  23  44  66 100 140 182 239 290 358 423
#     4  12  24  44  70 100 144 184 235 302 353 434
#     4  11  25  47  69 104 143 187 239 296 352 433
#     4  11  26  45  69 105 140 186 240 294 369 426
#     4  11  25  46  70 102 144 186 237 295 361 434
#
# _framework density 22.469683
#
# number of rings (size 3 to 8) (size 9 to 14) (size 15 to 20)
#    0.000    0.750    3.750    4.500    5.250    3.500 
#    0.000    0.000    0.000    0.000    0.000    0.000 
#    0.000    0.000    0.000    0.000    0.000    0.000 
#
# Total GULP energy -89376.397254 kJ/mol
# GULP energy per Si atom -5586.024828 kJ/mol
# Density = 2.241854 g / cm^3
# Si number density = 22.469683 Si / 1000 Ang^3
#
#
#
# Elastic Constant Matrix: (Units=GPa)
#
#
# Indices 1 2 3 4 5 6 
#
# 1 79.3923 15.9113 16.4615 0.0000 7.8516 0.0000
# 2 15.9113 39.4806 12.8572 0.0000 -1.2793 0.0000
# 3 16.4615 12.8572 84.5450 0.0000 2.7337 0.0000
# 4 0.0000 0.0000 0.0000 29.6495 0.0000 7.9269
# 5 7.8516 -1.2793 2.7337 0.0000 42.0509 0.0000
# 6 0.0000 0.0000 0.0000 7.9269 0.0000 27.9659
#
#
#
# Elastic Compliance Matrix: (Units=1/GPa)
#
#
# Indices 1 2 3 4 5 6 
#
# 1 0.014307 -0.005234 -0.001902 0.000000 -0.002707 0.000000
# 2 -0.005234 0.028612 -0.003399 0.000000 0.002069 0.000000
# 3 -0.001902 -0.003399 0.012734 0.000000 -0.000576 0.000000
# 4 0.000000 0.000000 0.000000 0.036493 0.000000 -0.010344
# 5 -0.002707 0.002069 -0.000576 0.000000 0.024386 0.000000
# 6 0.000000 0.000000 0.000000 -0.010344 0.000000 0.038690
#
#
# Mechanical properties :
#
#
# Convention : Reuss Voigt Hill
#
# Bulk Modulus (GPa) = 28.91638 32.65310 30.78474
# Shear Modulus (GPa) = 26.62123 30.47912 28.55017
#
# Velocity S-wave (km/s) = 3.44577 3.68700 3.56843
# Velocity P-wave (km/s) = 5.35986 5.71743 5.54153
#
# Compressibility (1/GPa) = 0.03458247
#
# Stress axis : x y z
#
# Youngs Moduli (GPa) = 69.89705 34.95006 78.53047
#
# Poissons Ratio (x) = 0.18293 0.14937
# Poissons Ratio (y) = 0.36585 0.26692
# Poissons Ratio (z) = 0.13295 0.11880
#
# Static dielectric constant tensor:
#      x y z
#    x 1.977330 0.000000 0.057340 
#    y 0.000000 1.807200 0.000000 
#    z 0.057340 0.000000 1.864100 
# 
# From -- ./inp_files/10792.got.cif
#   From: 2010.05.17/outbox.cif.g08.bks.cpg/sg3_6_cif.got.tgz:10792.got - 2010.06.03 18:33:08.
