data_PCOD9114953
_publ_section_title
;
Structure prediction by ZEFSAII (Michael W. Deem and Ramdas Pophale) SiO2 
 PCOD9114953
Probable space group: P 21
;
_chemical_formula_sum "Si O2"
_cell_formula_units_Z 16
_cell_length_a 9.734155
_cell_length_b 17.850646
_cell_length_c 5.091431
_cell_angle_alpha 90.000000
_cell_angle_beta 61.157258
_cell_angle_gamma 90.000000
_cell_volume 774.943274
_symmetry_space_group_name_H-M "P 21"
_symmetry_group_IT_number 4
_symmetry_cell_setting 'monoclinic'
loop_
_space_group_symop_operation_xyz
x,y,z
-x,1/2+y,-z
loop_
_atom_site_type_symbol
_atom_site_label
_atom_site_fract_x
_atom_site_fract_y
_atom_site_fract_z
Si Si1 0.951650 0.428330 0.377104
Si Si2 0.880194 0.257543 0.457742
Si Si3 0.427962 0.157542 0.651027
Si Si4 0.358036 0.569892 0.174634
Si Si5 0.866033 0.641674 0.811366
Si Si6 0.337719 0.030067 0.362578
Si Si7 0.707063 0.203225 0.093030
Si Si8 0.077206 0.508367 0.771988
O O1 0.947289 0.339758 0.355045
O O2 0.776487 0.460872 0.485872
O O3 0.999284 0.454187 0.624624
O O4 0.067368 0.467488 0.060006
O O5 0.808739 0.226177 0.252062
O O6 0.014295 0.199535 0.424866
O O7 0.754425 0.255965 0.808693
O O8 0.548979 0.137640 0.768783
O O9 0.386037 0.075426 0.575894
O O10 0.525343 0.204589 0.351344
O O11 0.262735 0.187012 0.902966
O O12 0.241392 0.532410 0.488383
O O13 0.496413 0.517307 0.936568
O O14 0.269746 0.616397 0.025348
O O15 0.766484 0.590499 0.703826
O O16 0.968833 0.582634 0.882024
#
# Coordination Sequence:
#
# PCOD9114953 Si02
#       8
#     2   2   2   2   2   2   2   2
#     4  11  25  43  59  93 129 172 200 259 324 379
#     4  12  25  41  64  90 133 166 210 254 325 373
#     4  10  19  37  63  94 120 152 208 266 310 355
#     4  10  21  37  67  98 117 154 220 261 310 359
#     4  10  21  36  63  94 119 161 207 269 299 371
#     4   9  21  37  63  90 128 157 212 260 311 367
#     4  11  22  39  62  92 118 164 202 268 298 380
#     4  11  22  40  65  89 122 162 213 257 309 370
#
# _framework density 20.646673
#
# number of rings (size 3 to 8) (size 9 to 14) (size 15 to 20)
#    0.000    1.500    3.750    0.750    7.000    0.000 
#    0.000    2.500    0.000    0.000    0.000    0.000 
#    0.000    0.000    0.000    0.000    0.000    0.000 
#
# Total GULP energy -89300.237156 kJ/mol
# GULP energy per Si atom -5581.264822 kJ/mol
# Density = 2.059968 g / cm^3
# Si number density = 20.646673 Si / 1000 Ang^3
#
#
#
# Elastic Constant Matrix: (Units=GPa)
#
#
# Indices 1 2 3 4 5 6 
#
# 1 53.2334 15.8325 19.3759 0.0000 -3.6192 0.0000
# 2 15.8325 71.1569 12.8924 0.0000 -8.9631 0.0000
# 3 19.3759 12.8924 101.2022 0.0000 -11.5172 0.0000
# 4 0.0000 0.0000 0.0000 24.9011 0.0000 -1.0553
# 5 -3.6192 -8.9631 -11.5172 0.0000 40.7124 0.0000
# 6 0.0000 0.0000 0.0000 -1.0553 0.0000 16.4665
#
#
#
# Elastic Compliance Matrix: (Units=1/GPa)
#
#
# Indices 1 2 3 4 5 6 
#
# 1 0.021297 -0.004096 -0.003557 0.000000 -0.000015 0.000000
# 2 -0.004096 0.015475 -0.000869 0.000000 0.002797 0.000000
# 3 -0.003557 -0.000869 0.010968 0.000000 0.002595 0.000000
# 4 0.000000 0.000000 0.000000 0.040268 0.000000 0.002581
# 5 -0.000015 0.002797 0.002595 0.000000 0.025911 0.000000
# 6 0.000000 0.000000 0.000000 0.002581 0.000000 0.060895
#
#
# Mechanical properties :
#
#
# Convention : Reuss Voigt Hill
#
# Bulk Modulus (GPa) = 32.57789 35.75489 34.16639
# Shear Modulus (GPa) = 24.74140 28.24879 26.49510
#
# Velocity S-wave (km/s) = 3.46544 3.70293 3.58615
# Velocity P-wave (km/s) = 5.64140 5.96971 5.80787
#
# Compressibility (1/GPa) = 0.03069567
#
# Stress axis : x y z
#
# Youngs Moduli (GPa) = 46.95450 64.62235 91.17151
#
# Poissons Ratio (x) = 0.26469 0.32433
# Poissons Ratio (y) = 0.19232 0.07921
# Poissons Ratio (z) = 0.16704 0.05615
#
# Static dielectric constant tensor:
#      x y z
#    x 1.776360 0.000000 0.009450 
#    y 0.000000 1.688170 0.000000 
#    z 0.009450 0.000000 1.807080 
# 
# From -- ./inp_files/1770.got.cif
#   From: 2010.05.17/outbox.cif.g08.bks.cpg/sg4_1_cif.got.tgz:1770.got - 2010.06.03 18:43:04.
