data_PCOD9114713
_publ_section_title
;
Structure prediction by ZEFSAII (Michael W. Deem and Ramdas Pophale) SiO2 
 PCOD9114713
Probable space group: P 21
;
_chemical_formula_sum "Si O2"
_cell_formula_units_Z 16
_cell_length_a 7.092347
_cell_length_b 12.045006
_cell_length_c 9.196115
_cell_angle_alpha 90.000000
_cell_angle_beta 123.198549
_cell_angle_gamma 90.000000
_cell_volume 657.372810
_symmetry_space_group_name_H-M "P 21"
_symmetry_group_IT_number 4
_symmetry_cell_setting 'monoclinic'
loop_
_space_group_symop_operation_xyz
x,y,z
-x,1/2+y,-z
loop_
_atom_site_type_symbol
_atom_site_label
_atom_site_fract_x
_atom_site_fract_y
_atom_site_fract_z
Si Si1 0.910921 0.496550 0.635905
Si Si2 0.895939 0.393595 0.174890
Si Si3 0.539112 0.241844 0.883606
Si Si4 0.798705 0.869412 0.454720
Si Si5 0.332429 0.590540 0.685002
Si Si6 0.361359 0.270687 0.134032
Si Si7 0.169541 0.053445 0.075408
Si Si8 0.466469 0.998693 0.752712
O O1 0.678384 0.520882 0.454258
O O2 0.918952 0.831832 0.650741
O O3 0.025937 0.389886 0.605564
O O4 0.108938 0.586721 0.687226
O O5 0.966592 0.500188 0.111256
O O6 0.760710 0.311951 0.012190
O O7 0.125619 0.994084 0.208882
O O8 0.398747 0.295665 0.692311
O O9 0.565263 0.112251 0.858444
O O10 0.402400 0.257253 0.978193
O O11 0.277653 0.947410 0.781882
O O12 0.723730 0.997256 0.457235
O O13 0.420392 0.713465 0.693743
O O14 0.561780 0.539883 0.851826
O O15 0.359241 0.396994 0.178836
O O16 0.161528 0.186160 0.087002
#
# Coordination Sequence:
#
# PCOD9114713 Si02
#       8
#     2   2   2   2   2   2   2   2
#     4   9  20  37  66  96 134 163 222 272 321 397
#     4  10  19  38  63  95 125 172 219 273 327 391
#     4  11  19  37  67  92 130 179 218 265 333 388
#     4   9  20  38  66  98 126 168 222 268 332 395
#     4   8  18  39  64  93 128 167 212 267 330 386
#     4   9  20  35  68  91 128 176 215 265 334 390
#     4  10  18  41  69  91 134 170 209 282 330 380
#     4  10  20  35  61  96 129 177 215 262 329 391
#
# _framework density 24.339307000000002
#
# number of rings (size 3 to 8) (size 9 to 14) (size 15 to 20)
#    1.500    1.000    2.500    0.000    1.750    3.000 
#    2.250    0.000   24.750    0.000    0.000    0.000 
#    0.000    0.000    0.000    0.000    0.000    0.000 
#
# Total GULP energy -89201.797900 kJ/mol
# GULP energy per Si atom -5575.112369 kJ/mol
# Density = 2.428391 g / cm^3
# Si number density = 24.339307 Si / 1000 Ang^3
#
#
#
# Elastic Constant Matrix: (Units=GPa)
#
#
# Indices 1 2 3 4 5 6 
#
# 1 58.0415 26.3687 28.9405 0.0000 -9.2285 0.0000
# 2 26.3687 150.4401 76.2568 0.0000 5.9665 0.0000
# 3 28.9405 76.2568 128.4403 0.0000 1.0889 0.0000
# 4 0.0000 0.0000 0.0000 19.8939 0.0000 0.9976
# 5 -9.2285 5.9665 1.0889 0.0000 17.4455 0.0000
# 6 0.0000 0.0000 0.0000 0.9976 0.0000 17.8767
#
#
#
# Elastic Compliance Matrix: (Units=1/GPa)
#
#
# Indices 1 2 3 4 5 6 
#
# 1 0.022240 -0.002594 -0.003580 0.000000 0.012875 0.000000
# 2 -0.002594 0.009960 -0.005291 0.000000 -0.004448 0.000000
# 3 -0.003580 -0.005291 0.011741 0.000000 -0.000817 0.000000
# 4 0.000000 0.000000 0.000000 0.050408 0.000000 -0.002813
# 5 0.012875 -0.004448 -0.000817 0.000000 0.065704 0.000000
# 6 0.000000 0.000000 0.000000 -0.002813 0.000000 0.056096
#
#
# Mechanical properties :
#
#
# Convention : Reuss Voigt Hill
#
# Bulk Modulus (GPa) = 47.59656 66.67264 57.13460
# Shear Modulus (GPa) = 20.31830 24.73363 22.52596
#
# Velocity S-wave (km/s) = 2.89241 3.19125 3.04550
# Velocity P-wave (km/s) = 5.54550 6.40556 5.99099
#
# Compressibility (1/GPa) = 0.02100992
#
# Stress axis : x y z
#
# Youngs Moduli (GPa) = 44.96444 100.39704 85.17200
#
# Poissons Ratio (x) = 0.26043 0.30493
# Poissons Ratio (y) = 0.11664 0.45068
# Poissons Ratio (z) = 0.16098 0.53125
#
# Static dielectric constant tensor:
#      x y z
#    x 1.995710 0.000000 0.054510 
#    y 0.000000 1.988560 0.000000 
#    z 0.054510 0.000000 1.914440 
# 
# From -- ./inp_files/11273.got.cif
#   From: 2010.05.17/outbox.cif.g08.bks.cpg/sg4_6_cif.got.tgz:11273.got - 2010.06.03 18:43:04.
