data_PCOD9114243
_publ_section_title
;
Structure prediction by ZEFSAII (Michael W. Deem and Ramdas Pophale) SiO2 
 PCOD9114243
Probable space group: P 2
;
_chemical_formula_sum "Si O2"
_cell_formula_units_Z 13
_cell_length_a 10.802024
_cell_length_b 5.024823
_cell_length_c 17.778769
_cell_angle_alpha 90.000000
_cell_angle_beta 148.070290
_cell_angle_gamma 90.000000
_cell_volume 510.368069
_symmetry_space_group_name_H-M "P 2"
_symmetry_group_IT_number 3
_symmetry_cell_setting 'monoclinic'
loop_
_space_group_symop_operation_xyz
x,y,z
-x,y,-z
loop_
_atom_site_type_symbol
_atom_site_label
_atom_site_fract_x
_atom_site_fract_y
_atom_site_fract_z
Si Si1 0.452586 0.413590 0.651302
Si Si2 0.865530 0.909180 0.507172
Si Si3 0.334671 0.531919 0.081884
Si Si4 0.971791 0.156621 0.706335
Si Si5 0.500000 0.951069 0.500000
Si Si6 0.366764 0.006687 0.005812
Si Si7 0.141051 0.567343 0.234917
O O1 0.257922 0.637166 0.526112
O O2 0.563227 0.546205 0.783116
O O3 0.676796 0.365538 0.713114
O O4 0.323336 0.141086 0.607006
O O5 0.037582 0.052066 0.657606
O O6 0.000000 0.841457 0.500000
O O7 0.458789 0.735136 0.088302
O O8 0.062448 0.613887 0.931159
O O9 0.360612 0.233936 0.064652
O O10 0.693162 0.120281 0.557161
O O11 0.106010 0.976203 0.836564
O O12 0.983748 0.436846 0.755714
O O13 0.334873 0.776512 0.361743
O O14 0.500000 0.100304 0.000000
#
# Coordination Sequence:
#
# PCOD9114243 Si02
#       7
#     2   2   2   2   1   2   2
#     4  12  26  47  73 101 149 188 235 297 363 429
#     4  12  28  48  70 108 145 194 238 291 361 426
#     4  11  25  45  70 106 137 188 233 295 360 424
#     4  11  25  42  74 103 141 185 240 299 351 426
#     4  12  18  42  66 100 136 168 240 292 350 410
#     4  11  25  46  70 102 141 190 240 288 352 429
#     4  11  24  43  69 106 139 179 239 297 359 419
#
# _framework density 25.471814999999999
#
# number of rings (size 3 to 8) (size 9 to 14) (size 15 to 20)
#    0.000    0.615    3.077    4.615    4.308    0.000 
#    0.000    3.077    0.000    0.000    0.000    0.000 
#    0.000    0.000    0.000    0.000    0.000    0.000 
#
# Total GULP energy -72607.505821 kJ/mol
# GULP energy per Si atom -5585.192755 kJ/mol
# Density = 2.541384 g / cm^3
# Si number density = 25.471815 Si / 1000 Ang^3
#
#
#
# Elastic Constant Matrix: (Units=GPa)
#
#
# Indices 1 2 3 4 5 6 
#
# 1 72.1493 -8.3543 -10.4077 0.0000 -4.8910 0.0000
# 2 -8.3543 96.7902 6.9327 0.0000 -1.1618 0.0000
# 3 -10.4077 6.9327 89.9086 0.0000 -19.6871 0.0000
# 4 0.0000 0.0000 0.0000 34.3174 0.0000 2.7086
# 5 -4.8910 -1.1618 -19.6871 0.0000 43.6127 0.0000
# 6 0.0000 0.0000 0.0000 2.7086 0.0000 29.5456
#
#
#
# Elastic Compliance Matrix: (Units=1/GPa)
#
#
# Indices 1 2 3 4 5 6 
#
# 1 0.014481 0.001126 0.002166 0.000000 0.002632 0.000000
# 2 0.001126 0.010477 -0.000653 0.000000 0.000111 0.000000
# 3 0.002166 -0.000653 0.012731 0.000000 0.005972 0.000000
# 4 0.000000 0.000000 0.000000 0.029352 0.000000 -0.002691
# 5 0.002632 0.000111 0.005972 0.000000 0.025923 0.000000
# 6 0.000000 0.000000 0.000000 -0.002691 0.000000 0.034093
#
#
# Mechanical properties :
#
#
# Convention : Reuss Voigt Hill
#
# Bulk Modulus (GPa) = 23.27348 26.13217 24.70282
# Shear Modulus (GPa) = 36.73708 39.54031 38.13869
#
# Velocity S-wave (km/s) = 3.80184 3.94422 3.87368
# Velocity P-wave (km/s) = 5.33186 5.56992 5.45219
#
# Compressibility (1/GPa) = 0.04296737
#
# Stress axis : x y z
#
# Youngs Moduli (GPa) = 69.05413 95.44745 78.54686
#
# Poissons Ratio (x) = -0.10751 -0.17011
# Poissons Ratio (y) = -0.07778 0.05131
# Poissons Ratio (z) = -0.14955 0.06235
#
# Static dielectric constant tensor:
#      x y z
#    x 2.214080 0.000000 0.041560 
#    y 0.000000 2.046400 0.000000 
#    z 0.041560 0.000000 2.056970 
# 
# From -- ./inp_files/15202.got.cif
#   From: 2010.05.17/outbox.cif.g08.bks.cpg/sg3_8_cif.got.tgz:15202.got - 2010.06.03 18:33:08.
