data_PCOD9114622
_publ_section_title
;
Structure prediction by ZEFSAII (Michael W. Deem and Ramdas Pophale) SiO2 
 PCOD9114622
Probable space group: P 21
;
_chemical_formula_sum "Si O2"
_cell_formula_units_Z 14
_cell_length_a 8.345580
_cell_length_b 6.863637
_cell_length_c 11.986177
_cell_angle_alpha 90.000000
_cell_angle_beta 131.079355
_cell_angle_gamma 90.000000
_cell_volume 517.544589
_symmetry_space_group_name_H-M "P 21"
_symmetry_group_IT_number 4
_symmetry_cell_setting 'monoclinic'
loop_
_space_group_symop_operation_xyz
x,y,z
-x,1/2+y,-z
loop_
_atom_site_type_symbol
_atom_site_label
_atom_site_fract_x
_atom_site_fract_y
_atom_site_fract_z
Si Si1 0.291373 0.406350 0.021563
Si Si2 0.349843 0.967786 0.974116
Si Si3 0.215990 0.857560 0.444831
Si Si4 0.530204 0.914040 0.277389
Si Si5 0.308364 0.419542 0.420399
Si Si6 0.720244 0.308812 0.291388
Si Si7 0.886699 0.592155 0.799366
O O1 0.257943 0.176320 0.972667
O O2 0.084920 0.524049 0.963017
O O3 0.417774 0.499062 0.975366
O O4 0.480518 0.395340 0.197543
O O5 0.229421 0.877505 0.810992
O O6 0.410828 0.838548 0.110968
O O7 0.222563 0.632005 0.411082
O O8 0.151832 0.882301 0.543827
O O9 0.457311 0.924978 0.527128
O O10 0.836956 0.807289 0.734813
O O11 0.656018 0.819068 0.439624
O O12 0.682562 0.081810 0.297851
O O13 0.330271 0.013002 0.248359
O O14 0.068592 0.974095 0.293936
#
# Coordination Sequence:
#
# PCOD9114622 Si02
#       7
#     2   2   2   2   2   2   2
#     4   9  21  40  63  93 128 177 222 274 335 401
#     4   9  19  41  67  85 134 180 220 262 344 404
#     4  10  18  36  62  98 130 177 220 265 344 402
#     4   9  18  36  65  94 133 176 220 266 339 407
#     4  10  18  34  63  94 137 175 209 276 341 391
#     4   8  17  37  65  83 129 177 215 262 323 412
#     4  11  21  38  65 101 137 160 234 289 322 397
#
# _framework density 27.050809999999998
#
# number of rings (size 3 to 8) (size 9 to 14) (size 15 to 20)
#    0.857    1.714    4.286    0.000    0.000    1.143 
#    2.571    5.714   18.857    0.000    0.000    0.000 
#    0.000    0.000    0.000    0.000    0.000    0.000 
#
# Total GULP energy -78071.484180 kJ/mol
# GULP energy per Si atom -5576.534584 kJ/mol
# Density = 2.698924 g / cm^3
# Si number density = 27.050810 Si / 1000 Ang^3
#
#
#
# Elastic Constant Matrix: (Units=GPa)
#
#
# Indices 1 2 3 4 5 6 
#
# 1 90.2649 10.3046 21.5355 0.0000 4.9469 0.0000
# 2 10.3046 89.1156 20.1705 0.0000 3.4345 0.0000
# 3 21.5355 20.1705 80.7010 0.0000 -41.0824 0.0000
# 4 0.0000 0.0000 0.0000 39.6782 0.0000 5.9548
# 5 4.9469 3.4345 -41.0824 0.0000 49.7590 0.0000
# 6 0.0000 0.0000 0.0000 5.9548 0.0000 18.0288
#
#
#
# Elastic Compliance Matrix: (Units=1/GPa)
#
#
# Indices 1 2 3 4 5 6 
#
# 1 0.013218 0.000449 -0.007460 0.000000 -0.007504 0.000000
# 2 0.000449 0.012908 -0.006594 0.000000 -0.006379 0.000000
# 3 -0.007460 -0.006594 0.028703 0.000000 0.024895 0.000000
# 4 0.000000 0.000000 0.000000 0.026517 0.000000 -0.008758
# 5 -0.007504 -0.006379 0.024895 0.000000 0.041837 0.000000
# 6 0.000000 0.000000 0.000000 -0.008758 0.000000 0.058360
#
#
# Mechanical properties :
#
#
# Convention : Reuss Voigt Hill
#
# Bulk Modulus (GPa) = 36.20426 40.45584 38.33005
# Shear Modulus (GPa) = 22.94009 35.36459 29.15234
#
# Velocity S-wave (km/s) = 2.91527 3.61964 3.28638
# Velocity P-wave (km/s) = 4.97439 5.69710 5.34797
#
# Compressibility (1/GPa) = 0.02762106
#
# Stress axis : x y z
#
# Youngs Moduli (GPa) = 75.65307 77.47315 34.83902
#
# Poissons Ratio (x) = -0.03480 0.25989
# Poissons Ratio (y) = -0.03398 0.22972
# Poissons Ratio (z) = 0.56435 0.51083
#
# Static dielectric constant tensor:
#      x y z
#    x 2.048040 0.000000 -0.017840 
#    y 0.000000 2.186320 0.000000 
#    z -0.017840 0.000000 2.165990 
# 
# From -- ./inp_files/11170.got.cif
#   From: 2010.05.17/outbox.cif.g08.bks.cpg/sg4_6_cif.got.tgz:11170.got - 2010.06.03 18:43:04.
