data_PCOD9114129
_publ_section_title
;
Structure prediction by ZEFSAII (Michael W. Deem and Ramdas Pophale) SiO2 
 PCOD9114129
Probable space group: P 2
;
_chemical_formula_sum "Si O2"
_cell_formula_units_Z 12
_cell_length_a 9.490155
_cell_length_b 7.385795
_cell_length_c 9.068917
_cell_angle_alpha 90.000000
_cell_angle_beta 103.459371
_cell_angle_gamma 90.000000
_cell_volume 618.203298
_symmetry_space_group_name_H-M "P 2"
_symmetry_group_IT_number 3
_symmetry_cell_setting 'monoclinic'
loop_
_space_group_symop_operation_xyz
x,y,z
-x,y,-z
loop_
_atom_site_type_symbol
_atom_site_label
_atom_site_fract_x
_atom_site_fract_y
_atom_site_fract_z
Si Si1 0.415357 0.944110 0.623805
Si Si2 0.121395 0.647911 0.155043
Si Si3 0.750415 0.341244 0.619038
Si Si4 0.123654 0.944010 0.406122
Si Si5 0.553253 0.666692 0.866002
Si Si6 0.438564 0.330740 0.705408
O O1 0.500000 0.012717 0.500000
O O2 0.264070 0.871366 0.527859
O O3 0.506093 0.785377 0.715828
O O4 0.402267 0.120030 0.725348
O O5 0.143989 0.483861 0.277062
O O6 0.096255 0.823201 0.254141
O O7 0.274943 0.653097 0.106177
O O8 0.000000 0.626308 0.000000
O O9 0.601383 0.332976 0.676738
O O10 0.685398 0.388976 0.441862
O O11 0.829108 0.147520 0.627908
O O12 0.000000 0.947891 0.500000
O O13 0.459246 0.481420 0.834440
O O14 0.500000 0.763599 0.000000
#
# Coordination Sequence:
#
# PCOD9114129 Si02
#       6
#     2   2   2   2   2   2
#     4  11  19  39  67  87 110 154 204 251 292 339
#     4  11  24  41  58  86 128 161 187 239 304 354
#     4   9  18  38  62  86 110 154 197 243 291 343
#     4  11  23  39  63  91 116 153 203 248 291 345
#     4  11  24  38  61  91 120 157 197 240 295 356
#     4   9  17  36  65  87 109 146 204 248 286 335
#
# _framework density 19.411090999999999
#
# number of rings (size 3 to 8) (size 9 to 14) (size 15 to 20)
#    0.000    1.667    5.000    1.000    4.667    2.000 
#    6.000    0.000    0.000    0.000    0.000    0.000 
#    0.000    0.000    0.000    0.000    0.000    0.000 
#
# Total GULP energy -66843.433806 kJ/mol
# GULP energy per Si atom -5570.286150 kJ/mol
# Density = 1.936691 g / cm^3
# Si number density = 19.411091 Si / 1000 Ang^3
#
#
#
# Elastic Constant Matrix: (Units=GPa)
#
#
# Indices 1 2 3 4 5 6 
#
# 1 79.4201 24.8467 52.4118 0.0000 23.1485 0.0000
# 2 24.8467 87.9813 58.2065 0.0000 19.2595 0.0000
# 3 52.4118 58.2065 103.2146 0.0000 33.5963 0.0000
# 4 0.0000 0.0000 0.0000 -10.4519 0.0000 7.9627
# 5 23.1485 19.2595 33.5963 0.0000 38.5964 0.0000
# 6 0.0000 0.0000 0.0000 7.9627 0.0000 15.2920
#
#
#
# Elastic Compliance Matrix: (Units=1/GPa)
#
#
# Indices 1 2 3 4 5 6 
#
# 1 0.019588 0.001697 -0.009494 0.000000 -0.004331 0.000000
# 2 0.001697 0.018278 -0.010981 0.000000 -0.000581 0.000000
# 3 -0.009494 -0.010981 0.023812 0.000000 -0.009553 0.000000
# 4 0.000000 0.000000 0.000000 -0.068502 0.000000 0.035670
# 5 -0.004331 -0.000581 -0.009553 0.000000 0.037112 0.000000
# 6 0.000000 0.000000 0.000000 0.035670 0.000000 0.046820
#
#
# Mechanical properties :
#
#
# Convention : Reuss Voigt Hill
#
# Bulk Modulus (GPa) = 41.45426 60.17178 50.81302
# Shear Modulus (GPa) = 40.74805 17.69737 29.22271
#
# Velocity S-wave (km/s) = 4.58669 3.02274 3.88424
# Velocity P-wave (km/s) = 7.03226 6.57636 6.80813
#
# Compressibility (1/GPa) = 0.02412297
#
# Stress axis : x y z
#
# Youngs Moduli (GPa) = 51.05134 54.70914 41.99592
#
# Poissons Ratio (x) = -0.09286 0.39872
# Poissons Ratio (y) = -0.08665 0.46115
# Poissons Ratio (z) = 0.48470 0.60075
#
# Static dielectric constant tensor:
#      x y z
#    x 1.707050 0.000000 -0.001070 
#    y 0.000000 1.710020 0.000000 
#    z -0.001070 0.000000 1.654240 
# 
# From -- ./inp_files/5162.got.cif
#   From: 2010.05.17/outbox.cif.g08.bks.cpg/sg3_3_cif.got.tgz:5162.got - 2010.06.03 18:33:08.
