data_PCOD9114997
_publ_section_title
;
Structure prediction by ZEFSAII (Michael W. Deem and Ramdas Pophale) SiO2 
 PCOD9114997
Probable space group: P 21
;
_chemical_formula_sum "Si O2"
_cell_formula_units_Z 14
_cell_length_a 9.107477
_cell_length_b 8.695087
_cell_length_c 8.799651
_cell_angle_alpha 90.000000
_cell_angle_beta 128.569470
_cell_angle_gamma 90.000000
_cell_volume 544.831810
_symmetry_space_group_name_H-M "P 21"
_symmetry_group_IT_number 4
_symmetry_cell_setting 'monoclinic'
loop_
_space_group_symop_operation_xyz
x,y,z
-x,1/2+y,-z
loop_
_atom_site_type_symbol
_atom_site_label
_atom_site_fract_x
_atom_site_fract_y
_atom_site_fract_z
Si Si1 0.670462 0.799830 0.123726
Si Si2 0.608678 0.218370 0.837159
Si Si3 0.080351 0.577759 0.745826
Si Si4 0.461264 0.892187 0.683076
Si Si5 0.091395 0.944347 0.959347
Si Si6 0.860980 0.503138 0.347343
Si Si7 0.783752 0.727610 0.784182
O O1 0.546302 0.835321 0.194167
O O2 0.709020 0.623192 0.185942
O O3 0.856621 0.899110 0.222377
O O4 0.548730 0.830936 0.897527
O O5 0.526833 0.069614 0.700671
O O6 0.732162 0.150312 0.059044
O O7 0.765583 0.327147 0.865078
O O8 0.021606 0.601428 0.533588
O O9 0.901010 0.638513 0.727649
O O10 0.565914 0.777970 0.632327
O O11 0.243549 0.905959 0.588653
O O12 0.887678 0.890697 0.881634
O O13 0.078516 0.922763 0.768372
O O14 0.164180 0.112342 0.045839
#
# Coordination Sequence:
#
# PCOD9114997 Si02
#       7
#     2   2   2   2   2   2   2
#     4  10  19  38  65  95 122 166 222 271 308 391
#     4   9  20  38  64  97 123 166 224 266 311 395
#     4  10  24  39  62  99 135 166 219 279 334 386
#     4  10  20  41  65  90 127 173 226 262 319 397
#     4  11  21  38  65  95 125 173 223 266 330 393
#     4  11  23  38  68  95 128 170 223 278 325 381
#     4  11  23  40  63  95 134 174 213 274 333 401
#
# _framework density 25.696003999999999
#
# number of rings (size 3 to 8) (size 9 to 14) (size 15 to 20)
#    0.000    1.714    2.857    2.571    4.000    0.000 
#    0.000    2.857    3.143    0.000    0.000    0.000 
#    0.000    0.000    0.000    0.000    0.000    0.000 
#
# Total GULP energy -78006.911538 kJ/mol
# GULP energy per Si atom -5571.922253 kJ/mol
# Density = 2.563752 g / cm^3
# Si number density = 25.696004 Si / 1000 Ang^3
#
#
#
# Elastic Constant Matrix: (Units=GPa)
#
#
# Indices 1 2 3 4 5 6 
#
# 1 114.1248 59.6348 17.5409 0.0000 2.6263 0.0000
# 2 59.6348 85.4060 19.2556 0.0000 0.3454 0.0000
# 3 17.5409 19.2556 54.5267 0.0000 9.0374 0.0000
# 4 0.0000 0.0000 0.0000 30.0366 0.0000 -0.2620
# 5 2.6263 0.3454 9.0374 0.0000 24.6218 0.0000
# 6 0.0000 0.0000 0.0000 -0.2620 0.0000 47.7035
#
#
#
# Elastic Compliance Matrix: (Units=1/GPa)
#
#
# Indices 1 2 3 4 5 6 
#
# 1 0.013883 -0.009474 -0.000955 0.000000 -0.000997 0.000000
# 2 -0.009474 0.019244 -0.004122 0.000000 0.002253 0.000000
# 3 -0.000955 -0.004122 0.021376 0.000000 -0.007686 0.000000
# 4 0.000000 0.000000 0.000000 0.033294 0.000000 0.000183
# 5 -0.000997 0.002253 -0.007686 0.000000 0.043511 0.000000
# 6 0.000000 0.000000 0.000000 0.000183 0.000000 0.020964
#
#
# Mechanical properties :
#
#
# Convention : Reuss Voigt Hill
#
# Bulk Modulus (GPa) = 39.36740 49.65779 44.51260
# Shear Modulus (GPa) = 26.33780 30.98078 28.65929
#
# Velocity S-wave (km/s) = 3.20500 3.47604 3.34327
# Velocity P-wave (km/s) = 5.38978 5.95630 5.68011
#
# Compressibility (1/GPa) = 0.02540173
#
# Stress axis : x y z
#
# Youngs Moduli (GPa) = 72.03162 51.96320 46.78072
#
# Poissons Ratio (x) = 0.49232 0.04467
# Poissons Ratio (y) = 0.68245 0.19281
# Poissons Ratio (z) = 0.06879 0.21417
#
# Static dielectric constant tensor:
#      x y z
#    x 2.201890 0.000000 -0.047170 
#    y 0.000000 2.067070 0.000000 
#    z -0.047170 0.000000 2.031470 
# 
# From -- ./inp_files/5247.got.cif
#   From: 2010.05.17/outbox.cif.g08.bks.cpg/sg4_3_cif.got.tgz:5247.got - 2010.06.03 18:43:04.
