data_PCOD9114934
_publ_section_title
;
Structure prediction by ZEFSAII (Michael W. Deem and Ramdas Pophale) SiO2 
 PCOD9114934
Probable space group: P 21
;
_chemical_formula_sum "Si O2"
_cell_formula_units_Z 16
_cell_length_a 5.253724
_cell_length_b 21.623539
_cell_length_c 6.746643
_cell_angle_alpha 90.000000
_cell_angle_beta 71.017665
_cell_angle_gamma 90.000000
_cell_volume 724.766156
_symmetry_space_group_name_H-M "P 21"
_symmetry_group_IT_number 4
_symmetry_cell_setting 'monoclinic'
loop_
_space_group_symop_operation_xyz
x,y,z
-x,1/2+y,-z
loop_
_atom_site_type_symbol
_atom_site_label
_atom_site_fract_x
_atom_site_fract_y
_atom_site_fract_z
Si Si1 0.112553 0.947180 0.289537
Si Si2 0.484902 0.057589 0.246053
Si Si3 0.856088 0.561761 0.329419
Si Si4 0.090918 0.460813 0.047351
Si Si5 0.907726 0.170496 0.494561
Si Si6 0.218155 0.141733 0.034713
Si Si7 0.664614 0.734845 0.332187
Si Si8 0.379254 0.379333 0.724201
O O1 0.809978 0.920706 0.374012
O O2 0.316873 0.903005 0.351883
O O3 0.154177 0.945395 0.038809
O O4 0.204349 0.017347 0.302763
O O5 0.715420 0.012529 0.108871
O O6 0.459474 0.117479 0.115375
O O7 0.436386 0.070247 0.490175
O O8 0.063830 0.608654 0.380376
O O9 0.978549 0.492997 0.270555
O O10 0.820448 0.587794 0.115992
O O11 0.265483 0.398853 0.972638
O O12 0.629732 0.206243 0.562893
O O13 0.984140 0.151650 0.252632
O O14 0.134933 0.213438 0.543504
O O15 0.247862 0.202939 0.897000
O O16 0.654509 0.808224 0.313723
#
# Coordination Sequence:
#
# PCOD9114934 Si02
#       8
#     2   2   2   2   2   2   2   2
#     4   9  18  36  61  83 122 154 189 254 297 346
#     4  10  19  37  59  93 121 157 194 247 307 371
#     4  10  20  37  63  93 121 160 190 246 313 366
#     4   9  19  36  59  85 124 150 194 247 299 351
#     4  10  24  38  62  91 119 159 205 244 304 363
#     4  10  21  39  61  92 126 154 201 254 298 356
#     4  11  22  41  63  84 118 167 205 247 299 352
#     4   9  19  36  62  83 115 163 202 247 297 343
#
# _framework density 22.076089
#
# number of rings (size 3 to 8) (size 9 to 14) (size 15 to 20)
#    0.750    1.500    1.250    1.500    0.000    5.000 
#    2.250    3.750    5.500    0.000    0.000    0.000 
#    0.000    0.000    0.000    0.000    0.000    0.000 
#
# Total GULP energy -89083.032618 kJ/mol
# GULP energy per Si atom -5567.689539 kJ/mol
# Density = 2.202584 g / cm^3
# Si number density = 22.076089 Si / 1000 Ang^3
#
#
#
# Elastic Constant Matrix: (Units=GPa)
#
#
# Indices 1 2 3 4 5 6 
#
# 1 106.7718 7.3921 16.9706 0.0000 10.7234 0.0000
# 2 7.3921 70.6537 -4.1825 0.0000 4.2839 0.0000
# 3 16.9706 -4.1825 97.1617 0.0000 -8.7693 0.0000
# 4 0.0000 0.0000 0.0000 20.6042 0.0000 -0.8766
# 5 10.7234 4.2839 -8.7693 0.0000 20.7059 0.0000
# 6 0.0000 0.0000 0.0000 -0.8766 0.0000 28.1025
#
#
#
# Elastic Compliance Matrix: (Units=1/GPa)
#
#
# Indices 1 2 3 4 5 6 
#
# 1 0.010439 -0.000856 -0.002425 0.000000 -0.006256 0.000000
# 2 -0.000856 0.014416 0.000562 0.000000 -0.002301 0.000000
# 3 -0.002425 0.000562 0.011274 0.000000 0.005914 0.000000
# 4 0.000000 0.000000 0.000000 0.048598 0.000000 0.001516
# 5 -0.006256 -0.002301 0.005914 0.000000 0.054516 0.000000
# 6 0.000000 0.000000 0.000000 0.001516 0.000000 0.035631
#
#
# Mechanical properties :
#
#
# Convention : Reuss Voigt Hill
#
# Bulk Modulus (GPa) = 32.58283 34.99416 33.78850
# Shear Modulus (GPa) = 26.24100 30.84298 28.54199
#
# Velocity S-wave (km/s) = 3.45144 3.74186 3.59958
# Velocity P-wave (km/s) = 5.53847 5.87833 5.71093
#
# Compressibility (1/GPa) = 0.03069101
#
# Stress axis : x y z
#
# Youngs Moduli (GPa) = 95.79688 69.36761 88.70268
#
# Poissons Ratio (x) = 0.05941 0.21508
# Poissons Ratio (y) = 0.08204 -0.04989
# Poissons Ratio (z) = 0.23228 -0.03902
#
# Static dielectric constant tensor:
#      x y z
#    x 1.878620 0.000000 0.001730 
#    y 0.000000 1.820700 0.000000 
#    z 0.001730 0.000000 1.965840 
# 
# From -- ./inp_files/757.got.cif
#   From: 2010.05.17/outbox.cif.g08.bks.cpg/sg4_1_cif.got.tgz:757.got - 2010.06.03 18:43:04.
