data_PCOD9114771
_publ_section_title
;
Structure prediction by ZEFSAII (Michael W. Deem and Ramdas Pophale) SiO2 
 PCOD9114771
Probable space group: P 21
;
_chemical_formula_sum "Si O2"
_cell_formula_units_Z 14
_cell_length_a 7.643829
_cell_length_b 7.549681
_cell_length_c 13.789874
_cell_angle_alpha 90.000000
_cell_angle_beta 140.530082
_cell_angle_gamma 90.000000
_cell_volume 505.863835
_symmetry_space_group_name_H-M "P 21"
_symmetry_group_IT_number 4
_symmetry_cell_setting 'monoclinic'
loop_
_space_group_symop_operation_xyz
x,y,z
-x,1/2+y,-z
loop_
_atom_site_type_symbol
_atom_site_label
_atom_site_fract_x
_atom_site_fract_y
_atom_site_fract_z
Si Si1 0.734352 0.674990 0.100298
Si Si2 0.280703 0.505435 0.155743
Si Si3 0.312313 0.517154 0.808918
Si Si4 0.166615 0.877298 0.181103
Si Si5 0.480770 0.138211 0.456983
Si Si6 0.229284 0.924223 0.521094
Si Si7 0.024159 0.827302 0.792013
O O1 0.788131 0.484212 0.169094
O O2 0.027746 0.759850 0.204751
O O3 0.609169 0.823336 0.116567
O O4 0.595473 0.628787 0.935099
O O5 0.300186 0.719779 0.175280
O O6 0.592016 0.431210 0.303997
O O7 0.090588 0.398443 0.154228
O O8 0.090882 0.468622 0.982028
O O9 0.165826 0.638560 0.829781
O O10 0.085613 0.491301 0.627705
O O11 0.359378 0.016708 0.317420
O O12 0.738531 0.231696 0.515012
O O13 0.262456 0.299089 0.384460
O O14 0.420536 0.047489 0.534037
#
# Coordination Sequence:
#
# PCOD9114771 Si02
#       7
#     2   2   2   2   2   2   2
#     4  11  21  36  59  86 117 161 207 243 283 354
#     4  10  21  35  58  86 123 152 191 249 308 362
#     4  11  21  36  58  85 123 158 204 244 292 343
#     4  11  21  37  60  88 119 161 199 242 303 362
#     4  10  19  33  55  85 125 150 192 245 306 356
#     4  10  20  33  54  87 121 150 191 247 304 346
#     4   9  19  34  54  85 118 150 196 244 294 345
#
# _framework density 27.675436000000001
#
# number of rings (size 3 to 8) (size 9 to 14) (size 15 to 20)
#    0.000    1.714    4.286    2.571    4.000    0.000 
#    0.000    0.000    0.000    6.857    0.000    0.000 
#    0.000    0.000    0.000    0.000    0.000    0.000 
#
# Total GULP energy -77937.969439 kJ/mol
# GULP energy per Si atom -5566.997817 kJ/mol
# Density = 2.761245 g / cm^3
# Si number density = 27.675436 Si / 1000 Ang^3
#
#
#
# Elastic Constant Matrix: (Units=GPa)
#
#
# Indices 1 2 3 4 5 6 
#
# 1 40.4821 7.9954 6.0468 0.0000 -1.6424 0.0000
# 2 7.9954 100.5548 42.0103 0.0000 3.4597 0.0000
# 3 6.0468 42.0103 181.7534 0.0000 2.0610 0.0000
# 4 0.0000 0.0000 0.0000 62.3368 0.0000 15.3723
# 5 -1.6424 3.4597 2.0610 0.0000 30.5606 0.0000
# 6 0.0000 0.0000 0.0000 15.3723 0.0000 18.1615
#
#
#
# Elastic Compliance Matrix: (Units=1/GPa)
#
#
# Indices 1 2 3 4 5 6 
#
# 1 0.025202 -0.001883 -0.000421 0.000000 0.001596 0.000000
# 2 -0.001883 0.011184 -0.002509 0.000000 -0.001198 0.000000
# 3 -0.000421 -0.002509 0.006098 0.000000 -0.000150 0.000000
# 4 0.000000 0.000000 0.000000 0.020274 0.000000 -0.017160
# 5 0.001596 -0.001198 -0.000150 0.000000 0.032953 0.000000
# 6 0.000000 0.000000 0.000000 -0.017160 0.000000 0.069586
#
#
# Mechanical properties :
#
#
# Convention : Reuss Voigt Hill
#
# Bulk Modulus (GPa) = 30.43450 48.32169 39.37809
# Shear Modulus (GPa) = 26.89981 39.99428 33.44705
#
# Velocity S-wave (km/s) = 3.12103 3.80560 3.48019
# Velocity P-wave (km/s) = 4.89986 6.06697 5.51438
#
# Compressibility (1/GPa) = 0.03285745
#
# Stress axis : x y z
#
# Youngs Moduli (GPa) = 39.67969 89.41427 163.99992
#
# Poissons Ratio (x) = 0.16834 0.06911
# Poissons Ratio (y) = 0.07471 0.41145
# Poissons Ratio (z) = 0.01672 0.22432
#
# Static dielectric constant tensor:
#      x y z
#    x 2.279500 0.000000 0.066080 
#    y 0.000000 2.292680 0.000000 
#    z 0.066080 0.000000 2.310660 
# 
# From -- ./inp_files/15170.got.cif
#   From: 2010.05.17/outbox.cif.g08.bks.cpg/sg4_8_cif.got.tgz:15170.got - 2010.06.03 18:43:04.
