data_PCOD9114265
_publ_section_title
;
Structure prediction by ZEFSAII (Michael W. Deem and Ramdas Pophale) SiO2 
 PCOD9114265
Probable space group: P 2
;
_chemical_formula_sum "Si O2"
_cell_formula_units_Z 13
_cell_length_a 8.949310
_cell_length_b 7.797949
_cell_length_c 12.040886
_cell_angle_alpha 90.000000
_cell_angle_beta 138.831475
_cell_angle_gamma 90.000000
_cell_volume 553.141734
_symmetry_space_group_name_H-M "P 2"
_symmetry_group_IT_number 3
_symmetry_cell_setting 'monoclinic'
loop_
_space_group_symop_operation_xyz
x,y,z
-x,y,-z
loop_
_atom_site_type_symbol
_atom_site_label
_atom_site_fract_x
_atom_site_fract_y
_atom_site_fract_z
Si Si1 0.421574 0.600810 0.329730
Si Si2 0.181473 0.100179 0.371425
Si Si3 0.120692 0.456456 0.454990
Si Si4 0.262178 0.558041 0.925132
Si Si5 0.000000 0.440528 0.000000
Si Si6 0.700947 0.964196 0.030039
Si Si7 0.596735 0.981200 0.724485
O O1 0.500000 0.606285 0.500000
O O2 0.650804 0.561298 0.391370
O O3 0.320067 0.786247 0.243448
O O4 0.223047 0.467787 0.200381
O O5 0.190244 0.288015 0.426577
O O6 0.333543 0.986340 0.540770
O O7 0.285811 0.089482 0.306429
O O8 0.930291 0.030835 0.213464
O O9 0.000000 0.402628 0.500000
O O10 0.937121 0.555677 0.278208
O O11 0.293424 0.757158 0.977537
O O12 0.500000 0.500649 0.000000
O O13 0.170244 0.452283 0.979844
O O14 0.500000 0.011396 0.000000
O O15 0.658076 0.036786 0.882356
#
# Coordination Sequence:
#
# PCOD9114265 Si02
#       7
#     2   2   2   2   1   2   2
#     4  12  23  45  75 112 138 189 253 312 372 426
#     4  11  26  48  69 102 147 200 240 292 370 444
#     4  12  29  48  71 106 161 197 240 306 377 460
#     4  11  24  46  73 114 146 191 255 315 369 433
#     4  12  22  40  76 102 148 180 238 314 368 434
#     4  11  25  44  74 109 142 188 252 306 370 432
#     4  11  24  45  78 103 139 187 252 314 348 439
#
# _framework density 23.502113999999999
#
# number of rings (size 3 to 8) (size 9 to 14) (size 15 to 20)
#    0.000    0.615    4.615    3.231    6.462    0.615 
#    5.538    0.000    0.000    0.000    0.000    0.000 
#    0.000    0.000    0.000    0.000    0.000    0.000 
#
# Total GULP energy -72540.922044 kJ/mol
# GULP energy per Si atom -5580.070926 kJ/mol
# Density = 2.344862 g / cm^3
# Si number density = 23.502114 Si / 1000 Ang^3
#
#
#
# Elastic Constant Matrix: (Units=GPa)
#
#
# Indices 1 2 3 4 5 6 
#
# 1 122.7784 29.4351 22.7679 0.0000 9.6863 0.0000
# 2 29.4351 66.0168 6.7184 0.0000 -13.6873 0.0000
# 3 22.7679 6.7184 101.7937 0.0000 5.1119 0.0000
# 4 0.0000 0.0000 0.0000 -4.4408 0.0000 -3.8585
# 5 9.6863 -13.6873 5.1119 0.0000 55.9842 0.0000
# 6 0.0000 0.0000 0.0000 -3.8585 0.0000 26.8238
#
#
#
# Elastic Compliance Matrix: (Units=1/GPa)
#
#
# Indices 1 2 3 4 5 6 
#
# 1 0.009824 -0.004763 -0.001747 0.000000 -0.002705 0.000000
# 2 -0.004763 0.018427 -0.000420 0.000000 0.005368 0.000000
# 3 -0.001747 -0.000420 0.010279 0.000000 -0.000739 0.000000
# 4 0.000000 0.000000 0.000000 -0.200165 0.000000 -0.028793
# 5 -0.002705 0.005368 -0.000739 0.000000 0.019710 0.000000
# 6 0.000000 0.000000 0.000000 -0.028793 0.000000 0.033139
#
#
# Mechanical properties :
#
#
# Convention : Reuss Voigt Hill
#
# Bulk Modulus (GPa) = 40.53648 45.38129 42.95889
# Shear Modulus (GPa) = -57.66897 31.11794 -13.27552
#
# Velocity S-wave (km/s) = -4.95894 3.64270 -2.37927
# Velocity P-wave (km/s) = 3.93734 6.08635 3.28185
#
# Compressibility (1/GPa) = 0.02466914
#
# Stress axis : x y z
#
# Youngs Moduli (GPa) = 101.79078 54.26780 97.28168
#
# Poissons Ratio (x) = 0.25849 0.16996
# Poissons Ratio (y) = 0.48486 0.04089
# Poissons Ratio (z) = 0.17784 0.02281
#
# Static dielectric constant tensor:
#      x y z
#    x 1.900980 0.000000 -0.002790 
#    y 0.000000 1.923430 0.000000 
#    z -0.002790 0.000000 1.846470 
# 
# From -- ./inp_files/10842.got.cif
#   From: 2010.05.17/outbox.cif.g08.bks.cpg/sg3_6_cif.got.tgz:10842.got - 2010.06.03 18:33:08.
