data_PCOD9114280
_publ_section_title
;
Structure prediction by ZEFSAII (Michael W. Deem and Ramdas Pophale) SiO2 
 PCOD9114280
Probable space group: P 2
;
_chemical_formula_sum "Si O2"
_cell_formula_units_Z 8
_cell_length_a 5.078512
_cell_length_b 8.231453
_cell_length_c 7.788136
_cell_angle_alpha 90.000000
_cell_angle_beta 67.612158
_cell_angle_gamma 90.000000
_cell_volume 301.032250
_symmetry_space_group_name_H-M "P 2"
_symmetry_group_IT_number 3
_symmetry_cell_setting 'monoclinic'
loop_
_space_group_symop_operation_xyz
x,y,z
-x,y,-z
loop_
_atom_site_type_symbol
_atom_site_label
_atom_site_fract_x
_atom_site_fract_y
_atom_site_fract_z
Si Si1 0.688720 0.794840 0.129894
Si Si2 0.000000 0.880298 0.500000
Si Si3 0.835328 0.579499 0.691240
Si Si4 0.500000 0.358474 0.000000
Si Si5 0.483451 0.115206 0.694831
O O1 0.476106 0.661437 0.269862
O O2 0.733148 0.968764 0.213004
O O3 0.500000 0.827412 0.000000
O O4 0.000000 0.735800 0.000000
O O5 0.035165 0.741018 0.639260
O O6 0.762650 0.001434 0.625132
O O7 0.000000 0.480986 0.500000
O O8 0.763079 0.468317 0.870317
O O9 0.555197 0.246893 0.150473
O O10 0.500000 0.187330 0.500000
#
# Coordination Sequence:
#
# PCOD9114280 Si02
#       5
#     2   1   2   1   2
#     4  11  24  47  82 120 157 211 277 333 396 477
#     4   8  22  46  76 106 146 202 282 324 388 468
#     4   9  22  46  79 109 156 210 262 333 394 479
#     4  12  24  46  78 114 170 208 260 328 424 476
#     4  11  26  43  74 115 159 211 266 335 399 485
#
# _framework density 26.575229
#
# number of rings (size 3 to 8) (size 9 to 14) (size 15 to 20)
#    0.750    1.000    2.500    0.000    8.750    0.000 
#    0.000   11.250    0.000    0.000    0.000    0.000 
#    0.000    0.000    0.000    0.000    0.000    0.000 
#
# Total GULP energy -44570.948009 kJ/mol
# GULP energy per Si atom -5571.368501 kJ/mol
# Density = 2.651474 g / cm^3
# Si number density = 26.575229 Si / 1000 Ang^3
#
#
#
# Elastic Constant Matrix: (Units=GPa)
#
#
# Indices 1 2 3 4 5 6 
#
# 1 73.3783 43.2270 51.0838 0.0000 -11.4384 0.0000
# 2 43.2270 159.9186 107.9009 0.0000 5.7989 0.0000
# 3 51.0838 107.9009 292.9661 0.0000 -11.3571 0.0000
# 4 0.0000 0.0000 0.0000 46.8027 0.0000 -7.8837
# 5 -11.4384 5.7989 -11.3571 0.0000 44.6715 0.0000
# 6 0.0000 0.0000 0.0000 -7.8837 0.0000 29.6120
#
#
#
# Elastic Compliance Matrix: (Units=1/GPa)
#
#
# Indices 1 2 3 4 5 6 
#
# 1 0.017708 -0.003986 -0.001438 0.000000 0.004686 0.000000
# 2 -0.003986 0.009377 -0.002874 0.000000 -0.002969 0.000000
# 3 -0.001438 -0.002874 0.004770 0.000000 0.001218 0.000000
# 4 0.000000 0.000000 0.000000 0.022369 0.000000 0.005955
# 5 0.004686 -0.002969 0.001218 0.000000 0.024280 0.000000
# 6 0.000000 0.000000 0.000000 0.005955 0.000000 0.035356
#
#
# Mechanical properties :
#
#
# Convention : Reuss Voigt Hill
#
# Bulk Modulus (GPa) = 65.53474 103.40959 84.47216
# Shear Modulus (GPa) = 36.88884 45.82067 41.35475
#
# Velocity S-wave (km/s) = 3.72975 4.15684 3.94907
# Velocity P-wave (km/s) = 6.57736 7.87627 7.25594
#
# Compressibility (1/GPa) = 0.01525908
#
# Stress axis : x y z
#
# Youngs Moduli (GPa) = 56.47231 106.64035 209.65798
#
# Poissons Ratio (x) = 0.42510 0.30145
# Poissons Ratio (y) = 0.22512 0.60250
# Poissons Ratio (z) = 0.08120 0.30645
#
# Static dielectric constant tensor:
#      x y z
#    x 2.483580 0.000000 0.075240 
#    y 0.000000 2.058660 0.000000 
#    z 0.075240 0.000000 2.498510 
# 
# From -- ./inp_files/4068.got.cif
#   From: 2010.05.17/outbox.cif.g08.bks.cpg/sg3_3_cif.got.tgz:4068.got - 2010.06.03 18:33:08.
