data_PCOD9114518
_publ_section_title
;
Structure prediction by ZEFSAII (Michael W. Deem and Ramdas Pophale) SiO2 
 PCOD9114518
Probable space group: P 21
;
_chemical_formula_sum "Si O2"
_cell_formula_units_Z 16
_cell_length_a 5.265199
_cell_length_b 15.320476
_cell_length_c 8.367070
_cell_angle_alpha 90.000000
_cell_angle_beta 120.513007
_cell_angle_gamma 90.000000
_cell_volume 581.463891
_symmetry_space_group_name_H-M "P 21"
_symmetry_group_IT_number 4
_symmetry_cell_setting 'monoclinic'
loop_
_space_group_symop_operation_xyz
x,y,z
-x,1/2+y,-z
loop_
_atom_site_type_symbol
_atom_site_label
_atom_site_fract_x
_atom_site_fract_y
_atom_site_fract_z
Si Si1 0.764587 0.888920 0.860929
Si Si2 0.516404 0.187934 0.604580
Si Si3 0.114577 0.923012 0.658459
Si Si4 0.661957 0.715411 0.012088
Si Si5 0.372822 0.889994 0.245605
Si Si6 0.148863 0.625516 0.995407
Si Si7 0.057127 0.487630 0.690715
Si Si8 0.961187 0.236098 0.535075
O O1 0.458276 0.936313 0.809128
O O2 0.689220 0.792061 0.894718
O O3 0.872088 0.906568 0.716715
O O4 0.076304 0.901665 0.048732
O O5 0.579972 0.289583 0.683418
O O6 0.169321 0.185934 0.479753
O O7 0.669689 0.184026 0.484189
O O8 0.648991 0.122990 0.778686
O O9 0.101328 0.832163 0.551523
O O10 0.004975 0.003323 0.515974
O O11 0.327265 0.703217 0.961582
O O12 0.828536 0.637579 0.972968
O O13 0.856069 0.733448 0.235842
O O14 0.655996 0.923648 0.239034
O O15 0.261739 0.947537 0.358881
O O16 0.139741 0.553936 0.855758
#
# Coordination Sequence:
#
# PCOD9114518 Si02
#       8
#     2   2   2   2   2   2   2   2
#     4  12  24  36  62  93 122 161 203 258 302 362
#     4  10  17  34  63  85 112 147 204 261 284 343
#     4  12  23  35  57  96 126 151 202 255 317 356
#     4  10  20  39  63  88 117 158 208 257 299 369
#     4  12  21  40  64  90 120 158 216 253 303 360
#     4  10  21  36  64  93 118 157 213 256 310 360
#     4  12  24  40  64  94 123 167 203 264 312 371
#     4  10  18  34  59  85 118 145 197 258 295 333
#
# _framework density 27.516756000000001
#
# number of rings (size 3 to 8) (size 9 to 14) (size 15 to 20)
#    0.000    1.000    5.000    3.750    3.500    0.000 
#    0.000    0.000    0.000   30.000    0.000    0.000 
#    0.000    0.000    0.000    0.000    0.000    0.000 
#
# Total GULP energy -89407.068116 kJ/mol
# GULP energy per Si atom -5587.941757 kJ/mol
# Density = 2.745413 g / cm^3
# Si number density = 27.516756 Si / 1000 Ang^3
#
#
#
# Elastic Constant Matrix: (Units=GPa)
#
#
# Indices 1 2 3 4 5 6 
#
# 1 201.8493 9.8183 24.5804 0.0000 -2.8890 0.0000
# 2 9.8183 48.7395 -2.9878 0.0000 2.9500 0.0000
# 3 24.5804 -2.9878 84.8323 0.0000 23.0915 0.0000
# 4 0.0000 0.0000 0.0000 26.1797 0.0000 -4.0624
# 5 -2.8890 2.9500 23.0915 0.0000 49.3405 0.0000
# 6 0.0000 0.0000 0.0000 -4.0624 0.0000 34.4947
#
#
#
# Elastic Compliance Matrix: (Units=1/GPa)
#
#
# Indices 1 2 3 4 5 6 
#
# 1 0.005267 -0.001256 -0.001919 0.000000 0.001282 0.000000
# 2 -0.001256 0.021001 0.001679 0.000000 -0.002115 0.000000
# 3 -0.001919 0.001679 0.014280 0.000000 -0.006896 0.000000
# 4 0.000000 0.000000 0.000000 0.038909 0.000000 0.004582
# 5 0.001282 -0.002115 -0.006896 0.000000 0.023696 0.000000
# 6 0.000000 0.000000 0.000000 0.004582 0.000000 0.029530
#
#
# Mechanical properties :
#
#
# Convention : Reuss Voigt Hill
#
# Bulk Modulus (GPa) = 26.62654 44.24921 35.43787
# Shear Modulus (GPa) = 33.73938 42.27034 38.00486
#
# Velocity S-wave (km/s) = 3.50543 3.92365 3.72042
# Velocity P-wave (km/s) = 5.10701 6.05330 5.60018
#
# Compressibility (1/GPa) = 0.03755652
#
# Stress axis : x y z
#
# Youngs Moduli (GPa) = 189.84756 47.61611 70.02616
#
# Poissons Ratio (x) = 0.05982 0.13441
# Poissons Ratio (y) = 0.23851 -0.11761
# Poissons Ratio (z) = 0.36439 -0.07997
#
# Static dielectric constant tensor:
#      x y z
#    x 2.249530 0.000000 -0.021010 
#    y 0.000000 2.240290 0.000000 
#    z -0.021010 0.000000 2.238210 
# 
# From -- ./inp_files/4912.got.cif
#   From: 2010.05.17/outbox.cif.g08.bks.cpg/sg4_3_cif.got.tgz:4912.got - 2010.06.03 18:43:04.
