data_PCOD9114094
_publ_section_title
;
Structure prediction by ZEFSAII (Michael W. Deem and Ramdas Pophale) SiO2 
 PCOD9114094
Probable space group: P 2
;
_chemical_formula_sum "Si O2"
_cell_formula_units_Z 12
_cell_length_a 18.635040
_cell_length_b 7.109614
_cell_length_c 7.622946
_cell_angle_alpha 90.000000
_cell_angle_beta 29.816213
_cell_angle_gamma 90.000000
_cell_volume 502.166042
_symmetry_space_group_name_H-M "P 2"
_symmetry_group_IT_number 3
_symmetry_cell_setting 'monoclinic'
loop_
_space_group_symop_operation_xyz
x,y,z
-x,y,-z
loop_
_atom_site_type_symbol
_atom_site_label
_atom_site_fract_x
_atom_site_fract_y
_atom_site_fract_z
Si Si1 0.055925 0.318940 0.078287
Si Si2 0.770761 0.148705 0.789598
Si Si3 0.717450 0.053639 0.303553
Si Si4 0.879161 0.701037 0.113414
Si Si5 0.557020 0.851188 0.179271
Si Si6 0.371802 0.471564 0.147388
O O1 0.940487 0.188565 0.420022
O O2 0.058059 0.532447 0.140798
O O3 0.000000 0.332085 0.000000
O O4 0.210895 0.220865 0.740675
O O5 0.693914 0.317136 0.845581
O O6 0.726633 0.132367 0.086120
O O7 0.712177 0.952158 0.835356
O O8 0.816061 0.871893 0.136455
O O9 0.557458 0.982043 0.678364
O O10 0.751329 0.588981 0.486146
O O11 0.000000 0.760755 0.000000
O O12 0.500000 0.852729 0.500000
O O13 0.556141 0.639830 0.117265
O O14 0.500000 0.398614 0.000000
#
# Coordination Sequence:
#
# PCOD9114094 Si02
#       6
#     2   2   2   2   2   2
#     4  11  24  44  72 104 143 188 249 298 362 431
#     4  11  26  46  68 108 144 193 239 302 366 434
#     4  11  25  45  70 103 148 192 238 302 366 428
#     4  11  24  46  72 109 143 192 247 302 354 437
#     4  10  26  45  68 103 146 190 243 297 365 432
#     4  12  25  45  76 105 142 195 248 297 364 432
#
# _framework density 23.89648
#
# number of rings (size 3 to 8) (size 9 to 14) (size 15 to 20)
#    0.000    1.000    5.000    1.000    7.000    5.333 
#    0.000    1.667    0.000    0.000    0.000    0.000 
#    0.000    0.000    0.000    0.000    0.000    0.000 
#
# Total GULP energy -67125.908006 kJ/mol
# GULP energy per Si atom -5593.825667 kJ/mol
# Density = 2.384209 g / cm^3
# Si number density = 23.896480 Si / 1000 Ang^3
#
#
#
# Elastic Constant Matrix: (Units=GPa)
#
#
# Indices 1 2 3 4 5 6 
#
# 1 115.9599 58.2365 32.1418 0.0000 -13.3468 0.0000
# 2 58.2365 114.1844 12.3467 0.0000 11.1228 0.0000
# 3 32.1418 12.3467 82.7658 0.0000 -4.6249 0.0000
# 4 0.0000 0.0000 0.0000 42.4559 0.0000 -7.0234
# 5 -13.3468 11.1228 -4.6249 0.0000 28.9899 0.0000
# 6 0.0000 0.0000 0.0000 -7.0234 0.0000 70.0054
#
#
#
# Elastic Compliance Matrix: (Units=1/GPa)
#
#
# Indices 1 2 3 4 5 6 
#
# 1 0.014852 -0.008041 -0.004050 0.000000 0.009277 0.000000
# 2 -0.008041 0.013657 0.000591 0.000000 -0.008847 0.000000
# 3 -0.004050 0.000591 0.013571 0.000000 0.000074 0.000000
# 4 0.000000 0.000000 0.000000 0.023951 0.000000 0.002403
# 5 0.009277 -0.008847 0.000074 0.000000 0.042172 0.000000
# 6 0.000000 0.000000 0.000000 0.002403 0.000000 0.014526
#
#
# Mechanical properties :
#
#
# Convention : Reuss Voigt Hill
#
# Bulk Modulus (GPa) = 52.40956 57.59556 55.00256
# Shear Modulus (GPa) = 32.87567 42.30257 37.58912
#
# Velocity S-wave (km/s) = 3.71314 4.21199 3.97041
# Velocity P-wave (km/s) = 6.35317 6.91440 6.63972
#
# Compressibility (1/GPa) = 0.01908049
#
# Stress axis : x y z
#
# Youngs Moduli (GPa) = 67.33073 73.22482 73.68637
#
# Poissons Ratio (x) = 0.58877 0.29842
# Poissons Ratio (y) = 0.54138 -0.04354
# Poissons Ratio (z) = 0.27268 -0.04327
#
# Static dielectric constant tensor:
#      x y z
#    x 1.910750 0.000000 -0.003720 
#    y 0.000000 1.945130 0.000000 
#    z -0.003720 0.000000 1.991320 
# 
# From -- ./inp_files/9222.got.cif
#   From: 2010.05.17/outbox.cif.g08.bks.cpg/sg3_5_cif.got.tgz:9222.got - 2010.06.03 18:33:08.
