data_PCOD9114551
_publ_section_title
;
Structure prediction by ZEFSAII (Michael W. Deem and Ramdas Pophale) SiO2 
 PCOD9114551
Probable space group: P 21
;
_chemical_formula_sum "Si O2"
_cell_formula_units_Z 16
_cell_length_a 24.494074
_cell_length_b 7.652394
_cell_length_c 11.307725
_cell_angle_alpha 90.000000
_cell_angle_beta 22.116566
_cell_angle_gamma 90.000000
_cell_volume 797.975385
_symmetry_space_group_name_H-M "P 21"
_symmetry_group_IT_number 4
_symmetry_cell_setting 'monoclinic'
loop_
_space_group_symop_operation_xyz
x,y,z
-x,1/2+y,-z
loop_
_atom_site_type_symbol
_atom_site_label
_atom_site_fract_x
_atom_site_fract_y
_atom_site_fract_z
Si Si1 0.602958 0.288570 0.419865
Si Si2 0.208281 0.276037 0.534405
Si Si3 0.287950 0.392644 0.110022
Si Si4 0.277073 0.755735 0.198168
Si Si5 0.650384 0.554917 0.127370
Si Si6 0.487313 0.121788 0.085935
Si Si7 0.078229 0.890732 0.793527
Si Si8 0.686341 0.266134 0.505244
O O1 0.676629 0.427508 0.185064
O O2 0.695894 0.234814 0.346555
O O3 0.517090 0.125792 0.531450
O O4 0.462112 0.385891 0.756186
O O5 0.238471 0.348540 0.342737
O O6 0.354725 0.243920 0.312269
O O7 0.136907 0.085672 0.663971
O O8 0.091217 0.386459 0.841434
O O9 0.244525 0.592668 0.176783
O O10 0.255680 0.231459 0.084972
O O11 0.137349 0.790356 0.559993
O O12 0.324825 0.930245 0.034919
O O13 0.409369 0.699097 0.019126
O O14 0.408008 0.941952 0.278365
O O15 0.594177 0.118717 0.757932
O O16 0.161467 0.803381 0.737601
#
# Coordination Sequence:
#
# PCOD9114551 Si02
#       8
#     2   2   2   2   2   2   2   2
#     4  10  19  35  52  83 112 141 188 234 271 325
#     4  11  19  37  49  86 115 153 182 228 276 348
#     4  10  20  34  54  80 114 143 184 229 276 328
#     4  11  19  36  56  87 112 153 176 237 282 330
#     4  10  21  34  54  83 114 144 190 233 276 326
#     4  10  18  30  55  76 117 140 180 224 288 329
#     4  10  22  33  56  82 121 148 189 220 286 340
#     4  10  20  33  52  85 111 148 179 233 277 336
#
# _framework density 20.050744999999999
#
# number of rings (size 3 to 8) (size 9 to 14) (size 15 to 20)
#    0.750    1.000    3.750    1.500    3.500    1.000 
#    0.000    0.000    0.000    0.000   16.250    0.000 
#    0.000    0.000    0.000    0.000    0.000    0.000 
#
# Total GULP energy -89140.631952 kJ/mol
# GULP energy per Si atom -5571.289497 kJ/mol
# Density = 2.000511 g / cm^3
# Si number density = 20.050745 Si / 1000 Ang^3
#
#
#
# Elastic Constant Matrix: (Units=GPa)
#
#
# Indices 1 2 3 4 5 6 
#
# 1 43.6350 10.3560 12.0100 0.0000 8.9154 0.0000
# 2 10.3560 95.6865 10.3805 0.0000 3.9205 0.0000
# 3 12.0100 10.3805 76.9721 0.0000 4.4259 0.0000
# 4 0.0000 0.0000 0.0000 34.2764 0.0000 11.6292
# 5 8.9154 3.9205 4.4259 0.0000 15.7849 0.0000
# 6 0.0000 0.0000 0.0000 11.6292 0.0000 15.4913
#
#
#
# Elastic Compliance Matrix: (Units=1/GPa)
#
#
# Indices 1 2 3 4 5 6 
#
# 1 0.027111 -0.002021 -0.003157 0.000000 -0.013925 0.000000
# 2 -0.002021 0.010837 -0.001074 0.000000 -0.001249 0.000000
# 3 -0.003157 -0.001074 0.013733 0.000000 -0.001801 0.000000
# 4 0.000000 0.000000 0.000000 0.039144 0.000000 -0.029385
# 5 -0.013925 -0.001249 -0.001801 0.000000 0.072032 0.000000
# 6 0.000000 0.000000 0.000000 -0.029385 0.000000 0.086612
#
#
# Mechanical properties :
#
#
# Convention : Reuss Voigt Hill
#
# Bulk Modulus (GPa) = 25.52559 31.30962 28.41761
# Shear Modulus (GPa) = 18.17965 25.34698 21.76331
#
# Velocity S-wave (km/s) = 3.01438 3.55933 3.29813
# Velocity P-wave (km/s) = 4.98733 5.70446 5.35791
#
# Compressibility (1/GPa) = 0.03917637
#
# Stress axis : x y z
#
# Youngs Moduli (GPa) = 36.88509 92.27424 72.81878
#
# Poissons Ratio (x) = 0.18650 0.22988
# Poissons Ratio (y) = 0.07455 0.07823
# Poissons Ratio (z) = 0.11644 0.09913
#
# Static dielectric constant tensor:
#      x y z
#    x 1.721660 0.000000 0.015870 
#    y 0.000000 1.781870 0.000000 
#    z 0.015870 0.000000 1.704930 
# 
# From -- ./inp_files/13136.got.cif
#   From: 2010.05.17/outbox.cif.g08.bks.cpg/sg4_7_cif.got.tgz:13136.got - 2010.06.03 18:43:04.
