data_PCOD9114876
_publ_section_title
;
Structure prediction by ZEFSAII (Michael W. Deem and Ramdas Pophale) SiO2 
 PCOD9114876
Probable space group: P 21
;
_chemical_formula_sum "Si O2"
_cell_formula_units_Z 16
_cell_length_a 11.336715
_cell_length_b 6.590099
_cell_length_c 8.741388
_cell_angle_alpha 90.000000
_cell_angle_beta 102.322295
_cell_angle_gamma 90.000000
_cell_volume 638.024721
_symmetry_space_group_name_H-M "P 21"
_symmetry_group_IT_number 4
_symmetry_cell_setting 'monoclinic'
loop_
_space_group_symop_operation_xyz
x,y,z
-x,1/2+y,-z
loop_
_atom_site_type_symbol
_atom_site_label
_atom_site_fract_x
_atom_site_fract_y
_atom_site_fract_z
Si Si1 0.760457 0.324130 0.940990
Si Si2 0.173050 0.455688 0.827865
Si Si3 0.050265 0.776837 0.603506
Si Si4 0.571458 0.676121 0.899442
Si Si5 0.050134 0.058213 0.869459
Si Si6 0.582734 0.825891 0.239166
Si Si7 0.606027 0.060266 0.691428
Si Si8 0.164759 0.521361 0.389424
O O1 0.762210 0.132618 0.056269
O O2 0.681217 0.521467 0.960943
O O3 0.895128 0.414538 0.985565
O O4 0.693192 0.242202 0.773775
O O5 0.069942 0.577554 0.710028
O O6 0.108617 0.276492 0.899381
O O7 0.276317 0.358290 0.750067
O O8 0.122613 0.720399 0.471793
O O9 0.099618 0.960755 0.721479
O O10 0.910040 0.834919 0.555439
O O11 0.532767 0.742706 0.058951
O O12 0.475269 0.549569 0.774098
O O13 0.603013 0.873486 0.808732
O O14 0.907453 0.038959 0.794246
O O15 0.524706 0.668588 0.344762
O O16 0.692132 0.988932 0.576609
#
# Coordination Sequence:
#
# PCOD9114876 Si02
#       8
#     2   2   2   2   2   2   2   2
#     4  10  19  36  55  94 123 162 199 242 310 365
#     4  11  19  38  65  90 120 161 214 244 310 377
#     4   9  22  40  67  84 111 162 211 262 310 369
#     4  11  19  35  57  88 125 172 200 236 300 379
#     4   9  20  37  63  90 115 162 199 259 305 375
#     4  11  20  33  62  87 127 164 202 242 304 377
#     4  11  23  37  60  93 130 160 203 260 302 377
#     4  10  22  46  63  90 117 159 216 259 319 361
#
# _framework density 25.077399
#
# number of rings (size 3 to 8) (size 9 to 14) (size 15 to 20)
#    0.750    1.000    3.750    1.500    0.000    0.000 
#   13.500    0.000    5.500    0.000    0.000    0.000 
#    0.000    0.000    0.000    0.000    0.000    0.000 
#
# Total GULP energy -89194.855646 kJ/mol
# GULP energy per Si atom -5574.678478 kJ/mol
# Density = 2.502032 g / cm^3
# Si number density = 25.077399 Si / 1000 Ang^3
#
#
#
# Elastic Constant Matrix: (Units=GPa)
#
#
# Indices 1 2 3 4 5 6 
#
# 1 150.2020 62.5041 17.2598 0.0000 -22.3988 0.0000
# 2 62.5041 127.2056 19.1591 0.0000 -5.9586 0.0000
# 3 17.2598 19.1591 33.7904 0.0000 -6.1271 0.0000
# 4 0.0000 0.0000 0.0000 27.0769 0.0000 13.6934
# 5 -22.3988 -5.9586 -6.1271 0.0000 37.6934 0.0000
# 6 0.0000 0.0000 0.0000 13.6934 0.0000 43.6552
#
#
#
# Elastic Compliance Matrix: (Units=1/GPa)
#
#
# Indices 1 2 3 4 5 6 
#
# 1 0.009218 -0.004079 -0.001565 0.000000 0.004578 0.000000
# 2 -0.004079 0.010413 -0.004082 0.000000 -0.001441 0.000000
# 3 -0.001565 -0.004082 0.033407 0.000000 0.003855 0.000000
# 4 0.000000 0.000000 0.000000 0.043895 0.000000 -0.013769
# 5 0.004578 -0.001441 0.003855 0.000000 0.029649 0.000000
# 6 0.000000 0.000000 0.000000 -0.013769 0.000000 0.027226
#
#
# Mechanical properties :
#
#
# Convention : Reuss Voigt Hill
#
# Bulk Modulus (GPa) = 29.77506 56.56046 43.16776
# Shear Modulus (GPa) = 27.10690 35.83678 31.47184
#
# Velocity S-wave (km/s) = 3.29132 3.78438 3.54642
# Velocity P-wave (km/s) = 5.13252 6.45745 5.83273
#
# Compressibility (1/GPa) = 0.03358515
#
# Stress axis : x y z
#
# Youngs Moduli (GPa) = 108.48662 96.03523 29.93369
#
# Poissons Ratio (x) = 0.39173 0.04686
# Poissons Ratio (y) = 0.44252 0.12219
# Poissons Ratio (z) = 0.16982 0.39201
#
# Static dielectric constant tensor:
#      x y z
#    x 2.055760 0.000000 -0.041800 
#    y 0.000000 1.966630 0.000000 
#    z -0.041800 0.000000 2.106860 
# 
# From -- ./inp_files/11762.got.cif
#   From: 2010.05.17/outbox.cif.g08.bks.cpg/sg4_6_cif.got.tgz:11762.got - 2010.06.03 18:43:04.
