data_PCOD9114373
_publ_section_title
;
Structure prediction by ZEFSAII (Michael W. Deem and Ramdas Pophale) SiO2 
 PCOD9114373
Probable space group: P 2
;
_chemical_formula_sum "Si O2"
_cell_formula_units_Z 14
_cell_length_a 11.807325
_cell_length_b 9.214840
_cell_length_c 8.822844
_cell_angle_alpha 90.000000
_cell_angle_beta 38.155866
_cell_angle_gamma 90.000000
_cell_volume 593.058923
_symmetry_space_group_name_H-M "P 2"
_symmetry_group_IT_number 3
_symmetry_cell_setting 'monoclinic'
loop_
_space_group_symop_operation_xyz
x,y,z
-x,y,-z
loop_
_atom_site_type_symbol
_atom_site_label
_atom_site_fract_x
_atom_site_fract_y
_atom_site_fract_z
Si Si1 0.218013 0.330810 0.916946
Si Si2 0.337688 0.616080 0.928850
Si Si3 0.742823 0.525238 0.429018
Si Si4 0.500000 0.103084 0.500000
Si Si5 0.500000 0.783408 0.000000
Si Si6 0.113443 0.276843 0.535964
Si Si7 0.285433 0.991110 0.442181
Si Si8 0.015358 0.796974 0.148491
O O1 0.253111 0.456530 0.003792
O O2 0.227246 0.424811 0.751384
O O3 0.371882 0.208932 0.736037
O O4 0.029927 0.259487 0.171613
O O5 0.540989 0.593562 0.647456
O O6 0.351102 0.677880 0.083192
O O7 0.215378 0.736052 0.972670
O O8 0.779761 0.423423 0.534228
O O9 0.888701 0.653610 0.276744
O O10 0.369529 0.016111 0.521534
O O11 0.422335 0.885896 0.211004
O O12 0.000000 0.277858 0.500000
O O13 0.256381 0.145638 0.394355
O O14 0.087299 0.912096 0.639471
O O15 0.000000 0.865431 0.000000
#
# Coordination Sequence:
#
# PCOD9114373 Si02
#       8
#     2   2   2   1   1   2   2   2
#     4  12  24  48  82 115 155 202 274 343 392 468
#     4  12  26  47  81 111 160 203 266 336 397 473
#     4  12  23  51  78 120 150 203 273 335 389 467
#     4  12  28  48  82 114 156 216 284 336 404 476
#     4  12  32  52  76 114 166 220 260 324 416 494
#     4  12  29  48  77 115 168 212 261 331 422 487
#     4  12  31  51  75 113 166 215 270 324 410 490
#     4  12  27  44  79 116 152 200 264 328 399 465
#
# _framework density 23.606422999999999
#
# number of rings (size 3 to 8) (size 9 to 14) (size 15 to 20)
#    0.000    0.000    7.143    0.429   10.000    0.000 
#    0.000    0.000    0.000    0.000    0.000    0.000 
#    0.000    0.000    0.000    0.000    0.000    0.000 
#
# Total GULP energy -78348.652543 kJ/mol
# GULP energy per Si atom -5596.332324 kJ/mol
# Density = 2.355269 g / cm^3
# Si number density = 23.606423 Si / 1000 Ang^3
#
#
#
# Elastic Constant Matrix: (Units=GPa)
#
#
# Indices 1 2 3 4 5 6 
#
# 1 124.0512 36.7345 13.1061 0.0000 -2.0963 0.0000
# 2 36.7345 85.7047 34.5651 0.0000 12.4712 0.0000
# 3 13.1061 34.5651 54.6909 0.0000 -19.3454 0.0000
# 4 0.0000 0.0000 0.0000 42.6226 0.0000 -9.4422
# 5 -2.0963 12.4712 -19.3454 0.0000 32.5580 0.0000
# 6 0.0000 0.0000 0.0000 -9.4422 0.0000 30.7956
#
#
#
# Elastic Compliance Matrix: (Units=1/GPa)
#
#
# Indices 1 2 3 4 5 6 
#
# 1 0.009634 -0.006243 0.003422 0.000000 0.005045 0.000000
# 2 -0.006243 0.028960 -0.026427 0.000000 -0.027197 0.000000
# 3 0.003422 -0.026427 0.047891 0.000000 0.038799 0.000000
# 4 0.000000 0.000000 0.000000 0.025171 0.000000 0.007718
# 5 0.005045 -0.027197 0.038799 0.000000 0.064511 0.000000
# 6 0.000000 0.000000 0.000000 0.007718 0.000000 0.034838
#
#
# Mechanical properties :
#
#
# Convention : Reuss Voigt Hill
#
# Bulk Modulus (GPa) = 35.73086 48.13979 41.93533
# Shear Modulus (GPa) = 17.93204 33.19798 25.56501
#
# Velocity S-wave (km/s) = 2.75912 3.75415 3.29442
# Velocity P-wave (km/s) = 5.03182 6.26326 5.68101
#
# Compressibility (1/GPa) = 0.02798701
#
# Stress axis : x y z
#
# Youngs Moduli (GPa) = 103.80229 34.53091 20.88089
#
# Poissons Ratio (x) = 0.21558 -0.07145
# Poissons Ratio (y) = 0.64806 0.55182
# Poissons Ratio (z) = -0.35517 0.91254
#
# Static dielectric constant tensor:
#      x y z
#    x 1.929280 0.000000 0.011840 
#    y 0.000000 1.850700 0.000000 
#    z 0.011840 0.000000 1.909700 
# 
# From -- ./inp_files/7339.got.cif
#   From: 2010.05.17/outbox.cif.g08.bks.cpg/sg3_4_cif.got.tgz:7339.got - 2010.06.03 18:33:08.
