data_PCOD9114898
_publ_section_title
;
Structure prediction by ZEFSAII (Michael W. Deem and Ramdas Pophale) SiO2 
 PCOD9114898
Probable space group: P 21
;
_chemical_formula_sum "Si O2"
_cell_formula_units_Z 16
_cell_length_a 32.570699
_cell_length_b 5.379706
_cell_length_c 13.524568
_cell_angle_alpha 90.000000
_cell_angle_beta 18.025607
_cell_angle_gamma 90.000000
_cell_volume 733.311177
_symmetry_space_group_name_H-M "P 21"
_symmetry_group_IT_number 4
_symmetry_cell_setting 'monoclinic'
loop_
_space_group_symop_operation_xyz
x,y,z
-x,1/2+y,-z
loop_
_atom_site_type_symbol
_atom_site_label
_atom_site_fract_x
_atom_site_fract_y
_atom_site_fract_z
Si Si1 0.814160 0.525170 0.061747
Si Si2 0.599182 0.084531 0.902664
Si Si3 0.882749 0.896016 0.622543
Si Si4 0.567170 0.400771 0.244135
Si Si5 0.290949 0.398146 0.156108
Si Si6 0.738346 0.393767 0.029023
Si Si7 0.629359 0.915027 0.467362
Si Si8 0.356979 0.813509 0.388547
O O1 0.778924 0.810716 0.120731
O O2 0.753291 0.488277 0.309625
O O3 0.728451 0.397246 0.169957
O O4 0.961821 0.430142 0.715443
O O5 0.678403 0.244960 0.641810
O O6 0.692906 0.940694 0.764112
O O7 0.486753 0.229517 0.223800
O O8 0.506540 0.917402 0.044587
O O9 0.847128 0.895916 0.586884
O O10 0.824593 0.637905 0.799578
O O11 0.813541 0.144557 0.823724
O O12 0.423111 0.435748 0.525479
O O13 0.643937 0.633853 0.019398
O O14 0.599899 0.418980 0.285818
O O15 0.631610 0.137598 0.065982
O O16 0.632297 0.111235 0.548729
#
# Coordination Sequence:
#
# PCOD9114898 Si02
#       8
#     2   2   2   2   2   2   2   2
#     4  11  25  37  57  93 122 159 204 256 309 357
#     4  10  19  36  60  85 111 159 201 238 309 364
#     4  10  22  41  66  85 121 163 210 248 303 362
#     4   9  18  37  58  88 115 154 202 238 305 355
#     4   9  18  35  64  85 111 154 206 250 283 366
#     4  10  22  41  64  88 117 170 204 249 297 371
#     4  10  21  36  56  84 121 150 188 255 297 364
#     4  11  21  35  59  84 120 155 197 250 305 365
#
# _framework density 21.818840999999999
#
# number of rings (size 3 to 8) (size 9 to 14) (size 15 to 20)
#    0.000    2.000    2.500    0.750    3.500    0.000 
#    2.250    0.000    2.750    0.000    0.000    0.000 
#    0.000    0.000    0.000    0.000    0.000    0.000 
#
# Total GULP energy -89204.927500 kJ/mol
# GULP energy per Si atom -5575.307969 kJ/mol
# Density = 2.176918 g / cm^3
# Si number density = 21.818841 Si / 1000 Ang^3
#
#
#
# Elastic Constant Matrix: (Units=GPa)
#
#
# Indices 1 2 3 4 5 6 
#
# 1 130.8924 7.5411 52.7612 0.0000 13.4002 0.0000
# 2 7.5411 74.0275 23.1466 0.0000 -2.3998 0.0000
# 3 52.7612 23.1466 57.6034 0.0000 -2.1882 0.0000
# 4 0.0000 0.0000 0.0000 20.6814 0.0000 3.7670
# 5 13.4002 -2.3998 -2.1882 0.0000 31.2482 0.0000
# 6 0.0000 0.0000 0.0000 3.7670 0.0000 36.8524
#
#
#
# Elastic Compliance Matrix: (Units=1/GPa)
#
#
# Indices 1 2 3 4 5 6 
#
# 1 0.013817 0.002759 -0.014018 0.000000 -0.006695 0.000000
# 2 0.002759 0.016018 -0.008985 0.000000 -0.000582 0.000000
# 3 -0.014018 -0.008985 0.034103 0.000000 0.007710 0.000000
# 4 0.000000 0.000000 0.000000 0.049270 0.000000 -0.005036
# 5 -0.006695 -0.000582 0.007710 0.000000 0.035368 0.000000
# 6 0.000000 0.000000 0.000000 -0.005036 0.000000 0.027650
#
#
# Mechanical properties :
#
#
# Convention : Reuss Voigt Hill
#
# Bulk Modulus (GPa) = 42.64678 47.71345 45.18012
# Shear Modulus (GPa) = 22.26851 29.69472 25.98161
#
# Velocity S-wave (km/s) = 3.19816 3.69313 3.45452
# Velocity P-wave (km/s) = 5.76420 6.33254 6.05504
#
# Compressibility (1/GPa) = 0.02344843
#
# Stress axis : x y z
#
# Youngs Moduli (GPa) = 72.37501 62.42945 29.32265
#
# Poissons Ratio (x) = -0.17222 0.41105
# Poissons Ratio (y) = -0.19965 0.26347
# Poissons Ratio (z) = 1.01457 0.56095
#
# Static dielectric constant tensor:
#      x y z
#    x 1.874200 0.000000 0.016390 
#    y 0.000000 1.999900 0.000000 
#    z 0.016390 0.000000 1.754730 
# 
# From -- ./inp_files/11518.got.cif
#   From: 2010.05.17/outbox.cif.g08.bks.cpg/sg4_6_cif.got.tgz:11518.got - 2010.06.03 18:43:04.
