data_PCOD9114521
_publ_section_title
;
Structure prediction by ZEFSAII (Michael W. Deem and Ramdas Pophale) SiO2 
 PCOD9114521
Probable space group: P 21
;
_chemical_formula_sum "Si O2"
_cell_formula_units_Z 16
_cell_length_a 8.217927
_cell_length_b 5.065665
_cell_length_c 19.240246
_cell_angle_alpha 90.000000
_cell_angle_beta 63.214386
_cell_angle_gamma 90.000000
_cell_volume 715.013782
_symmetry_space_group_name_H-M "P 21"
_symmetry_group_IT_number 4
_symmetry_cell_setting 'monoclinic'
loop_
_space_group_symop_operation_xyz
x,y,z
-x,1/2+y,-z
loop_
_atom_site_type_symbol
_atom_site_label
_atom_site_fract_x
_atom_site_fract_y
_atom_site_fract_z
Si Si1 0.047700 0.970050 0.333057
Si Si2 0.094781 0.086888 0.906194
Si Si3 0.889006 0.863228 0.500974
Si Si4 0.445728 0.735840 0.119527
Si Si5 0.054713 0.926615 0.174018
Si Si6 0.716050 0.965195 0.668454
Si Si7 0.423450 0.745460 0.824852
Si Si8 0.236255 0.295451 0.026328
O O1 0.989583 0.988478 0.264154
O O2 0.203581 0.745571 0.320041
O O3 0.887373 0.907828 0.418856
O O4 0.137300 0.250002 0.333619
O O5 0.102472 0.289939 0.841120
O O6 0.211114 0.827918 0.863673
O O7 0.164961 0.164873 0.968201
O O8 0.876732 0.064110 0.955581
O O9 0.050192 0.063281 0.495583
O O10 0.724733 0.946449 0.583089
O O11 0.230528 0.744744 0.156204
O O12 0.496066 0.441479 0.131911
O O13 0.522222 0.952155 0.160750
O O14 0.550294 0.809699 0.028294
O O15 0.155134 0.151364 0.108887
O O16 0.528215 0.858504 0.737216
#
# Coordination Sequence:
#
# PCOD9114521 Si02
#       8
#     2   2   2   2   2   2   2   2
#     4  10  20  35  56  93 120 148 196 255 307 351
#     4  11  25  41  59  82 118 166 203 250 308 377
#     4   8  16  29  55  85 122 150 183 239 306 365
#     4  11  26  40  64  87 118 152 207 265 304 352
#     4  12  25  39  61  90 118 157 205 267 305 356
#     4  10  17  36  58  90 121 155 191 242 307 374
#     4  11  22  42  62  88 122 158 201 249 305 375
#     4  11  25  42  59  77 117 160 206 245 310 366
#
# _framework density 22.377191
#
# number of rings (size 3 to 8) (size 9 to 14) (size 15 to 20)
#    0.000    1.500    3.750    0.750    8.750    0.000 
#    0.000    0.000    0.000    0.000    3.250    0.000 
#    0.000    0.000    0.000    0.000    0.000    0.000 
#
# Total GULP energy -89227.247525 kJ/mol
# GULP energy per Si atom -5576.702970 kJ/mol
# Density = 2.232626 g / cm^3
# Si number density = 22.377191 Si / 1000 Ang^3
#
#
#
# Elastic Constant Matrix: (Units=GPa)
#
#
# Indices 1 2 3 4 5 6 
#
# 1 30.3779 10.0682 22.3704 0.0000 5.2297 0.0000
# 2 10.0682 77.5277 5.9512 0.0000 9.3485 0.0000
# 3 22.3704 5.9512 191.5426 0.0000 18.4303 0.0000
# 4 0.0000 0.0000 0.0000 31.8359 0.0000 2.5273
# 5 5.2297 9.3485 18.4303 0.0000 25.2691 0.0000
# 6 0.0000 0.0000 0.0000 2.5273 0.0000 26.6327
#
#
#
# Elastic Compliance Matrix: (Units=1/GPa)
#
#
# Indices 1 2 3 4 5 6 
#
# 1 0.037809 -0.004198 -0.003960 0.000000 -0.003384 0.000000
# 2 -0.004198 0.013968 0.000505 0.000000 -0.004667 0.000000
# 3 -0.003960 0.000505 0.006030 0.000000 -0.003765 0.000000
# 4 0.000000 0.000000 0.000000 0.031649 0.000000 -0.003003
# 5 -0.003384 -0.004667 -0.003765 0.000000 0.044747 0.000000
# 6 0.000000 0.000000 0.000000 -0.003003 0.000000 0.037833
#
#
# Mechanical properties :
#
#
# Convention : Reuss Voigt Hill
#
# Bulk Modulus (GPa) = 23.52855 41.80307 32.66581
# Shear Modulus (GPa) = 24.81297 34.15145 29.48221
#
# Velocity S-wave (km/s) = 3.33355 3.91086 3.63369
# Velocity P-wave (km/s) = 5.03529 6.25418 5.67754
#
# Compressibility (1/GPa) = 0.04250155
#
# Stress axis : x y z
#
# Youngs Moduli (GPa) = 26.44907 71.59328 165.84228
#
# Poissons Ratio (x) = 0.30055 0.65668
# Poissons Ratio (y) = 0.11103 -0.08382
# Poissons Ratio (z) = 0.10473 -0.03618
#
# Static dielectric constant tensor:
#      x y z
#    x 1.879280 0.000000 0.007270 
#    y 0.000000 1.886750 0.000000 
#    z 0.007270 0.000000 1.942790 
# 
# From -- ./inp_files/8693.got.cif
#   From: 2010.05.17/outbox.cif.g08.bks.cpg/sg4_5_cif.got.tgz:8693.got - 2010.06.03 18:43:04.
