data_PCOD9114072
_publ_section_title
;
Structure prediction by ZEFSAII (Michael W. Deem and Ramdas Pophale) SiO2 
 PCOD9114072
Probable space group: P 2
;
_chemical_formula_sum "Si O2"
_cell_formula_units_Z 15
_cell_length_a 18.734581
_cell_length_b 7.033667
_cell_length_c 5.536015
_cell_angle_alpha 90.000000
_cell_angle_beta 54.387459
_cell_angle_gamma 90.000000
_cell_volume 593.060968
_symmetry_space_group_name_H-M "P 2"
_symmetry_group_IT_number 3
_symmetry_cell_setting 'monoclinic'
loop_
_space_group_symop_operation_xyz
x,y,z
-x,y,-z
loop_
_atom_site_type_symbol
_atom_site_label
_atom_site_fract_x
_atom_site_fract_y
_atom_site_fract_z
Si Si1 0.052344 0.932710 0.640852
Si Si2 0.172345 0.791189 0.741045
Si Si3 0.420376 0.080860 0.823248
Si Si4 0.500000 0.408610 0.000000
Si Si5 0.720937 0.370033 0.926223
Si Si6 0.841344 0.207916 0.326802
Si Si7 0.905401 0.471446 0.813788
Si Si8 0.357498 0.693026 0.196421
O O1 0.886332 0.680503 0.955558
O O2 0.000000 0.926709 0.500000
O O3 0.108913 0.125176 0.536247
O O4 0.124215 0.772867 0.571738
O O5 0.095334 0.340469 0.947045
O O6 0.269592 0.718493 0.522383
O O7 0.177410 0.015175 0.782010
O O8 0.000000 0.941191 0.000000
O O9 0.500000 0.009617 0.500000
O O10 0.390357 0.901551 0.046211
O O11 0.462671 0.260875 0.879469
O O12 0.336535 0.190157 0.867908
O O13 0.423902 0.559273 0.213975
O O14 0.753513 0.305385 0.593116
O O15 0.811871 0.414971 0.879747
O O16 0.667250 0.564388 0.989767
O O17 0.000000 0.463775 0.500000
#
# Coordination Sequence:
#
# PCOD9114072 Si02
#       8
#     2   2   2   1   2   2   2   2
#     4  10  25  45  76 113 159 219 291 350 414 497
#     4  10  25  47  78 109 162 216 276 348 419 501
#     4  11  25  48  78 121 157 216 267 337 430 511
#     4  10  26  46  82 112 158 202 266 344 404 526
#     4  11  26  45  76 113 165 209 279 347 418 522
#     4  10  25  48  74 109 156 227 269 349 417 502
#     4  12  29  49  78 121 165 223 291 355 424 501
#     4  11  23  51  74 113 162 204 272 340 430 508
#
# _framework density 25.292507000000001
#
# number of rings (size 3 to 8) (size 9 to 14) (size 15 to 20)
#    0.800    0.533    2.667    0.400    5.600    6.400 
#    4.800    0.667    0.000    0.000    0.000    0.000 
#    0.000    0.000    0.000    0.000    0.000    0.000 
#
# Total GULP energy -83780.177417 kJ/mol
# GULP energy per Si atom -5585.345161 kJ/mol
# Density = 2.523494 g / cm^3
# Si number density = 25.292507 Si / 1000 Ang^3
#
#
#
# Elastic Constant Matrix: (Units=GPa)
#
#
# Indices 1 2 3 4 5 6 
#
# 1 102.3934 37.8752 24.7874 0.0000 -21.6155 0.0000
# 2 37.8752 150.0955 44.2406 0.0000 -10.4908 0.0000
# 3 24.7874 44.2406 123.8455 0.0000 -16.1667 0.0000
# 4 0.0000 0.0000 0.0000 35.6582 0.0000 -13.6377
# 5 -21.6155 -10.4908 -16.1667 0.0000 29.5738 0.0000
# 6 0.0000 0.0000 0.0000 -13.6377 0.0000 28.1702
#
#
#
# Elastic Compliance Matrix: (Units=1/GPa)
#
#
# Indices 1 2 3 4 5 6 
#
# 1 0.012481 -0.002418 -0.000598 0.000000 0.007938 0.000000
# 2 -0.002418 0.007960 -0.002392 0.000000 -0.000252 0.000000
# 3 -0.000598 -0.002392 0.009563 0.000000 0.003942 0.000000
# 4 0.000000 0.000000 0.000000 0.034416 0.000000 0.016661
# 5 0.007938 -0.000252 0.003942 0.000000 0.041681 0.000000
# 6 0.000000 0.000000 0.000000 0.016661 0.000000 0.043565
#
#
# Mechanical properties :
#
#
# Convention : Reuss Voigt Hill
#
# Bulk Modulus (GPa) = 52.11772 65.57121 58.84446
# Shear Modulus (GPa) = 29.96155 36.64253 33.30204
#
# Velocity S-wave (km/s) = 3.44554 3.81037 3.63254
# Velocity P-wave (km/s) = 6.03984 6.73350 6.39608
#
# Compressibility (1/GPa) = 0.01918733
#
# Stress axis : x y z
#
# Youngs Moduli (GPa) = 80.12003 125.62389 104.56424
#
# Poissons Ratio (x) = 0.30382 0.06253
# Poissons Ratio (y) = 0.19377 0.25016
# Poissons Ratio (z) = 0.04791 0.30054
#
# Static dielectric constant tensor:
#      x y z
#    x 2.158130 0.000000 -0.011990 
#    y 0.000000 2.056540 0.000000 
#    z -0.011990 0.000000 2.021470 
# 
# From -- ./inp_files/9321.got.cif
#   From: 2010.05.17/outbox.cif.g08.bks.cpg/sg3_5_cif.got.tgz:9321.got - 2010.06.03 18:33:08.
