data_PCOD9114144
_publ_section_title
;
Structure prediction by ZEFSAII (Michael W. Deem and Ramdas Pophale) SiO2 
 PCOD9114144
Probable space group: P 2
;
_chemical_formula_sum "Si O2"
_cell_formula_units_Z 10
_cell_length_a 5.065087
_cell_length_b 8.980706
_cell_length_c 11.055705
_cell_angle_alpha 90.000000
_cell_angle_beta 90.252869
_cell_angle_gamma 90.000000
_cell_volume 502.897644
_symmetry_space_group_name_H-M "P 2"
_symmetry_group_IT_number 3
_symmetry_cell_setting 'monoclinic'
loop_
_space_group_symop_operation_xyz
x,y,z
-x,y,-z
loop_
_atom_site_type_symbol
_atom_site_label
_atom_site_fract_x
_atom_site_fract_y
_atom_site_fract_z
Si Si1 0.055910 0.206190 0.870653
Si Si2 0.446120 0.998251 0.128752
Si Si3 0.000000 0.704351 0.500000
Si Si4 0.500000 0.497960 0.500000
Si Si5 0.331335 0.927499 0.379018
Si Si6 0.833388 0.273851 0.622161
O O1 0.847466 0.067895 0.872879
O O2 0.987890 0.293570 0.748038
O O3 0.347053 0.135963 0.864641
O O4 0.000000 0.283280 0.000000
O O5 0.473653 0.905428 0.251354
O O6 0.500000 0.922658 0.000000
O O7 0.250038 0.601025 0.529482
O O8 0.087426 0.815647 0.392999
O O9 0.592604 0.388099 0.607524
O O10 0.500000 0.902741 0.500000
O O11 0.254409 0.101503 0.381654
O O12 0.000000 0.295836 0.500000
#
# Coordination Sequence:
#
# PCOD9114144 Si02
#       6
#     2   2   1   1   2   2
#     4   9  19  33  54  90 128 153 188 251 312 352
#     4   9  19  33  54  90 128 153 188 251 312 352
#     4  12  26  40  56  92 130 164 194 252 316 360
#     4  12  26  40  56  92 130 164 194 252 316 360
#     4  11  21  36  65  93 121 156 209 254 297 354
#     4  11  21  36  65  93 121 156 209 254 297 354
#
# _framework density 19.884761999999998
#
# number of rings (size 3 to 8) (size 9 to 14) (size 15 to 20)
#    0.000    1.600    4.000    1.200    5.600    0.000 
#    0.000    0.000    0.000    0.000   10.400    0.000 
#    0.000    0.000    0.000    0.000    0.000    0.000 
#
# Total GULP energy -55756.173651 kJ/mol
# GULP energy per Si atom -5575.617365 kJ/mol
# Density = 1.983950 g / cm^3
# Si number density = 19.884762 Si / 1000 Ang^3
#
#
#
# Elastic Constant Matrix: (Units=GPa)
#
#
# Indices 1 2 3 4 5 6 
#
# 1 96.6310 38.7736 34.6002 0.0000 3.7803 0.0000
# 2 38.7736 97.1052 29.0841 0.0000 -0.9049 0.0000
# 3 34.6002 29.0841 201.0743 0.0000 -2.7447 0.0000
# 4 0.0000 0.0000 0.0000 -4.1773 0.0000 -1.4869
# 5 3.7803 -0.9049 -2.7447 0.0000 33.3820 0.0000
# 6 0.0000 0.0000 0.0000 -1.4869 0.0000 25.8617
#
#
#
# Elastic Compliance Matrix: (Units=1/GPa)
#
#
# Indices 1 2 3 4 5 6 
#
# 1 0.012852 -0.004681 -0.001558 0.000000 -0.001710 0.000000
# 2 -0.004681 0.012470 -0.000988 0.000000 0.000787 0.000000
# 3 -0.001558 -0.000988 0.005392 0.000000 0.000593 0.000000
# 4 0.000000 0.000000 0.000000 -0.234587 0.000000 -0.013488
# 5 -0.001710 0.000787 0.000593 0.000000 0.030220 0.000000
# 6 0.000000 0.000000 0.000000 -0.013488 0.000000 0.037892
#
#
# Mechanical properties :
#
#
# Convention : Reuss Voigt Hill
#
# Bulk Modulus (GPa) = 61.49407 66.63626 64.06517
# Shear Modulus (GPa) = -43.14525 30.50344 -6.32091
#
# Velocity S-wave (km/s) = -4.66313 3.92089 -1.78484
# Velocity P-wave (km/s) = 1.41399 7.35404 5.29534
#
# Compressibility (1/GPa) = 0.01626173
#
# Stress axis : x y z
#
# Youngs Moduli (GPa) = 77.81139 80.19052 185.45065
#
# Poissons Ratio (x) = 0.37537 0.28888
# Poissons Ratio (y) = 0.36423 0.18314
# Poissons Ratio (z) = 0.12121 0.07919
#
# Static dielectric constant tensor:
#      x y z
#    x 1.782210 0.000000 0.002220 
#    y 0.000000 1.696630 0.000000 
#    z 0.002220 0.000000 1.778870 
# 
# From -- ./inp_files/2010.got.cif
#   From: 2010.05.17/outbox.cif.g08.bks.cpg/sg3_2_cif.got.tgz:2010.got - 2010.06.03 18:33:08.
