data_PCOD9114276
_publ_section_title
;
Structure prediction by ZEFSAII (Michael W. Deem and Ramdas Pophale) SiO2 
 PCOD9114276
Probable space group: P 2
;
_chemical_formula_sum "Si O2"
_cell_formula_units_Z 15
_cell_length_a 8.421520
_cell_length_b 12.408232
_cell_length_c 8.395270
_cell_angle_alpha 90.000000
_cell_angle_beta 50.764808
_cell_angle_gamma 90.000000
_cell_volume 679.497649
_symmetry_space_group_name_H-M "P 2"
_symmetry_group_IT_number 3
_symmetry_cell_setting 'monoclinic'
loop_
_space_group_symop_operation_xyz
x,y,z
-x,y,-z
loop_
_atom_site_type_symbol
_atom_site_label
_atom_site_fract_x
_atom_site_fract_y
_atom_site_fract_z
Si Si1 0.802193 0.880190 0.726469
Si Si2 0.809916 0.677156 0.915831
Si Si3 0.778868 0.439785 0.545483
Si Si4 0.438465 0.014962 0.367331
Si Si5 0.269719 0.642439 0.660243
Si Si6 0.500000 0.499894 0.000000
Si Si7 0.858210 0.062180 0.949689
Si Si8 0.887843 0.206150 0.401410
O O1 0.727774 0.786879 0.891158
O O2 0.000000 0.846155 0.500000
O O3 0.642802 0.923456 0.698212
O O4 0.861069 0.982243 0.798391
O O5 0.054378 0.690646 0.735882
O O6 0.767037 0.649396 0.126848
O O7 0.693679 0.578602 0.906596
O O8 0.731730 0.531649 0.443394
O O9 0.797591 0.324869 0.446829
O O10 0.000000 0.456055 0.500000
O O11 0.589273 0.435603 0.791886
O O12 0.500000 0.969968 0.500000
O O13 0.275096 0.109576 0.499612
O O14 0.631985 0.068536 0.159855
O O15 0.500000 0.688651 0.500000
O O16 0.948457 0.175795 0.837065
O O17 0.000000 0.016209 0.000000
O O18 0.000000 0.201354 0.500000
#
# Coordination Sequence:
#
# PCOD9114276 Si02
#       8
#     2   2   2   2   2   1   2   2
#     4  12  26  48  74 106 152 198 251 317 386 456
#     4  11  28  45  74 108 143 200 253 313 390 450
#     4  11  25  46  77 107 151 200 251 317 394 450
#     4  12  24  48  74 107 151 191 250 316 377 458
#     4  11  24  52  72 106 149 190 253 326 378 463
#     4  12  24  48  72 110 148 192 266 318 378 466
#     4  12  24  46  71 104 149 195 252 310 364 462
#     4  11  24  47  70 109 149 199 246 310 382 450
#
# _framework density 22.075133000000001
#
# number of rings (size 3 to 8) (size 9 to 14) (size 15 to 20)
#    0.000    0.533    6.667    0.400    5.600    2.667 
#    2.400    0.000    0.000    0.000    0.000    0.000 
#    0.000    0.000    0.000    0.000    0.000    0.000 
#
# Total GULP energy -83753.159466 kJ/mol
# GULP energy per Si atom -5583.543964 kJ/mol
# Density = 2.202489 g / cm^3
# Si number density = 22.075133 Si / 1000 Ang^3
#
#
#
# Elastic Constant Matrix: (Units=GPa)
#
#
# Indices 1 2 3 4 5 6 
#
# 1 111.4364 27.6366 44.5258 0.0000 2.0226 0.0000
# 2 27.6366 79.0797 59.8648 0.0000 15.3385 0.0000
# 3 44.5258 59.8648 138.3276 0.0000 -6.4638 0.0000
# 4 0.0000 0.0000 0.0000 20.4872 0.0000 1.5476
# 5 2.0226 15.3385 -6.4638 0.0000 53.2868 0.0000
# 6 0.0000 0.0000 0.0000 1.5476 0.0000 2.2651
#
#
#
# Elastic Compliance Matrix: (Units=1/GPa)
#
#
# Indices 1 2 3 4 5 6 
#
# 1 0.010443 -0.001548 -0.002705 0.000000 -0.000279 0.000000
# 2 -0.001548 0.021522 -0.009155 0.000000 -0.007247 0.000000
# 3 -0.002705 -0.009155 0.012259 0.000000 0.004225 0.000000
# 4 0.000000 0.000000 0.000000 0.051467 0.000000 -0.035164
# 5 -0.000279 -0.007247 0.004225 0.000000 0.021375 0.000000
# 6 0.000000 0.000000 0.000000 -0.035164 0.000000 0.465512
#
#
# Mechanical properties :
#
#
# Convention : Reuss Voigt Hill
#
# Bulk Modulus (GPa) = 57.43829 65.87757 61.65793
# Shear Modulus (GPa) = 8.12747 28.32893 18.22820
#
# Velocity S-wave (km/s) = 1.92087 3.58620 2.87668
# Velocity P-wave (km/s) = 5.56737 6.85966 6.24702
#
# Compressibility (1/GPa) = 0.01740999
#
# Stress axis : x y z
#
# Youngs Moduli (GPa) = 95.75425 46.46320 81.57202
#
# Poissons Ratio (x) = 0.07194 0.22062
# Poissons Ratio (y) = 0.14825 0.74676
# Poissons Ratio (z) = 0.25897 0.42535
#
# Static dielectric constant tensor:
#      x y z
#    x 1.882690 0.000000 -0.048680 
#    y 0.000000 1.794920 0.000000 
#    z -0.048680 0.000000 1.831450 
# 
# From -- ./inp_files/5958.got.cif
#   From: 2010.05.17/outbox.cif.g08.bks.cpg/sg3_3_cif.got.tgz:5958.got - 2010.06.03 18:33:08.
