data_PCOD9114299
_publ_section_title
;
Structure prediction by ZEFSAII (Michael W. Deem and Ramdas Pophale) SiO2 
 PCOD9114299
Probable space group: P 2
;
_chemical_formula_sum "Si O2"
_cell_formula_units_Z 8
_cell_length_a 9.157498
_cell_length_b 8.037818
_cell_length_c 9.154382
_cell_angle_alpha 90.000000
_cell_angle_beta 149.401751
_cell_angle_gamma 90.000000
_cell_volume 342.984668
_symmetry_space_group_name_H-M "P 2"
_symmetry_group_IT_number 3
_symmetry_cell_setting 'monoclinic'
loop_
_space_group_symop_operation_xyz
x,y,z
-x,y,-z
loop_
_atom_site_type_symbol
_atom_site_label
_atom_site_fract_x
_atom_site_fract_y
_atom_site_fract_z
Si Si1 0.177604 0.430460 0.001312
Si Si2 0.554801 0.933597 0.209125
Si Si3 0.995356 0.798106 0.172424
Si Si4 0.204766 0.296434 0.549919
O O1 0.119683 0.614282 0.887329
O O2 0.013560 0.290367 0.770516
O O3 0.515530 0.393262 0.271805
O O4 0.000000 0.431499 0.000000
O O5 0.737103 0.835846 0.490307
O O6 0.692689 0.115196 0.310787
O O7 0.500000 0.858635 0.000000
O O8 0.236434 0.938399 0.995201
O O9 0.000000 0.796409 0.000000
O O10 0.000000 0.372710 0.500000
#
# Coordination Sequence:
#
# PCOD9114299 Si02
#       4
#     2   2   2   2
#     4  11  25  45  70 101 136 177 229 284 339 406
#     4  12  25  44  68  99 139 180 226 281 340 406
#     4  11  25  45  70 101 136 177 229 284 339 406
#     4  12  25  44  68  99 139 180 226 281 340 406
#
# _framework density 23.324657999999999
#
# number of rings (size 3 to 8) (size 9 to 14) (size 15 to 20)
#    0.000    0.500    0.000    9.000    0.000   14.000 
#    0.000    2.500    0.000    0.000    0.000    0.000 
#    0.000    0.000    0.000    0.000    0.000    0.000 
#
# Total GULP energy -44590.601923 kJ/mol
# GULP energy per Si atom -5573.825240 kJ/mol
# Density = 2.327157 g / cm^3
# Si number density = 23.324658 Si / 1000 Ang^3
#
#
#
# Elastic Constant Matrix: (Units=GPa)
#
#
# Indices 1 2 3 4 5 6 
#
# 1 148.0784 44.3704 34.0125 0.0000 21.0987 0.0000
# 2 44.3704 83.2354 60.2249 0.0000 -8.7300 0.0000
# 3 34.0125 60.2249 218.5960 0.0000 -78.8656 0.0000
# 4 0.0000 0.0000 0.0000 7.3618 0.0000 14.8088
# 5 21.0987 -8.7300 -78.8656 0.0000 145.6356 0.0000
# 6 0.0000 0.0000 0.0000 14.8088 0.0000 -42.2904
#
#
#
# Elastic Compliance Matrix: (Units=1/GPa)
#
#
# Indices 1 2 3 4 5 6 
#
# 1 0.008456 -0.004059 -0.000904 0.000000 -0.001958 0.000000
# 2 -0.004059 0.017286 -0.004405 0.000000 -0.000761 0.000000
# 3 -0.000904 -0.004405 0.007309 0.000000 0.003825 0.000000
# 4 0.000000 0.000000 0.000000 0.079698 0.000000 0.027908
# 5 -0.001958 -0.000761 0.003825 0.000000 0.009176 0.000000
# 6 0.000000 0.000000 0.000000 0.027908 0.000000 -0.013874
#
#
# Mechanical properties :
#
#
# Convention : Reuss Voigt Hill
#
# Bulk Modulus (GPa) = 69.86180 80.79171 75.32675
# Shear Modulus (GPa) = 38.00592 42.89487 40.45040
#
# Velocity S-wave (km/s) = 4.04100 4.29305 4.16893
# Velocity P-wave (km/s) = 7.19652 7.69979 7.45240
#
# Compressibility (1/GPa) = 0.01431398
#
# Stress axis : x y z
#
# Youngs Moduli (GPa) = 118.25958 57.85158 136.81880
#
# Poissons Ratio (x) = 0.23482 0.12365
# Poissons Ratio (y) = 0.48003 0.60275
# Poissons Ratio (z) = 0.10687 0.25486
#
# Static dielectric constant tensor:
#      x y z
#    x 2.208460 0.000000 -0.060610 
#    y 0.000000 1.753540 0.000000 
#    z -0.060610 0.000000 2.003650 
# 
# From -- ./inp_files/17.got.cif
#   From: 2010.05.17/outbox.cif.g08.bks.cpg/sg3_1_cif.got.tgz:17.got - 2010.06.03 18:33:08.
