data_PCOD9114087
_publ_section_title
;
Structure prediction by ZEFSAII (Michael W. Deem and Ramdas Pophale) SiO2 
 PCOD9114087
Probable space group: P 2
;
_chemical_formula_sum "Si O2"
_cell_formula_units_Z 15
_cell_length_a 24.602092
_cell_length_b 5.115009
_cell_length_c 15.765555
_cell_angle_alpha 90.000000
_cell_angle_beta 161.460633
_cell_angle_gamma 90.000000
_cell_volume 630.804738
_symmetry_space_group_name_H-M "P 2"
_symmetry_group_IT_number 3
_symmetry_cell_setting 'monoclinic'
loop_
_space_group_symop_operation_xyz
x,y,z
-x,y,-z
loop_
_atom_site_type_symbol
_atom_site_label
_atom_site_fract_x
_atom_site_fract_y
_atom_site_fract_z
Si Si1 0.367392 0.059620 0.450381
Si Si2 0.529479 0.723952 0.830946
Si Si3 0.018754 0.009391 0.127407
Si Si4 0.992717 0.135945 0.389260
Si Si5 0.222921 0.504698 0.478443
Si Si6 0.190602 0.658755 0.622299
Si Si7 0.656313 0.437377 0.863725
Si Si8 0.500000 0.701801 0.500000
O O1 0.461924 0.333443 0.584770
O O2 0.413371 0.939487 0.610870
O O3 0.461062 0.877984 0.521987
O O4 0.175547 0.056266 0.134312
O O5 0.391200 0.530122 0.669118
O O6 0.660555 0.621266 0.952353
O O7 0.655523 0.784325 0.095030
O O8 0.144523 0.216836 0.356166
O O9 0.086073 0.717016 0.241249
O O10 0.000000 0.064963 0.000000
O O11 0.000000 0.072838 0.500000
O O12 0.111674 0.390517 0.545030
O O13 0.799351 0.220793 0.084600
O O14 0.047744 0.885338 0.415886
O O15 0.251182 0.587506 0.617594
O O16 0.660002 0.541309 0.773437
#
# Coordination Sequence:
#
# PCOD9114087 Si02
#       8
#     2   2   2   2   2   2   2   1
#     4  11  25  45  72 103 143 197 244 305 375 447
#     4  11  25  49  73 106 144 200 255 301 381 445
#     4  12  26  48  75 108 146 195 249 302 375 447
#     4  12  26  48  75 108 146 195 249 302 375 447
#     4  12  28  47  75 112 149 195 247 317 370 445
#     4  12  28  47  75 112 149 195 247 317 370 445
#     4  11  25  45  72 103 143 197 244 305 375 447
#     4  10  26  40  70 106 142 190 244 312 362 454
#
# _framework density 23.779147999999999
#
# number of rings (size 3 to 8) (size 9 to 14) (size 15 to 20)
#    0.000    0.533    2.667    4.000    9.333    2.133 
#    0.000    2.667    0.000    0.000    0.000    0.000 
#    0.000    0.000    0.000    0.000    0.000    0.000 
#
# Total GULP energy -83881.135781 kJ/mol
# GULP energy per Si atom -5592.075719 kJ/mol
# Density = 2.372503 g / cm^3
# Si number density = 23.779148 Si / 1000 Ang^3
#
#
#
# Elastic Constant Matrix: (Units=GPa)
#
#
# Indices 1 2 3 4 5 6 
#
# 1 101.7795 11.8401 16.4023 0.0000 -29.8319 0.0000
# 2 11.8401 64.1449 -17.8061 0.0000 -1.6851 0.0000
# 3 16.4023 -17.8061 68.2627 0.0000 -4.5506 0.0000
# 4 0.0000 0.0000 0.0000 50.7071 0.0000 -4.0387
# 5 -29.8319 -1.6851 -4.5506 0.0000 39.2199 0.0000
# 6 0.0000 0.0000 0.0000 -4.0387 0.0000 29.1145
#
#
#
# Elastic Compliance Matrix: (Units=1/GPa)
#
#
# Indices 1 2 3 4 5 6 
#
# 1 0.013640 -0.003220 -0.003462 0.000000 0.009835 0.000000
# 2 -0.003220 0.017627 0.005300 0.000000 -0.001077 0.000000
# 3 -0.003462 0.005300 0.016833 0.000000 -0.000452 0.000000
# 4 0.000000 0.000000 0.000000 0.019941 0.000000 0.002766
# 5 0.009835 -0.001077 -0.000452 0.000000 0.032879 0.000000
# 6 0.000000 0.000000 0.000000 0.002766 0.000000 0.034731
#
#
# Mechanical properties :
#
#
# Convention : Reuss Voigt Hill
#
# Bulk Modulus (GPa) = 22.05745 28.33997 25.19871
# Shear Modulus (GPa) = 32.56700 38.72502 35.64601
#
# Velocity S-wave (km/s) = 3.70477 4.03988 3.87595
# Velocity P-wave (km/s) = 5.25324 5.80558 5.53630
#
# Compressibility (1/GPa) = 0.04533615
#
# Stress axis : x y z
#
# Youngs Moduli (GPa) = 73.31132 56.73095 59.40551
#
# Poissons Ratio (x) = 0.18270 0.20566
# Poissons Ratio (y) = 0.23609 -0.31485
# Poissons Ratio (z) = 0.25380 -0.30067
#
# Static dielectric constant tensor:
#      x y z
#    x 1.937360 0.000000 -0.008740 
#    y 0.000000 1.933760 0.000000 
#    z -0.008740 0.000000 1.705380 
# 
# From -- ./inp_files/14429.got.cif
#   From: 2010.05.17/outbox.cif.g08.bks.cpg/sg3_8_cif.got.tgz:14429.got - 2010.06.03 18:33:08.
