data_PCOD9114616
_publ_section_title
;
Structure prediction by ZEFSAII (Michael W. Deem and Ramdas Pophale) SiO2 
 PCOD9114616
Probable space group: P 21
;
_chemical_formula_sum "Si O2"
_cell_formula_units_Z 14
_cell_length_a 7.527366
_cell_length_b 11.772517
_cell_length_c 7.152786
_cell_angle_alpha 90.000000
_cell_angle_beta 58.252591
_cell_angle_gamma 90.000000
_cell_volume 539.012201
_symmetry_space_group_name_H-M "P 21"
_symmetry_group_IT_number 4
_symmetry_cell_setting 'monoclinic'
loop_
_space_group_symop_operation_xyz
x,y,z
-x,1/2+y,-z
loop_
_atom_site_type_symbol
_atom_site_label
_atom_site_fract_x
_atom_site_fract_y
_atom_site_fract_z
Si Si1 0.969196 0.472130 0.854161
Si Si2 0.290190 0.035298 0.677519
Si Si3 0.717181 0.967409 0.623090
Si Si4 0.159745 0.782224 0.623092
Si Si5 0.323387 0.777500 0.145840
Si Si6 0.467693 0.214336 0.322479
Si Si7 0.244325 0.374816 0.011329
O O1 0.868462 0.555597 0.062687
O O2 0.797180 0.374816 0.905608
O O3 0.161402 0.419029 0.862221
O O4 0.075822 0.505075 0.601521
O O5 0.313341 0.124817 0.500004
O O6 0.513795 0.029230 0.657471
O O7 0.223582 0.915102 0.623223
O O8 0.653212 0.834531 0.623223
O O9 0.751830 0.968177 0.825591
O O10 0.328742 0.720404 0.657488
O O11 0.922596 0.781457 0.825584
O O12 0.177368 0.744554 0.398478
O O13 0.431183 0.694034 0.937312
O O14 0.523648 0.830602 0.137789
#
# Coordination Sequence:
#
# PCOD9114616 Si02
#       7
#     2   2   2   2   2   2   2
#     4  11  20  38  65  84 118 164 199 254 312 364
#     4  10  21  42  60  93 130 161 210 263 304 370
#     4  10  20  39  62  86 123 164 200 257 312 368
#     4  10  20  39  62  86 123 164 200 257 312 368
#     4  11  20  38  65  84 118 164 199 254 312 364
#     4  10  21  42  60  93 130 161 210 263 304 370
#     4  10  18  34  62  86 108 158 204 238 310 362
#
# _framework density 25.97344
#
# number of rings (size 3 to 8) (size 9 to 14) (size 15 to 20)
#    0.000    1.714    7.143    1.714    0.000    0.000 
#    5.143    5.714    0.000    0.000    0.000    0.000 
#    0.000    0.000    0.000    0.000    0.000    0.000 
#
# Total GULP energy -78380.724923 kJ/mol
# GULP energy per Si atom -5598.623209 kJ/mol
# Density = 2.591432 g / cm^3
# Si number density = 25.973440 Si / 1000 Ang^3
#
#
#
# Elastic Constant Matrix: (Units=GPa)
#
#
# Indices 1 2 3 4 5 6 
#
# 1 121.7678 25.8210 -1.3300 0.0000 -6.9071 0.0000
# 2 25.8210 71.6113 49.5744 0.0000 2.1678 0.0000
# 3 -1.3300 49.5744 144.7108 0.0000 8.9934 0.0000
# 4 0.0000 0.0000 0.0000 46.3256 0.0000 3.4207
# 5 -6.9071 2.1678 8.9934 0.0000 25.2456 0.0000
# 6 0.0000 0.0000 0.0000 3.4207 0.0000 8.9298
#
#
#
# Elastic Compliance Matrix: (Units=1/GPa)
#
#
# Indices 1 2 3 4 5 6 
#
# 1 0.009305 -0.004436 0.001455 0.000000 0.002408 0.000000
# 2 -0.004436 0.020431 -0.007011 0.000000 -0.000470 0.000000
# 3 0.001455 -0.007011 0.009473 0.000000 -0.002374 0.000000
# 4 0.000000 0.000000 0.000000 0.022215 0.000000 -0.008510
# 5 0.002408 -0.000470 -0.002374 0.000000 0.041156 0.000000
# 6 0.000000 0.000000 0.000000 -0.008510 0.000000 0.115245
#
#
# Mechanical properties :
#
#
# Convention : Reuss Voigt Hill
#
# Bulk Modulus (GPa) = 52.00870 54.02450 53.01660
# Shear Modulus (GPa) = 20.47361 33.70184 27.08772
#
# Velocity S-wave (km/s) = 2.81063 3.60606 3.23290
# Velocity P-wave (km/s) = 5.53174 6.17926 5.86444
#
# Compressibility (1/GPa) = 0.01922755
#
# Stress axis : x y z
#
# Youngs Moduli (GPa) = 107.46376 48.94460 105.56321
#
# Poissons Ratio (x) = 0.21711 -0.15364
# Poissons Ratio (y) = 0.47668 0.74008
# Poissons Ratio (z) = -0.15641 0.34314
#
# Static dielectric constant tensor:
#      x y z
#    x 1.979140 0.000000 0.002370 
#    y 0.000000 2.173190 0.000000 
#    z 0.002370 0.000000 2.005040 
# 
# From -- ./inp_files/6572.got.cif
#   From: 2010.05.17/outbox.cif.g08.bks.cpg/sg4_4_cif.got.tgz:6572.got - 2010.06.03 18:43:04.
