data_PCOD9114664
_publ_section_title
;
Structure prediction by ZEFSAII (Michael W. Deem and Ramdas Pophale) SiO2 
 PCOD9114664
Probable space group: P 21
;
_chemical_formula_sum "Si O2"
_cell_formula_units_Z 12
_cell_length_a 10.029194
_cell_length_b 9.942701
_cell_length_c 6.683918
_cell_angle_alpha 90.000000
_cell_angle_beta 47.718452
_cell_angle_gamma 90.000000
_cell_volume 493.110115
_symmetry_space_group_name_H-M "P 21"
_symmetry_group_IT_number 4
_symmetry_cell_setting 'monoclinic'
loop_
_space_group_symop_operation_xyz
x,y,z
-x,1/2+y,-z
loop_
_atom_site_type_symbol
_atom_site_label
_atom_site_fract_x
_atom_site_fract_y
_atom_site_fract_z
Si Si1 0.337657 0.292730 0.275203
Si Si2 0.171598 0.965607 0.931744
Si Si3 0.009353 0.148705 0.410702
Si Si4 0.618105 0.073217 0.913786
Si Si5 0.579931 0.007467 0.514617
Si Si6 0.900980 0.170111 0.078216
O O1 0.148690 0.239421 0.387802
O O2 0.405045 0.410979 0.053613
O O3 0.323213 0.373163 0.499091
O O4 0.482051 0.174839 0.155103
O O5 0.378929 0.972820 0.658588
O O6 0.109770 0.813204 0.010069
O O7 0.128658 0.028077 0.194108
O O8 0.059827 0.061363 0.893702
O O9 0.831994 0.103243 0.709141
O O10 0.930046 0.209901 0.284797
O O11 0.565549 0.095787 0.731272
O O12 0.716458 0.086506 0.238359
#
# Coordination Sequence:
#
# PCOD9114664 Si02
#       6
#     2   2   2   2   2   2
#     4  10  18  37  61  86 122 156 192 255 301 361
#     4  10  19  40  63  82 124 158 200 256 288 358
#     4   9  19  36  61  85 120 152 198 247 297 357
#     4   9  19  34  60  86 117 156 194 239 305 355
#     4   9  20  37  61  86 119 156 199 244 303 355
#     4   9  21  38  62  87 118 162 203 243 302 354
#
# _framework density 24.335336000000002
#
# number of rings (size 3 to 8) (size 9 to 14) (size 15 to 20)
#    2.000    0.667    1.667    0.000    0.000    5.333 
#    3.000    0.000   18.333    0.000    0.000    0.000 
#    0.000    0.000    0.000    0.000    0.000    0.000 
#
# Total GULP energy -66941.063569 kJ/mol
# GULP energy per Si atom -5578.421964 kJ/mol
# Density = 2.427995 g / cm^3
# Si number density = 24.335336 Si / 1000 Ang^3
#
#
#
# Elastic Constant Matrix: (Units=GPa)
#
#
# Indices 1 2 3 4 5 6 
#
# 1 55.3305 62.3065 53.0451 0.0000 -31.7124 0.0000
# 2 62.3065 166.5011 67.8546 0.0000 -30.7607 0.0000
# 3 53.0451 67.8546 107.4791 0.0000 -28.2819 0.0000
# 4 0.0000 0.0000 0.0000 29.7309 0.0000 -12.7230
# 5 -31.7124 -30.7607 -28.2819 0.0000 48.8096 0.0000
# 6 0.0000 0.0000 0.0000 -12.7230 0.0000 38.7206
#
#
#
# Elastic Compliance Matrix: (Units=1/GPa)
#
#
# Indices 1 2 3 4 5 6 
#
# 1 0.058819 -0.011445 -0.016101 0.000000 0.021673 0.000000
# 2 -0.011445 0.010586 -0.001458 0.000000 -0.001610 0.000000
# 3 -0.016101 -0.001458 0.017907 0.000000 -0.001004 0.000000
# 4 0.000000 0.000000 0.000000 0.039138 0.000000 0.012860
# 5 0.021673 -0.001610 -0.001004 0.000000 0.032973 0.000000
# 6 0.000000 0.000000 0.000000 0.012860 0.000000 0.030052
#
#
# Mechanical properties :
#
#
# Convention : Reuss Voigt Hill
#
# Bulk Modulus (GPa) = 34.12519 77.30257 55.71388
# Shear Modulus (GPa) = 19.43635 33.19252 26.31444
#
# Velocity S-wave (km/s) = 2.82917 3.69719 3.29192
# Velocity P-wave (km/s) = 4.97249 7.07532 6.11497
#
# Compressibility (1/GPa) = 0.02930386
#
# Stress axis : x y z
#
# Youngs Moduli (GPa) = 17.00135 94.46776 55.84493
#
# Poissons Ratio (x) = 1.08118 0.89914
# Poissons Ratio (y) = 0.19458 0.08142
# Poissons Ratio (z) = 0.27373 0.13773
#
# Static dielectric constant tensor:
#      x y z
#    x 2.028400 0.000000 0.091240 
#    y 0.000000 1.890750 0.000000 
#    z 0.091240 0.000000 1.958120 
# 
# From -- ./inp_files/12602.got.cif
#   From: 2010.05.17/outbox.cif.g08.bks.cpg/sg4_7_cif.got.tgz:12602.got - 2010.06.03 18:43:04.
