data_PCOD9114423
_publ_section_title
;
Structure prediction by ZEFSAII (Michael W. Deem and Ramdas Pophale) SiO2 
 PCOD9114423
Probable space group: P 2
;
_chemical_formula_sum "Si O2"
_cell_formula_units_Z 16
_cell_length_a 9.000000
_cell_length_b 18.000000
_cell_length_c 9.000000
_cell_angle_alpha 90.000000
_cell_angle_beta 150.000000
_cell_angle_gamma 90.000000
_cell_volume 729.000000
_symmetry_space_group_name_H-M "P 2"
_symmetry_group_IT_number 3
_symmetry_cell_setting 'monoclinic'
loop_
_space_group_symop_operation_xyz
x,y,z
-x,y,-z
loop_
_atom_site_type_symbol
_atom_site_label
_atom_site_fract_x
_atom_site_fract_y
_atom_site_fract_z
Si Si1 0.429160 0.822460 0.113369
Si Si2 0.387786 0.353089 0.071394
Si Si3 0.807899 0.967892 0.191510
Si Si4 0.602029 0.206526 0.418922
Si Si5 0.885739 0.451070 0.569005
Si Si6 0.791855 0.587159 0.681096
Si Si7 0.897219 0.108048 0.081729
Si Si8 0.115004 0.752060 0.270490
O O1 0.670775 0.808306 0.452092
O O2 0.500000 0.826705 0.000000
O O3 0.263810 0.901825 0.986720
O O4 0.198050 0.755259 0.919476
O O5 0.494924 0.279672 0.244708
O O6 0.546316 0.426638 0.271655
O O7 0.500000 0.345015 0.000000
O O8 0.048673 0.378805 0.779182
O O9 0.000000 0.941403 0.500000
O O10 0.948061 0.036664 0.226302
O O11 0.500000 0.992913 0.000000
O O12 0.500000 0.214969 0.500000
O O13 0.941967 0.182096 0.716839
O O14 0.442821 0.132781 0.218645
O O15 0.925969 0.529096 0.683276
O O16 0.000000 0.457390 0.500000
O O17 0.500000 0.552806 0.500000
O O18 0.737601 0.671402 0.581512
O O19 0.000000 0.599067 0.000000
O O20 0.000000 0.095779 0.000000
O O21 0.000000 0.768146 0.000000
#
# Coordination Sequence:
#
# PCOD9114423 Si02
#       8
#     2   2   2   2   2   2   2   2
#     4  11  23  41  64  92 126 163 206 258 314 374
#     4  10  21  37  57  85 118 152 194 245 295 355
#     4  11  23  41  63  91 124 160 205 258 309 370
#     4  10  21  37  58  85 117 153 196 246 296 357
#     4  10  22  39  59  86 119 154 197 245 298 358
#     4  11  23  41  62  89 122 158 203 255 303 362
#     4  10  22  40  60  86 119 155 199 248 301 361
#     4  11  23  42  64  92 126 163 208 259 313 373
#
# _framework density 21.947873999999999
#
# number of rings (size 3 to 8) (size 9 to 14) (size 15 to 20)
#    0.000    1.500    0.000    6.000    0.000    4.500 
#    0.000    6.250    0.000    0.000    0.000    0.000 
#    0.000    0.000    0.000    0.000    0.000    0.000 
#
# Total GULP energy -89109.784302 kJ/mol
# GULP energy per Si atom -5569.361519 kJ/mol
# Density = 2.189792 g / cm^3
# Si number density = 21.947874 Si / 1000 Ang^3
#
#
#
# Elastic Constant Matrix: (Units=GPa)
#
#
# Indices 1 2 3 4 5 6 
#
# 1 31.8614 44.9540 32.6012 0.0000 -4.0783 0.0000
# 2 44.9540 119.3023 48.0287 0.0000 -29.6809 0.0000
# 3 32.6012 48.0287 108.4709 0.0000 -13.4679 0.0000
# 4 0.0000 0.0000 0.0000 43.8450 0.0000 -15.8028
# 5 -4.0783 -29.6809 -13.4679 0.0000 34.4158 0.0000
# 6 0.0000 0.0000 0.0000 -15.8028 0.0000 8.3500
#
#
#
# Elastic Compliance Matrix: (Units=1/GPa)
#
#
# Indices 1 2 3 4 5 6 
#
# 1 0.094693 -0.035715 -0.015847 0.000000 -0.025782 0.000000
# 2 -0.035715 0.025838 0.001613 0.000000 0.018683 0.000000
# 3 -0.015847 0.001613 0.013882 0.000000 0.004946 0.000000
# 4 0.000000 0.000000 0.000000 0.071749 0.000000 0.135788
# 5 -0.025782 0.018683 0.004946 0.000000 0.044049 0.000000
# 6 0.000000 0.000000 0.000000 0.135788 0.000000 0.376746
#
#
# Mechanical properties :
#
#
# Convention : Reuss Voigt Hill
#
# Bulk Modulus (GPa) = 28.97358 56.75582 42.86470
# Shear Modulus (GPa) = 6.77176 26.25888 16.51532
#
# Velocity S-wave (km/s) = 1.75843 3.46268 2.74611
# Velocity P-wave (km/s) = 4.16564 6.47321 5.44311
#
# Compressibility (1/GPa) = 0.03451421
#
# Stress axis : x y z
#
# Youngs Moduli (GPa) = 10.56048 38.70212 72.03707
#
# Poissons Ratio (x) = 1.38226 1.14159
# Poissons Ratio (y) = 0.37717 -0.11622
# Poissons Ratio (z) = 0.16735 -0.06244
#
# Static dielectric constant tensor:
#      x y z
#    x 1.804820 0.000000 0.031510 
#    y 0.000000 1.791060 0.000000 
#    z 0.031510 0.000000 1.872370 
# 
# From -- ./inp_files/6301.got.cif
#   From: 2010.05.17/outbox.ucp.g08.bks.cvg/sg3_4_cif.got.tgz:6301.got - 2010.06.11 12:50:29.
