data_PCOD9114367
_publ_section_title
;
Structure prediction by ZEFSAII (Michael W. Deem and Ramdas Pophale) SiO2 
 PCOD9114367
Probable space group: P 2
;
_chemical_formula_sum "Si O2"
_cell_formula_units_Z 14
_cell_length_a 9.385241
_cell_length_b 5.383066
_cell_length_c 19.714933
_cell_angle_alpha 90.000000
_cell_angle_beta 143.801727
_cell_angle_gamma 90.000000
_cell_volume 588.234054
_symmetry_space_group_name_H-M "P 2"
_symmetry_group_IT_number 3
_symmetry_cell_setting 'monoclinic'
loop_
_space_group_symop_operation_xyz
x,y,z
-x,y,-z
loop_
_atom_site_type_symbol
_atom_site_label
_atom_site_fract_x
_atom_site_fract_y
_atom_site_fract_z
Si Si1 0.359302 0.726790 0.704335
Si Si2 0.000000 0.110076 0.500000
Si Si3 0.471759 0.726332 0.376645
Si Si4 0.744808 0.141978 0.048716
Si Si5 0.500000 0.103411 0.500000
Si Si6 0.780068 0.650692 0.970940
Si Si7 0.911051 0.353979 0.711144
Si Si8 0.067746 0.433737 0.411755
O O1 0.527121 0.737368 0.702431
O O2 0.539745 0.719887 0.836396
O O3 0.178769 0.495008 0.638627
O O4 0.175203 0.949827 0.617238
O O5 0.833028 0.239713 0.491939
O O6 0.415000 0.961211 0.401469
O O7 0.279177 0.521353 0.324393
O O8 0.737068 0.656637 0.505624
O O9 0.948290 0.186768 0.183976
O O10 0.500000 0.127648 0.000000
O O11 0.753303 0.388368 0.002649
O O12 0.803528 0.886479 0.031393
O O13 0.747359 0.255348 0.582604
O O14 0.000000 0.632998 0.000000
O O15 0.071577 0.486696 0.716975
#
# Coordination Sequence:
#
# PCOD9114367 Si02
#       8
#     2   1   2   2   1   2   2   2
#     4  12  27  43  76 102 148 189 243 307 373 452
#     4  12  24  40  72 108 140 184 238 296 380 442
#     4  12  23  44  65 109 148 185 233 299 380 454
#     4  12  30  55  80 114 154 211 269 325 384 458
#     4  12  24  40  72 108 140 184 238 296 380 442
#     4  12  30  55  80 114 154 211 269 325 384 458
#     4  12  27  43  76 102 148 189 243 307 373 452
#     4  12  23  44  65 109 148 185 233 299 380 454
#
# _framework density 23.800049000000001
#
# number of rings (size 3 to 8) (size 9 to 14) (size 15 to 20)
#    0.000    0.000    5.714    3.429    8.000    0.000 
#    0.000    0.000    0.000    0.000    0.000    0.000 
#    0.000    0.000    0.000    0.000    0.000    0.000 
#
# Total GULP energy -77988.847061 kJ/mol
# GULP energy per Si atom -5570.631933 kJ/mol
# Density = 2.374588 g / cm^3
# Si number density = 23.800049 Si / 1000 Ang^3
#
#
#
# Elastic Constant Matrix: (Units=GPa)
#
#
# Indices 1 2 3 4 5 6 
#
# 1 153.0473 27.2502 11.5347 0.0000 -2.2282 0.0000
# 2 27.2502 59.9595 -7.6975 0.0000 0.7233 0.0000
# 3 11.5347 -7.6975 83.8979 0.0000 3.0150 0.0000
# 4 0.0000 0.0000 0.0000 -51.3940 0.0000 39.1356
# 5 -2.2282 0.7233 3.0150 0.0000 35.4531 0.0000
# 6 0.0000 0.0000 0.0000 39.1356 0.0000 2.4787
#
#
#
# Elastic Compliance Matrix: (Units=1/GPa)
#
#
# Indices 1 2 3 4 5 6 
#
# 1 0.007264 -0.003481 -0.001341 0.000000 0.000642 0.000000
# 2 -0.003481 0.018553 0.002209 0.000000 -0.000785 0.000000
# 3 -0.001341 0.002209 0.012349 0.000000 -0.001180 0.000000
# 4 0.000000 0.000000 0.000000 -0.001494 0.000000 0.023590
# 5 0.000642 -0.000785 -0.001180 0.000000 0.028363 0.000000
# 6 0.000000 0.000000 0.000000 0.023590 0.000000 0.030979
#
#
# Mechanical properties :
#
#
# Convention : Reuss Voigt Hill
#
# Bulk Modulus (GPa) = 30.35897 39.89771 35.12834
# Shear Modulus (GPa) = 44.55505 15.02870 29.79187
#
# Velocity S-wave (km/s) = 4.33142 2.51561 3.54186
# Velocity P-wave (km/s) = 6.14805 5.02372 5.61410
#
# Compressibility (1/GPa) = 0.03293919
#
# Stress axis : x y z
#
# Youngs Moduli (GPa) = 137.66134 53.89913 80.98019
#
# Poissons Ratio (x) = 0.18764 0.10861
# Poissons Ratio (y) = 0.47924 -0.17889
# Poissons Ratio (z) = 0.18463 -0.11907
#
# Static dielectric constant tensor:
#      x y z
#    x 2.476070 0.000000 -0.887700 
#    y 0.000000 2.190090 0.000000 
#    z -0.887700 0.000000 1.874930 
# 
# From -- ./inp_files/14923.got.cif
#   From: 2010.05.17/outbox.cif.g08.bks.cpg/sg3_8_cif.got.tgz:14923.got - 2010.06.03 18:33:08.
