data_PCOD9114552
_publ_section_title
;
Structure prediction by ZEFSAII (Michael W. Deem and Ramdas Pophale) SiO2 
 PCOD9114552
Probable space group: P 21
;
_chemical_formula_sum "Si O2"
_cell_formula_units_Z 16
_cell_length_a 9.332304
_cell_length_b 8.653507
_cell_length_c 10.895759
_cell_angle_alpha 90.000000
_cell_angle_beta 140.592039
_cell_angle_gamma 90.000000
_cell_volume 558.600532
_symmetry_space_group_name_H-M "P 21"
_symmetry_group_IT_number 4
_symmetry_cell_setting 'monoclinic'
loop_
_space_group_symop_operation_xyz
x,y,z
-x,1/2+y,-z
loop_
_atom_site_type_symbol
_atom_site_label
_atom_site_fract_x
_atom_site_fract_y
_atom_site_fract_z
Si Si1 0.284560 0.355160 0.310930
Si Si2 0.361227 0.159299 0.149787
Si Si3 0.160070 0.197601 0.471909
Si Si4 0.457214 0.911298 0.036792
Si Si5 0.044634 0.999876 0.600073
Si Si6 0.270498 0.588324 0.961582
Si Si7 0.126522 0.676528 0.306254
Si Si8 0.082243 0.926599 0.109752
O O1 0.428915 0.294532 0.289215
O O2 0.267201 0.532224 0.344980
O O3 0.298267 0.249867 0.442887
O O4 0.029946 0.337935 0.080744
O O5 0.283084 0.026421 0.190628
O O6 0.124237 0.189326 0.922597
O O7 0.511751 0.063953 0.154099
O O8 0.118908 0.353838 0.524177
O O9 0.922627 0.140103 0.260005
O O10 0.198180 0.056684 0.590188
O O11 0.432657 0.740318 0.079002
O O12 0.209645 0.945988 0.818134
O O13 0.613583 0.936525 0.021863
O O14 0.909856 0.140754 0.575439
O O15 0.129532 0.528784 0.984234
O O16 0.201889 0.837962 0.300862
#
# Coordination Sequence:
#
# PCOD9114552 Si02
#       8
#     2   2   2   2   2   2   2   2
#     4   9  17  31  52  86 110 142 191 248 278 340
#     4   9  17  31  52  78 113 143 180 245 278 338
#     4  10  20  36  56  90 112 153 196 242 281 352
#     4  10  24  38  53  90 124 151 194 241 301 352
#     4   9  20  35  54  80 122 146 191 240 281 346
#     4  11  23  37  55  88 121 154 192 244 297 351
#     4   8  17  28  49  80 107 138 189 228 281 330
#     4  10  18  30  57  80 111 149 191 238 293 331
#
# _framework density 28.643007000000001
#
# number of rings (size 3 to 8) (size 9 to 14) (size 15 to 20)
#    0.000    2.500    1.250    2.250   10.500    0.000 
#    0.000    0.000    0.000    0.000   16.250    1.750 
#    0.000    0.000    0.000    0.000    0.000    0.000 
#
# Total GULP energy -89358.688618 kJ/mol
# GULP energy per Si atom -5584.918039 kJ/mol
# Density = 2.857781 g / cm^3
# Si number density = 28.643007 Si / 1000 Ang^3
#
#
#
# Elastic Constant Matrix: (Units=GPa)
#
#
# Indices 1 2 3 4 5 6 
#
# 1 106.3566 34.5714 13.5628 0.0000 -28.4934 0.0000
# 2 34.5714 86.5469 19.6023 0.0000 -22.3079 0.0000
# 3 13.5628 19.6023 91.2288 0.0000 -8.7408 0.0000
# 4 0.0000 0.0000 0.0000 34.3887 0.0000 -10.2171
# 5 -28.4934 -22.3079 -8.7408 0.0000 42.7062 0.0000
# 6 0.0000 0.0000 0.0000 -10.2171 0.0000 61.8411
#
#
#
# Elastic Compliance Matrix: (Units=1/GPa)
#
#
# Indices 1 2 3 4 5 6 
#
# 1 0.012194 -0.003099 -0.000533 0.000000 0.006408 0.000000
# 2 -0.003099 0.014606 -0.002188 0.000000 0.005114 0.000000
# 3 -0.000533 -0.002188 0.011595 0.000000 0.000875 0.000000
# 4 0.000000 0.000000 0.000000 0.030580 0.000000 0.005052
# 5 0.006408 0.005114 0.000875 0.000000 0.030542 0.000000
# 6 0.000000 0.000000 0.000000 0.005052 0.000000 0.017005
#
#
# Mechanical properties :
#
#
# Convention : Reuss Voigt Hill
#
# Bulk Modulus (GPa) = 37.37460 46.62281 41.99871
# Shear Modulus (GPa) = 36.47510 42.21358 39.34434
#
# Velocity S-wave (km/s) = 3.57240 3.84315 3.71025
# Velocity P-wave (km/s) = 5.48569 6.00047 5.74884
#
# Compressibility (1/GPa) = 0.02675614
#
# Stress axis : x y z
#
# Youngs Moduli (GPa) = 82.00532 68.46540 86.24724
#
# Poissons Ratio (x) = 0.21214 0.04598
# Poissons Ratio (y) = 0.25410 0.18868
# Poissons Ratio (z) = 0.04372 0.14978
#
# Static dielectric constant tensor:
#      x y z
#    x 2.303960 0.000000 0.080860 
#    y 0.000000 2.429230 0.000000 
#    z 0.080860 0.000000 2.302650 
# 
# From -- ./inp_files/11873.got.cif
#   From: 2010.05.17/outbox.cif.g08.bks.cpg/sg4_6_cif.got.tgz:11873.got - 2010.06.03 18:43:04.
