data_PCOD9114085
_publ_section_title
;
Structure prediction by ZEFSAII (Michael W. Deem and Ramdas Pophale) SiO2 
 PCOD9114085
Probable space group: P 2
;
_chemical_formula_sum "Si O2"
_cell_formula_units_Z 16
_cell_length_a 9.302308
_cell_length_b 11.106309
_cell_length_c 9.218620
_cell_angle_alpha 90.000000
_cell_angle_beta 50.158061
_cell_angle_gamma 90.000000
_cell_volume 731.278567
_symmetry_space_group_name_H-M "P 2"
_symmetry_group_IT_number 3
_symmetry_cell_setting 'monoclinic'
loop_
_space_group_symop_operation_xyz
x,y,z
-x,y,-z
loop_
_atom_site_type_symbol
_atom_site_label
_atom_site_fract_x
_atom_site_fract_y
_atom_site_fract_z
Si Si1 0.659631 0.953490 0.494106
Si Si2 0.542648 0.333574 0.640702
Si Si3 0.172509 0.757586 0.821118
Si Si4 0.495964 0.786123 0.177126
Si Si5 0.278930 0.549638 0.332778
Si Si6 0.850970 0.287571 0.981794
Si Si7 0.914346 0.165347 0.400198
Si Si8 0.970172 0.539336 0.778044
O O1 0.500000 0.015698 0.500000
O O2 0.718694 0.834664 0.367519
O O3 0.571302 0.909269 0.702718
O O4 0.834112 0.040222 0.394977
O O5 0.500000 0.368904 0.500000
O O6 0.569157 0.448244 0.729691
O O7 0.732279 0.254086 0.519543
O O8 0.356620 0.270912 0.823934
O O9 0.314752 0.741151 0.863879
O O10 0.071154 0.642980 0.809237
O O11 0.000000 0.831107 0.000000
O O12 0.350105 0.682910 0.315391
O O13 0.500000 0.795687 0.000000
O O14 0.123425 0.514229 0.553041
O O15 0.207159 0.559124 0.213934
O O16 0.911380 0.220692 0.798451
O O17 0.907677 0.426852 0.915258
O O18 0.000000 0.239351 0.000000
O O19 0.000000 0.145297 0.500000
#
# Coordination Sequence:
#
# PCOD9114085 Si02
#       8
#     2   2   2   2   2   2   2   2
#     4  10  25  50  73  95 136 186 236 296 357 419
#     4  12  26  46  73 102 149 193 236 299 360 423
#     4  11  24  43  69 100 139 184 231 289 352 430
#     4  11  25  44  69 106 141 181 236 285 357 426
#     4  11  24  39  68 101 146 187 224 293 353 418
#     4  12  26  45  73 108 139 190 240 287 357 441
#     4  12  27  49  73 104 140 185 242 304 360 420
#     4  11  23  42  66 101 147 185 233 283 354 430
#
# _framework density 21.879484999999999
#
# number of rings (size 3 to 8) (size 9 to 14) (size 15 to 20)
#    0.000    0.750    3.750    2.250    7.000    4.000 
#    4.500    0.000    0.000    0.000    0.000    0.000 
#    0.000    0.000    0.000    0.000    0.000    0.000 
#
# Total GULP energy -89297.958369 kJ/mol
# GULP energy per Si atom -5581.122398 kJ/mol
# Density = 2.182969 g / cm^3
# Si number density = 21.879485 Si / 1000 Ang^3
#
#
#
# Elastic Constant Matrix: (Units=GPa)
#
#
# Indices 1 2 3 4 5 6 
#
# 1 138.5552 35.1948 35.8503 0.0000 23.4602 0.0000
# 2 35.1948 53.3435 14.3286 0.0000 13.2320 0.0000
# 3 35.8503 14.3286 113.2136 0.0000 2.6501 0.0000
# 4 0.0000 0.0000 0.0000 -430.3636 0.0000 173.5486
# 5 23.4602 13.2320 2.6501 0.0000 24.6201 0.0000
# 6 0.0000 0.0000 0.0000 173.5486 0.0000 -51.2983
#
#
#
# Elastic Compliance Matrix: (Units=1/GPa)
#
#
# Indices 1 2 3 4 5 6 
#
# 1 0.010154 -0.004260 -0.002510 0.000000 -0.007116 0.000000
# 2 -0.004260 0.024130 -0.001500 0.000000 -0.008748 0.000000
# 3 -0.002510 -0.001500 0.009767 0.000000 0.002146 0.000000
# 4 0.000000 0.000000 0.000000 0.006379 0.000000 0.021580
# 5 -0.007116 -0.008748 0.002146 0.000000 0.051868 0.000000
# 6 0.000000 0.000000 0.000000 0.021580 0.000000 0.053513
#
#
# Mechanical properties :
#
#
# Convention : Reuss Voigt Hill
#
# Bulk Modulus (GPa) = 36.34870 52.87331 44.61101
# Shear Modulus (GPa) = 27.54510 -76.75911 -24.60700
#
# Velocity S-wave (km/s) = 3.55201 -5.92949 -3.35723
# Velocity P-wave (km/s) = 5.78546 4.76028 2.32501
#
# Compressibility (1/GPa) = 0.02751130
#
# Stress axis : x y z
#
# Youngs Moduli (GPa) = 98.48759 41.44222 102.38388
#
# Poissons Ratio (x) = 0.17654 0.25694
# Poissons Ratio (y) = 0.41955 0.15360
# Poissons Ratio (z) = 0.24716 0.06217
#
# Static dielectric constant tensor:
#      x y z
#    x 1.981380 0.000000 0.115900 
#    y 0.000000 1.814840 0.000000 
#    z 0.115900 0.000000 1.975160 
# 
# From -- ./inp_files/5960.got.cif
#   From: 2010.05.17/outbox.cif.g08.bks.cpg/sg3_3_cif.got.tgz:5960.got - 2010.06.03 18:33:08.
