data_PCOD9114710
_publ_section_title
;
Structure prediction by ZEFSAII (Michael W. Deem and Ramdas Pophale) SiO2 
 PCOD9114710
Probable space group: P 21
;
_chemical_formula_sum "Si O2"
_cell_formula_units_Z 16
_cell_length_a 5.170262
_cell_length_b 8.879796
_cell_length_c 12.999958
_cell_angle_alpha 90.000000
_cell_angle_beta 89.129575
_cell_angle_gamma 90.000000
_cell_volume 596.770534
_symmetry_space_group_name_H-M "P 21"
_symmetry_group_IT_number 4
_symmetry_cell_setting 'monoclinic'
loop_
_space_group_symop_operation_xyz
x,y,z
-x,1/2+y,-z
loop_
_atom_site_type_symbol
_atom_site_label
_atom_site_fract_x
_atom_site_fract_y
_atom_site_fract_z
Si Si1 0.242973 0.558450 0.183210
Si Si2 0.543979 0.118755 0.028442
Si Si3 0.281769 0.370487 0.822697
Si Si4 0.404005 0.015399 0.452439
Si Si5 0.830961 0.465398 0.849262
Si Si6 0.089809 0.623735 0.665351
Si Si7 0.482753 0.698491 0.358862
Si Si8 0.746124 0.366937 0.182693
O O1 0.413735 0.640697 0.091646
O O2 0.243502 0.642977 0.291926
O O3 0.460287 0.428580 0.206111
O O4 0.974821 0.481618 0.152451
O O5 0.685207 0.245845 0.093270
O O6 0.248281 0.090676 0.068732
O O7 0.657002 0.955323 0.062041
O O8 0.309346 0.249654 0.727819
O O9 0.991197 0.316947 0.871322
O O10 0.425949 0.943124 0.213031
O O11 0.675896 0.069558 0.403968
O O12 0.397291 0.837031 0.432477
O O13 0.405196 0.068381 0.569542
O O14 0.071132 0.513756 0.769190
O O15 0.828137 0.599204 0.605697
O O16 0.143552 0.780858 0.718042
#
# Coordination Sequence:
#
# PCOD9114710 Si02
#       8
#     2   2   2   2   2   2   2   2
#     4  12  32  47  76 121 171 219 276 351 408 521
#     4  10  25  48  81 114 160 221 271 333 436 490
#     4  10  22  42  80 106 154 199 267 327 410 488
#     4  12  29  47  91 110 160 219 280 346 424 484
#     4  10  18  40  77 111 141 202 265 328 398 497
#     4  12  22  50  82 113 150 216 281 338 419 489
#     4  12  29  57  75 130 163 220 283 353 411 512
#     4  12  27  49  78 117 165 216 277 352 414 509
#
# _framework density 26.810979
#
# number of rings (size 3 to 8) (size 9 to 14) (size 15 to 20)
#    0.750    0.000    3.750    2.250    7.000    5.000 
#    2.250    0.000    0.000    0.000    0.000    0.000 
#    0.000    0.000    0.000    0.000    0.000    0.000 
#
# Total GULP energy -89219.117840 kJ/mol
# GULP energy per Si atom -5576.194865 kJ/mol
# Density = 2.674996 g / cm^3
# Si number density = 26.810979 Si / 1000 Ang^3
#
#
#
# Elastic Constant Matrix: (Units=GPa)
#
#
# Indices 1 2 3 4 5 6 
#
# 1 188.0877 27.8964 40.0614 0.0000 -14.1665 0.0000
# 2 27.8964 92.9819 59.3200 0.0000 -3.0802 0.0000
# 3 40.0614 59.3200 133.8079 0.0000 13.7498 0.0000
# 4 0.0000 0.0000 0.0000 39.2529 0.0000 -10.3051
# 5 -14.1665 -3.0802 13.7498 0.0000 40.8405 0.0000
# 6 0.0000 0.0000 0.0000 -10.3051 0.0000 40.1952
#
#
#
# Elastic Compliance Matrix: (Units=1/GPa)
#
#
# Indices 1 2 3 4 5 6 
#
# 1 0.005985 -0.000545 -0.001822 0.000000 0.002648 0.000000
# 2 -0.000545 0.015542 -0.007072 0.000000 0.003364 0.000000
# 3 -0.001822 -0.007072 0.011678 0.000000 -0.005097 0.000000
# 4 0.000000 0.000000 0.000000 0.027314 0.000000 0.007003
# 5 0.002648 0.003364 -0.005097 0.000000 0.027374 0.000000
# 6 0.000000 0.000000 0.000000 0.007003 0.000000 0.026674
#
#
# Mechanical properties :
#
#
# Convention : Reuss Voigt Hill
#
# Bulk Modulus (GPa) = 69.80831 74.38145 72.09488
# Shear Modulus (GPa) = 36.17351 43.23104 39.70227
#
# Velocity S-wave (km/s) = 3.67714 4.01987 3.85232
# Velocity P-wave (km/s) = 6.64245 7.02488 6.83634
#
# Compressibility (1/GPa) = 0.01432494
#
# Stress axis : x y z
#
# Youngs Moduli (GPa) = 167.07955 64.34217 85.62987
#
# Poissons Ratio (x) = 0.03509 0.15605
# Poissons Ratio (y) = 0.09111 0.60562
# Poissons Ratio (z) = 0.30447 0.45506
#
# Static dielectric constant tensor:
#      x y z
#    x 2.412620 0.000000 -0.011020 
#    y 0.000000 2.472230 0.000000 
#    z -0.011020 0.000000 2.103970 
# 
# From -- ./inp_files/10507.got.cif
#   From: 2010.05.17/outbox.cif.g08.bks.cpg/sg4_6_cif.got.tgz:10507.got - 2010.06.03 18:43:04.
