data_PCOD9114884
_publ_section_title
;
Structure prediction by ZEFSAII (Michael W. Deem and Ramdas Pophale) SiO2 
 PCOD9114884
Probable space group: P 21
;
_chemical_formula_sum "Si O2"
_cell_formula_units_Z 14
_cell_length_a 8.946754
_cell_length_b 4.981396
_cell_length_c 20.855806
_cell_angle_alpha 90.000000
_cell_angle_beta 130.348823
_cell_angle_gamma 90.000000
_cell_volume 708.378122
_symmetry_space_group_name_H-M "P 21"
_symmetry_group_IT_number 4
_symmetry_cell_setting 'monoclinic'
loop_
_space_group_symop_operation_xyz
x,y,z
-x,1/2+y,-z
loop_
_atom_site_type_symbol
_atom_site_label
_atom_site_fract_x
_atom_site_fract_y
_atom_site_fract_z
Si Si1 0.766808 0.131630 0.219714
Si Si2 0.498302 0.643672 0.160483
Si Si3 0.068268 0.120486 0.188974
Si Si4 0.089950 0.457670 0.992657
Si Si5 0.256246 0.953811 0.585118
Si Si6 0.336925 0.636201 0.257865
Si Si7 0.921763 0.953858 0.397201
O O1 0.655701 0.404759 0.206532
O O2 0.890039 0.025759 0.314897
O O3 0.907450 0.167873 0.198533
O O4 0.602059 0.905950 0.161377
O O5 0.423498 0.706536 0.211660
O O6 0.311684 0.542561 0.068912
O O7 0.185255 0.392736 0.207116
O O8 0.968989 0.009482 0.096749
O O9 0.224231 0.893645 0.253111
O O10 0.046221 0.154900 0.002258
O O11 0.482173 0.034331 0.649178
O O12 0.146861 0.155345 0.604066
O O13 0.139765 0.988627 0.486197
O O14 0.217746 0.655624 0.600918
#
# Coordination Sequence:
#
# PCOD9114884 Si02
#       7
#     2   2   2   2   2   2   2
#     4  12  24  41  60  93 124 156 192 249 309 346
#     4  12  23  39  68  85 118 161 205 241 287 363
#     4  12  26  40  61  89 128 154 192 253 308 344
#     4  12  23  40  62  90 117 153 205 249 288 344
#     4  10  20  33  63  88 114 150 208 238 282 346
#     4  12  21  41  63  92 113 164 203 239 289 363
#     4  10  19  36  57  91 118 150 191 255 285 342
#
# _framework density 19.763456000000001
#
# number of rings (size 3 to 8) (size 9 to 14) (size 15 to 20)
#    0.000    0.571    5.714    3.429    0.000    1.143 
#    0.000    1.429    0.000    0.000    0.000    0.000 
#    0.000    0.000    0.000    0.000    0.000    0.000 
#
# Total GULP energy -78322.964669 kJ/mol
# GULP energy per Si atom -5594.497476 kJ/mol
# Density = 1.971847 g / cm^3
# Si number density = 19.763456 Si / 1000 Ang^3
#
#
#
# Elastic Constant Matrix: (Units=GPa)
#
#
# Indices 1 2 3 4 5 6 
#
# 1 72.4398 -5.6552 20.3592 0.0000 9.7951 0.0000
# 2 -5.6552 53.4956 -27.1822 0.0000 6.7812 0.0000
# 3 20.3592 -27.1822 88.3739 0.0000 10.6463 0.0000
# 4 0.0000 0.0000 0.0000 22.0158 0.0000 8.6200
# 5 9.7951 6.7812 10.6463 0.0000 22.8930 0.0000
# 6 0.0000 0.0000 0.0000 8.6200 0.0000 20.6275
#
#
#
# Elastic Compliance Matrix: (Units=1/GPa)
#
#
# Indices 1 2 3 4 5 6 
#
# 1 0.015370 0.001067 -0.002524 0.000000 -0.005719 0.000000
# 2 0.001067 0.024793 0.008813 0.000000 -0.011899 0.000000
# 3 -0.002524 0.008813 0.015670 0.000000 -0.008818 0.000000
# 4 0.000000 0.000000 0.000000 0.054308 0.000000 -0.022694
# 5 -0.005719 -0.011899 -0.008818 0.000000 0.053754 0.000000
# 6 0.000000 0.000000 0.000000 -0.022694 0.000000 0.057963
#
#
# Mechanical properties :
#
#
# Convention : Reuss Voigt Hill
#
# Bulk Modulus (GPa) = 14.17487 21.03921 17.60704
# Shear Modulus (GPa) = 21.67700 28.22641 24.95170
#
# Velocity S-wave (km/s) = 3.31542 3.78327 3.55705
# Velocity P-wave (km/s) = 4.67374 5.45461 5.07921
#
# Compressibility (1/GPa) = 0.07054739
#
# Stress axis : x y z
#
# Youngs Moduli (GPa) = 65.05976 40.33464 63.81587
#
# Poissons Ratio (x) = -0.04306 0.16105
# Poissons Ratio (y) = -0.06945 -0.56243
# Poissons Ratio (z) = 0.16419 -0.35548
#
# Static dielectric constant tensor:
#      x y z
#    x 1.654610 0.000000 0.025400 
#    y 0.000000 1.682720 0.000000 
#    z 0.025400 0.000000 1.713480 
# 
# From -- ./inp_files/14845.got.cif
#   From: 2010.05.17/outbox.cif.g08.bks.cpg/sg4_8_cif.got.tgz:14845.got - 2010.06.03 18:43:04.
