data_PCOD9114731
_publ_section_title
;
Structure prediction by ZEFSAII (Michael W. Deem and Ramdas Pophale) SiO2 
 PCOD9114731
Probable space group: P 21
;
_chemical_formula_sum "Si O2"
_cell_formula_units_Z 16
_cell_length_a 24.594779
_cell_length_b 5.378470
_cell_length_c 9.600823
_cell_angle_alpha 90.000000
_cell_angle_beta 141.669115
_cell_angle_gamma 90.000000
_cell_volume 787.668142
_symmetry_space_group_name_H-M "P 21"
_symmetry_group_IT_number 4
_symmetry_cell_setting 'monoclinic'
loop_
_space_group_symop_operation_xyz
x,y,z
-x,1/2+y,-z
loop_
_atom_site_type_symbol
_atom_site_label
_atom_site_fract_x
_atom_site_fract_y
_atom_site_fract_z
Si Si1 0.528812 0.146960 0.869676
Si Si2 0.005547 0.566993 0.419404
Si Si3 0.318176 0.046930 0.827784
Si Si4 0.710977 0.046003 0.720965
Si Si5 0.182320 0.043574 0.999366
Si Si6 0.640552 0.946493 0.860909
Si Si7 0.373807 0.356796 0.701571
Si Si8 0.188279 0.778471 0.724000
O O1 0.596586 0.375504 0.025716
O O2 0.556993 0.958724 0.047846
O O3 0.428569 0.199954 0.699311
O O4 0.555670 0.047373 0.772048
O O5 0.918170 0.536325 0.151835
O O6 0.012638 0.313720 0.523093
O O7 0.098568 0.626436 0.535154
O O8 0.309083 0.216915 0.674506
O O9 0.227313 0.905359 0.666393
O O10 0.339859 0.190575 0.016965
O O11 0.635751 0.987829 0.686118
O O12 0.674081 0.052085 0.491284
O O13 0.774200 0.806182 0.873873
O O14 0.760571 0.306204 0.840628
O O15 0.175962 0.986379 0.820027
O O16 0.729104 0.104471 0.069685
#
# Coordination Sequence:
#
# PCOD9114731 Si02
#       8
#     2   2   2   2   2   2   2   2
#     4  10  21  39  58  83 111 157 212 267 288 360
#     4  10  19  31  58  95 128 159 200 252 309 361
#     4  10  19  37  60  83 120 155 206 255 301 352
#     4  11  23  39  61  89 128 164 196 248 322 371
#     4  10  20  37  56  91 131 156 195 254 309 369
#     4   9  19  37  55  88 118 156 192 256 311 360
#     4  11  23  38  62  85 116 163 216 252 308 368
#     4   9  18  32  60  88 122 154 199 248 304 357
#
# _framework density 20.313123000000001
#
# number of rings (size 3 to 8) (size 9 to 14) (size 15 to 20)
#    0.000    2.000    2.500    2.250    3.500    0.000 
#    2.250    0.000    0.000    0.000    9.750    0.000 
#    0.000    0.000    0.000    0.000    0.000    0.000 
#
# Total GULP energy -89117.862908 kJ/mol
# GULP energy per Si atom -5569.866432 kJ/mol
# Density = 2.026689 g / cm^3
# Si number density = 20.313123 Si / 1000 Ang^3
#
#
#
# Elastic Constant Matrix: (Units=GPa)
#
#
# Indices 1 2 3 4 5 6 
#
# 1 62.8721 13.4030 9.3271 0.0000 -3.8254 0.0000
# 2 13.4030 67.2680 -10.7553 0.0000 2.2757 0.0000
# 3 9.3271 -10.7553 10.0708 0.0000 -10.7665 0.0000
# 4 0.0000 0.0000 0.0000 22.5441 0.0000 6.6101
# 5 -3.8254 2.2757 -10.7665 0.0000 20.2131 0.0000
# 6 0.0000 0.0000 0.0000 6.6101 0.0000 28.5372
#
#
#
# Elastic Compliance Matrix: (Units=1/GPa)
#
#
# Indices 1 2 3 4 5 6 
#
# 1 0.032796 -0.021298 -0.102011 0.000000 -0.045731 0.000000
# 2 -0.021298 0.035566 0.114082 0.000000 0.052731 0.000000
# 3 -0.102011 0.114082 0.653208 0.000000 0.315781 0.000000
# 4 0.000000 0.000000 0.000000 0.047590 0.000000 -0.011023
# 5 -0.045731 0.052731 0.315781 0.000000 0.203081 0.000000
# 6 0.000000 0.000000 0.000000 -0.011023 0.000000 0.037595
#
#
# Mechanical properties :
#
#
# Convention : Reuss Voigt Hill
#
# Bulk Modulus (GPa) = 1.42224 18.24007 9.83115
# Shear Modulus (GPa) = 3.95989 22.80795 13.38392
#
# Velocity S-wave (km/s) = 1.39773 3.35448 2.56965
# Velocity P-wave (km/s) = 1.81839 4.89922 3.69519
#
# Compressibility (1/GPa) = 0.70311788
#
# Stress axis : x y z
#
# Youngs Moduli (GPa) = 30.49111 28.11678 1.53091
#
# Poissons Ratio (x) = 0.59883 0.15617
# Poissons Ratio (y) = 0.64939 -0.17465
# Poissons Ratio (z) = 3.11042 -3.20763
#
# Static dielectric constant tensor:
#      x y z
#    x 1.779270 0.000000 -0.009220 
#    y 0.000000 1.813160 0.000000 
#    z -0.009220 0.000000 1.750870 
# 
# From -- ./inp_files/9433.got.cif
#   From: 2010.05.17/outbox.cif.g08.bks.cpg/sg4_5_cif.got.tgz:9433.got - 2010.06.03 18:43:04.
