data_PCOD9114863
_publ_section_title
;
Structure prediction by ZEFSAII (Michael W. Deem and Ramdas Pophale) SiO2 
 PCOD9114863
Probable space group: P 21
;
_chemical_formula_sum "Si O2"
_cell_formula_units_Z 16
_cell_length_a 14.432726
_cell_length_b 9.531716
_cell_length_c 7.091419
_cell_angle_alpha 90.000000
_cell_angle_beta 138.868559
_cell_angle_gamma 90.000000
_cell_volume 641.710273
_symmetry_space_group_name_H-M "P 21"
_symmetry_group_IT_number 4
_symmetry_cell_setting 'monoclinic'
loop_
_space_group_symop_operation_xyz
x,y,z
-x,1/2+y,-z
loop_
_atom_site_type_symbol
_atom_site_label
_atom_site_fract_x
_atom_site_fract_y
_atom_site_fract_z
Si Si1 0.169957 0.587210 0.266143
Si Si2 0.344357 0.833951 0.656028
Si Si3 0.909547 0.794853 0.947903
Si Si4 0.647243 0.872217 0.020835
Si Si5 0.104550 0.895280 0.566650
Si Si6 0.760257 0.624612 0.016215
Si Si7 0.421525 0.886358 0.368626
Si Si8 0.246878 0.646182 0.959416
O O1 0.222108 0.594335 0.131411
O O2 0.030996 0.686962 0.066575
O O3 0.141537 0.422203 0.264496
O O4 0.123559 0.747796 0.701195
O O5 0.510956 0.855229 0.945298
O O6 0.242249 0.911498 0.643005
O O7 0.322672 0.884250 0.406025
O O8 0.290108 0.673723 0.563498
O O9 0.792688 0.698677 0.867803
O O10 0.978376 0.880073 0.229755
O O11 0.570919 0.873315 0.695397
O O12 0.728541 0.016550 0.139051
O O13 0.744852 0.737868 0.158474
O O14 0.116074 0.016991 0.736855
O O15 0.617850 0.531902 0.788049
O O16 0.379681 0.753871 0.177762
#
# Coordination Sequence:
#
# PCOD9114863 Si02
#       8
#     2   2   2   2   2   2   2   2
#     4  10  22  41  62  90 116 160 204 259 290 362
#     4   8  20  39  61  83 123 150 195 247 300 351
#     4  11  25  40  64  86 125 157 208 249 308 345
#     4  10  19  35  64  88 116 154 197 251 296 358
#     4  10  24  40  54  84 125 164 194 246 298 361
#     4  11  22  36  62  90 114 157 205 237 307 365
#     4   8  19  35  59  84 118 150 193 249 297 343
#     4  10  19  38  60  85 121 156 200 242 304 355
#
# _framework density 24.93337
#
# number of rings (size 3 to 8) (size 9 to 14) (size 15 to 20)
#    0.750    1.500    1.250    0.750    8.750    1.000 
#    0.000    2.500    0.000    0.000    0.000    0.000 
#    0.000    0.000    0.000    0.000    0.000    0.000 
#
# Total GULP energy -89320.653508 kJ/mol
# GULP energy per Si atom -5582.540844 kJ/mol
# Density = 2.487662 g / cm^3
# Si number density = 24.933370 Si / 1000 Ang^3
#
#
#
# Elastic Constant Matrix: (Units=GPa)
#
#
# Indices 1 2 3 4 5 6 
#
# 1 65.7093 30.6457 -12.8962 0.0000 10.1832 0.0000
# 2 30.6457 163.8442 10.9893 0.0000 8.5011 0.0000
# 3 -12.8962 10.9893 29.7532 0.0000 -2.0138 0.0000
# 4 0.0000 0.0000 0.0000 30.0621 0.0000 -6.7618
# 5 10.1832 8.5011 -2.0138 0.0000 29.7839 0.0000
# 6 0.0000 0.0000 0.0000 -6.7618 0.0000 24.2476
#
#
#
# Elastic Compliance Matrix: (Units=1/GPa)
#
#
# Indices 1 2 3 4 5 6 
#
# 1 0.019817 -0.004106 0.009771 0.000000 -0.004943 0.000000
# 2 -0.004106 0.007224 -0.004513 0.000000 -0.000963 0.000000
# 3 0.009771 -0.004513 0.039554 0.000000 0.000622 0.000000
# 4 0.000000 0.000000 0.000000 0.035491 0.000000 0.009897
# 5 -0.004943 -0.000963 0.000622 0.000000 0.035582 0.000000
# 6 0.000000 0.000000 0.000000 0.009897 0.000000 0.044001
#
#
# Mechanical properties :
#
#
# Convention : Reuss Voigt Hill
#
# Bulk Modulus (GPa) = 14.51359 35.19825 24.85592
# Shear Modulus (GPa) = 24.71209 32.18992 28.45101
#
# Velocity S-wave (km/s) = 3.15163 3.59700 3.38165
# Velocity P-wave (km/s) = 4.36775 5.60346 5.02375
#
# Compressibility (1/GPa) = 0.06890096
#
# Stress axis : x y z
#
# Youngs Moduli (GPa) = 50.46155 138.42880 25.28185
#
# Poissons Ratio (x) = 0.56832 -0.24704
# Poissons Ratio (y) = 0.20717 0.11409
# Poissons Ratio (z) = -0.49308 0.62471
#
# Static dielectric constant tensor:
#      x y z
#    x 1.957640 0.000000 0.011710 
#    y 0.000000 2.019690 0.000000 
#    z 0.011710 0.000000 2.014130 
# 
# From -- ./inp_files/9601.got.cif
#   From: 2010.05.17/outbox.cif.g08.bks.cpg/sg4_5_cif.got.tgz:9601.got - 2010.06.03 18:43:04.
