data_PCOD9114365
_publ_section_title
;
Structure prediction by ZEFSAII (Michael W. Deem and Ramdas Pophale) SiO2 
 PCOD9114365
Probable space group: P 2
;
_chemical_formula_sum "Si O2"
_cell_formula_units_Z 13
_cell_length_a 9.186732
_cell_length_b 4.841230
_cell_length_c 12.300828
_cell_angle_alpha 90.000000
_cell_angle_beta 100.766227
_cell_angle_gamma 90.000000
_cell_volume 537.450377
_symmetry_space_group_name_H-M "P 2"
_symmetry_group_IT_number 3
_symmetry_cell_setting 'monoclinic'
loop_
_space_group_symop_operation_xyz
x,y,z
-x,y,-z
loop_
_atom_site_type_symbol
_atom_site_label
_atom_site_fract_x
_atom_site_fract_y
_atom_site_fract_z
Si Si1 0.391578 0.513920 0.077875
Si Si2 0.430904 0.014647 0.231680
Si Si3 0.066234 0.998349 0.766811
Si Si4 0.898608 0.500047 0.083223
Si Si5 0.500000 0.506990 0.500000
Si Si6 0.705268 0.895022 0.381342
Si Si7 0.233116 0.117000 0.384493
O O1 0.359957 0.268323 0.157194
O O2 0.461509 0.765230 0.154235
O O3 0.500000 0.405573 0.000000
O O4 0.246789 0.616348 0.995436
O O5 0.315504 0.922774 0.308372
O O6 0.586816 0.097921 0.307650
O O7 0.142368 0.244358 0.845021
O O8 0.927695 0.152122 0.690023
O O9 0.023148 0.749946 0.841780
O O10 0.173261 0.849529 0.694120
O O11 0.000000 0.390342 0.000000
O O12 0.592023 0.678536 0.422020
O O13 0.365843 0.336671 0.424495
O O14 0.790749 0.004511 0.498269
#
# Coordination Sequence:
#
# PCOD9114365 Si02
#       7
#     2   2   2   2   1   2   2
#     4  12  25  43  70 105 142 189 256 324 377 447
#     4  12  23  43  74 104 141 201 251 310 390 461
#     4  12  29  47  78 112 155 207 256 326 400 463
#     4  12  26  51  72 109 152 203 260 323 391 471
#     4  12  24  48  82 106 170 206 268 316 392 468
#     4  12  26  47  73 115 157 204 262 326 389 478
#     4  12  26  47  73 113 149 208 254 320 385 477
#
# _framework density 24.188278
#
# number of rings (size 3 to 8) (size 9 to 14) (size 15 to 20)
#    0.000    0.000    3.077    6.923    4.308    0.000 
#    0.000    0.000    0.000    0.000    0.000    0.000 
#    0.000    0.000    0.000    0.000    0.000    0.000 
#
# Total GULP energy -72617.005440 kJ/mol
# GULP energy per Si atom -5585.923495 kJ/mol
# Density = 2.413322 g / cm^3
# Si number density = 24.188278 Si / 1000 Ang^3
#
#
#
# Elastic Constant Matrix: (Units=GPa)
#
#
# Indices 1 2 3 4 5 6 
#
# 1 95.8527 -5.4901 37.2327 0.0000 -2.8874 0.0000
# 2 -5.4901 87.4459 33.6862 0.0000 -0.5924 0.0000
# 3 37.2327 33.6862 132.4760 0.0000 -1.5492 0.0000
# 4 0.0000 0.0000 0.0000 24.8703 0.0000 -0.3611
# 5 -2.8874 -0.5924 -1.5492 0.0000 45.0428 0.0000
# 6 0.0000 0.0000 0.0000 -0.3611 0.0000 18.5307
#
#
#
# Elastic Compliance Matrix: (Units=1/GPa)
#
#
# Indices 1 2 3 4 5 6 
#
# 1 0.012134 0.002303 -0.003988 0.000000 0.000671 0.000000
# 2 0.002303 0.013115 -0.003980 0.000000 0.000183 0.000000
# 3 -0.003988 -0.003980 0.009682 0.000000 0.000025 0.000000
# 4 0.000000 0.000000 0.000000 0.040220 0.000000 0.000784
# 5 0.000671 0.000183 0.000025 0.000000 0.022247 0.000000
# 6 0.000000 0.000000 0.000000 0.000784 0.000000 0.053980
#
#
# Mechanical properties :
#
#
# Convention : Reuss Voigt Hill
#
# Bulk Modulus (GPa) = 42.37331 49.62580 45.99956
# Shear Modulus (GPa) = 29.31283 34.37850 31.84567
#
# Velocity S-wave (km/s) = 3.48496 3.77409 3.63240
# Velocity P-wave (km/s) = 5.80942 6.28909 6.05401
#
# Compressibility (1/GPa) = 0.02359976
#
# Stress axis : x y z
#
# Youngs Moduli (GPa) = 82.41439 76.25119 103.28853
#
# Poissons Ratio (x) = -0.17557 0.41190
# Poissons Ratio (y) = -0.18976 0.41107
# Poissons Ratio (z) = 0.32866 0.30346
#
# Static dielectric constant tensor:
#      x y z
#    x 1.910240 0.000000 0.005830 
#    y 0.000000 1.929640 0.000000 
#    z 0.005830 0.000000 1.922030 
# 
# From -- ./inp_files/10272.got.cif
#   From: 2010.05.17/outbox.cif.g08.bks.cpg/sg3_6_cif.got.tgz:10272.got - 2010.06.03 18:33:08.
