data_PCOD9114390
_publ_section_title
;
Structure prediction by ZEFSAII (Michael W. Deem and Ramdas Pophale) SiO2 
 PCOD9114390
Probable space group: P 2
;
_chemical_formula_sum "Si O2"
_cell_formula_units_Z 8
_cell_length_a 7.699569
_cell_length_b 8.840257
_cell_length_c 8.220810
_cell_angle_alpha 90.000000
_cell_angle_beta 33.819169
_cell_angle_gamma 90.000000
_cell_volume 311.435790
_symmetry_space_group_name_H-M "P 2"
_symmetry_group_IT_number 3
_symmetry_cell_setting 'monoclinic'
loop_
_space_group_symop_operation_xyz
x,y,z
-x,y,-z
loop_
_atom_site_type_symbol
_atom_site_label
_atom_site_fract_x
_atom_site_fract_y
_atom_site_fract_z
Si Si1 0.317418 0.616650 0.360395
Si Si2 0.942863 0.802624 0.862231
Si Si3 0.678204 0.334284 0.195448
Si Si4 0.845003 0.103052 0.781590
O O1 0.601588 0.730164 0.097786
O O2 0.462768 0.451009 0.264780
O O3 0.000000 0.620379 0.500000
O O4 0.191194 0.673619 0.630456
O O5 0.000000 0.854389 0.000000
O O6 0.013659 0.947172 0.694868
O O7 0.500000 0.283825 0.500000
O O8 0.795459 0.206195 0.978888
O O9 0.000000 0.411495 0.000000
O O10 0.000000 0.175071 0.500000
O O11 0.500000 0.058548 0.000000
#
# Coordination Sequence:
#
# PCOD9114390 Si02
#       4
#     2   2   2   2
#     4  12  26  47  75 110 147 193 248 310 372 442
#     4  12  25  46  76 109 147 195 249 307 371 443
#     4  12  27  49  76 111 151 197 249 309 374 445
#     4  12  27  48  74 110 151 197 249 308 372 444
#
# _framework density 25.687477999999999
#
# number of rings (size 3 to 8) (size 9 to 14) (size 15 to 20)
#    0.000    0.000    0.000   11.250    0.000    7.000 
#    0.000    3.750    0.000    0.000    0.000    0.000 
#    0.000    0.000    0.000    0.000    0.000    0.000 
#
# Total GULP energy -44813.310990 kJ/mol
# GULP energy per Si atom -5601.663874 kJ/mol
# Density = 2.562901 g / cm^3
# Si number density = 25.687478 Si / 1000 Ang^3
#
#
#
# Elastic Constant Matrix: (Units=GPa)
#
#
# Indices 1 2 3 4 5 6 
#
# 1 126.6128 38.3550 45.9651 0.0000 -4.2508 0.0000
# 2 38.3550 127.0888 53.5349 0.0000 7.8028 0.0000
# 3 45.9651 53.5349 174.3267 0.0000 15.5264 0.0000
# 4 0.0000 0.0000 0.0000 18.2991 0.0000 11.3330
# 5 -4.2508 7.8028 15.5264 0.0000 60.2306 0.0000
# 6 0.0000 0.0000 0.0000 11.3330 0.0000 24.3834
#
#
#
# Elastic Compliance Matrix: (Units=1/GPa)
#
#
# Indices 1 2 3 4 5 6 
#
# 1 0.009276 -0.002071 -0.001937 0.000000 0.001422 0.000000
# 2 -0.002071 0.009513 -0.002305 0.000000 -0.000784 0.000000
# 3 -0.001937 -0.002305 0.007104 0.000000 -0.001669 0.000000
# 4 0.000000 0.000000 0.000000 0.076736 0.000000 -0.035666
# 5 0.001422 -0.000784 -0.001669 0.000000 0.017235 0.000000
# 6 0.000000 0.000000 0.000000 -0.035666 0.000000 0.057588
#
#
# Mechanical properties :
#
#
# Convention : Reuss Voigt Hill
#
# Bulk Modulus (GPa) = 75.37714 78.19315 76.78515
# Shear Modulus (GPa) = 25.70687 39.92750 32.81719
#
# Velocity S-wave (km/s) = 3.16690 3.94681 3.57817
# Velocity P-wave (km/s) = 6.54064 7.16073 6.85770
#
# Compressibility (1/GPa) = 0.01326662
#
# Stress axis : x y z
#
# Youngs Moduli (GPa) = 107.80181 105.12093 140.77353
#
# Poissons Ratio (x) = 0.21772 0.27261
# Poissons Ratio (y) = 0.22327 0.32454
# Poissons Ratio (z) = 0.20876 0.24235
#
# Static dielectric constant tensor:
#      x y z
#    x 2.039720 0.000000 0.047100 
#    y 0.000000 1.940940 0.000000 
#    z 0.047100 0.000000 2.017630 
# 
# From -- ./inp_files/4077.got.cif
#   From: 2010.05.17/outbox.cif.g08.bks.cpg/sg3_3_cif.got.tgz:4077.got - 2010.06.03 18:33:08.
