data_PCOD9114585
_publ_section_title
;
Structure prediction by ZEFSAII (Michael W. Deem and Ramdas Pophale) SiO2 
 PCOD9114585
Probable space group: P 21
;
_chemical_formula_sum "Si O2"
_cell_formula_units_Z 16
_cell_length_a 11.292609
_cell_length_b 7.635727
_cell_length_c 10.588326
_cell_angle_alpha 90.000000
_cell_angle_beta 41.574511
_cell_angle_gamma 90.000000
_cell_volume 605.862533
_symmetry_space_group_name_H-M "P 21"
_symmetry_group_IT_number 4
_symmetry_cell_setting 'monoclinic'
loop_
_space_group_symop_operation_xyz
x,y,z
-x,1/2+y,-z
loop_
_atom_site_type_symbol
_atom_site_label
_atom_site_fract_x
_atom_site_fract_y
_atom_site_fract_z
Si Si1 0.822003 0.529350 0.920398
Si Si2 0.184477 0.875695 0.812517
Si Si3 0.416918 0.641229 0.313056
Si Si4 0.472677 0.246892 0.501923
Si Si5 0.940509 0.901677 0.789638
Si Si6 0.284168 0.506292 0.797415
Si Si7 0.658448 0.445724 0.814841
Si Si8 0.713501 0.861858 0.747734
O O1 0.884036 0.445429 0.000160
O O2 0.622252 0.610200 0.103748
O O3 0.944027 0.691122 0.786895
O O4 0.791464 0.402977 0.825990
O O5 0.397123 0.901233 0.652906
O O6 0.166794 0.666896 0.841184
O O7 0.105649 0.954825 0.747474
O O8 0.422875 0.696224 0.452696
O O9 0.332424 0.802328 0.301810
O O10 0.310788 0.464066 0.363938
O O11 0.295946 0.336503 0.697292
O O12 0.518592 0.098104 0.362614
O O13 0.780573 0.958464 0.012590
O O14 0.882968 0.935850 0.692110
O O15 0.699830 0.650140 0.748594
O O16 0.459282 0.422921 0.031976
#
# Coordination Sequence:
#
# PCOD9114585 Si02
#       8
#     2   2   2   2   2   2   2   2
#     4  10  20  35  57  89 119 148 207 258 299 361
#     4  10  24  37  61  88 124 163 195 254 316 364
#     4  11  20  36  59  86 123 155 206 258 303 361
#     4  10  22  39  55  91 120 164 202 250 303 374
#     4  11  20  40  61  90 125 155 204 257 312 367
#     4  10  22  37  61  87 123 163 203 253 313 358
#     4  10  18  33  55  90 117 149 204 261 305 341
#     4  10  20  33  59  89 117 157 203 259 303 360
#
# _framework density 26.408629999999999
#
# number of rings (size 3 to 8) (size 9 to 14) (size 15 to 20)
#    0.750    1.000    5.000    1.500    1.750    2.000 
#    0.000    0.000    5.500    0.000    0.000    0.000 
#    0.000    0.000    0.000    0.000    0.000    0.000 
#
# Total GULP energy -89193.394672 kJ/mol
# GULP energy per Si atom -5574.587167 kJ/mol
# Density = 2.634852 g / cm^3
# Si number density = 26.408630 Si / 1000 Ang^3
#
#
#
# Elastic Constant Matrix: (Units=GPa)
#
#
# Indices 1 2 3 4 5 6 
#
# 1 94.6197 32.0806 0.9623 0.0000 5.9819 0.0000
# 2 32.0806 92.3445 18.3971 0.0000 -2.2006 0.0000
# 3 0.9623 18.3971 41.4174 0.0000 7.8223 0.0000
# 4 0.0000 0.0000 0.0000 38.2760 0.0000 11.4105
# 5 5.9819 -2.2006 7.8223 0.0000 15.1443 0.0000
# 6 0.0000 0.0000 0.0000 11.4105 0.0000 40.5668
#
#
#
# Elastic Compliance Matrix: (Units=1/GPa)
#
#
# Indices 1 2 3 4 5 6 
#
# 1 0.012828 -0.005341 0.003521 0.000000 -0.007662 0.000000
# 2 -0.005341 0.014446 -0.007854 0.000000 0.008265 0.000000
# 3 0.003521 -0.007854 0.031059 0.000000 -0.018575 0.000000
# 4 0.000000 0.000000 0.000000 0.028517 0.000000 -0.008021
# 5 -0.007662 0.008265 -0.018575 0.000000 0.079853 0.000000
# 6 0.000000 0.000000 0.000000 -0.008021 0.000000 0.026907
#
#
# Mechanical properties :
#
#
# Convention : Reuss Voigt Hill
#
# Bulk Modulus (GPa) = 25.64948 36.80684 31.22816
# Shear Modulus (GPa) = 22.12861 30.59353 26.36107
#
# Velocity S-wave (km/s) = 2.89784 3.40732 3.16286
# Velocity P-wave (km/s) = 4.57496 5.42655 5.01885
#
# Compressibility (1/GPa) = 0.03898715
#
# Stress axis : x y z
#
# Youngs Moduli (GPa) = 77.95516 69.22378 32.19651
#
# Poissons Ratio (x) = 0.36969 -0.11337
# Poissons Ratio (y) = 0.41632 0.25286
# Poissons Ratio (z) = -0.27449 0.54366
#
# Static dielectric constant tensor:
#      x y z
#    x 2.124090 0.000000 -0.062920 
#    y 0.000000 2.226780 0.000000 
#    z -0.062920 0.000000 2.183720 
# 
# From -- ./inp_files/11862.got.cif
#   From: 2010.05.17/outbox.cif.g08.bks.cpg/sg4_6_cif.got.tgz:11862.got - 2010.06.03 18:43:04.
