data_PCOD9114378
_publ_section_title
;
Structure prediction by ZEFSAII (Michael W. Deem and Ramdas Pophale) SiO2 
 PCOD9114378
Probable space group: P 2
;
_chemical_formula_sum "Si O2"
_cell_formula_units_Z 13
_cell_length_a 8.927973
_cell_length_b 5.013764
_cell_length_c 12.795630
_cell_angle_alpha 90.000000
_cell_angle_beta 91.936504
_cell_angle_gamma 90.000000
_cell_volume 572.440468
_symmetry_space_group_name_H-M "P 2"
_symmetry_group_IT_number 3
_symmetry_cell_setting 'monoclinic'
loop_
_space_group_symop_operation_xyz
x,y,z
-x,y,-z
loop_
_atom_site_type_symbol
_atom_site_label
_atom_site_fract_x
_atom_site_fract_y
_atom_site_fract_z
Si Si1 0.412390 0.539680 0.890103
Si Si2 0.519320 0.043023 0.242454
Si Si3 0.025549 0.839705 0.749646
Si Si4 0.930378 0.358077 0.112846
Si Si5 0.500000 0.383385 0.500000
Si Si6 0.713869 0.769743 0.399405
Si Si7 0.256453 0.003756 0.381694
O O1 0.482793 0.328393 0.810818
O O2 0.238610 0.467472 0.899937
O O3 0.426625 0.831505 0.841625
O O4 0.500000 0.523044 0.000000
O O5 0.362529 0.943567 0.285621
O O6 0.636300 0.023099 0.341458
O O7 0.078121 0.074510 0.828414
O O8 0.906084 0.996634 0.674446
O O9 0.978749 0.583855 0.818505
O O10 0.150245 0.713181 0.674688
O O11 0.000000 0.325469 0.000000
O O12 0.577426 0.567751 0.413895
O O13 0.361582 0.229899 0.440081
O O14 0.765228 0.814870 0.518688
#
# Coordination Sequence:
#
# PCOD9114378 Si02
#       7
#     2   2   2   2   1   2   2
#     4  12  27  47  78 109 142 194 258 321 374 452
#     4  12  24  46  76 108 150 192 250 310 386 438
#     4  12  30  49  78 111 158 203 248 314 397 456
#     4  12  28  52  76 108 151 197 256 323 385 456
#     4  12  24  46  82 108 166 196 272 304 374 442
#     4  12  24  48  72 114 154 205 248 319 375 463
#     4  12  28  45  76 116 152 210 249 315 369 477
#
# _framework density 22.709786999999999
#
# number of rings (size 3 to 8) (size 9 to 14) (size 15 to 20)
#    0.000    0.000    6.154    2.308    8.615    0.000 
#    0.000    0.000    0.000    0.000    0.000    0.000 
#    0.000    0.000    0.000    0.000    0.000    0.000 
#
# Total GULP energy -72578.905385 kJ/mol
# GULP energy per Si atom -5582.992722 kJ/mol
# Density = 2.265810 g / cm^3
# Si number density = 22.709787 Si / 1000 Ang^3
#
#
#
# Elastic Constant Matrix: (Units=GPa)
#
#
# Indices 1 2 3 4 5 6 
#
# 1 76.6142 9.9651 55.5574 0.0000 -15.6001 0.0000
# 2 9.9651 99.8376 47.0843 0.0000 -1.6514 0.0000
# 3 55.5574 47.0843 144.6609 0.0000 -5.6515 0.0000
# 4 0.0000 0.0000 0.0000 33.0887 0.0000 -5.3268
# 5 -15.6001 -1.6514 -5.6515 0.0000 46.1225 0.0000
# 6 0.0000 0.0000 0.0000 -5.3268 0.0000 17.4870
#
#
#
# Elastic Compliance Matrix: (Units=1/GPa)
#
#
# Indices 1 2 3 4 5 6 
#
# 1 0.019771 0.001886 -0.007981 0.000000 0.005777 0.000000
# 2 0.001886 0.012013 -0.004615 0.000000 0.000503 0.000000
# 3 -0.007981 -0.004615 0.011423 0.000000 -0.001465 0.000000
# 4 0.000000 0.000000 0.000000 0.031780 0.000000 0.009681
# 5 0.005777 0.000503 -0.001465 0.000000 0.023474 0.000000
# 6 0.000000 0.000000 0.000000 0.009681 0.000000 0.060134
#
#
# Mechanical properties :
#
#
# Convention : Reuss Voigt Hill
#
# Bulk Modulus (GPa) = 45.89929 60.70293 53.30111
# Shear Modulus (GPa) = 26.69849 33.24003 29.96926
#
# Velocity S-wave (km/s) = 3.43248 3.82997 3.63666
# Velocity P-wave (km/s) = 5.99703 6.80780 6.41523
#
# Compressibility (1/GPa) = 0.02178683
#
# Stress axis : x y z
#
# Youngs Moduli (GPa) = 50.57890 83.24575 87.54474
#
# Poissons Ratio (x) = -0.15702 0.69873
# Poissons Ratio (y) = -0.09540 0.40399
# Poissons Ratio (z) = 0.40369 0.38415
#
# Static dielectric constant tensor:
#      x y z
#    x 1.878140 0.000000 0.015130 
#    y 0.000000 1.870940 0.000000 
#    z 0.015130 0.000000 1.850290 
# 
# From -- ./inp_files/10273.got.cif
#   From: 2010.05.17/outbox.cif.g08.bks.cpg/sg3_6_cif.got.tgz:10273.got - 2010.06.03 18:33:08.
