data_PCOD9114745
_publ_section_title
;
Structure prediction by ZEFSAII (Michael W. Deem and Ramdas Pophale) SiO2 
 PCOD9114745
Probable space group: P 21
;
_chemical_formula_sum "Si O2"
_cell_formula_units_Z 16
_cell_length_a 16.754254
_cell_length_b 9.696412
_cell_length_c 9.016197
_cell_angle_alpha 90.000000
_cell_angle_beta 38.696489
_cell_angle_gamma 90.000000
_cell_volume 915.745782
_symmetry_space_group_name_H-M "P 21"
_symmetry_group_IT_number 4
_symmetry_cell_setting 'monoclinic'
loop_
_space_group_symop_operation_xyz
x,y,z
-x,1/2+y,-z
loop_
_atom_site_type_symbol
_atom_site_label
_atom_site_fract_x
_atom_site_fract_y
_atom_site_fract_z
Si Si1 0.878448 0.643090 0.391688
Si Si2 0.382190 0.199305 0.080667
Si Si3 0.241776 0.217770 0.987177
Si Si4 0.044409 0.023478 0.414351
Si Si5 0.863875 0.293152 0.938145
Si Si6 0.507084 0.993681 0.122652
Si Si7 0.737976 0.524532 0.318471
Si Si8 0.235510 0.532224 0.081983
O O1 0.752052 0.719570 0.637106
O O2 0.915876 0.539084 0.471197
O O3 0.837999 0.567805 0.300662
O O4 0.000466 0.740752 0.195580
O O5 0.463380 0.337700 0.965287
O O6 0.396167 0.000241 0.406375
O O7 0.457090 0.079405 0.055195
O O8 0.271369 0.147324 0.788270
O O9 0.107097 0.154350 0.239280
O O10 0.341557 0.170286 0.970071
O O11 0.242621 0.383289 0.990559
O O12 0.101359 0.888918 0.253713
O O13 0.891858 0.025269 0.632564
O O14 0.786472 0.159452 0.996730
O O15 0.787352 0.389538 0.161532
O O16 0.637851 0.049722 0.004508
#
# Coordination Sequence:
#
# PCOD9114745 Si02
#       8
#     2   2   2   2   2   2   2   2
#     4   9  19  36  56  79 108 137 175 221 268 305
#     4   9  19  37  57  77 103 141 180 219 258 310
#     4   9  19  36  55  75 109 143 170 215 277 311
#     4   9  17  34  58  80 105 136 175 223 265 305
#     4  10  20  35  57  82 104 136 182 219 259 314
#     4  10  21  37  55  78 108 138 178 218 262 316
#     4  10  22  37  53  77 113 146 167 213 272 317
#     4  10  19  32  55  82 104 137 183 220 253 312
#
# _framework density 17.472099
#
# number of rings (size 3 to 8) (size 9 to 14) (size 15 to 20)
#    0.000    2.500    0.000    3.000    0.000    8.000 
#    0.000    8.750    0.000    1.500    0.000    0.000 
#    0.000    0.000    0.000    0.000    0.000    0.000 
#
# Total GULP energy -89218.898612 kJ/mol
# GULP energy per Si atom -5576.181163 kJ/mol
# Density = 1.743233 g / cm^3
# Si number density = 17.472099 Si / 1000 Ang^3
#
#
#
# Elastic Constant Matrix: (Units=GPa)
#
#
# Indices 1 2 3 4 5 6 
#
# 1 100.0135 57.1259 65.5017 0.0000 -7.2295 0.0000
# 2 57.1259 84.0384 50.7793 0.0000 1.5226 0.0000
# 3 65.5017 50.7793 81.4810 0.0000 4.5556 0.0000
# 4 0.0000 0.0000 0.0000 21.1931 0.0000 -3.5677
# 5 -7.2295 1.5226 4.5556 0.0000 24.2393 0.0000
# 6 0.0000 0.0000 0.0000 -3.5677 0.0000 24.8029
#
#
#
# Elastic Compliance Matrix: (Units=1/GPa)
#
#
# Indices 1 2 3 4 5 6 
#
# 1 0.026528 -0.007964 -0.017012 0.000000 0.011610 0.000000
# 2 -0.007964 0.021504 -0.006863 0.000000 -0.002436 0.000000
# 3 -0.017012 -0.006863 0.030809 0.000000 -0.010433 0.000000
# 4 0.000000 0.000000 0.000000 0.048356 0.000000 0.006956
# 5 0.011610 -0.002436 -0.010433 0.000000 0.046832 0.000000
# 6 0.000000 0.000000 0.000000 0.006956 0.000000 0.041318
#
#
# Mechanical properties :
#
#
# Convention : Reuss Voigt Hill
#
# Bulk Modulus (GPa) = 65.94764 68.03852 66.99308
# Shear Modulus (GPa) = 17.60077 20.18878 18.89477
#
# Velocity S-wave (km/s) = 3.17734 3.40293 3.29207
# Velocity P-wave (km/s) = 7.16151 7.38009 7.27162
#
# Compressibility (1/GPa) = 0.01516354
#
# Stress axis : x y z
#
# Youngs Moduli (GPa) = 37.69589 46.50312 32.45851
#
# Poissons Ratio (x) = 0.37035 0.55217
# Poissons Ratio (y) = 0.30021 0.22276
# Poissons Ratio (z) = 0.64127 0.31915
#
# Static dielectric constant tensor:
#      x y z
#    x 1.591790 0.000000 -0.007940 
#    y 0.000000 1.590790 0.000000 
#    z -0.007940 0.000000 1.588880 
# 
# From -- ./inp_files/9561.got.cif
#   From: 2010.05.17/outbox.cif.g08.bks.cpg/sg4_5_cif.got.tgz:9561.got - 2010.06.03 18:43:04.
