data_PCOD9114575
_publ_section_title
;
Structure prediction by ZEFSAII (Michael W. Deem and Ramdas Pophale) SiO2 
 PCOD9114575
Probable space group: P 21
;
_chemical_formula_sum "Si O2"
_cell_formula_units_Z 14
_cell_length_a 8.192625
_cell_length_b 5.039085
_cell_length_c 25.908506
_cell_angle_alpha 90.000000
_cell_angle_beta 145.836667
_cell_angle_gamma 90.000000
_cell_volume 600.632224
_symmetry_space_group_name_H-M "P 21"
_symmetry_group_IT_number 4
_symmetry_cell_setting 'monoclinic'
loop_
_space_group_symop_operation_xyz
x,y,z
-x,1/2+y,-z
loop_
_atom_site_type_symbol
_atom_site_label
_atom_site_fract_x
_atom_site_fract_y
_atom_site_fract_z
Si Si1 0.047625 0.254760 0.912881
Si Si2 0.261768 0.253085 0.133887
Si Si3 0.043865 0.127670 0.795404
Si Si4 0.580657 0.122366 0.112064
Si Si5 0.712654 0.425930 0.622801
Si Si6 0.189628 0.706764 0.458319
Si Si7 0.137209 0.686626 0.657238
O O1 0.958216 0.204922 0.830715
O O2 0.992890 0.552784 0.916885
O O3 0.378795 0.171080 0.009683
O O4 0.844491 0.053658 0.891466
O O5 0.384928 0.194204 0.109828
O O6 0.523542 0.193228 0.242389
O O7 0.317631 0.320826 0.856304
O O8 0.809794 0.226846 0.692579
O O9 0.146662 0.824259 0.819405
O O10 0.436352 0.610007 0.561933
O O11 0.980379 0.601323 0.670441
O O12 0.641804 0.257893 0.552298
O O13 0.968576 0.471081 0.388530
O O14 0.997507 0.967966 0.416743
#
# Coordination Sequence:
#
# PCOD9114575 Si02
#       7
#     2   2   2   2   2   2   2
#     4  12  26  42  61  94 134 168 204 264 329 373
#     4  12  23  42  64  92 126 170 214 257 308 389
#     4  12  25  40  66  95 129 163 212 268 322 371
#     4  12  23  44  66  91 121 173 223 261 301 375
#     4  10  20  34  60  93 125 151 210 264 313 355
#     4  10  18  32  56  95 118 149 202 276 296 352
#     4  10  19  34  57  90 117 154 203 258 305 355
#
# _framework density 23.308774
#
# number of rings (size 3 to 8) (size 9 to 14) (size 15 to 20)
#    0.857    0.000    2.857    6.000    0.000    0.000 
#    0.000    0.000    0.000    3.429    0.000    2.000 
#    0.000    0.000    0.000    0.000    0.000    0.000 
#
# Total GULP energy -78295.242570 kJ/mol
# GULP energy per Si atom -5592.517326 kJ/mol
# Density = 2.325572 g / cm^3
# Si number density = 23.308774 Si / 1000 Ang^3
#
#
#
# Elastic Constant Matrix: (Units=GPa)
#
#
# Indices 1 2 3 4 5 6 
#
# 1 39.1634 -6.0769 -24.3444 0.0000 -7.6871 0.0000
# 2 -6.0769 76.2990 9.9914 0.0000 7.0825 0.0000
# 3 -24.3444 9.9914 101.5261 0.0000 6.3823 0.0000
# 4 0.0000 0.0000 0.0000 42.0720 0.0000 9.9460
# 5 -7.6871 7.0825 6.3823 0.0000 10.7418 0.0000
# 6 0.0000 0.0000 0.0000 9.9460 0.0000 24.3131
#
#
#
# Elastic Compliance Matrix: (Units=1/GPa)
#
#
# Indices 1 2 3 4 5 6 
#
# 1 0.033716 -0.000077 0.006827 0.000000 0.020122 0.000000
# 2 -0.000077 0.014028 -0.000846 0.000000 -0.008802 0.000000
# 3 0.006827 -0.000846 0.011663 0.000000 -0.001487 0.000000
# 4 0.000000 0.000000 0.000000 0.026314 0.000000 -0.010764
# 5 0.020122 -0.008802 -0.001487 0.000000 0.114180 0.000000
# 6 0.000000 0.000000 0.000000 -0.010764 0.000000 0.045534
#
#
# Mechanical properties :
#
#
# Convention : Reuss Voigt Hill
#
# Bulk Modulus (GPa) = 14.04161 19.56984 16.80573
# Shear Modulus (GPa) = 19.42781 31.25330 25.34056
#
# Velocity S-wave (km/s) = 2.89017 3.66572 3.30080
# Velocity P-wave (km/s) = 4.14423 5.13135 4.66398
#
# Compressibility (1/GPa) = 0.07121690
#
# Stress axis : x y z
#
# Youngs Moduli (GPa) = 29.65990 71.28613 85.73838
#
# Poissons Ratio (x) = 0.00546 -0.58534
# Poissons Ratio (y) = 0.00227 0.07250
# Poissons Ratio (z) = -0.20249 0.06028
#
# Static dielectric constant tensor:
#      x y z
#    x 1.877120 0.000000 -0.015080 
#    y 0.000000 1.854110 0.000000 
#    z -0.015080 0.000000 1.917110 
# 
# From -- ./inp_files/16522.got.cif
#   From: 2010.05.17/outbox.cif.g08.bks.cpg/sg4_9_cif.got.tgz:16522.got - 2010.06.03 18:43:04.
