data_PCOD9114887
_publ_section_title
;
Structure prediction by ZEFSAII (Michael W. Deem and Ramdas Pophale) SiO2 
 PCOD9114887
Probable space group: P 21
;
_chemical_formula_sum "Si O2"
_cell_formula_units_Z 16
_cell_length_a 15.798899
_cell_length_b 5.026206
_cell_length_c 10.199334
_cell_angle_alpha 90.000000
_cell_angle_beta 69.602231
_cell_angle_gamma 90.000000
_cell_volume 759.128823
_symmetry_space_group_name_H-M "P 21"
_symmetry_group_IT_number 4
_symmetry_cell_setting 'monoclinic'
loop_
_space_group_symop_operation_xyz
x,y,z
-x,1/2+y,-z
loop_
_atom_site_type_symbol
_atom_site_label
_atom_site_fract_x
_atom_site_fract_y
_atom_site_fract_z
Si Si1 0.326851 0.705880 0.613794
Si Si2 0.221154 0.200632 0.719860
Si Si3 0.600589 0.076046 0.690461
Si Si4 0.521236 0.074923 0.280843
Si Si5 0.085700 0.058465 0.571126
Si Si6 0.034012 0.057908 0.313644
Si Si7 0.439135 0.695267 0.015299
Si Si8 0.940291 0.661572 0.994500
O O1 0.253105 0.502812 0.709632
O O2 0.327945 0.660616 0.457118
O O3 0.423762 0.620487 0.617371
O O4 0.305626 0.001819 0.671991
O O5 0.171199 0.135764 0.610268
O O6 0.049391 0.764080 0.622580
O O7 0.517499 0.280479 0.712419
O O8 0.625865 0.121645 0.829161
O O9 0.562202 0.781016 0.687248
O O10 0.586013 0.138749 0.121106
O O11 0.007224 0.262854 0.658271
O O12 0.149950 0.138981 0.871786
O O13 0.904802 0.591295 0.590228
O O14 0.076277 0.116737 0.150464
O O15 0.524764 0.495511 0.991399
O O16 0.012591 0.443513 0.003973
#
# Coordination Sequence:
#
# PCOD9114887 Si02
#       8
#     2   2   2   2   2   2   2   2
#     4  12  24  36  53  82 118 152 178 230 293 335
#     4  12  24  38  53  84 119 147 182 234 293 337
#     4  10  19  36  58  81 105 148 196 228 268 333
#     4  10  19  36  58  81 108 145 193 234 265 330
#     4  10  20  36  59  82 112 138 185 238 277 336
#     4  10  19  36  61  87 101 142 192 233 275 326
#     4   8  16  30  54  80 101 130 183 236 268 306
#     4  12  21  38  62  85 108 148 189 233 279 345
#
# _framework density 21.076789999999999
#
# number of rings (size 3 to 8) (size 9 to 14) (size 15 to 20)
#    0.000    1.500    2.500    3.750    0.000    0.000 
#    0.000    2.500    0.000    0.000    0.000    0.000 
#    0.000    0.000    0.000    0.000    0.000    0.000 
#
# Total GULP energy -89372.641387 kJ/mol
# GULP energy per Si atom -5585.790087 kJ/mol
# Density = 2.102882 g / cm^3
# Si number density = 21.076790 Si / 1000 Ang^3
#
#
#
# Elastic Constant Matrix: (Units=GPa)
#
#
# Indices 1 2 3 4 5 6 
#
# 1 17.8568 -4.3894 10.2975 0.0000 7.7057 0.0000
# 2 -4.3894 58.8802 4.4246 0.0000 -1.3340 0.0000
# 3 10.2975 4.4246 128.2931 0.0000 15.2249 0.0000
# 4 0.0000 0.0000 0.0000 23.9853 0.0000 -0.6534
# 5 7.7057 -1.3340 15.2249 0.0000 20.8725 0.0000
# 6 0.0000 0.0000 0.0000 -0.6534 0.0000 25.4558
#
#
#
# Elastic Compliance Matrix: (Units=1/GPa)
#
#
# Indices 1 2 3 4 5 6 
#
# 1 0.068792 0.004832 -0.002968 0.000000 -0.022923 0.000000
# 2 0.004832 0.017420 -0.000995 0.000000 0.000055 0.000000
# 3 -0.002968 -0.000995 0.008698 0.000000 -0.005312 0.000000
# 4 0.000000 0.000000 0.000000 0.041721 0.000000 0.001071
# 5 -0.022923 0.000055 -0.005312 0.000000 0.060251 0.000000
# 6 0.000000 0.000000 0.000000 0.001071 0.000000 0.039311
#
#
# Mechanical properties :
#
#
# Convention : Reuss Voigt Hill
#
# Bulk Modulus (GPa) = 10.34688 25.07728 17.71208
# Shear Modulus (GPa) = 18.74967 27.04255 22.89611
#
# Velocity S-wave (km/s) = 2.98583 3.58585 3.29951
# Velocity P-wave (km/s) = 4.09960 5.39151 4.78931
#
# Compressibility (1/GPa) = 0.09664746
#
# Stress axis : x y z
#
# Youngs Moduli (GPa) = 14.53653 57.40566 114.97428
#
# Poissons Ratio (x) = -0.27739 0.34124
# Poissons Ratio (y) = -0.07024 0.11442
# Poissons Ratio (z) = 0.04314 0.05713
#
# Static dielectric constant tensor:
#      x y z
#    x 1.728930 0.000000 0.014910 
#    y 0.000000 1.737130 0.000000 
#    z 0.014910 0.000000 1.819190 
# 
# From -- ./inp_files/12748.got.cif
#   From: 2010.05.17/outbox.cif.g08.bks.cpg/sg4_7_cif.got.tgz:12748.got - 2010.06.03 18:43:04.
