data_PCOD9114895
_publ_section_title
;
Structure prediction by ZEFSAII (Michael W. Deem and Ramdas Pophale) SiO2 
 PCOD9114895
Probable space group: P 21
;
_chemical_formula_sum "Si O2"
_cell_formula_units_Z 14
_cell_length_a 17.063946
_cell_length_b 5.020751
_cell_length_c 9.459173
_cell_angle_alpha 90.000000
_cell_angle_beta 132.025761
_cell_angle_gamma 90.000000
_cell_volume 602.003313
_symmetry_space_group_name_H-M "P 21"
_symmetry_group_IT_number 4
_symmetry_cell_setting 'monoclinic'
loop_
_space_group_symop_operation_xyz
x,y,z
-x,1/2+y,-z
loop_
_atom_site_type_symbol
_atom_site_label
_atom_site_fract_x
_atom_site_fract_y
_atom_site_fract_z
Si Si1 0.463499 0.755670 0.376179
Si Si2 0.127201 0.285591 0.882681
Si Si3 0.746846 0.270934 0.029372
Si Si4 0.902956 0.455590 0.667335
Si Si5 0.321529 0.963342 0.756287
Si Si6 0.618328 0.960828 0.330028
Si Si7 0.156772 0.454181 0.243051
O O1 0.506376 0.463590 0.464542
O O2 0.338921 0.751053 0.198992
O O3 0.522776 0.870885 0.311451
O O4 0.200883 0.484770 0.882545
O O5 0.147103 0.367420 0.070098
O O6 0.163684 0.985946 0.900559
O O7 0.005561 0.354665 0.709701
O O8 0.685466 0.374236 0.091960
O O9 0.798898 0.448455 0.445994
O O10 0.910294 0.748965 0.741898
O O11 0.883155 0.250059 0.772240
O O12 0.386221 0.754074 0.739528
O O13 0.365092 0.254816 0.777858
O O14 0.723320 0.937490 0.554947
#
# Coordination Sequence:
#
# PCOD9114895 Si02
#       7
#     2   2   2   2   2   2   2
#     4  12  25  43  66  94 120 152 195 247 310 360
#     4  12  23  38  60  89 125 162 194 248 302 340
#     4  12  26  40  60  89 124 157 202 247 287 361
#     4  10  21  37  61  87 121 160 200 244 292 356
#     4  10  23  41  60  90 119 160 207 238 288 352
#     4  10  21  39  64  84 119 159 196 252 294 343
#     4  10  19  36  59  89 116 152 206 248 295 354
#
# _framework density 23.255685
#
# number of rings (size 3 to 8) (size 9 to 14) (size 15 to 20)
#    0.000    1.143    0.000    6.857    0.000    4.571 
#    0.000    0.000    0.000    0.000    0.000    0.000 
#    0.000    0.000    0.000    0.000    0.000    0.000 
#
# Total GULP energy -78445.245141 kJ/mol
# GULP energy per Si atom -5603.231796 kJ/mol
# Density = 2.320275 g / cm^3
# Si number density = 23.255685 Si / 1000 Ang^3
#
#
#
# Elastic Constant Matrix: (Units=GPa)
#
#
# Indices 1 2 3 4 5 6 
#
# 1 66.9758 -13.3595 7.6276 0.0000 14.3659 0.0000
# 2 -13.3595 72.8303 4.4192 0.0000 9.5801 0.0000
# 3 7.6276 4.4192 46.9124 0.0000 3.9988 0.0000
# 4 0.0000 0.0000 0.0000 11.1719 0.0000 -7.5871
# 5 14.3659 9.5801 3.9988 0.0000 35.6375 0.0000
# 6 0.0000 0.0000 0.0000 -7.5871 0.0000 38.2083
#
#
#
# Elastic Compliance Matrix: (Units=1/GPa)
#
#
# Indices 1 2 3 4 5 6 
#
# 1 0.017872 0.004506 -0.002638 0.000000 -0.008120 0.000000
# 2 0.004506 0.015419 -0.001693 0.000000 -0.005772 0.000000
# 3 -0.002638 -0.001693 0.021986 0.000000 -0.000948 0.000000
# 4 0.000000 0.000000 0.000000 0.103463 0.000000 0.020545
# 5 -0.008120 -0.005772 -0.000948 0.000000 0.032991 0.000000
# 6 0.000000 0.000000 0.000000 0.020545 0.000000 0.030252
#
#
# Mechanical properties :
#
#
# Convention : Reuss Voigt Hill
#
# Bulk Modulus (GPa) = 17.97706 20.45477 19.21591
# Shear Modulus (GPa) = 20.81817 29.53894 25.17855
#
# Velocity S-wave (km/s) = 2.99521 3.56783 3.29399
# Velocity P-wave (km/s) = 4.43945 5.07811 4.76948
#
# Compressibility (1/GPa) = 0.05562646
#
# Stress axis : x y z
#
# Youngs Moduli (GPa) = 55.95426 64.85451 45.48430
#
# Poissons Ratio (x) = -0.29226 0.12000
# Poissons Ratio (y) = -0.25215 0.07702
# Poissons Ratio (z) = 0.14762 0.10981
#
# Static dielectric constant tensor:
#      x y z
#    x 1.852210 0.000000 0.011580 
#    y 0.000000 1.805060 0.000000 
#    z 0.011580 0.000000 1.898810 
# 
# From -- ./inp_files/7281.got.cif
#   From: 2010.05.17/outbox.cif.g08.bks.cpg/sg4_4_cif.got.tgz:7281.got - 2010.06.03 18:43:04.
