data_PCOD9114801
_publ_section_title
;
Structure prediction by ZEFSAII (Michael W. Deem and Ramdas Pophale) SiO2 
 PCOD9114801
Probable space group: P 21
;
_chemical_formula_sum "Si O2"
_cell_formula_units_Z 14
_cell_length_a 17.009360
_cell_length_b 5.164808
_cell_length_c 12.479516
_cell_angle_alpha 90.000000
_cell_angle_beta 43.465396
_cell_angle_gamma 90.000000
_cell_volume 754.180906
_symmetry_space_group_name_H-M "P 21"
_symmetry_group_IT_number 4
_symmetry_cell_setting 'monoclinic'
loop_
_space_group_symop_operation_xyz
x,y,z
-x,1/2+y,-z
loop_
_atom_site_type_symbol
_atom_site_label
_atom_site_fract_x
_atom_site_fract_y
_atom_site_fract_z
Si Si1 0.598954 0.801700 0.185978
Si Si2 0.360939 0.759283 0.531947
Si Si3 0.255820 0.507948 0.442769
Si Si4 0.974324 0.197485 0.956454
Si Si5 0.475256 0.633632 0.091748
Si Si6 0.287741 0.783010 0.842252
Si Si7 0.161403 0.007390 0.608578
O O1 0.486393 0.838426 0.371128
O O2 0.551717 0.722816 0.116725
O O3 0.672902 0.566604 0.160667
O O4 0.669587 0.066263 0.117220
O O5 0.325121 0.524836 0.487864
O O6 0.347891 0.714087 0.669557
O O7 0.263263 0.964940 0.594723
O O8 0.347840 0.583442 0.262914
O O9 0.159871 0.729436 0.552364
O O10 0.202895 0.226979 0.486320
O O11 0.051766 0.100024 0.781531
O O12 0.974112 0.957689 0.040777
O O13 0.846864 0.262518 0.045336
O O14 0.520381 0.367472 0.996732
#
# Coordination Sequence:
#
# PCOD9114801 Si02
#       7
#     2   2   2   2   2   2   2
#     4  11  25  36  56  86 122 149 198 234 306 380
#     4   9  21  34  56  78 124 159 192 225 281 351
#     4   9  20  33  57  86 113 139 201 238 292 345
#     4  12  22  37  56  82 120 169 221 238 268 338
#     4  11  22  40  64  87 114 149 191 258 317 365
#     4  12  23  36  54  86 124 167 185 240 291 334
#     4  10  19  34  55  81 115 156 202 245 259 333
#
# _framework density 18.563186000000002
#
# number of rings (size 3 to 8) (size 9 to 14) (size 15 to 20)
#    0.857    0.571    1.429    5.143    6.000    0.000 
#    0.000    0.000    0.000    0.000    0.000   20.000 
#    0.000    0.000    0.000    0.000    0.000    0.000 
#
# Total GULP energy -78097.779066 kJ/mol
# GULP energy per Si atom -5578.412790 kJ/mol
# Density = 1.852094 g / cm^3
# Si number density = 18.563186 Si / 1000 Ang^3
#
#
#
# Elastic Constant Matrix: (Units=GPa)
#
#
# Indices 1 2 3 4 5 6 
#
# 1 37.3512 -5.9478 22.1911 0.0000 -15.8334 0.0000
# 2 -5.9478 38.0585 -8.2027 0.0000 7.0627 0.0000
# 3 22.1911 -8.2027 67.5049 0.0000 5.1572 0.0000
# 4 0.0000 0.0000 0.0000 26.2129 0.0000 1.9767
# 5 -15.8334 7.0627 5.1572 0.0000 21.4412 0.0000
# 6 0.0000 0.0000 0.0000 1.9767 0.0000 27.2100
#
#
#
# Elastic Compliance Matrix: (Units=1/GPa)
#
#
# Indices 1 2 3 4 5 6 
#
# 1 0.065930 -0.006068 -0.026775 0.000000 0.057126 0.000000
# 2 -0.006068 0.029753 0.006827 0.000000 -0.015924 0.000000
# 3 -0.026775 0.006827 0.026617 0.000000 -0.028423 0.000000
# 4 0.000000 0.000000 0.000000 0.038359 0.000000 -0.002787
# 5 0.057126 -0.015924 -0.028423 0.000000 0.100906 0.000000
# 6 0.000000 0.000000 0.000000 -0.002787 0.000000 0.036954
#
#
# Mechanical properties :
#
#
# Convention : Reuss Voigt Hill
#
# Bulk Modulus (GPa) = 14.23139 17.66618 15.94878
# Shear Modulus (GPa) = 13.36989 23.96442 18.66716
#
# Velocity S-wave (km/s) = 2.68663 3.59690 3.17456
# Velocity P-wave (km/s) = 4.16018 5.17568 4.69546
#
# Compressibility (1/GPa) = 0.07026721
#
# Stress axis : x y z
#
# Youngs Moduli (GPa) = 15.16757 33.60953 37.57050
#
# Poissons Ratio (x) = 0.20395 1.00595
# Poissons Ratio (y) = 0.09204 -0.25649
# Poissons Ratio (z) = 0.40611 -0.22945
#
# Static dielectric constant tensor:
#      x y z
#    x 1.638710 0.000000 0.008650 
#    y 0.000000 1.657100 0.000000 
#    z 0.008650 0.000000 1.638300 
# 
# From -- ./inp_files/12418.got.cif
#   From: 2010.05.17/outbox.cif.g08.bks.cpg/sg4_7_cif.got.tgz:12418.got - 2010.06.03 18:43:04.
