data_PCOD9114206
_publ_section_title
;
Structure prediction by ZEFSAII (Michael W. Deem and Ramdas Pophale) SiO2 
 PCOD9114206
Probable space group: P 2
;
_chemical_formula_sum "Si O2"
_cell_formula_units_Z 8
_cell_length_a 5.213384
_cell_length_b 7.041830
_cell_length_c 9.647152
_cell_angle_alpha 90.000000
_cell_angle_beta 58.982857
_cell_angle_gamma 90.000000
_cell_volume 303.523180
_symmetry_space_group_name_H-M "P 2"
_symmetry_group_IT_number 3
_symmetry_cell_setting 'monoclinic'
loop_
_space_group_symop_operation_xyz
x,y,z
-x,y,-z
loop_
_atom_site_type_symbol
_atom_site_label
_atom_site_fract_x
_atom_site_fract_y
_atom_site_fract_z
Si Si1 0.486377 0.633120 0.165014
Si Si2 0.288958 0.124257 0.461359
Si Si3 0.192289 0.516658 0.652350
Si Si4 0.353629 0.079375 0.897952
O O1 0.723859 0.541434 0.207596
O O2 0.574053 0.855836 0.141357
O O3 0.131693 0.602376 0.294952
O O4 0.500000 0.569490 0.000000
O O5 0.500000 0.005875 0.500000
O O6 0.185999 0.304053 0.583870
O O7 0.000000 0.012598 0.500000
O O8 0.471985 0.178165 0.275447
O O9 0.500000 0.595197 0.500000
O O10 0.500000 0.139913 0.000000
O O11 0.000000 0.108479 0.000000
#
# Coordination Sequence:
#
# PCOD9114206 Si02
#       4
#     2   2   2   2
#     4  11  23  43  70 101 134 176 228 283 341 399
#     4  11  24  45  66  98 140 180 228 273 336 411
#     4  11  23  43  66  98 141 179 225 275 336 410
#     4  11  24  45  72 101 135 177 227 283 341 402
#
# _framework density 26.357130000000002
#
# number of rings (size 3 to 8) (size 9 to 14) (size 15 to 20)
#    0.000    1.000    0.000    9.000    0.000    3.000 
#    0.000   31.250    0.000    0.000    0.000    0.000 
#    0.000    0.000    0.000    0.000    0.000    0.000 
#
# Total GULP energy -44744.931929 kJ/mol
# GULP energy per Si atom -5593.116491 kJ/mol
# Density = 2.629714 g / cm^3
# Si number density = 26.357130 Si / 1000 Ang^3
#
#
#
# Elastic Constant Matrix: (Units=GPa)
#
#
# Indices 1 2 3 4 5 6 
#
# 1 288.7456 18.1473 84.4021 0.0000 -10.8349 0.0000
# 2 18.1473 120.0675 7.6547 0.0000 5.3088 0.0000
# 3 84.4021 7.6547 147.1865 0.0000 11.3682 0.0000
# 4 0.0000 0.0000 0.0000 47.6455 0.0000 -20.0516
# 5 -10.8349 5.3088 11.3682 0.0000 74.9252 0.0000
# 6 0.0000 0.0000 0.0000 -20.0516 0.0000 52.3684
#
#
#
# Elastic Compliance Matrix: (Units=1/GPa)
#
#
# Indices 1 2 3 4 5 6 
#
# 1 0.004266 -0.000531 -0.002498 0.000000 0.001034 0.000000
# 2 -0.000531 0.008444 -0.000083 0.000000 -0.000662 0.000000
# 3 -0.002498 -0.000083 0.008356 0.000000 -0.001623 0.000000
# 4 0.000000 0.000000 0.000000 0.025020 0.000000 0.009580
# 5 0.001034 -0.000662 -0.001623 0.000000 0.013789 0.000000
# 6 0.000000 0.000000 0.000000 0.009580 0.000000 0.022764
#
#
# Mechanical properties :
#
#
# Convention : Reuss Voigt Hill
#
# Bulk Modulus (GPa) = 67.38547 86.26752 76.82650
# Shear Modulus (GPa) = 53.29858 64.70752 59.00305
#
# Velocity S-wave (km/s) = 4.50173 4.96020 4.73652
# Velocity P-wave (km/s) = 7.25552 8.09976 7.68924
#
# Compressibility (1/GPa) = 0.01483999
#
# Stress axis : x y z
#
# Youngs Moduli (GPa) = 234.42860 118.43379 119.66833
#
# Poissons Ratio (x) = 0.06291 0.29897
# Poissons Ratio (y) = 0.12452 0.00998
# Poissons Ratio (z) = 0.58567 0.00987
#
# Static dielectric constant tensor:
#      x y z
#    x 2.159020 0.000000 0.044510 
#    y 0.000000 2.067740 0.000000 
#    z 0.044510 0.000000 2.072050 
# 
# From -- ./inp_files/4128.got.cif
#   From: 2010.05.17/outbox.cif.g08.bks.cpg/sg3_3_cif.got.tgz:4128.got - 2010.06.03 18:33:08.
