data_PCOD9114042
_publ_section_title
;
Structure prediction by ZEFSAII (Michael W. Deem and Ramdas Pophale) SiO2 
 PCOD9114042
Probable space group: P 2
;
_chemical_formula_sum "Si O2"
_cell_formula_units_Z 14
_cell_length_a 11.710574
_cell_length_b 5.975779
_cell_length_c 8.347031
_cell_angle_alpha 90.000000
_cell_angle_beta 100.796437
_cell_angle_gamma 90.000000
_cell_volume 573.783949
_symmetry_space_group_name_H-M "P 2"
_symmetry_group_IT_number 3
_symmetry_cell_setting 'monoclinic'
loop_
_space_group_symop_operation_xyz
x,y,z
-x,y,-z
loop_
_atom_site_type_symbol
_atom_site_label
_atom_site_fract_x
_atom_site_fract_y
_atom_site_fract_z
Si Si1 0.000000 0.240080 0.500000
Si Si2 0.573695 0.734866 0.890678
Si Si3 0.844825 0.000313 0.191219
Si Si4 0.227706 0.406066 0.068836
Si Si5 0.221370 0.340194 0.430617
Si Si6 0.000000 0.702102 0.000000
Si Si7 0.660300 0.653804 0.304241
Si Si8 0.618630 0.970567 0.579209
O O1 0.915000 0.106596 0.358687
O O2 0.915517 0.377952 0.593388
O O3 0.675869 0.573541 0.975985
O O4 0.463883 0.588717 0.803217
O O5 0.617972 0.893306 0.761540
O O6 0.500000 0.879674 0.000000
O O7 0.743431 0.836345 0.235589
O O8 0.793670 0.188095 0.050664
O O9 0.944074 0.861669 0.121183
O O10 0.268783 0.394998 0.265795
O O11 0.107310 0.536766 0.057120
O O12 0.268858 0.447921 0.606000
O O13 0.261530 0.085300 0.436401
O O14 0.616505 0.765878 0.457962
O O15 0.500000 0.103202 0.500000
#
# Coordination Sequence:
#
# PCOD9114042 Si02
#       8
#     1   2   2   2   2   1   2   2
#     4  12  28  46  78 114 152 206 270 322 400 478
#     4  11  26  48  77 111 158 208 269 331 417 477
#     4  12  29  51  78 116 161 208 275 336 414 484
#     4  12  29  50  78 113 159 216 266 340 409 489
#     4  12  27  46  78 112 158 209 268 327 404 484
#     4  12  28  50  78 104 166 202 270 338 410 490
#     4  11  26  49  77 115 156 208 270 333 398 483
#     4  10  24  47  73 111 154 203 261 331 397 480
#
# _framework density 24.399428
#
# number of rings (size 3 to 8) (size 9 to 14) (size 15 to 20)
#    0.000    0.571    2.857    3.000   16.000    0.000 
#    2.571    0.000    0.000    0.000    0.000    0.000 
#    0.000    0.000    0.000    0.000    0.000    0.000 
#
# Total GULP energy -78011.572625 kJ/mol
# GULP energy per Si atom -5572.255188 kJ/mol
# Density = 2.434389 g / cm^3
# Si number density = 24.399428 Si / 1000 Ang^3
#
#
#
# Elastic Constant Matrix: (Units=GPa)
#
#
# Indices 1 2 3 4 5 6 
#
# 1 142.0008 37.9704 34.7670 0.0000 -15.6273 0.0000
# 2 37.9704 55.9995 47.4760 0.0000 -8.1800 0.0000
# 3 34.7670 47.4760 102.8664 0.0000 -8.1790 0.0000
# 4 0.0000 0.0000 0.0000 24.0354 0.0000 18.4626
# 5 -15.6273 -8.1800 -8.1790 0.0000 58.0009 0.0000
# 6 0.0000 0.0000 0.0000 18.4626 0.0000 -37.5899
#
#
#
# Elastic Compliance Matrix: (Units=1/GPa)
#
#
# Indices 1 2 3 4 5 6 
#
# 1 0.008743 -0.005424 -0.000329 0.000000 0.001544 0.000000
# 2 -0.005424 0.032995 -0.013290 0.000000 0.001318 0.000000
# 3 -0.000329 -0.013290 0.015990 0.000000 0.000292 0.000000
# 4 0.000000 0.000000 0.000000 0.030208 0.000000 0.014837
# 5 0.001544 0.001318 0.000292 0.000000 0.017884 0.000000
# 6 0.000000 0.000000 0.000000 0.014837 0.000000 -0.019316
#
#
# Mechanical properties :
#
#
# Convention : Reuss Voigt Hill
#
# Bulk Modulus (GPa) = 50.91246 60.14372 55.52809
# Shear Modulus (GPa) = 38.12810 20.93284 29.53047
#
# Velocity S-wave (km/s) = 3.95734 2.93221 3.48270
# Velocity P-wave (km/s) = 6.46470 6.01390 6.24337
#
# Compressibility (1/GPa) = 0.01964156
#
# Stress axis : x y z
#
# Youngs Moduli (GPa) = 114.37742 30.30796 62.54085
#
# Poissons Ratio (x) = 0.16438 0.02058
# Poissons Ratio (y) = 0.62034 0.83118
# Poissons Ratio (z) = 0.03763 0.40280
#
# Static dielectric constant tensor:
#      x y z
#    x 2.306070 0.000000 0.221530 
#    y 0.000000 2.035160 0.000000 
#    z 0.221530 0.000000 2.329090 
# 
# From -- ./inp_files/6762.got.cif
#   From: 2010.05.17/outbox.cif.g08.bks.cpg/sg3_4_cif.got.tgz:6762.got - 2010.06.03 18:33:08.
