data_PCOD9114559
_publ_section_title
;
Structure prediction by ZEFSAII (Michael W. Deem and Ramdas Pophale) SiO2 
 PCOD9114559
Probable space group: P 21
;
_chemical_formula_sum "Si O2"
_cell_formula_units_Z 16
_cell_length_a 7.360155
_cell_length_b 7.830662
_cell_length_c 11.423659
_cell_angle_alpha 90.000000
_cell_angle_beta 108.062688
_cell_angle_gamma 90.000000
_cell_volume 625.953853
_symmetry_space_group_name_H-M "P 21"
_symmetry_group_IT_number 4
_symmetry_cell_setting 'monoclinic'
loop_
_space_group_symop_operation_xyz
x,y,z
-x,1/2+y,-z
loop_
_atom_site_type_symbol
_atom_site_label
_atom_site_fract_x
_atom_site_fract_y
_atom_site_fract_z
Si Si1 0.656434 0.954980 0.667419
Si Si2 0.132753 0.739895 0.580703
Si Si3 0.722107 0.062094 0.914262
Si Si4 0.941179 0.603944 0.330760
Si Si5 0.537529 0.615606 0.573027
Si Si6 0.890682 0.106319 0.170071
Si Si7 0.293480 0.939523 0.178738
Si Si8 0.152038 0.009667 0.918954
O O1 0.847688 0.062836 0.680907
O O2 0.687202 0.768593 0.617970
O O3 0.627270 0.935813 0.800708
O O4 0.487625 0.041523 0.560555
O O5 0.975140 0.726536 0.446365
O O6 0.334067 0.696550 0.563170
O O7 0.121192 0.618062 0.692366
O O8 0.127362 0.929311 0.626489
O O9 0.667055 0.247213 0.854123
O O10 0.721535 0.032356 0.052873
O O11 0.949447 0.057498 0.934731
O O12 0.814669 0.625156 0.189068
O O13 0.578659 0.482645 0.684263
O O14 0.880994 0.309010 0.125799
O O15 0.080888 0.993644 0.182426
O O16 0.299880 0.034476 0.054062
#
# Coordination Sequence:
#
# PCOD9114559 Si02
#       8
#     2   2   2   2   2   2   2   2
#     4  10  21  37  55  75 103 135 177 215 250 303
#     4  10  21  35  53  77 105 133 168 211 262 309
#     4   9  17  32  55  80 100 133 181 216 244 296
#     4   9  19  36  54  74 101 135 173 213 248 300
#     4  11  22  35  53  79 106 135 168 213 263 309
#     4   9  18  34  55  77 104 137 173 215 254 299
#     4  10  18  31  56  79 103 135 170 213 259 300
#     4   8  16  32  53  75 100 133 178 216 244 290
#
# _framework density 25.560987000000001
#
# number of rings (size 3 to 8) (size 9 to 14) (size 15 to 20)
#    0.000    2.500    0.000    3.000    0.000    6.000 
#    0.000    3.750    0.000    3.000    0.000    0.000 
#    0.000    0.000    0.000    0.000    0.000    0.000 
#
# Total GULP energy -89262.391607 kJ/mol
# GULP energy per Si atom -5578.899475 kJ/mol
# Density = 2.550281 g / cm^3
# Si number density = 25.560987 Si / 1000 Ang^3
#
#
#
# Elastic Constant Matrix: (Units=GPa)
#
#
# Indices 1 2 3 4 5 6 
#
# 1 45.8385 -1.6001 19.8193 0.0000 -5.8277 0.0000
# 2 -1.6001 36.3315 26.5096 0.0000 2.7615 0.0000
# 3 19.8193 26.5096 135.9488 0.0000 -2.7231 0.0000
# 4 0.0000 0.0000 0.0000 36.6818 0.0000 -2.7810
# 5 -5.8277 2.7615 -2.7231 0.0000 22.7966 0.0000
# 6 0.0000 0.0000 0.0000 -2.7810 0.0000 18.9900
#
#
#
# Elastic Compliance Matrix: (Units=1/GPa)
#
#
# Indices 1 2 3 4 5 6 
#
# 1 0.024427 0.003724 -0.004181 0.000000 0.005294 0.000000
# 2 0.003724 0.033157 -0.007087 0.000000 -0.003911 0.000000
# 3 -0.004181 -0.007087 0.009365 0.000000 0.000908 0.000000
# 4 0.000000 0.000000 0.000000 0.027568 0.000000 0.004037
# 5 0.005294 -0.003911 0.000908 0.000000 0.045802 0.000000
# 6 0.000000 0.000000 0.000000 0.004037 0.000000 0.053250
#
#
# Mechanical properties :
#
#
# Convention : Reuss Voigt Hill
#
# Bulk Modulus (GPa) = 19.28224 34.17516 26.72870
# Shear Modulus (GPa) = 22.12952 27.25301 24.69127
#
# Velocity S-wave (km/s) = 2.94556 3.26881 3.11139
# Velocity P-wave (km/s) = 4.37361 5.25793 4.83603
#
# Compressibility (1/GPa) = 0.05186119
#
# Stress axis : x y z
#
# Youngs Moduli (GPa) = 40.93894 30.16000 106.77654
#
# Poissons Ratio (x) = -0.11232 0.44646
# Poissons Ratio (y) = -0.15247 0.75669
# Poissons Ratio (z) = 0.17118 0.21374
#
# Static dielectric constant tensor:
#      x y z
#    x 2.062270 0.000000 0.031180 
#    y 0.000000 2.092940 0.000000 
#    z 0.031180 0.000000 2.144260 
# 
# From -- ./inp_files/7642.got.cif
#   From: 2010.05.17/outbox.cif.g08.bks.cpg/sg4_4_cif.got.tgz:7642.got - 2010.06.03 18:43:04.
