data_PCOD9114528
_publ_section_title
;
Structure prediction by ZEFSAII (Michael W. Deem and Ramdas Pophale) SiO2 
 PCOD9114528
Probable space group: P 21
;
_chemical_formula_sum "Si O2"
_cell_formula_units_Z 16
_cell_length_a 7.867727
_cell_length_b 12.459113
_cell_length_c 12.833391
_cell_angle_alpha 90.000000
_cell_angle_beta 30.700611
_cell_angle_gamma 90.000000
_cell_volume 642.270373
_symmetry_space_group_name_H-M "P 21"
_symmetry_group_IT_number 4
_symmetry_cell_setting 'monoclinic'
loop_
_space_group_symop_operation_xyz
x,y,z
-x,1/2+y,-z
loop_
_atom_site_type_symbol
_atom_site_label
_atom_site_fract_x
_atom_site_fract_y
_atom_site_fract_z
Si Si1 0.035060 0.153810 0.747216
Si Si2 0.547938 0.717359 0.662562
Si Si3 0.315900 0.439078 0.301386
Si Si4 0.281034 0.546941 0.538325
Si Si5 0.085162 0.760756 0.715791
Si Si6 0.558393 0.953077 0.985191
Si Si7 0.766719 0.860101 0.271075
Si Si8 0.417859 0.979853 0.286173
O O1 0.133122 0.200939 0.582532
O O2 0.368031 0.090227 0.603974
O O3 0.992793 0.257921 0.842754
O O4 0.756304 0.064759 0.894326
O O5 0.626268 0.819030 0.690868
O O6 0.229395 0.740091 0.756059
O O7 0.504400 0.604999 0.743066
O O8 0.350102 0.515688 0.383114
O O9 0.547776 0.459316 0.079828
O O10 0.931457 0.457603 0.471952
O O11 0.026171 0.645103 0.692953
O O12 0.192511 0.446810 0.658403
O O13 0.404664 0.808810 0.487840
O O14 0.790586 0.846188 0.867899
O O15 0.355689 0.946881 0.199574
O O16 0.714530 0.915569 0.186936
#
# Coordination Sequence:
#
# PCOD9114528 Si02
#       8
#     2   2   2   2   2   2   2   2
#     4  10  19  40  68  94 116 168 220 269 316 371
#     4  10  20  41  71  88 125 174 218 274 319 371
#     4  12  23  41  63  94 134 173 203 269 328 397
#     4  10  18  36  72  89 115 168 217 255 322 373
#     4  10  19  39  71  92 118 168 221 270 314 372
#     4  12  25  41  61  98 137 169 208 265 329 388
#     4  10  17  40  66  92 113 161 223 255 312 367
#     4  12  25  42  64  97 132 171 216 263 328 397
#
# _framework density 24.911626999999999
#
# number of rings (size 3 to 8) (size 9 to 14) (size 15 to 20)
#    0.000    1.500    8.750    0.000    1.750    1.000 
#    2.250    2.500    0.000    0.000    0.000    0.000 
#    0.000    0.000    0.000    0.000    0.000    0.000 
#
# Total GULP energy -89539.448880 kJ/mol
# GULP energy per Si atom -5596.215555 kJ/mol
# Density = 2.485493 g / cm^3
# Si number density = 24.911627 Si / 1000 Ang^3
#
#
#
# Elastic Constant Matrix: (Units=GPa)
#
#
# Indices 1 2 3 4 5 6 
#
# 1 80.2368 39.6298 12.2456 0.0000 29.0595 0.0000
# 2 39.6298 164.5104 13.9965 0.0000 10.8899 0.0000
# 3 12.2456 13.9965 72.4830 0.0000 13.0251 0.0000
# 4 0.0000 0.0000 0.0000 26.7220 0.0000 10.3312
# 5 29.0595 10.8899 13.0251 0.0000 28.2564 0.0000
# 6 0.0000 0.0000 0.0000 10.3312 0.0000 44.5653
#
#
#
# Elastic Compliance Matrix: (Units=1/GPa)
#
#
# Indices 1 2 3 4 5 6 
#
# 1 0.022126 -0.003975 0.000919 0.000000 -0.021647 0.000000
# 2 -0.003975 0.007000 -0.001014 0.000000 0.001858 0.000000
# 3 0.000919 -0.001014 0.015195 0.000000 -0.007559 0.000000
# 4 0.000000 0.000000 0.000000 0.041107 0.000000 -0.009529
# 5 -0.021647 0.001858 -0.007559 0.000000 0.060421 0.000000
# 6 0.000000 0.000000 0.000000 -0.009529 0.000000 0.024648
#
#
# Mechanical properties :
#
#
# Convention : Reuss Voigt Hill
#
# Bulk Modulus (GPa) = 27.63870 49.88599 38.76234
# Shear Modulus (GPa) = 26.21973 36.66596 31.44284
#
# Velocity S-wave (km/s) = 3.24776 3.84062 3.55656
# Velocity P-wave (km/s) = 5.01824 6.30363 5.69730
#
# Compressibility (1/GPa) = 0.03618116
#
# Stress axis : x y z
#
# Youngs Moduli (GPa) = 45.19549 142.86620 65.81041
#
# Poissons Ratio (x) = 0.56795 -0.06051
# Poissons Ratio (y) = 0.17967 0.06673
# Poissons Ratio (z) = -0.04155 0.14485
#
# Static dielectric constant tensor:
#      x y z
#    x 2.096100 0.000000 -0.037710 
#    y 0.000000 1.957440 0.000000 
#    z -0.037710 0.000000 1.991380 
# 
# From -- ./inp_files/8475.got.cif
#   From: 2010.05.17/outbox.cif.g08.bks.cpg/sg4_5_cif.got.tgz:8475.got - 2010.06.03 18:43:04.
