data_PCOD9114650
_publ_section_title
;
Structure prediction by ZEFSAII (Michael W. Deem and Ramdas Pophale) SiO2 
 PCOD9114650
Probable space group: P 21
;
_chemical_formula_sum "Si O2"
_cell_formula_units_Z 16
_cell_length_a 12.981546
_cell_length_b 10.960433
_cell_length_c 9.156377
_cell_angle_alpha 90.000000
_cell_angle_beta 148.797939
_cell_angle_gamma 90.000000
_cell_volume 674.925741
_symmetry_space_group_name_H-M "P 21"
_symmetry_group_IT_number 4
_symmetry_cell_setting 'monoclinic'
loop_
_space_group_symop_operation_xyz
x,y,z
-x,1/2+y,-z
loop_
_atom_site_type_symbol
_atom_site_label
_atom_site_fract_x
_atom_site_fract_y
_atom_site_fract_z
Si Si1 0.775945 0.086900 0.851204
Si Si2 0.851081 0.989869 0.260679
Si Si3 0.661503 0.306122 0.898319
Si Si4 0.301171 0.592088 0.649040
Si Si5 0.615780 0.574730 0.802459
Si Si6 0.967022 0.702823 0.068772
Si Si7 0.037875 0.229933 0.493577
Si Si8 0.200929 0.331921 0.395089
O O1 0.712612 0.223881 0.822176
O O2 0.576942 0.043145 0.530364
O O3 0.814746 0.015123 0.046793
O O4 0.959951 0.105368 0.965685
O O5 0.682746 0.043466 0.165895
O O6 0.032750 0.085186 0.524142
O O7 0.873830 0.845447 0.313282
O O8 0.719804 0.445232 0.945398
O O9 0.430365 0.295783 0.651296
O O10 0.802980 0.260885 0.198704
O O11 0.512080 0.617593 0.827521
O O12 0.206655 0.468544 0.464018
O O13 0.146791 0.696986 0.405835
O O14 0.767349 0.665272 0.910101
O O15 0.912492 0.815983 0.896724
O O16 0.116146 0.248514 0.423002
#
# Coordination Sequence:
#
# PCOD9114650 Si02
#       8
#     2   2   2   2   2   2   2   2
#     4  10  21  37  59  89 121 153 204 255 300 373
#     4  10  20  42  63  89 124 165 203 252 312 365
#     4  10  19  37  60  83 116 163 199 247 309 367
#     4   9  22  37  56  87 119 153 202 252 297 374
#     4  10  20  36  58  89 113 153 202 250 306 357
#     4  11  19  35  60  86 110 155 198 248 305 365
#     4  10  21  40  63  87 123 167 203 255 308 376
#     4  10  18  36  61  84 112 163 199 241 317 369
#
# _framework density 23.706312
#
# number of rings (size 3 to 8) (size 9 to 14) (size 15 to 20)
#    0.000    2.000    3.750    1.500    0.000    0.000 
#    6.750   15.000    0.000    7.500    0.000    0.000 
#    0.000    0.000    0.000    0.000    0.000    0.000 
#
# Total GULP energy -89223.013819 kJ/mol
# GULP energy per Si atom -5576.438364 kJ/mol
# Density = 2.365236 g / cm^3
# Si number density = 23.706312 Si / 1000 Ang^3
#
#
#
# Elastic Constant Matrix: (Units=GPa)
#
#
# Indices 1 2 3 4 5 6 
#
# 1 127.6166 21.9694 24.5289 0.0000 0.5335 0.0000
# 2 21.9694 72.5412 -0.4766 0.0000 -1.7903 0.0000
# 3 24.5289 -0.4766 54.6381 0.0000 1.9285 0.0000
# 4 0.0000 0.0000 0.0000 35.3109 0.0000 -12.9249
# 5 0.5335 -1.7903 1.9285 0.0000 37.8049 0.0000
# 6 0.0000 0.0000 0.0000 -12.9249 0.0000 33.6004
#
#
#
# Elastic Compliance Matrix: (Units=1/GPa)
#
#
# Indices 1 2 3 4 5 6 
#
# 1 0.009106 -0.002786 -0.004110 0.000000 -0.000051 0.000000
# 2 -0.002786 0.014654 0.001355 0.000000 0.000664 0.000000
# 3 -0.004110 0.001355 0.020191 0.000000 -0.000908 0.000000
# 4 0.000000 0.000000 0.000000 0.032961 0.000000 0.012679
# 5 -0.000051 0.000664 -0.000908 0.000000 0.026530 0.000000
# 6 0.000000 0.000000 0.000000 0.012679 0.000000 0.034639
#
#
# Mechanical properties :
#
#
# Convention : Reuss Voigt Hill
#
# Bulk Modulus (GPa) = 30.42384 38.53769 34.48077
# Shear Modulus (GPa) = 31.22659 35.26152 33.24405
#
# Velocity S-wave (km/s) = 3.63330 3.86091 3.74883
# Velocity P-wave (km/s) = 5.51930 6.01391 5.77190
#
# Compressibility (1/GPa) = 0.03286896
#
# Stress axis : x y z
#
# Youngs Moduli (GPa) = 109.81947 68.23928 49.52596
#
# Poissons Ratio (x) = 0.19011 0.20357
# Poissons Ratio (y) = 0.30596 -0.06711
# Poissons Ratio (z) = 0.45141 -0.09247
#
# Static dielectric constant tensor:
#      x y z
#    x 1.962640 0.000000 -0.031200 
#    y 0.000000 1.983480 0.000000 
#    z -0.031200 0.000000 1.948650 
# 
# From -- ./inp_files/8474.got.cif
#   From: 2010.05.17/outbox.cif.g08.bks.cpg/sg4_5_cif.got.tgz:8474.got - 2010.06.03 18:43:04.
