data_PCOD9114219
_publ_section_title
;
Structure prediction by ZEFSAII (Michael W. Deem and Ramdas Pophale) SiO2 
 PCOD9114219
Probable space group: P 2
;
_chemical_formula_sum "Si O2"
_cell_formula_units_Z 14
_cell_length_a 9.886224
_cell_length_b 8.810249
_cell_length_c 13.353609
_cell_angle_alpha 90.000000
_cell_angle_beta 146.389959
_cell_angle_gamma 90.000000
_cell_volume 643.819817
_symmetry_space_group_name_H-M "P 2"
_symmetry_group_IT_number 3
_symmetry_cell_setting 'monoclinic'
loop_
_space_group_symop_operation_xyz
x,y,z
-x,y,-z
loop_
_atom_site_type_symbol
_atom_site_label
_atom_site_fract_x
_atom_site_fract_y
_atom_site_fract_z
Si Si1 0.724584 0.346700 0.428094
Si Si2 0.722963 0.785321 0.817280
Si Si3 0.512089 0.167056 0.895816
Si Si4 0.781009 0.438562 0.790456
Si Si5 0.937069 0.206415 0.734056
Si Si6 0.000000 0.617063 0.500000
Si Si7 0.571430 0.815508 0.158113
Si Si8 0.500000 0.973904 0.500000
O O1 0.625254 0.271994 0.266088
O O2 0.477848 0.366305 0.340285
O O3 0.915992 0.238833 0.602950
O O4 0.847618 0.506296 0.478481
O O5 0.752041 0.618460 0.785812
O O6 0.606483 0.775729 0.857145
O O7 0.556091 0.878809 0.636001
O O8 0.000000 0.847975 0.000000
O O9 0.406062 0.997696 0.826310
O O10 0.500000 0.231682 0.000000
O O11 0.804569 0.157510 0.061342
O O12 0.863677 0.368475 0.736819
O O13 0.000000 0.392471 0.000000
O O14 0.735684 0.080241 0.632538
O O15 0.816997 0.725022 0.329148
O O16 0.500000 0.776231 0.000000
#
# Coordination Sequence:
#
# PCOD9114219 Si02
#       8
#     2   2   2   2   2   1   2   1
#     4  12  24  46  71 104 143 182 239 291 356 417
#     4  11  26  46  70 106 146 190 237 299 362 429
#     4  11  26  47  71 102 142 190 238 293 354 426
#     4  11  23  44  72 100 143 185 229 295 355 421
#     4  12  25  44  73 108 140 186 237 298 357 421
#     4  12  28  44  74 104 140 194 238 294 354 434
#     4  11  27  49  73 102 148 192 243 292 364 428
#     4  12  26  40  74 110 144 186 240 298 364 428
#
# _framework density 21.745214000000001
#
# number of rings (size 3 to 8) (size 9 to 14) (size 15 to 20)
#    0.000    0.571    4.286    2.571    2.000   10.857 
#    0.000    0.000    0.000    0.000    0.000    0.000 
#    0.000    0.000    0.000    0.000    0.000    0.000 
#
# Total GULP energy -78270.509290 kJ/mol
# GULP energy per Si atom -5590.750664 kJ/mol
# Density = 2.169572 g / cm^3
# Si number density = 21.745214 Si / 1000 Ang^3
#
#
#
# Elastic Constant Matrix: (Units=GPa)
#
#
# Indices 1 2 3 4 5 6 
#
# 1 75.9707 26.0898 66.9471 0.0000 -6.7822 0.0000
# 2 26.0898 81.7341 69.4072 0.0000 -8.5733 0.0000
# 3 66.9471 69.4072 147.4788 0.0000 -7.2462 0.0000
# 4 0.0000 0.0000 0.0000 38.5839 0.0000 0.2397
# 5 -6.7822 -8.5733 -7.2462 0.0000 34.7122 0.0000
# 6 0.0000 0.0000 0.0000 0.2397 0.0000 20.3771
#
#
#
# Elastic Compliance Matrix: (Units=1/GPa)
#
#
# Indices 1 2 3 4 5 6 
#
# 1 0.022475 0.002765 -0.011371 0.000000 0.002701 0.000000
# 2 0.002765 0.021047 -0.010991 0.000000 0.003444 0.000000
# 3 -0.011371 -0.010991 0.017048 0.000000 -0.001378 0.000000
# 4 0.000000 0.000000 0.000000 0.025919 0.000000 -0.000305
# 5 0.002701 0.003444 -0.001378 0.000000 0.029899 0.000000
# 6 0.000000 0.000000 0.000000 -0.000305 0.000000 0.049078
#
#
# Mechanical properties :
#
#
# Convention : Reuss Voigt Hill
#
# Bulk Modulus (GPa) = 46.78304 70.00798 58.39551
# Shear Modulus (GPa) = 23.60880 28.25059 25.92970
#
# Velocity S-wave (km/s) = 3.29857 3.60830 3.45691
# Velocity P-wave (km/s) = 6.00569 7.04445 6.54571
#
# Compressibility (1/GPa) = 0.02137527
#
# Stress axis : x y z
#
# Youngs Moduli (GPa) = 44.49425 47.51270 58.65945
#
# Poissons Ratio (x) = -0.13139 0.66702
# Poissons Ratio (y) = -0.12304 0.64475
# Poissons Ratio (z) = 0.50595 0.52223
#
# Static dielectric constant tensor:
#      x y z
#    x 1.866430 0.000000 -0.008940 
#    y 0.000000 1.752970 0.000000 
#    z -0.008940 0.000000 1.800310 
# 
# From -- ./inp_files/10882.got.cif
#   From: 2010.05.17/outbox.cif.g08.bks.cpg/sg3_6_cif.got.tgz:10882.got - 2010.06.03 18:33:08.
