data_PCOD9114977
_publ_section_title
;
Structure prediction by ZEFSAII (Michael W. Deem and Ramdas Pophale) SiO2 
 PCOD9114977
Probable space group: P 21
;
_chemical_formula_sum "Si O2"
_cell_formula_units_Z 16
_cell_length_a 10.529113
_cell_length_b 8.812126
_cell_length_c 9.077379
_cell_angle_alpha 90.000000
_cell_angle_beta 130.517992
_cell_angle_gamma 90.000000
_cell_volume 640.268233
_symmetry_space_group_name_H-M "P 21"
_symmetry_group_IT_number 4
_symmetry_cell_setting 'monoclinic'
loop_
_space_group_symop_operation_xyz
x,y,z
-x,1/2+y,-z
loop_
_atom_site_type_symbol
_atom_site_label
_atom_site_fract_x
_atom_site_fract_y
_atom_site_fract_z
Si Si1 0.977913 0.149080 0.499481
Si Si2 0.304306 0.287765 0.045301
Si Si3 0.548922 0.513596 0.242276
Si Si4 0.210599 0.000408 0.118773
Si Si5 0.704129 0.807256 0.309689
Si Si6 0.203786 0.879511 0.790187
Si Si7 0.568940 0.079886 0.380747
Si Si8 0.804291 0.322772 0.629674
O O1 0.129930 0.218653 0.519506
O O2 0.823667 0.205926 0.281202
O O3 0.931329 0.241158 0.613337
O O4 0.056843 0.987886 0.607005
O O5 0.368460 0.449224 0.149971
O O6 0.185350 0.177033 0.051261
O O7 0.477029 0.191066 0.195250
O O8 0.273956 0.310631 0.850086
O O9 0.555107 0.693741 0.238435
O O10 0.622463 0.451666 0.139870
O O11 0.690348 0.441687 0.453656
O O12 0.405193 0.997828 0.319971
O O13 0.114907 0.917175 0.177265
O O14 0.195310 0.908582 0.956377
O O15 0.682265 0.962826 0.377829
O O16 0.677366 0.183865 0.570496
#
# Coordination Sequence:
#
# PCOD9114977 Si02
#       8
#     2   2   2   2   2   2   2   2
#     4  10  20  35  60  88 124 161 205 256 309 370
#     4   9  17  34  58  89 117 157 200 258 314 358
#     4   9  18  33  57  88 117 156 202 265 318 352
#     4  10  20  38  61  83 125 165 205 257 311 368
#     4  11  17  33  61  94 120 152 210 266 312 365
#     4  10  19  38  61  89 119 164 209 264 310 360
#     4   9  20  34  58  90 120 161 200 260 315 375
#     4  10  21  37  56  83 124 170 201 246 311 380
#
# _framework density 24.989528
#
# number of rings (size 3 to 8) (size 9 to 14) (size 15 to 20)
#    0.750    1.500    2.500    2.250    0.000    1.000 
#    0.000    5.000    0.000    4.500    0.000    0.000 
#    0.000    0.000    0.000    0.000    0.000    0.000 
#
# Total GULP energy -89123.124167 kJ/mol
# GULP energy per Si atom -5570.195260 kJ/mol
# Density = 2.493265 g / cm^3
# Si number density = 24.989528 Si / 1000 Ang^3
#
#
#
# Elastic Constant Matrix: (Units=GPa)
#
#
# Indices 1 2 3 4 5 6 
#
# 1 26.3846 14.1297 9.2178 0.0000 -2.4669 0.0000
# 2 14.1297 113.9858 29.5454 0.0000 -12.9541 0.0000
# 3 9.2178 29.5454 43.7749 0.0000 -14.6009 0.0000
# 4 0.0000 0.0000 0.0000 33.7868 0.0000 0.4057
# 5 -2.4669 -12.9541 -14.6009 0.0000 33.0167 0.0000
# 6 0.0000 0.0000 0.0000 0.4057 0.0000 46.5035
#
#
#
# Elastic Compliance Matrix: (Units=1/GPa)
#
#
# Indices 1 2 3 4 5 6 
#
# 1 0.042102 -0.003583 -0.006882 0.000000 -0.001304 0.000000
# 2 -0.003583 0.010977 -0.006225 0.000000 0.001286 0.000000
# 3 -0.006882 -0.006225 0.032268 0.000000 0.011313 0.000000
# 4 0.000000 0.000000 0.000000 0.029600 0.000000 -0.000258
# 5 -0.001304 0.001286 0.011313 0.000000 0.035698 0.000000
# 6 0.000000 0.000000 0.000000 -0.000258 0.000000 0.021506
#
#
# Mechanical properties :
#
#
# Convention : Reuss Voigt Hill
#
# Bulk Modulus (GPa) = 19.24307 32.21458 25.72882
# Shear Modulus (GPa) = 22.43609 31.41157 26.92383
#
# Velocity S-wave (km/s) = 2.99961 3.54925 3.28594
# Velocity P-wave (km/s) = 4.44005 5.45119 4.97140
#
# Compressibility (1/GPa) = 0.05196677
#
# Stress axis : x y z
#
# Youngs Moduli (GPa) = 23.75173 91.09965 30.99000
#
# Poissons Ratio (x) = 0.32644 0.21327
# Poissons Ratio (y) = 0.08511 0.19292
# Poissons Ratio (z) = 0.16345 0.56712
#
# Static dielectric constant tensor:
#      x y z
#    x 2.050230 0.000000 0.085790 
#    y 0.000000 2.045600 0.000000 
#    z 0.085790 0.000000 2.041220 
# 
# From -- ./inp_files/7891.got.cif
#   From: 2010.05.17/outbox.cif.g08.bks.cpg/sg4_4_cif.got.tgz:7891.got - 2010.06.03 18:43:04.
