data_PCOD9114534
_publ_section_title
;
Structure prediction by ZEFSAII (Michael W. Deem and Ramdas Pophale) SiO2 
 PCOD9114534
Probable space group: P 21
;
_chemical_formula_sum "Si O2"
_cell_formula_units_Z 12
_cell_length_a 13.238398
_cell_length_b 5.146759
_cell_length_c 11.081627
_cell_angle_alpha 90.000000
_cell_angle_beta 66.762221
_cell_angle_gamma 90.000000
_cell_volume 693.792200
_symmetry_space_group_name_H-M "P 21"
_symmetry_group_IT_number 4
_symmetry_cell_setting 'monoclinic'
loop_
_space_group_symop_operation_xyz
x,y,z
-x,1/2+y,-z
loop_
_atom_site_type_symbol
_atom_site_label
_atom_site_fract_x
_atom_site_fract_y
_atom_site_fract_z
Si Si1 0.523231 0.693780 0.147609
Si Si2 0.452554 0.238660 0.584406
Si Si3 0.144942 0.468213 0.024599
Si Si4 0.362007 0.693893 0.014716
Si Si5 0.800972 0.724186 0.246268
Si Si6 0.933683 0.208960 0.172023
O O1 0.514506 0.666862 0.294330
O O2 0.602805 0.471688 0.055249
O O3 0.572399 0.975159 0.091978
O O4 0.409092 0.671912 0.127798
O O5 0.502545 0.514373 0.523582
O O6 0.320178 0.251426 0.644342
O O7 0.234851 0.623743 0.057110
O O8 0.204238 0.289281 0.895187
O O9 0.075567 0.661268 0.969397
O O10 0.057135 0.298795 0.138767
O O11 0.850764 0.441349 0.240824
O O12 0.886474 0.944730 0.250323
#
# Coordination Sequence:
#
# PCOD9114534 Si02
#       6
#     2   2   2   2   2   2
#     4  10  20  37  47  81 102 146 174 211 265 314
#     4  12  23  35  55  74 105 148 187 215 249 303
#     4  10  18  29  50  79 102 142 154 211 270 324
#     4  10  20  31  58  71 115 136 166 214 275 324
#     4  10  19  32  46  71 107 132 166 218 252 301
#     4  10  18  28  48  74 111 126 165 207 265 332
#
# _framework density 17.296247000000001
#
# number of rings (size 3 to 8) (size 9 to 14) (size 15 to 20)
#    1.000    0.667    3.333    3.000    0.000    0.000 
#    0.000    0.000    0.000    0.000    0.000    4.667 
#    0.000    2.667    0.000    0.000    0.000    0.000 
#
# Total GULP energy -66883.972105 kJ/mol
# GULP energy per Si atom -5573.664342 kJ/mol
# Density = 1.725688 g / cm^3
# Si number density = 17.296247 Si / 1000 Ang^3
#
#
#
# Elastic Constant Matrix: (Units=GPa)
#
#
# Indices 1 2 3 4 5 6 
#
# 1 66.0639 -4.7424 13.1308 0.0000 -4.2243 0.0000
# 2 -4.7424 76.0374 -0.6783 0.0000 -9.6132 0.0000
# 3 13.1308 -0.6783 34.8795 0.0000 -10.7498 0.0000
# 4 0.0000 0.0000 0.0000 23.7448 0.0000 -7.2749
# 5 -4.2243 -9.6132 -10.7498 0.0000 31.5473 0.0000
# 6 0.0000 0.0000 0.0000 -7.2749 0.0000 26.6840
#
#
#
# Elastic Compliance Matrix: (Units=1/GPa)
#
#
# Indices 1 2 3 4 5 6 
#
# 1 0.016438 0.001030 -0.006026 0.000000 0.000462 0.000000
# 2 0.001030 0.013837 0.001367 0.000000 0.004820 0.000000
# 3 -0.006026 0.001367 0.034464 0.000000 0.011353 0.000000
# 4 0.000000 0.000000 0.000000 0.045953 0.000000 0.012528
# 5 0.000462 0.004820 0.011353 0.000000 0.037098 0.000000
# 6 0.000000 0.000000 0.000000 0.012528 0.000000 0.040891
#
#
# Mechanical properties :
#
#
# Convention : Reuss Voigt Hill
#
# Bulk Modulus (GPa) = 17.39697 21.37789 19.38743
# Shear Modulus (GPa) = 23.24497 27.67993 25.46245
#
# Velocity S-wave (km/s) = 3.66994 4.00477 3.84101
# Velocity P-wave (km/s) = 5.29510 5.81127 5.55918
#
# Compressibility (1/GPa) = 0.05748126
#
# Stress axis : x y z
#
# Youngs Moduli (GPa) = 60.83459 72.26872 29.01544
#
# Poissons Ratio (x) = -0.07442 0.17485
# Poissons Ratio (y) = -0.06265 -0.03966
# Poissons Ratio (z) = 0.36659 -0.09879
#
# Static dielectric constant tensor:
#      x y z
#    x 1.618210 0.000000 -0.006150 
#    y 0.000000 1.609140 0.000000 
#    z -0.006150 0.000000 1.562060 
# 
# From -- ./inp_files/12385.got.cif
#   From: 2010.05.17/outbox.cif.g08.bks.cpg/sg4_7_cif.got.tgz:12385.got - 2010.06.03 18:43:04.
