data_PCOD9114489
_publ_section_title
;
Structure prediction by ZEFSAII (Michael W. Deem and Ramdas Pophale) SiO2 
 PCOD9114489
Probable space group: P 21
;
_chemical_formula_sum "Si O2"
_cell_formula_units_Z 12
_cell_length_a 10.393569
_cell_length_b 4.942668
_cell_length_c 17.760758
_cell_angle_alpha 90.000000
_cell_angle_beta 132.831201
_cell_angle_gamma 90.000000
_cell_volume 669.121086
_symmetry_space_group_name_H-M "P 21"
_symmetry_group_IT_number 4
_symmetry_cell_setting 'monoclinic'
loop_
_space_group_symop_operation_xyz
x,y,z
-x,1/2+y,-z
loop_
_atom_site_type_symbol
_atom_site_label
_atom_site_fract_x
_atom_site_fract_y
_atom_site_fract_z
Si Si1 0.115481 0.111420 0.552954
Si Si2 0.272013 0.363973 0.383092
Si Si3 0.650077 0.367736 0.484151
Si Si4 0.259111 0.279120 0.767839
Si Si5 0.432547 0.897970 0.016114
Si Si6 0.119318 0.780323 0.802805
O O1 0.203916 0.255398 0.659712
O O2 0.007924 0.358232 0.471864
O O3 0.250889 0.968641 0.550275
O O4 0.439706 0.397531 0.395614
O O5 0.296361 0.575409 0.461860
O O6 0.080901 0.372327 0.270694
O O7 0.291893 0.069400 0.426783
O O8 0.462008 0.352675 0.864897
O O9 0.145491 0.493695 0.771454
O O10 0.216547 0.989221 0.786161
O O11 0.538667 0.705029 0.999275
O O12 0.233042 0.804289 0.924621
#
# Coordination Sequence:
#
# PCOD9114489 Si02
#       6
#     2   2   2   2   2   2
#     4  12  22  32  48  71 100 129 156 187 235 291
#     4  10  19  33  50  67  95 125 160 199 225 273
#     4  10  21  33  46  70  97 126 158 192 234 273
#     4  10  19  30  46  71 100 122 149 195 237 277
#     4   8  16  28  44  68  94 118 150 192 234 272
#     4  10  17  30  50  71  92 122 159 191 235 276
#
# _framework density 17.933975
#
# number of rings (size 3 to 8) (size 9 to 14) (size 15 to 20)
#    0.000    2.000    0.000    6.000    0.000    0.000 
#    0.000    0.000    0.000    0.000    0.000   23.333 
#    0.000    0.000    0.000    0.000    0.000    0.000 
#
# Total GULP energy -66868.167430 kJ/mol
# GULP energy per Si atom -5572.347286 kJ/mol
# Density = 1.789316 g / cm^3
# Si number density = 17.933975 Si / 1000 Ang^3
#
#
#
# Elastic Constant Matrix: (Units=GPa)
#
#
# Indices 1 2 3 4 5 6 
#
# 1 92.9262 5.7005 51.6755 0.0000 24.1955 0.0000
# 2 5.7005 63.9972 4.1187 0.0000 0.5493 0.0000
# 3 51.6755 4.1187 115.4502 0.0000 35.1514 0.0000
# 4 0.0000 0.0000 0.0000 21.6307 0.0000 3.5396
# 5 24.1955 0.5493 35.1514 0.0000 31.8983 0.0000
# 6 0.0000 0.0000 0.0000 3.5396 0.0000 19.7836
#
#
#
# Elastic Compliance Matrix: (Units=1/GPa)
#
#
# Indices 1 2 3 4 5 6 
#
# 1 0.015117 -0.000980 -0.004884 0.000000 -0.006068 0.000000
# 2 -0.000980 0.015731 -0.000401 0.000000 0.000914 0.000000
# 3 -0.004884 -0.000401 0.014646 0.000000 -0.012428 0.000000
# 4 0.000000 0.000000 0.000000 0.047625 0.000000 -0.008521
# 5 -0.006068 0.000914 -0.012428 0.000000 0.049632 0.000000
# 6 0.000000 0.000000 0.000000 -0.008521 0.000000 0.052072
#
#
# Mechanical properties :
#
#
# Convention : Reuss Voigt Hill
#
# Bulk Modulus (GPa) = 30.33589 43.92921 37.13255
# Shear Modulus (GPa) = 22.89992 28.72110 25.81051
#
# Velocity S-wave (km/s) = 3.57725 4.00620 3.79779
# Velocity P-wave (km/s) = 5.83218 6.77847 6.32306
#
# Compressibility (1/GPa) = 0.03296426
#
# Stress axis : x y z
#
# Youngs Moduli (GPa) = 66.14984 63.56900 68.27696
#
# Poissons Ratio (x) = 0.06231 0.33347
# Poissons Ratio (y) = 0.06484 0.02737
# Poissons Ratio (z) = 0.32308 0.02548
#
# Static dielectric constant tensor:
#      x y z
#    x 1.620540 0.000000 0.058120 
#    y 0.000000 1.621080 0.000000 
#    z 0.058120 0.000000 1.682590 
# 
# From -- ./inp_files/9369.got.cif
#   From: 2010.05.17/outbox.cif.g08.bks.cpg/sg4_5_cif.got.tgz:9369.got - 2010.06.03 18:43:04.
