data_PCOD9114700
_publ_section_title
;
Structure prediction by ZEFSAII (Michael W. Deem and Ramdas Pophale) SiO2 
 PCOD9114700
Probable space group: P 21
;
_chemical_formula_sum "Si O2"
_cell_formula_units_Z 14
_cell_length_a 7.201301
_cell_length_b 9.713663
_cell_length_c 8.907182
_cell_angle_alpha 90.000000
_cell_angle_beta 55.391273
_cell_angle_gamma 90.000000
_cell_volume 512.814707
_symmetry_space_group_name_H-M "P 21"
_symmetry_group_IT_number 4
_symmetry_cell_setting 'monoclinic'
loop_
_space_group_symop_operation_xyz
x,y,z
-x,1/2+y,-z
loop_
_atom_site_type_symbol
_atom_site_label
_atom_site_fract_x
_atom_site_fract_y
_atom_site_fract_z
Si Si1 0.243433 0.412890 0.470298
Si Si2 0.969786 0.771675 0.136306
Si Si3 0.176385 0.485045 0.117834
Si Si4 0.646796 0.440415 0.972934
Si Si5 0.159590 0.117242 0.380236
Si Si6 0.697891 0.419632 0.425517
Si Si7 0.450361 0.302023 0.797699
O O1 0.188135 0.278135 0.394472
O O2 0.504632 0.440157 0.390827
O O3 0.148353 0.356071 0.675525
O O4 0.389632 0.476074 0.134565
O O5 0.172384 0.875245 0.998807
O O6 0.083802 0.635361 0.144541
O O7 0.768337 0.708931 0.124567
O O8 0.084941 0.543497 0.504738
O O9 0.953615 0.395948 0.254974
O O10 0.295791 0.439352 0.906894
O O11 0.734850 0.563444 0.825272
O O12 0.603155 0.313935 0.873174
O O13 0.288068 0.046607 0.462704
O O14 0.604244 0.302393 0.581333
#
# Coordination Sequence:
#
# PCOD9114700 Si02
#       7
#     2   2   2   2   2   2   2
#     4  10  22  38  68  94 128 173 208 265 319 378
#     4  10  18  40  63  80 126 165 196 265 319 359
#     4  10  20  39  60  89 117 159 215 241 310 389
#     4   8  20  39  57  87 124 158 202 259 314 362
#     4  10  20  42  63  95 130 166 215 259 319 380
#     4  10  20  41  60  89 126 162 210 261 311 370
#     4   8  20  39  57  84 121 153 198 258 304 362
#
# _framework density 27.300305999999999
#
# number of rings (size 3 to 8) (size 9 to 14) (size 15 to 20)
#    0.857    1.714    1.429    0.000    0.000    2.286 
#   12.857    0.000    0.000    0.000    0.000    0.000 
#    0.000    0.000    0.000    0.000    0.000    0.000 
#
# Total GULP energy -78111.773961 kJ/mol
# GULP energy per Si atom -5579.412426 kJ/mol
# Density = 2.723817 g / cm^3
# Si number density = 27.300306 Si / 1000 Ang^3
#
#
#
# Elastic Constant Matrix: (Units=GPa)
#
#
# Indices 1 2 3 4 5 6 
#
# 1 172.6019 50.0148 71.9478 0.0000 -10.4180 0.0000
# 2 50.0148 82.3186 34.0509 0.0000 -6.5311 0.0000
# 3 71.9478 34.0509 128.4411 0.0000 -40.6008 0.0000
# 4 0.0000 0.0000 0.0000 20.1056 0.0000 -5.7691
# 5 -10.4180 -6.5311 -40.6008 0.0000 58.2381 0.0000
# 6 0.0000 0.0000 0.0000 -5.7691 0.0000 21.9403
#
#
#
# Elastic Compliance Matrix: (Units=1/GPa)
#
#
# Indices 1 2 3 4 5 6 
#
# 1 0.008563 -0.003500 -0.004501 0.000000 -0.001998 0.000000
# 2 -0.003500 0.015148 -0.002202 0.000000 -0.000462 0.000000
# 3 -0.004501 -0.002202 0.013542 0.000000 0.008389 0.000000
# 4 0.000000 0.000000 0.000000 0.053796 0.000000 0.014145
# 5 -0.001998 -0.000462 0.008389 0.000000 0.022610 0.000000
# 6 0.000000 0.000000 0.000000 0.014145 0.000000 0.049298
#
#
# Mechanical properties :
#
#
# Convention : Reuss Voigt Hill
#
# Bulk Modulus (GPa) = 59.34788 77.26540 68.30664
# Shear Modulus (GPa) = 26.45810 35.21334 30.83572
#
# Velocity S-wave (km/s) = 3.11649 3.59535 3.36445
# Velocity P-wave (km/s) = 5.89374 6.75269 6.33778
#
# Compressibility (1/GPa) = 0.01684980
#
# Stress axis : x y z
#
# Youngs Moduli (GPa) = 116.77831 66.01409 73.84300
#
# Poissons Ratio (x) = 0.23103 0.33234
# Poissons Ratio (y) = 0.40869 0.16258
# Poissons Ratio (z) = 0.52558 0.14534
#
# Static dielectric constant tensor:
#      x y z
#    x 2.330710 0.000000 0.075450 
#    y 0.000000 2.146980 0.000000 
#    z 0.075450 0.000000 2.283480 
# 
# From -- ./inp_files/6355.got.cif
#   From: 2010.05.17/outbox.cif.g08.bks.cpg/sg4_4_cif.got.tgz:6355.got - 2010.06.03 18:43:04.
