data_PCOD9114195
_publ_section_title
;
Structure prediction by ZEFSAII (Michael W. Deem and Ramdas Pophale) SiO2 
 PCOD9114195
Probable space group: P 2
;
_chemical_formula_sum "Si O2"
_cell_formula_units_Z 14
_cell_length_a 8.454208
_cell_length_b 15.588601
_cell_length_c 8.847149
_cell_angle_alpha 90.000000
_cell_angle_beta 32.787447
_cell_angle_gamma 90.000000
_cell_volume 631.395016
_symmetry_space_group_name_H-M "P 2"
_symmetry_group_IT_number 3
_symmetry_cell_setting 'monoclinic'
loop_
_space_group_symop_operation_xyz
x,y,z
-x,y,-z
loop_
_atom_site_type_symbol
_atom_site_label
_atom_site_fract_x
_atom_site_fract_y
_atom_site_fract_z
Si Si1 0.001914 0.429420 0.167909
Si Si2 0.575708 0.357051 0.759568
Si Si3 0.337688 0.922498 0.969479
Si Si4 0.320955 0.176189 0.293272
Si Si5 0.174397 0.744909 0.215328
Si Si6 0.733989 0.015058 0.442865
Si Si7 0.824797 0.625201 0.285993
O O1 0.856226 0.382656 0.430556
O O2 0.861233 0.522766 0.272204
O O3 0.000000 0.387649 0.000000
O O4 0.348362 0.432612 0.908685
O O5 0.522860 0.257776 0.754329
O O6 0.500000 0.347912 0.000000
O O7 0.222868 0.825729 0.067356
O O8 0.069403 0.986950 0.146518
O O9 0.500000 0.939274 0.000000
O O10 0.586747 0.935336 0.646594
O O11 0.000000 0.208945 0.500000
O O12 0.271078 0.095997 0.440782
O O13 0.500000 0.150871 0.000000
O O14 0.000000 0.779467 0.500000
O O15 0.971234 0.671595 0.309567
O O16 0.500000 0.714278 0.000000
O O17 0.500000 0.035190 0.500000
O O18 0.500000 0.646642 0.500000
O O19 0.000000 0.654190 0.000000
#
# Coordination Sequence:
#
# PCOD9114195 Si02
#       7
#     2   2   2   2   2   2   2
#     4  11  23  41  64  91 128 170 211 258 324 389
#     4  11  23  41  64  94 124 164 217 268 316 376
#     4  11  23  43  65  89 126 170 209 255 320 385
#     4  11  23  42  64  88 125 168 210 259 323 385
#     4  11  24  42  65  95 125 163 216 265 313 375
#     4  12  25  40  64  97 126 161 214 265 313 374
#     4  11  24  43  65  94 132 172 211 258 325 390
#
# _framework density 22.173124000000001
#
# number of rings (size 3 to 8) (size 9 to 14) (size 15 to 20)
#    0.000    0.857    0.000    9.857    0.000    4.571 
#    0.000    0.000    0.000    0.000    0.000    0.000 
#    0.000    0.000    0.000    0.000    0.000    0.000 
#
# Total GULP energy -78028.171865 kJ/mol
# GULP energy per Si atom -5573.440848 kJ/mol
# Density = 2.212266 g / cm^3
# Si number density = 22.173124 Si / 1000 Ang^3
#
#
#
# Elastic Constant Matrix: (Units=GPa)
#
#
# Indices 1 2 3 4 5 6 
#
# 1 67.1036 31.8246 22.2446 0.0000 -18.8802 0.0000
# 2 31.8246 63.2452 20.5759 0.0000 -1.0651 0.0000
# 3 22.2446 20.5759 127.2126 0.0000 -15.3994 0.0000
# 4 0.0000 0.0000 0.0000 36.7472 0.0000 27.5337
# 5 -18.8802 -1.0651 -15.3994 0.0000 40.6023 0.0000
# 6 0.0000 0.0000 0.0000 27.5337 0.0000 193.0130
#
#
#
# Elastic Compliance Matrix: (Units=1/GPa)
#
#
# Indices 1 2 3 4 5 6 
#
# 1 0.023489 -0.011309 -0.001040 0.000000 0.010232 0.000000
# 2 -0.011309 0.022149 -0.002276 0.000000 -0.005541 0.000000
# 3 -0.001040 -0.002276 0.008747 0.000000 0.002774 0.000000
# 4 0.000000 0.000000 0.000000 0.030470 0.000000 -0.004347
# 5 0.010232 -0.005541 0.002774 0.000000 0.030294 0.000000
# 6 0.000000 0.000000 0.000000 -0.004347 0.000000 0.005801
#
#
# Mechanical properties :
#
#
# Convention : Reuss Voigt Hill
#
# Bulk Modulus (GPa) = 39.78342 45.20572 42.49457
# Shear Modulus (GPa) = 31.53047 66.26694 48.89870
#
# Velocity S-wave (km/s) = 3.77505 5.47275 4.70117
# Velocity P-wave (km/s) = 6.08132 7.76959 6.97671
#
# Compressibility (1/GPa) = 0.02513610
#
# Stress axis : x y z
#
# Youngs Moduli (GPa) = 42.57287 45.14840 114.33079
#
# Poissons Ratio (x) = 0.51059 0.11886
# Poissons Ratio (y) = 0.48146 0.26018
# Poissons Ratio (z) = 0.04426 0.10274
#
# Static dielectric constant tensor:
#      x y z
#    x 1.539270 0.000000 0.102800 
#    y 0.000000 1.812620 0.000000 
#    z 0.102800 0.000000 1.781030 
# 
# From -- ./inp_files/6174.got.cif
#   From: 2010.05.17/outbox.cif.g08.bks.cpg/sg3_4_cif.got.tgz:6174.got - 2010.06.03 18:33:08.
