data_PCOD9114902
_publ_section_title
;
Structure prediction by ZEFSAII (Michael W. Deem and Ramdas Pophale) SiO2 
 PCOD9114902
Probable space group: P 21
;
_chemical_formula_sum "Si O2"
_cell_formula_units_Z 16
_cell_length_a 21.566304
_cell_length_b 8.595788
_cell_length_c 9.385176
_cell_angle_alpha 90.000000
_cell_angle_beta 150.488713
_cell_angle_gamma 90.000000
_cell_volume 857.025699
_symmetry_space_group_name_H-M "P 21"
_symmetry_group_IT_number 4
_symmetry_cell_setting 'monoclinic'
loop_
_space_group_symop_operation_xyz
x,y,z
-x,1/2+y,-z
loop_
_atom_site_type_symbol
_atom_site_label
_atom_site_fract_x
_atom_site_fract_y
_atom_site_fract_z
Si Si1 0.487716 0.039770 0.128651
Si Si2 0.978509 0.667451 0.114073
Si Si3 0.749911 0.535764 0.826850
Si Si4 0.012207 0.039866 0.177732
Si Si5 0.750082 0.188652 0.321388
Si Si6 0.749951 0.213610 0.657826
Si Si7 0.249948 0.013608 0.835017
Si Si8 0.478656 0.167350 0.800163
O O1 0.622026 0.118219 0.429901
O O2 0.506746 0.853669 0.161848
O O3 0.377417 0.079450 0.019142
O O4 0.445757 0.099171 0.889044
O O5 0.117542 0.601902 0.430602
O O6 0.873318 0.622619 0.015837
O O7 0.945746 0.599344 0.893823
O O8 0.993167 0.853767 0.134692
O O9 0.749902 0.367628 0.751434
O O10 0.626427 0.622555 0.522243
O O11 0.750000 0.526808 0.996386
O O12 0.122461 0.079484 0.509359
O O13 0.877874 0.118272 0.941700
O O14 0.750034 0.246639 0.486932
O O15 0.750080 0.332975 0.214247
O O16 0.617731 0.101859 0.039924
#
# Coordination Sequence:
#
# PCOD9114902 Si02
#       8
#     2   2   2   2   2   2   2   2
#     4  10  20  38  62  86 111 143 191 244 288 329
#     4  10  19  36  61  87 110 144 189 238 285 336
#     4  12  23  35  54  83 120 157 187 220 280 350
#     4  10  20  38  62  86 111 143 191 244 288 329
#     4   8  18  37  59  79 105 139 187 240 281 318
#     4  10  21  38  61  86 109 146 194 240 282 332
#     4  10  22  36  54  82 118 152 184 230 285 342
#     4  10  19  36  61  87 110 144 189 238 285 336
#
# _framework density 18.669217
#
# number of rings (size 3 to 8) (size 9 to 14) (size 15 to 20)
#    0.000    2.000    0.000    6.000    0.000    4.000 
#    0.000    3.750    0.000    9.000    0.000    0.000 
#    0.000    0.000    0.000    0.000    0.000    0.000 
#
# Total GULP energy -89297.173518 kJ/mol
# GULP energy per Si atom -5581.073345 kJ/mol
# Density = 1.862673 g / cm^3
# Si number density = 18.669217 Si / 1000 Ang^3
#
#
#
# Elastic Constant Matrix: (Units=GPa)
#
#
# Indices 1 2 3 4 5 6 
#
# 1 133.4624 41.4414 129.2086 0.0000 -7.7277 0.0000
# 2 41.4414 72.9615 40.8364 0.0000 -0.7861 0.0000
# 3 129.2086 40.8364 142.5713 0.0000 14.7758 0.0000
# 4 0.0000 0.0000 0.0000 21.8249 0.0000 2.6949
# 5 -7.7277 -0.7861 14.7758 0.0000 18.5446 0.0000
# 6 0.0000 0.0000 0.0000 2.6949 0.0000 18.7999
#
#
#
# Elastic Compliance Matrix: (Units=1/GPa)
#
#
# Indices 1 2 3 4 5 6 
#
# 1 -0.100963 -0.003034 0.105450 0.000000 -0.126220 0.000000
# 2 -0.003034 0.016636 -0.002133 0.000000 0.001140 0.000000
# 3 0.105450 -0.002133 -0.100811 0.000000 0.124175 0.000000
# 4 0.000000 0.000000 0.000000 0.046645 0.000000 -0.006687
# 5 -0.126220 0.001140 0.124175 0.000000 -0.097564 0.000000
# 6 0.000000 0.000000 0.000000 -0.006687 0.000000 0.054150
#
#
# Mechanical properties :
#
#
# Convention : Reuss Voigt Hill
#
# Bulk Modulus (GPa) = 64.82001 85.77423 75.29712
# Shear Modulus (GPa) = -13.25104 21.00113 3.87505
#
# Velocity S-wave (km/s) = -2.66706 3.35760 1.44227
# Velocity P-wave (km/s) = 5.03104 7.81507 6.57216
#
# Compressibility (1/GPa) = 0.01542733
#
# Stress axis : x y z
#
# Youngs Moduli (GPa) = -9.90466 60.11231 -9.91957
#
# Poissons Ratio (x) = 0.18240 1.04602
# Poissons Ratio (y) = -0.03005 -0.02116
# Poissons Ratio (z) = 1.04445 0.12823
#
# Static dielectric constant tensor:
#      x y z
#    x 1.629390 0.000000 0.042280 
#    y 0.000000 1.639600 0.000000 
#    z 0.042280 0.000000 1.676280 
# 
# From -- ./inp_files/7560.got.cif
#   From: 2010.05.17/outbox.cif.g08.bks.cpg/sg4_4_cif.got.tgz:7560.got - 2010.06.03 18:43:04.
