data_PCOD9114739
_publ_section_title
;
Structure prediction by ZEFSAII (Michael W. Deem and Ramdas Pophale) SiO2 
 PCOD9114739
Probable space group: P 21
;
_chemical_formula_sum "Si O2"
_cell_formula_units_Z 16
_cell_length_a 12.426201
_cell_length_b 7.074870
_cell_length_c 10.260106
_cell_angle_alpha 90.000000
_cell_angle_beta 54.439190
_cell_angle_gamma 90.000000
_cell_volume 733.779493
_symmetry_space_group_name_H-M "P 21"
_symmetry_group_IT_number 4
_symmetry_cell_setting 'monoclinic'
loop_
_space_group_symop_operation_xyz
x,y,z
-x,1/2+y,-z
loop_
_atom_site_type_symbol
_atom_site_label
_atom_site_fract_x
_atom_site_fract_y
_atom_site_fract_z
Si Si1 0.443845 0.008020 0.445159
Si Si2 0.418737 0.569793 0.384957
Si Si3 0.398392 0.583612 0.912117
Si Si4 0.418735 0.145154 0.971334
Si Si5 0.152475 0.154466 0.282190
Si Si6 0.870296 0.100513 0.778068
Si Si7 0.139771 0.647019 0.512806
Si Si8 0.163054 0.072692 0.577824
O O1 0.517884 0.990537 0.529256
O O2 0.533679 0.114201 0.274893
O O3 0.299303 0.103874 0.558532
O O4 0.421672 0.797466 0.404749
O O5 0.505650 0.533189 0.195204
O O6 0.264993 0.524342 0.468054
O O7 0.397047 0.356798 0.934846
O O8 0.488459 0.656390 0.967407
O O9 0.247689 0.646810 0.040383
O O10 0.275578 0.071488 0.116382
O O11 0.139335 0.375583 0.251666
O O12 0.182104 0.137523 0.414643
O O13 0.007146 0.066297 0.363797
O O14 0.847037 0.189494 0.651116
O O15 0.018434 0.143417 0.722908
O O16 0.145808 0.845486 0.582612
#
# Coordination Sequence:
#
# PCOD9114739 Si02
#       8
#     2   2   2   2   2   2   2   2
#     4  10  21  35  50  70 101 136 167 202 245 294
#     4  10  21  35  50  70 101 136 167 202 245 294
#     4  10  19  32  51  76 101 127 164 207 247 290
#     4  10  19  32  51  76 101 127 164 207 247 290
#     4   9  17  29  50  76  99 125 159 203 249 291
#     4   9  17  29  50  76  99 125 159 203 249 291
#     4   9  17  31  49  72 101 129 160 200 246 292
#     4   9  17  31  49  72 101 129 160 200 246 292
#
# _framework density 21.804919000000002
#
# number of rings (size 3 to 8) (size 9 to 14) (size 15 to 20)
#    0.000    2.500    2.500    0.000    0.000    2.000 
#    0.000    1.250    0.000    0.000    0.000    0.000 
#    0.000    0.000    0.000    0.000    0.000    0.000 
#
# Total GULP energy -89366.067742 kJ/mol
# GULP energy per Si atom -5585.379234 kJ/mol
# Density = 2.175529 g / cm^3
# Si number density = 21.804919 Si / 1000 Ang^3
#
#
#
# Elastic Constant Matrix: (Units=GPa)
#
#
# Indices 1 2 3 4 5 6 
#
# 1 183.0724 3.2436 91.5533 0.0000 -31.8400 0.0000
# 2 3.2436 56.0379 0.6119 0.0000 -3.0166 0.0000
# 3 91.5533 0.6119 123.5711 0.0000 -23.4880 0.0000
# 4 0.0000 0.0000 0.0000 30.3073 0.0000 35.7766
# 5 -31.8400 -3.0166 -23.4880 0.0000 37.0240 0.0000
# 6 0.0000 0.0000 0.0000 35.7766 0.0000 68.8525
#
#
#
# Elastic Compliance Matrix: (Units=1/GPa)
#
#
# Indices 1 2 3 4 5 6 
#
# 1 0.009191 -0.000248 -0.006038 0.000000 0.004054 0.000000
# 2 -0.000248 0.017935 0.000378 0.000000 0.001488 0.000000
# 3 -0.006038 0.000378 0.013171 0.000000 0.003194 0.000000
# 4 0.000000 0.000000 0.000000 0.085343 0.000000 -0.044345
# 5 0.004054 0.001488 0.003194 0.000000 0.032643 0.000000
# 6 0.000000 0.000000 0.000000 -0.044345 0.000000 0.037566
#
#
# Mechanical properties :
#
#
# Convention : Reuss Voigt Hill
#
# Bulk Modulus (GPa) = 35.11070 61.49988 48.30529
# Shear Modulus (GPa) = 23.02444 45.05495 34.03970
#
# Velocity S-wave (km/s) = 3.25303 4.55056 3.95536
# Velocity P-wave (km/s) = 5.49971 7.47502 6.56212
#
# Compressibility (1/GPa) = 0.02848135
#
# Stress axis : x y z
#
# Youngs Moduli (GPa) = 108.79815 55.75575 75.92243
#
# Poissons Ratio (x) = 0.01382 0.45843
# Poissons Ratio (y) = 0.02697 -0.02867
# Poissons Ratio (z) = 0.65693 -0.02105
#
# Static dielectric constant tensor:
#      x y z
#    x 1.774730 0.000000 -0.055720 
#    y 0.000000 1.876800 0.000000 
#    z -0.055720 0.000000 1.764390 
# 
# From -- ./inp_files/6280.got.cif
#   From: 2010.05.17/outbox.cif.g08.bks.cpg/sg4_4_cif.got.tgz:6280.got - 2010.06.03 18:43:04.
