data_PCOD9114479
_publ_section_title
;
Structure prediction by ZEFSAII (Michael W. Deem and Ramdas Pophale) SiO2 
 PCOD9114479
Probable space group: P 21
;
_chemical_formula_sum "Si O2"
_cell_formula_units_Z 14
_cell_length_a 9.333450
_cell_length_b 5.377198
_cell_length_c 16.058576
_cell_angle_alpha 90.000000
_cell_angle_beta 50.533343
_cell_angle_gamma 90.000000
_cell_volume 622.184999
_symmetry_space_group_name_H-M "P 21"
_symmetry_group_IT_number 4
_symmetry_cell_setting 'monoclinic'
loop_
_space_group_symop_operation_xyz
x,y,z
-x,1/2+y,-z
loop_
_atom_site_type_symbol
_atom_site_label
_atom_site_fract_x
_atom_site_fract_y
_atom_site_fract_z
Si Si1 0.637762 0.897790 0.354205
Si Si2 0.048135 0.144260 0.523869
Si Si3 0.067928 0.936260 0.151965
Si Si4 0.764765 0.944060 0.943267
Si Si5 0.621231 0.459701 0.817323
Si Si6 0.257991 0.468842 0.248126
Si Si7 0.562364 0.890939 0.580482
O O1 0.590243 0.902975 0.470061
O O2 0.528746 0.654451 0.361729
O O3 0.569379 0.162891 0.346364
O O4 0.857807 0.896565 0.258003
O O5 0.947132 0.036078 0.643962
O O6 0.926142 0.379347 0.533757
O O7 0.235892 0.299613 0.465232
O O8 0.118844 0.192511 0.086453
O O9 0.202932 0.942432 0.183708
O O10 0.125703 0.695364 0.078341
O O11 0.728293 0.948053 0.856848
O O12 0.567661 0.962593 0.060924
O O13 0.620510 0.201564 0.769284
O O14 0.662087 0.707658 0.751251
#
# Coordination Sequence:
#
# PCOD9114479 Si02
#       7
#     2   2   2   2   2   2   2
#     4  10  20  33  55  79 106 148 184 231 292 340
#     4  12  25  40  57  79 111 156 202 235 268 320
#     4  10  17  27  44  73 109 142 174 202 265 347
#     4  10  18  29  49  78 116 147 172 219 285 357
#     4  10  18  30  50  79 115 146 173 221 289 354
#     4  10  19  32  50  72 105 145 182 222 273 326
#     4  10  21  37  53  76 108 142 195 244 278 324
#
# _framework density 22.501346999999999
#
# number of rings (size 3 to 8) (size 9 to 14) (size 15 to 20)
#    0.000    1.714    0.000    8.571    0.000    6.857 
#    0.000    0.000    0.000    0.000    0.000    0.000 
#    0.000  102.857    0.000    0.000    0.000    0.000 
#
# Total GULP energy -78067.276677 kJ/mol
# GULP energy per Si atom -5576.234048 kJ/mol
# Density = 2.245013 g / cm^3
# Si number density = 22.501347 Si / 1000 Ang^3
#
#
#
# Elastic Constant Matrix: (Units=GPa)
#
#
# Indices 1 2 3 4 5 6 
#
# 1 1116.0129 1564.4148 761.7543 0.0000 402.5552 0.0000
# 2 1564.4148 2380.0684 1092.9699 0.0000 582.7209 0.0000
# 3 761.7543 1092.9699 625.3533 0.0000 245.0020 0.0000
# 4 0.0000 0.0000 0.0000 38.3407 0.0000 -14.4223
# 5 402.5552 582.7209 245.0020 0.0000 186.9276 0.0000
# 6 0.0000 0.0000 0.0000 -14.4223 0.0000 13.4550
#
#
#
# Elastic Compliance Matrix: (Units=1/GPa)
#
#
# Indices 1 2 3 4 5 6 
#
# 1 0.018622 -0.005044 -0.008873 0.000000 -0.012749 0.000000
# 2 -0.005044 0.006191 -0.002817 0.000000 -0.004744 0.000000
# 3 -0.008873 -0.002817 0.013163 0.000000 0.010636 0.000000
# 4 0.000000 0.000000 0.000000 0.043703 0.000000 0.046845
# 5 -0.012749 -0.004744 0.010636 0.000000 0.033651 0.000000
# 6 0.000000 0.000000 0.000000 0.046845 0.000000 0.124534
#
#
# Mechanical properties :
#
#
# Convention : Reuss Voigt Hill
#
# Bulk Modulus (GPa) = 221.81945 1217.74584 719.78264
# Shear Modulus (GPa) = 18.19272 94.56437 56.37855
#
# Velocity S-wave (km/s) = 2.84653 6.48979 5.01099
# Velocity P-wave (km/s) = 10.46891 24.46465 18.81645
#
# Compressibility (1/GPa) = 0.00450817
#
# Stress axis : x y z
#
# Youngs Moduli (GPa) = 53.70000 161.52815 75.96866
#
# Poissons Ratio (x) = 0.81483 0.67404
# Poissons Ratio (y) = 0.27089 0.21400
# Poissons Ratio (z) = 0.47646 0.45502
#
# Static dielectric constant tensor:
#      x y z
#    x 1.925490 0.000000 -0.011600 
#    y 0.000000 1.407110 0.000000 
#    z -0.011600 0.000000 1.825850 
# 
# From -- ./inp_files/14580.got.cif
#   From: 2010.05.17/outbox.cif.g08.bks.cpg/sg4_8_cif.got.tgz:14580.got - 2010.06.03 18:43:04.
