data_PCOD9114892
_publ_section_title
;
Structure prediction by ZEFSAII (Michael W. Deem and Ramdas Pophale) SiO2 
 PCOD9114892
Probable space group: P 21
;
_chemical_formula_sum "Si O2"
_cell_formula_units_Z 16
_cell_length_a 10.700593
_cell_length_b 9.489939
_cell_length_c 9.561007
_cell_angle_alpha 90.000000
_cell_angle_beta 141.153924
_cell_angle_gamma 90.000000
_cell_volume 608.978496
_symmetry_space_group_name_H-M "P 21"
_symmetry_group_IT_number 4
_symmetry_cell_setting 'monoclinic'
loop_
_space_group_symop_operation_xyz
x,y,z
-x,1/2+y,-z
loop_
_atom_site_type_symbol
_atom_site_label
_atom_site_fract_x
_atom_site_fract_y
_atom_site_fract_z
Si Si1 0.726107 0.592560 0.312031
Si Si2 0.556436 0.226886 0.467439
Si Si3 0.639236 0.875898 0.363114
Si Si4 0.878759 0.751832 0.196343
Si Si5 0.808615 0.027734 0.229949
Si Si6 0.693018 0.275634 0.283449
Si Si7 0.300563 0.984192 0.258960
Si Si8 0.096120 0.536699 0.185463
O O1 0.641886 0.708404 0.344178
O O2 0.729173 0.666656 0.163807
O O3 0.633612 0.437832 0.214511
O O4 0.957756 0.567364 0.556045
O O5 0.588604 0.211022 0.329380
O O6 0.355082 0.147433 0.327331
O O7 0.596234 0.388145 0.533881
O O8 0.723673 0.139194 0.699576
O O9 0.729679 0.946410 0.301032
O O10 0.422764 0.928847 0.228312
O O11 0.796708 0.926294 0.618623
O O12 0.953317 0.645095 0.145203
O O13 0.076925 0.776654 0.462958
O O14 0.796640 0.909049 0.098444
O O15 0.696403 0.177382 0.148921
O O16 0.064192 0.963241 0.053165
#
# Coordination Sequence:
#
# PCOD9114892 Si02
#       8
#     2   2   2   2   2   2   2   2
#     4   9  16  26  60  85 120 162 196 239 299 379
#     4  10  23  42  61  89 115 169 206 260 327 366
#     4  10  19  36  58  89 119 162 204 251 309 364
#     4   8  15  28  54  85 116 153 196 239 298 366
#     4   9  14  29  58  86 116 165 197 233 307 374
#     4   9  15  30  53  84 114 152 204 238 297 365
#     4  11  24  41  67  85 125 159 216 268 317 367
#     4  10  20  40  63  89 125 158 207 266 316 373
#
# _framework density 26.273506999999999
#
# number of rings (size 3 to 8) (size 9 to 14) (size 15 to 20)
#    0.000    2.500    5.000    0.750    1.750    2.000 
#    0.000    0.000   13.750    0.000    0.000    0.000 
#    0.000    0.000    0.000    0.000    0.000    0.000 
#
# Total GULP energy -89381.128496 kJ/mol
# GULP energy per Si atom -5586.320531 kJ/mol
# Density = 2.621371 g / cm^3
# Si number density = 26.273507 Si / 1000 Ang^3
#
#
#
# Elastic Constant Matrix: (Units=GPa)
#
#
# Indices 1 2 3 4 5 6 
#
# 1 65.9076 14.5667 12.9530 0.0000 11.7367 0.0000
# 2 14.5667 175.9156 17.3173 0.0000 -7.8434 0.0000
# 3 12.9530 17.3173 114.6259 0.0000 25.8335 0.0000
# 4 0.0000 0.0000 0.0000 10.2294 0.0000 -1.3102
# 5 11.7367 -7.8434 25.8335 0.0000 19.8259 0.0000
# 6 0.0000 0.0000 0.0000 -1.3102 0.0000 31.3190
#
#
#
# Elastic Compliance Matrix: (Units=1/GPa)
#
#
# Indices 1 2 3 4 5 6 
#
# 1 0.017717 -0.002169 0.001250 0.000000 -0.012974 0.000000
# 2 -0.002169 0.006384 -0.002234 0.000000 0.006720 0.000000
# 3 0.001250 -0.002234 0.013147 0.000000 -0.018754 0.000000
# 4 0.000000 0.000000 0.000000 0.098284 0.000000 0.004112
# 5 -0.012974 0.006720 -0.018754 0.000000 0.085216 0.000000
# 6 0.000000 0.000000 0.000000 0.004112 0.000000 0.032102
#
#
# Mechanical properties :
#
#
# Convention : Reuss Voigt Hill
#
# Bulk Modulus (GPa) = 32.31851 49.56922 40.94387
# Shear Modulus (GPa) = 18.55508 33.04899 25.80204
#
# Velocity S-wave (km/s) = 2.66038 3.55051 3.13718
# Velocity P-wave (km/s) = 4.66522 5.97627 5.36097
#
# Compressibility (1/GPa) = 0.03094202
#
# Stress axis : x y z
#
# Youngs Moduli (GPa) = 56.44324 156.65062 76.06284
#
# Poissons Ratio (x) = 0.33970 -0.09505
# Poissons Ratio (y) = 0.12240 0.16991
# Poissons Ratio (z) = -0.07053 0.34994
#
# Static dielectric constant tensor:
#      x y z
#    x 2.064020 0.000000 -0.003820 
#    y 0.000000 2.115850 0.000000 
#    z -0.003820 0.000000 2.109200 
# 
# From -- ./inp_files/12147.got.cif
#   From: 2010.05.17/outbox.cif.g08.bks.cpg/sg4_7_cif.got.tgz:12147.got - 2010.06.03 18:43:04.
