data_PCOD9114668
_publ_section_title
;
Structure prediction by ZEFSAII (Michael W. Deem and Ramdas Pophale) SiO2 
 PCOD9114668
Probable space group: P 21
;
_chemical_formula_sum "Si O2"
_cell_formula_units_Z 16
_cell_length_a 9.611451
_cell_length_b 8.537304
_cell_length_c 11.443827
_cell_angle_alpha 90.000000
_cell_angle_beta 135.197867
_cell_angle_gamma 90.000000
_cell_volume 661.699781
_symmetry_space_group_name_H-M "P 21"
_symmetry_group_IT_number 4
_symmetry_cell_setting 'monoclinic'
loop_
_space_group_symop_operation_xyz
x,y,z
-x,1/2+y,-z
loop_
_atom_site_type_symbol
_atom_site_label
_atom_site_fract_x
_atom_site_fract_y
_atom_site_fract_z
Si Si1 0.272520 0.018080 0.581332
Si Si2 0.601499 0.223347 0.465482
Si Si3 0.765844 0.615660 0.194219
Si Si4 0.927812 0.050548 0.815457
Si Si5 0.361464 0.475336 0.909920
Si Si6 0.291551 0.650835 0.095322
Si Si7 0.755907 0.786959 0.594999
Si Si8 0.535661 0.961853 0.271871
O O1 0.156711 0.072998 0.629158
O O2 0.504571 0.066020 0.737523
O O3 0.203237 0.113532 0.425637
O O4 0.278928 0.837744 0.548548
O O5 0.751368 0.130962 0.636624
O O6 0.451944 0.308107 0.462573
O O7 0.467674 0.102409 0.313260
O O8 0.695027 0.795535 0.146692
O O9 0.884033 0.602390 0.144783
O O10 0.589251 0.490839 0.082268
O O11 0.882045 0.103082 0.919095
O O12 0.909283 0.866595 0.773532
O O13 0.368993 0.542270 0.784409
O O14 0.254554 0.575990 0.945733
O O15 0.367081 0.831933 0.144722
O O16 0.713968 0.877314 0.448161
#
# Coordination Sequence:
#
# PCOD9114668 Si02
#       8
#     2   2   2   2   2   2   2   2
#     4  10  19  38  62  97 127 177 205 250 331 407
#     4  11  20  35  73  99 132 171 202 257 346 400
#     4  11  26  43  66  90 130 172 225 281 320 388
#     4  11  23  41  63 103 135 160 216 278 329 385
#     4  11  22  45  66  86 123 182 228 262 333 383
#     4  10  20  40  63  91 132 165 223 265 313 396
#     4  10  18  37  65  99 136 165 202 261 331 402
#     4  10  20  37  68  95 121 176 217 258 319 401
#
# _framework density 24.180150999999999
#
# number of rings (size 3 to 8) (size 9 to 14) (size 15 to 20)
#    0.000    1.500    7.500    0.750    3.500    1.000 
#    2.250    1.250    0.000    0.000    0.000    0.000 
#    0.000    0.000    0.000    0.000    0.000    0.000 
#
# Total GULP energy -89257.072171 kJ/mol
# GULP energy per Si atom -5578.567011 kJ/mol
# Density = 2.412512 g / cm^3
# Si number density = 24.180151 Si / 1000 Ang^3
#
#
#
# Elastic Constant Matrix: (Units=GPa)
#
#
# Indices 1 2 3 4 5 6 
#
# 1 146.0242 20.0574 36.6149 0.0000 -46.3810 0.0000
# 2 20.0574 92.9507 31.6004 0.0000 -31.7713 0.0000
# 3 36.6149 31.6004 50.6062 0.0000 -31.6858 0.0000
# 4 0.0000 0.0000 0.0000 23.6003 0.0000 -13.6358
# 5 -46.3810 -31.7713 -31.6858 0.0000 43.6837 0.0000
# 6 0.0000 0.0000 0.0000 -13.6358 0.0000 27.4757
#
#
#
# Elastic Compliance Matrix: (Units=1/GPa)
#
#
# Indices 1 2 3 4 5 6 
#
# 1 0.010719 0.002329 -0.001875 0.000000 0.011715 0.000000
# 2 0.002329 0.015388 -0.005016 0.000000 0.010025 0.000000
# 3 -0.001875 -0.005016 0.037957 0.000000 0.021893 0.000000
# 4 0.000000 0.000000 0.000000 0.059407 0.000000 0.029483
# 5 0.011715 0.010025 0.021893 0.000000 0.058502 0.000000
# 6 0.000000 0.000000 0.000000 0.029483 0.000000 0.051028
#
#
# Mechanical properties :
#
#
# Convention : Reuss Voigt Hill
#
# Bulk Modulus (GPa) = 18.20196 51.79184 34.99690
# Shear Modulus (GPa) = 19.19831 32.37250 25.78540
#
# Velocity S-wave (km/s) = 2.82080 3.66294 3.26910
# Velocity P-wave (km/s) = 4.26066 6.27337 5.36229
#
# Compressibility (1/GPa) = 0.05493913
#
# Stress axis : x y z
#
# Youngs Moduli (GPa) = 93.28876 64.98502 26.34560
#
# Poissons Ratio (x) = -0.15132 0.04939
# Poissons Ratio (y) = -0.21723 0.13216
# Poissons Ratio (z) = 0.17490 0.32600
#
# Static dielectric constant tensor:
#      x y z
#    x 1.998560 0.000000 0.019670 
#    y 0.000000 1.992190 0.000000 
#    z 0.019670 0.000000 2.002820 
# 
# From -- ./inp_files/10931.got.cif
#   From: 2010.05.17/outbox.cif.g08.bks.cpg/sg4_6_cif.got.tgz:10931.got - 2010.06.03 18:43:04.
