data_PCOD9114294
_publ_section_title
;
Structure prediction by ZEFSAII (Michael W. Deem and Ramdas Pophale) SiO2 
 PCOD9114294
Probable space group: P 2
;
_chemical_formula_sum "Si O2"
_cell_formula_units_Z 13
_cell_length_a 8.291479
_cell_length_b 5.043774
_cell_length_c 13.040620
_cell_angle_alpha 90.000000
_cell_angle_beta 98.671828
_cell_angle_gamma 90.000000
_cell_volume 539.128728
_symmetry_space_group_name_H-M "P 2"
_symmetry_group_IT_number 3
_symmetry_cell_setting 'monoclinic'
loop_
_space_group_symop_operation_xyz
x,y,z
-x,y,-z
loop_
_atom_site_type_symbol
_atom_site_label
_atom_site_fract_x
_atom_site_fract_y
_atom_site_fract_z
Si Si1 0.381580 0.821160 0.331411
Si Si2 0.076675 0.357313 0.820447
Si Si3 0.283642 0.978085 0.537898
Si Si4 0.138520 0.484961 0.592521
Si Si5 0.685723 0.105891 0.004773
Si Si6 0.282390 0.294797 0.201000
Si Si7 0.000000 0.749835 0.000000
O O1 0.270919 0.923513 0.415503
O O2 0.557038 0.832143 0.401380
O O3 0.324585 0.546659 0.275799
O O4 0.387028 0.043843 0.245178
O O5 0.112007 0.442596 0.709319
O O6 0.904879 0.204881 0.799275
O O7 0.026678 0.578362 0.899886
O O8 0.234174 0.213491 0.882855
O O9 0.149799 0.799745 0.579714
O O10 0.282431 0.285394 0.568519
O O11 0.000000 0.392769 0.500000
O O12 0.682566 0.333079 0.916227
O O13 0.831775 0.915865 0.979087
O O14 0.500000 0.006970 0.000000
#
# Coordination Sequence:
#
# PCOD9114294 Si02
#       7
#     2   2   2   2   2   2   1
#     4  11  25  43  77 103 153 202 255 327 397 473
#     4  12  27  48  75 108 156 203 263 324 401 471
#     4  11  25  47  66 113 149 197 263 323 390 470
#     4  12  27  45  75 107 153 200 260 321 394 477
#     4  12  29  47  77 115 155 207 271 334 406 477
#     4  12  24  48  75 109 148 208 259 319 403 476
#     4  12  24  56  76 112 160 216 264 342 396 494
#
# _framework density 24.112981999999999
#
# number of rings (size 3 to 8) (size 9 to 14) (size 15 to 20)
#    0.000    0.308    3.077    5.077    6.462    3.077 
#    0.000    0.000    0.000    0.000    0.000    0.000 
#    0.000    0.000    0.000    0.000    0.000    0.000 
#
# Total GULP energy -72612.266604 kJ/mol
# GULP energy per Si atom -5585.558970 kJ/mol
# Density = 2.405810 g / cm^3
# Si number density = 24.112982 Si / 1000 Ang^3
#
#
#
# Elastic Constant Matrix: (Units=GPa)
#
#
# Indices 1 2 3 4 5 6 
#
# 1 105.1137 21.6489 20.0551 0.0000 23.0302 0.0000
# 2 21.6489 89.4358 23.9021 0.0000 7.0167 0.0000
# 3 20.0551 23.9021 151.5734 0.0000 9.9717 0.0000
# 4 0.0000 0.0000 0.0000 22.1313 0.0000 6.6409
# 5 23.0302 7.0167 9.9717 0.0000 37.1139 0.0000
# 6 0.0000 0.0000 0.0000 6.6409 0.0000 24.5289
#
#
#
# Elastic Compliance Matrix: (Units=1/GPa)
#
#
# Indices 1 2 3 4 5 6 
#
# 1 0.011522 -0.002070 -0.000767 0.000000 -0.006552 0.000000
# 2 -0.002070 0.012157 -0.001605 0.000000 -0.000583 0.000000
# 3 -0.000767 -0.001605 0.007025 0.000000 -0.001108 0.000000
# 4 0.000000 0.000000 0.000000 0.049180 0.000000 -0.013315
# 5 -0.006552 -0.000583 -0.001108 0.000000 0.031418 0.000000
# 6 0.000000 0.000000 0.000000 -0.013315 0.000000 0.044373
#
#
# Mechanical properties :
#
#
# Convention : Reuss Voigt Hill
#
# Bulk Modulus (GPa) = 45.82958 53.03721 49.43339
# Shear Modulus (GPa) = 29.09829 35.45595 32.27712
#
# Velocity S-wave (km/s) = 3.47760 3.83875 3.66263
# Velocity P-wave (km/s) = 5.93063 6.45686 6.19933
#
# Compressibility (1/GPa) = 0.02181997
#
# Stress axis : x y z
#
# Youngs Moduli (GPa) = 86.79262 82.25800 142.35040
#
# Poissons Ratio (x) = 0.17027 0.10918
# Poissons Ratio (y) = 0.17965 0.22845
# Poissons Ratio (z) = 0.06657 0.13201
#
# Static dielectric constant tensor:
#      x y z
#    x 2.141760 0.000000 0.020560 
#    y 0.000000 1.916870 0.000000 
#    z 0.020560 0.000000 1.965800 
# 
# From -- ./inp_files/9540.got.cif
#   From: 2010.05.17/outbox.cif.g08.bks.cpg/sg3_5_cif.got.tgz:9540.got - 2010.06.03 18:33:08.
