data_PCOD9114473
_publ_section_title
;
Structure prediction by ZEFSAII (Michael W. Deem and Ramdas Pophale) SiO2 
 PCOD9114473
Probable space group: P 21
;
_chemical_formula_sum "Si O2"
_cell_formula_units_Z 14
_cell_length_a 5.871544
_cell_length_b 12.044755
_cell_length_c 7.887855
_cell_angle_alpha 90.000000
_cell_angle_beta 104.904376
_cell_angle_gamma 90.000000
_cell_volume 539.071725
_symmetry_space_group_name_H-M "P 21"
_symmetry_group_IT_number 4
_symmetry_cell_setting 'monoclinic'
loop_
_space_group_symop_operation_xyz
x,y,z
-x,1/2+y,-z
loop_
_atom_site_type_symbol
_atom_site_label
_atom_site_fract_x
_atom_site_fract_y
_atom_site_fract_z
Si Si1 0.125245 0.810620 0.047449
Si Si2 0.804792 0.991288 0.481876
Si Si3 0.840705 0.492923 0.181221
Si Si4 0.414676 0.008984 0.169364
Si Si5 0.480320 0.840229 0.645285
Si Si6 0.892524 0.677945 0.738702
Si Si7 0.036897 0.765803 0.403723
O O1 0.371414 0.875092 0.142536
O O2 0.008616 0.763961 0.195344
O O3 0.104653 0.714480 0.902730
O O4 0.014683 0.918899 0.928668
O O5 0.662364 0.041979 0.297600
O O6 0.602014 0.935280 0.557005
O O7 0.977511 0.047962 0.653980
O O8 0.951015 0.890596 0.432172
O O9 0.683036 0.403218 0.251653
O O10 0.655676 0.557523 0.028584
O O11 0.209893 0.056593 0.251357
O O12 0.678460 0.759114 0.754723
O O13 0.316042 0.764566 0.494491
O O14 0.929194 0.702824 0.547991
#
# Coordination Sequence:
#
# PCOD9114473 Si02
#       7
#     2   2   2   2   2   2   2
#     4  10  20  40  66  88 130 174 208 267 327 372
#     4  10  19  37  65  86 122 165 213 262 320 380
#     4   9  20  38  64  90 122 168 215 256 318 389
#     4  10  22  41  62  96 128 172 221 258 324 386
#     4  10  16  39  62  84 122 163 204 267 315 368
#     4  11  23  42  60  99 132 162 225 271 307 389
#     4  10  20  39  63  89 120 170 210 259 325 380
#
# _framework density 25.970569000000001
#
# number of rings (size 3 to 8) (size 9 to 14) (size 15 to 20)
#    0.857    1.143    5.714    0.000    2.000    0.000 
#    7.714    0.000    0.000    0.000    0.000    0.000 
#    0.000    0.000    0.000    0.000    0.000    0.000 
#
# Total GULP energy -78008.388794 kJ/mol
# GULP energy per Si atom -5572.027771 kJ/mol
# Density = 2.591146 g / cm^3
# Si number density = 25.970569 Si / 1000 Ang^3
#
#
#
# Elastic Constant Matrix: (Units=GPa)
#
#
# Indices 1 2 3 4 5 6 
#
# 1 64.2644 24.0010 58.2130 0.0000 4.8983 0.0000
# 2 24.0010 44.1843 60.9394 0.0000 -4.4264 0.0000
# 3 58.2130 60.9394 217.5132 0.0000 9.9247 0.0000
# 4 0.0000 0.0000 0.0000 51.4175 0.0000 -12.8967
# 5 4.8983 -4.4264 9.9247 0.0000 46.0884 0.0000
# 6 0.0000 0.0000 0.0000 -12.8967 0.0000 39.5668
#
#
#
# Elastic Compliance Matrix: (Units=1/GPa)
#
#
# Indices 1 2 3 4 5 6 
#
# 1 0.021700 -0.006722 -0.003827 0.000000 -0.002128 0.000000
# 2 -0.006722 0.040584 -0.009879 0.000000 0.006739 0.000000
# 3 -0.003827 -0.009879 0.008498 0.000000 -0.002372 0.000000
# 4 0.000000 0.000000 0.000000 0.021180 0.000000 0.006904
# 5 -0.002128 0.006739 -0.002372 0.000000 0.023082 0.000000
# 6 0.000000 0.000000 0.000000 0.006904 0.000000 0.027524
#
#
# Mechanical properties :
#
#
# Convention : Reuss Voigt Hill
#
# Bulk Modulus (GPa) = 33.41628 68.02985 50.72307
# Shear Modulus (GPa) = 25.85331 39.60177 32.72754
#
# Velocity S-wave (km/s) = 3.15855 3.90920 3.55375
# Velocity P-wave (km/s) = 5.11829 6.82844 6.03425
#
# Compressibility (1/GPa) = 0.02992553
#
# Stress axis : x y z
#
# Youngs Moduli (GPa) = 46.08223 24.64037 117.68119
#
# Poissons Ratio (x) = 0.16564 0.45039
# Poissons Ratio (y) = 0.30978 1.16252
# Poissons Ratio (z) = 0.17637 0.24341
#
# Static dielectric constant tensor:
#      x y z
#    x 2.037730 0.000000 0.040630 
#    y 0.000000 2.087850 0.000000 
#    z 0.040630 0.000000 2.119280 
# 
# From -- ./inp_files/4839.got.cif
#   From: 2010.05.17/outbox.cif.g08.bks.cpg/sg4_3_cif.got.tgz:4839.got - 2010.06.03 18:43:04.
