data_PCOD9114111
_publ_section_title
;
Structure prediction by ZEFSAII (Michael W. Deem and Ramdas Pophale) SiO2 
 PCOD9114111
Probable space group: P 2
;
_chemical_formula_sum "Si O2"
_cell_formula_units_Z 14
_cell_length_a 14.454554
_cell_length_b 6.876621
_cell_length_c 8.796255
_cell_angle_alpha 90.000000
_cell_angle_beta 41.350276
_cell_angle_gamma 90.000000
_cell_volume 577.638360
_symmetry_space_group_name_H-M "P 2"
_symmetry_group_IT_number 3
_symmetry_cell_setting 'monoclinic'
loop_
_space_group_symop_operation_xyz
x,y,z
-x,y,-z
loop_
_atom_site_type_symbol
_atom_site_label
_atom_site_fract_x
_atom_site_fract_y
_atom_site_fract_z
Si Si1 0.231047 0.934790 0.179704
Si Si2 0.462580 0.433806 0.223751
Si Si3 0.227070 0.167684 0.644949
Si Si4 0.370288 0.198875 0.771493
Si Si5 0.000000 0.437696 0.000000
Si Si6 0.744537 0.767611 0.543306
Si Si7 0.000000 0.252829 0.500000
Si Si8 0.055215 0.606823 0.217785
O O1 0.307669 0.844340 0.229150
O O2 0.140198 0.773994 0.200483
O O3 0.127525 0.103281 0.373182
O O4 0.337481 0.034420 0.933363
O O5 0.355920 0.258137 0.392877
O O6 0.591990 0.391342 0.177442
O O7 0.372088 0.622983 0.375626
O O8 0.500000 0.433477 0.000000
O O9 0.247454 0.201021 0.799981
O O10 0.219351 0.944474 0.611530
O O11 0.091021 0.296137 0.781840
O O12 0.500000 0.156245 0.500000
O O13 0.093719 0.571797 0.994103
O O14 0.891633 0.667104 0.406325
O O15 0.939036 0.405065 0.697667
#
# Coordination Sequence:
#
# PCOD9114111 Si02
#       8
#     2   2   2   2   1   2   1   2
#     4  12  25  45  79 111 158 198 250 324 388 458
#     4  11  26  49  75 106 147 200 259 317 370 455
#     4  11  26  48  74 109 150 204 249 317 388 453
#     4  10  26  49  72 104 149 205 253 303 387 451
#     4  12  26  44  76 110 162 198 246 318 396 464
#     4  12  25  45  74 112 147 196 267 311 375 453
#     4  12  22  46  72 110 154 194 246 316 398 450
#     4  12  26  43  69 121 151 199 251 317 391 458
#
# _framework density 24.236615
#
# number of rings (size 3 to 8) (size 9 to 14) (size 15 to 20)
#    0.000    0.571    4.286    2.571    6.000    4.000 
#    0.000    9.286    0.000    0.000    0.000    0.000 
#    0.000    0.000    0.000    0.000    0.000    0.000 
#
# Total GULP energy -78338.212082 kJ/mol
# GULP energy per Si atom -5595.586577 kJ/mol
# Density = 2.418145 g / cm^3
# Si number density = 24.236615 Si / 1000 Ang^3
#
#
#
# Elastic Constant Matrix: (Units=GPa)
#
#
# Indices 1 2 3 4 5 6 
#
# 1 106.7578 67.8573 11.8632 0.0000 11.7537 0.0000
# 2 67.8573 146.3670 27.7120 0.0000 12.3199 0.0000
# 3 11.8632 27.7120 86.6614 0.0000 12.0828 0.0000
# 4 0.0000 0.0000 0.0000 42.8405 0.0000 2.4881
# 5 11.7537 12.3199 12.0828 0.0000 22.6359 0.0000
# 6 0.0000 0.0000 0.0000 2.4881 0.0000 37.8370
#
#
#
# Elastic Compliance Matrix: (Units=1/GPa)
#
#
# Indices 1 2 3 4 5 6 
#
# 1 0.013619 -0.006092 0.000656 0.000000 -0.004106 0.000000
# 2 -0.006092 0.010183 -0.002259 0.000000 -0.001173 0.000000
# 3 0.000656 -0.002259 0.013016 0.000000 -0.006060 0.000000
# 4 0.000000 0.000000 0.000000 0.023432 0.000000 -0.001541
# 5 -0.004106 -0.001173 -0.006060 0.000000 0.050183 0.000000
# 6 0.000000 0.000000 0.000000 -0.001541 0.000000 0.026530
#
#
# Mechanical properties :
#
#
# Convention : Reuss Voigt Hill
#
# Bulk Modulus (GPa) = 46.66657 61.62790 54.14723
# Shear Modulus (GPa) = 31.34893 36.15295 33.75094
#
# Velocity S-wave (km/s) = 3.60036 3.86640 3.73575
# Velocity P-wave (km/s) = 6.04813 6.73906 6.40292
#
# Compressibility (1/GPa) = 0.02142862
#
# Stress axis : x y z
#
# Youngs Moduli (GPa) = 73.42932 98.20268 76.82598
#
# Poissons Ratio (x) = 0.59829 -0.05043
# Poissons Ratio (y) = 0.44736 0.17353
# Poissons Ratio (z) = -0.04820 0.22181
#
# Static dielectric constant tensor:
#      x y z
#    x 1.989450 0.000000 -0.017000 
#    y 0.000000 1.900990 0.000000 
#    z -0.017000 0.000000 1.970080 
# 
# From -- ./inp_files/8265.got.cif
#   From: 2010.05.17/outbox.cif.g08.bks.cpg/sg3_5_cif.got.tgz:8265.got - 2010.06.03 18:33:08.
