data_PCOD9114901
_publ_section_title
;
Structure prediction by ZEFSAII (Michael W. Deem and Ramdas Pophale) SiO2 
 PCOD9114901
Probable space group: P 21
;
_chemical_formula_sum "Si O2"
_cell_formula_units_Z 12
_cell_length_a 7.396211
_cell_length_b 10.587715
_cell_length_c 11.432176
_cell_angle_alpha 90.000000
_cell_angle_beta 39.104191
_cell_angle_gamma 90.000000
_cell_volume 564.658272
_symmetry_space_group_name_H-M "P 21"
_symmetry_group_IT_number 4
_symmetry_cell_setting 'monoclinic'
loop_
_space_group_symop_operation_xyz
x,y,z
-x,1/2+y,-z
loop_
_atom_site_type_symbol
_atom_site_label
_atom_site_fract_x
_atom_site_fract_y
_atom_site_fract_z
Si Si1 0.332386 0.036100 0.430585
Si Si2 0.324962 0.784465 0.027433
Si Si3 0.629320 0.307874 0.271861
Si Si4 0.792015 0.610520 0.763638
Si Si5 0.790572 0.917881 0.347431
Si Si6 0.099216 0.376046 0.217531
O O1 0.486814 0.171657 0.372815
O O2 0.235644 0.039983 0.345071
O O3 0.577236 0.935963 0.346052
O O4 0.060380 0.994054 0.644684
O O5 0.330625 0.815299 0.886477
O O6 0.475074 0.649253 0.966101
O O7 0.558196 0.876660 0.971483
O O8 0.005157 0.800540 0.230958
O O9 0.405916 0.407196 0.439295
O O10 0.926284 0.335071 0.189059
O O11 0.992690 0.534534 0.749846
O O12 0.927019 0.752441 0.682883
#
# Coordination Sequence:
#
# PCOD9114901 Si02
#       6
#     2   2   2   2   2   2
#     4  10  19  36  61  84 117 153 193 239 289 338
#     4   9  21  37  55  84 117 147 192 236 284 337
#     4  10  20  38  59  86 117 149 194 241 281 352
#     4   9  20  36  58  83 119 147 192 244 277 348
#     4  11  21  37  62  85 112 160 190 234 296 341
#     4   9  19  36  59  82 118 154 185 242 291 330
#
# _framework density 21.251794
#
# number of rings (size 3 to 8) (size 9 to 14) (size 15 to 20)
#    1.000    1.333    1.667    1.000    0.000    2.667 
#    0.000    5.000    7.333    0.000    0.000    0.000 
#    0.000    0.000    0.000    0.000    0.000    0.000 
#
# Total GULP energy -66814.855070 kJ/mol
# GULP energy per Si atom -5567.904589 kJ/mol
# Density = 2.120342 g / cm^3
# Si number density = 21.251794 Si / 1000 Ang^3
#
#
#
# Elastic Constant Matrix: (Units=GPa)
#
#
# Indices 1 2 3 4 5 6 
#
# 1 105.8351 4.3578 33.4246 0.0000 -24.1963 0.0000
# 2 4.3578 37.7353 -5.2449 0.0000 3.6453 0.0000
# 3 33.4246 -5.2449 70.2580 0.0000 -19.9913 0.0000
# 4 0.0000 0.0000 0.0000 24.5725 0.0000 0.6671
# 5 -24.1963 3.6453 -19.9913 0.0000 20.5788 0.0000
# 6 0.0000 0.0000 0.0000 0.6671 0.0000 26.2845
#
#
#
# Elastic Compliance Matrix: (Units=1/GPa)
#
#
# Indices 1 2 3 4 5 6 
#
# 1 0.013647 -0.003308 -0.002774 0.000000 0.013938 0.000000
# 2 -0.003308 0.027805 0.001577 0.000000 -0.007283 0.000000
# 3 -0.002774 0.001577 0.020265 0.000000 0.016145 0.000000
# 4 0.000000 0.000000 0.000000 0.040724 0.000000 -0.001034
# 5 0.013938 -0.007283 0.016145 0.000000 0.081956 0.000000
# 6 0.000000 0.000000 0.000000 -0.001034 0.000000 0.038072
#
#
# Mechanical properties :
#
#
# Convention : Reuss Voigt Hill
#
# Bulk Modulus (GPa) = 18.97232 30.98925 24.98079
# Shear Modulus (GPa) = 20.07653 26.37322 23.22488
#
# Velocity S-wave (km/s) = 3.07693 3.52659 3.30940
# Velocity P-wave (km/s) = 4.64436 5.58534 5.13644
#
# Compressibility (1/GPa) = 0.05270836
#
# Stress axis : x y z
#
# Youngs Moduli (GPa) = 73.27434 35.96458 49.34715
#
# Poissons Ratio (x) = 0.11897 0.13687
# Poissons Ratio (y) = 0.24239 -0.07783
# Poissons Ratio (z) = 0.20324 -0.05673
#
# Static dielectric constant tensor:
#      x y z
#    x 1.737620 0.000000 -0.032930 
#    y 0.000000 1.849590 0.000000 
#    z -0.032930 0.000000 1.749340 
# 
# From -- ./inp_files/1088.got.cif
#   From: 2010.05.17/outbox.cif.g08.bks.cpg/sg4_1_cif.got.tgz:1088.got - 2010.06.03 18:43:04.
