data_PCOD9114470
_publ_section_title
;
Structure prediction by ZEFSAII (Michael W. Deem and Ramdas Pophale) SiO2 
 PCOD9114470
Probable space group: P 21
;
_chemical_formula_sum "Si O2"
_cell_formula_units_Z 16
_cell_length_a 12.379297
_cell_length_b 8.793727
_cell_length_c 8.115398
_cell_angle_alpha 90.000000
_cell_angle_beta 134.787069
_cell_angle_gamma 90.000000
_cell_volume 627.006139
_symmetry_space_group_name_H-M "P 21"
_symmetry_group_IT_number 4
_symmetry_cell_setting 'monoclinic'
loop_
_space_group_symop_operation_xyz
x,y,z
-x,1/2+y,-z
loop_
_atom_site_type_symbol
_atom_site_label
_atom_site_fract_x
_atom_site_fract_y
_atom_site_fract_z
Si Si1 0.129123 0.084730 0.983339
Si Si2 0.520173 0.635822 0.877294
Si Si3 0.803103 0.182726 0.581320
Si Si4 0.625601 0.770810 0.645624
Si Si5 0.235071 0.584800 0.106364
Si Si6 0.188882 0.263202 0.712493
Si Si7 0.362051 0.843271 0.105911
Si Si8 0.966017 0.480467 0.624419
O O1 0.162348 0.200154 0.868526
O O2 0.948471 0.072004 0.767717
O O3 0.219244 0.175299 0.225768
O O4 0.223387 0.934081 0.046682
O O5 0.338381 0.631579 0.682264
O O6 0.550539 0.678954 0.716573
O O7 0.589322 0.467326 0.976060
O O8 0.626577 0.750403 0.097794
O O9 0.753483 0.188823 0.719435
O O10 0.858227 0.342679 0.565746
O O11 0.511344 0.801573 0.373473
O O12 0.664439 0.937688 0.753532
O O13 0.289401 0.678315 0.004688
O O14 0.067492 0.526547 0.889154
O O15 0.083430 0.413472 0.610438
O O16 0.117683 0.131835 0.524201
#
# Coordination Sequence:
#
# PCOD9114470 Si02
#       8
#     2   2   2   2   2   2   2   2
#     4   9  21  37  58  88 128 166 215 259 313 382
#     4  10  20  38  63  86 131 164 213 265 308 390
#     4  11  22  38  62  94 137 162 199 275 332 374
#     4  10  16  37  56  90 123 173 209 247 317 384
#     4  12  21  34  65  95 132 157 214 264 324 386
#     4   9  21  43  65  87 121 169 234 250 300 397
#     4  10  19  32  58  94 122 173 204 254 321 381
#     4  11  24  43  67  94 122 176 212 272 319 370
#
# _framework density 25.518090999999998
#
# number of rings (size 3 to 8) (size 9 to 14) (size 15 to 20)
#    0.000    2.000    6.250    0.750    5.250    0.000 
#    0.000    2.500    0.000    0.000    0.000    0.000 
#    0.000    0.000    0.000    0.000    0.000    0.000 
#
# Total GULP energy -89183.684635 kJ/mol
# GULP energy per Si atom -5573.980290 kJ/mol
# Density = 2.546001 g / cm^3
# Si number density = 25.518091 Si / 1000 Ang^3
#
#
#
# Elastic Constant Matrix: (Units=GPa)
#
#
# Indices 1 2 3 4 5 6 
#
# 1 57.8704 36.5563 40.5990 0.0000 7.5646 0.0000
# 2 36.5563 62.7943 14.7927 0.0000 12.5566 0.0000
# 3 40.5990 14.7927 105.9293 0.0000 30.4091 0.0000
# 4 0.0000 0.0000 0.0000 43.7249 0.0000 -6.3293
# 5 7.5646 12.5566 30.4091 0.0000 35.6635 0.0000
# 6 0.0000 0.0000 0.0000 -6.3293 0.0000 29.5674
#
#
#
# Elastic Compliance Matrix: (Units=1/GPa)
#
#
# Indices 1 2 3 4 5 6 
#
# 1 0.041806 -0.023107 -0.016665 0.000000 0.013478 0.000000
# 2 -0.023107 0.029964 0.008333 0.000000 -0.012754 0.000000
# 3 -0.016665 0.008333 0.019188 0.000000 -0.015760 0.000000
# 4 0.000000 0.000000 0.000000 0.023602 0.000000 0.005052
# 5 0.013478 -0.012754 -0.015760 0.000000 0.043110 0.000000
# 6 0.000000 0.000000 0.000000 0.005052 0.000000 0.034902
#
#
# Mechanical properties :
#
#
# Convention : Reuss Voigt Hill
#
# Bulk Modulus (GPa) = 35.61242 45.60999 40.61121
# Shear Modulus (GPa) = 18.88138 30.76755 24.82447
#
# Velocity S-wave (km/s) = 2.72310 3.47611 3.12239
# Velocity P-wave (km/s) = 4.88601 5.83297 5.38036
#
# Compressibility (1/GPa) = 0.02808009
#
# Stress axis : x y z
#
# Youngs Moduli (GPa) = 23.91983 33.37296 52.11592
#
# Poissons Ratio (x) = 0.77116 0.86852
# Poissons Ratio (y) = 0.55272 -0.43428
# Poissons Ratio (z) = 0.39863 -0.27810
#
# Static dielectric constant tensor:
#      x y z
#    x 2.265140 0.000000 0.038730 
#    y 0.000000 2.024120 0.000000 
#    z 0.038730 0.000000 2.102010 
# 
# From -- ./inp_files/12921.got.cif
#   From: 2010.05.17/outbox.cif.g08.bks.cpg/sg4_7_cif.got.tgz:12921.got - 2010.06.03 18:43:04.
