data_PCOD9114493
_publ_section_title
;
Structure prediction by ZEFSAII (Michael W. Deem and Ramdas Pophale) SiO2 
 PCOD9114493
Probable space group: P 21
;
_chemical_formula_sum "Si O2"
_cell_formula_units_Z 12
_cell_length_a 31.578816
_cell_length_b 4.964882
_cell_length_c 22.159357
_cell_angle_alpha 90.000000
_cell_angle_beta 9.943725
_cell_angle_gamma 90.000000
_cell_volume 599.937570
_symmetry_space_group_name_H-M "P 21"
_symmetry_group_IT_number 4
_symmetry_cell_setting 'monoclinic'
loop_
_space_group_symop_operation_xyz
x,y,z
-x,1/2+y,-z
loop_
_atom_site_type_symbol
_atom_site_label
_atom_site_fract_x
_atom_site_fract_y
_atom_site_fract_z
Si Si1 0.214418 0.527330 0.358218
Si Si2 0.079577 0.235380 0.753955
Si Si3 0.612389 0.236197 0.639134
Si Si4 0.202745 0.029763 0.455537
Si Si5 0.850014 0.112730 0.190988
Si Si6 0.909407 0.925944 0.597036
O O1 0.167544 0.233374 0.450083
O O2 0.071670 0.550450 0.496130
O O3 0.155593 0.737355 0.493985
O O4 0.507421 0.553394 0.934295
O O5 0.209816 0.525449 0.575834
O O6 0.051527 0.128722 0.725626
O O7 0.271184 0.028881 0.515382
O O8 0.848677 0.205781 0.123405
O O9 0.620658 0.157338 0.556918
O O10 0.343414 0.258153 0.042991
O O11 0.056281 0.308329 0.932128
O O12 0.097474 0.687464 0.349947
#
# Coordination Sequence:
#
# PCOD9114493 Si02
#       6
#     2   2   2   2   2   2
#     4  10  21  33  47  75 102 136 175 206 255 309
#     4  10  17  30  53  78 104 135 160 208 282 321
#     4  10  19  32  49  73 109 135 173 215 251 310
#     4  10  19  31  53  74 103 134 160 214 269 314
#     4   8  16  28  46  74 103 131 161 205 265 324
#     4  12  24  36  52  72 105 153 185 210 246 300
#
# _framework density 20.002079999999999
#
# number of rings (size 3 to 8) (size 9 to 14) (size 15 to 20)
#    0.000    2.000    1.667    3.000    4.667    0.000 
#    0.000    0.000    0.000    0.000    0.000    4.667 
#    0.000    0.000    0.000    0.000    0.000    0.000 
#
# Total GULP energy -66874.655619 kJ/mol
# GULP energy per Si atom -5572.887968 kJ/mol
# Density = 1.995655 g / cm^3
# Si number density = 20.002080 Si / 1000 Ang^3
#
#
#
# Elastic Constant Matrix: (Units=GPa)
#
#
# Indices 1 2 3 4 5 6 
#
# 1 100.2838 -2.1010 16.6291 0.0000 16.8175 0.0000
# 2 -2.1010 82.2263 -1.9610 0.0000 -11.5361 0.0000
# 3 16.6291 -1.9610 10.3310 0.0000 13.4681 0.0000
# 4 0.0000 0.0000 0.0000 16.0972 0.0000 7.2355
# 5 16.8175 -11.5361 13.4681 0.0000 24.2487 0.0000
# 6 0.0000 0.0000 0.0000 7.2355 0.0000 19.1824
#
#
#
# Elastic Compliance Matrix: (Units=1/GPa)
#
#
# Indices 1 2 3 4 5 6 
#
# 1 0.014377 0.001126 -0.038517 0.000000 0.011958 0.000000
# 2 0.001126 0.014414 -0.025364 0.000000 0.020164 0.000000
# 3 -0.038517 -0.025364 0.488857 0.000000 -0.256873 0.000000
# 4 0.000000 0.000000 0.000000 0.074805 0.000000 -0.028216
# 5 0.011958 0.020164 -0.256873 0.000000 0.185210 0.000000
# 6 0.000000 0.000000 0.000000 -0.028216 0.000000 0.062774
#
#
# Mechanical properties :
#
#
# Convention : Reuss Voigt Hill
#
# Bulk Modulus (GPa) = 2.55011 24.21949 13.38480
# Shear Modulus (GPa) = 4.55930 23.92393 14.24162
#
# Velocity S-wave (km/s) = 1.51141 3.46218 2.67124
# Velocity P-wave (km/s) = 2.07930 5.30255 4.02744
#
# Compressibility (1/GPa) = 0.39213961
#
# Stress axis : x y z
#
# Youngs Moduli (GPa) = 69.55609 69.37529 2.04559
#
# Poissons Ratio (x) = -0.07814 0.07879
# Poissons Ratio (y) = -0.07835 0.05188
# Poissons Ratio (z) = 2.67907 1.75963
#
# Static dielectric constant tensor:
#      x y z
#    x 1.770280 0.000000 0.046160 
#    y 0.000000 1.693370 0.000000 
#    z 0.046160 0.000000 1.743670 
# 
# From -- ./inp_files/7045.got.cif
#   From: 2010.05.17/outbox.cif.g08.bks.cpg/sg4_4_cif.got.tgz:7045.got - 2010.06.03 18:43:04.
