data_PCOD9114223
_publ_section_title
;
Structure prediction by ZEFSAII (Michael W. Deem and Ramdas Pophale) SiO2 
 PCOD9114223
Probable space group: P 2
;
_chemical_formula_sum "Si O2"
_cell_formula_units_Z 12
_cell_length_a 14.389014
_cell_length_b 5.518864
_cell_length_c 6.931240
_cell_angle_alpha 90.000000
_cell_angle_beta 102.152005
_cell_angle_gamma 90.000000
_cell_volume 538.083354
_symmetry_space_group_name_H-M "P 2"
_symmetry_group_IT_number 3
_symmetry_cell_setting 'monoclinic'
loop_
_space_group_symop_operation_xyz
x,y,z
-x,y,-z
loop_
_atom_site_type_symbol
_atom_site_label
_atom_site_fract_x
_atom_site_fract_y
_atom_site_fract_z
Si Si1 0.211432 0.346810 0.382125
Si Si2 0.403560 0.552110 0.331398
Si Si3 0.767489 0.997979 0.274082
Si Si4 0.095451 0.260175 0.950587
Si Si5 0.907791 0.614391 0.375301
Si Si6 0.406732 0.050367 0.088523
O O1 0.303617 0.518479 0.400722
O O2 0.118247 0.433055 0.460449
O O3 0.245268 0.118108 0.523398
O O4 0.172620 0.291575 0.152309
O O5 0.500000 0.551873 0.500000
O O6 0.400747 0.808777 0.217813
O O7 0.407211 0.306612 0.202232
O O8 0.803129 0.727406 0.309680
O O9 0.857676 0.106250 0.198250
O O10 0.679393 0.041624 0.099639
O O11 0.070714 0.506408 0.825222
O O12 0.000000 0.154981 0.000000
O O13 0.000000 0.753144 0.500000
O O14 0.500000 0.034436 0.000000
#
# Coordination Sequence:
#
# PCOD9114223 Si02
#       6
#     2   2   2   2   2   2
#     4  11  25  45  71  99 145 185 242 296 362 434
#     4  12  27  48  78 109 146 194 243 297 372 436
#     4  11  27  42  71 103 143 186 242 303 364 427
#     4  11  23  45  66 100 143 186 239 297 360 433
#     4  11  25  41  67 103 141 190 240 301 362 426
#     4  12  27  49  76 109 151 187 243 305 366 435
#
# _framework density 22.301376000000001
#
# number of rings (size 3 to 8) (size 9 to 14) (size 15 to 20)
#    0.000    0.667    3.333    3.000    9.333    2.000 
#    0.000    0.000    0.000    0.000    0.000    0.000 
#    0.000    0.000    0.000    0.000    0.000    0.000 
#
# Total GULP energy -66957.409976 kJ/mol
# GULP energy per Si atom -5579.784165 kJ/mol
# Density = 2.225062 g / cm^3
# Si number density = 22.301376 Si / 1000 Ang^3
#
#
#
# Elastic Constant Matrix: (Units=GPa)
#
#
# Indices 1 2 3 4 5 6 
#
# 1 129.1365 5.9976 34.8798 0.0000 -3.3495 0.0000
# 2 5.9976 69.6663 35.6375 0.0000 -3.3228 0.0000
# 3 34.8798 35.6375 137.9212 0.0000 10.9171 0.0000
# 4 0.0000 0.0000 0.0000 17.0356 0.0000 7.2761
# 5 -3.3495 -3.3228 10.9171 0.0000 50.3536 0.0000
# 6 0.0000 0.0000 0.0000 7.2761 0.0000 24.8127
#
#
#
# Elastic Compliance Matrix: (Units=1/GPa)
#
#
# Indices 1 2 3 4 5 6 
#
# 1 0.008381 0.000530 -0.002343 0.000000 0.001101 0.000000
# 2 0.000530 0.016785 -0.004641 0.000000 0.002149 0.000000
# 3 -0.002343 -0.004641 0.009238 0.000000 -0.002465 0.000000
# 4 0.000000 0.000000 0.000000 0.067105 0.000000 -0.019678
# 5 0.001101 0.002149 -0.002465 0.000000 0.020609 0.000000
# 6 0.000000 0.000000 0.000000 -0.019678 0.000000 0.046072
#
#
# Mechanical properties :
#
#
# Convention : Reuss Voigt Hill
#
# Bulk Modulus (GPa) = 46.52546 54.41709 50.47127
# Shear Modulus (GPa) = 26.55838 35.78764 31.17301
#
# Velocity S-wave (km/s) = 3.45466 4.01025 3.74278
# Velocity P-wave (km/s) = 6.06798 6.77470 6.43106
#
# Compressibility (1/GPa) = 0.02149361
#
# Stress axis : x y z
#
# Youngs Moduli (GPa) = 119.32254 59.57615 108.25411
#
# Poissons Ratio (x) = -0.03156 0.25369
# Poissons Ratio (y) = -0.06321 0.50243
# Poissons Ratio (z) = 0.27962 0.27651
#
# Static dielectric constant tensor:
#      x y z
#    x 1.831450 0.000000 -0.011400 
#    y 0.000000 1.979740 0.000000 
#    z -0.011400 0.000000 1.788910 
# 
# From -- ./inp_files/2726.got.cif
#   From: 2010.05.17/outbox.cif.g08.bks.cpg/sg3_2_cif.got.tgz:2726.got - 2010.06.03 18:33:08.
