data_PCOD9114075
_publ_section_title
;
Structure prediction by ZEFSAII (Michael W. Deem and Ramdas Pophale) SiO2 
 PCOD9114075
Probable space group: P 2
;
_chemical_formula_sum "Si O2"
_cell_formula_units_Z 12
_cell_length_a 18.349933
_cell_length_b 5.025371
_cell_length_c 9.813033
_cell_angle_alpha 90.000000
_cell_angle_beta 32.811326
_cell_angle_gamma 90.000000
_cell_volume 490.348073
_symmetry_space_group_name_H-M "P 2"
_symmetry_group_IT_number 3
_symmetry_cell_setting 'monoclinic'
loop_
_space_group_symop_operation_xyz
x,y,z
-x,y,-z
loop_
_atom_site_type_symbol
_atom_site_label
_atom_site_fract_x
_atom_site_fract_y
_atom_site_fract_z
Si Si1 0.644829 0.625000 0.495774
Si Si2 0.282409 0.927461 0.146905
Si Si3 0.366074 0.405826 0.870122
Si Si4 0.000000 0.814046 0.500000
Si Si5 0.282141 0.091111 0.457087
Si Si6 0.867180 0.523232 0.961872
Si Si7 0.000000 0.193890 0.000000
O O1 0.514955 0.523831 0.619358
O O2 0.688267 0.382507 0.527974
O O3 0.620983 0.877435 0.626403
O O4 0.768268 0.713080 0.204395
O O5 0.129655 0.981087 0.338148
O O6 0.296598 0.037138 0.275594
O O7 0.305860 0.616073 0.077021
O O8 0.376674 0.108774 0.906850
O O9 0.253970 0.379063 0.928912
O O10 0.959428 0.648751 0.699645
O O11 0.126753 0.034755 0.741965
O O12 0.948547 0.363053 0.949178
#
# Coordination Sequence:
#
# PCOD9114075 Si02
#       7
#     2   2   2   1   2   2   1
#     4  11  25  46  70 103 142 191 244 289 356 428
#     4  11  26  42  72 105 143 192 231 303 359 428
#     4  11  25  46  70 103 142 191 244 289 356 428
#     4  10  26  42  76 106 152 184 242 296 372 432
#     4  11  26  42  72 105 143 192 231 303 359 428
#     4  10  25  46  74 108 141 196 228 310 350 436
#     4  10  26  42  76 106 152 184 242 296 372 432
#
# _framework density 24.472411000000001
#
# number of rings (size 3 to 8) (size 9 to 14) (size 15 to 20)
#    0.000    1.333    0.000    2.500   14.000    9.333 
#    0.000    6.667    0.000    0.000    0.000    0.000 
#    0.000    0.000    0.000    0.000    0.000    0.000 
#
# Total GULP energy -67022.030641 kJ/mol
# GULP energy per Si atom -5585.169220 kJ/mol
# Density = 2.441671 g / cm^3
# Si number density = 24.472411 Si / 1000 Ang^3
#
#
#
# Elastic Constant Matrix: (Units=GPa)
#
#
# Indices 1 2 3 4 5 6 
#
# 1 168.7046 38.3651 43.8765 0.0000 4.2206 0.0000
# 2 38.3651 75.6825 6.1598 0.0000 -1.2163 0.0000
# 3 43.8765 6.1598 65.6666 0.0000 -12.4353 0.0000
# 4 0.0000 0.0000 0.0000 19.9073 0.0000 -13.4751
# 5 4.2206 -1.2163 -12.4353 0.0000 48.1560 0.0000
# 6 0.0000 0.0000 0.0000 -13.4751 0.0000 27.4340
#
#
#
# Elastic Compliance Matrix: (Units=1/GPa)
#
#
# Indices 1 2 3 4 5 6 
#
# 1 0.008311 -0.003791 -0.005629 0.000000 -0.002278 0.000000
# 2 -0.003791 0.015044 0.001322 0.000000 0.001054 0.000000
# 3 -0.005629 0.001322 0.019940 0.000000 0.005676 0.000000
# 4 0.000000 0.000000 0.000000 0.075253 0.000000 0.036963
# 5 -0.002278 0.001054 0.005676 0.000000 0.022458 0.000000
# 6 0.000000 0.000000 0.000000 0.036963 0.000000 0.054607
#
#
# Mechanical properties :
#
#
# Convention : Reuss Voigt Hill
#
# Bulk Modulus (GPa) = 36.90255 54.09516 45.49886
# Shear Modulus (GPa) = 22.64064 33.87628 28.25846
#
# Velocity S-wave (km/s) = 3.04493 3.72461 3.40178
# Velocity P-wave (km/s) = 5.24157 6.37569 5.83625
#
# Compressibility (1/GPa) = 0.02709840
#
# Stress axis : x y z
#
# Youngs Moduli (GPa) = 120.32922 66.47015 50.15015
#
# Poissons Ratio (x) = 0.25201 0.28227
# Poissons Ratio (y) = 0.45620 -0.06627
# Poissons Ratio (z) = 0.67728 -0.08784
#
# Static dielectric constant tensor:
#      x y z
#    x 1.990010 0.000000 0.023710 
#    y 0.000000 1.881850 0.000000 
#    z 0.023710 0.000000 1.991690 
# 
# From -- ./inp_files/8178.got.cif
#   From: 2010.05.17/outbox.cif.g08.bks.cpg/sg3_5_cif.got.tgz:8178.got - 2010.06.03 18:33:08.
