data_PCOD9114062
_publ_section_title
;
Structure prediction by ZEFSAII (Michael W. Deem and Ramdas Pophale) SiO2 
 PCOD9114062
Probable space group: P 2
;
_chemical_formula_sum "Si O2"
_cell_formula_units_Z 16
_cell_length_a 9.209889
_cell_length_b 7.294808
_cell_length_c 20.317497
_cell_angle_alpha 90.000000
_cell_angle_beta 143.712670
_cell_angle_gamma 90.000000
_cell_volume 807.865519
_symmetry_space_group_name_H-M "P 2"
_symmetry_group_IT_number 3
_symmetry_cell_setting 'monoclinic'
loop_
_space_group_symop_operation_xyz
x,y,z
-x,y,-z
loop_
_atom_site_type_symbol
_atom_site_label
_atom_site_fract_x
_atom_site_fract_y
_atom_site_fract_z
Si Si1 0.212138 0.720120 0.033896
Si Si2 0.456915 0.486558 0.617737
Si Si3 0.348203 0.907147 0.878718
Si Si4 0.865149 0.290815 0.237628
Si Si5 0.386382 0.529949 0.745287
Si Si6 0.703097 0.149250 0.526685
Si Si7 0.027568 0.589198 0.824313
Si Si8 0.055160 0.788744 0.443236
O O1 0.439973 0.841719 0.093336
O O2 0.342292 0.582393 0.132179
O O3 0.109367 0.627215 0.929474
O O4 0.000000 0.813525 0.000000
O O5 0.390405 0.470817 0.670841
O O6 0.413926 0.287884 0.569263
O O7 0.270750 0.636111 0.518625
O O8 0.734322 0.563001 0.713338
O O9 0.146844 0.753642 0.824829
O O10 0.217260 0.086747 0.806357
O O11 0.500000 0.948834 0.000000
O O12 0.703984 0.381428 0.235691
O O13 0.859977 0.409334 0.169252
O O14 0.134291 0.278824 0.367103
O O15 0.188659 0.696925 0.676438
O O16 0.500000 0.063959 0.500000
O O17 0.861070 0.983153 0.554994
O O18 0.000000 0.817119 0.500000
#
# Coordination Sequence:
#
# PCOD9114062 Si02
#       8
#     2   2   2   2   2   2   2   2
#     4  11  22  45  71  96 128 178 224 271 334 392
#     4  11  24  45  64 102 135 170 222 273 323 393
#     4  10  25  43  67  98 133 175 219 275 332 395
#     4  12  25  41  68  97 134 175 223 266 337 394
#     4  11  23  44  71  94 131 178 223 273 330 394
#     4  12  26  40  64 100 134 174 219 271 326 398
#     4  11  24  43  69  97 139 171 216 277 329 393
#     4  10  25  43  67  94 133 176 217 271 328 389
#
# _framework density 19.805277
#
# number of rings (size 3 to 8) (size 9 to 14) (size 15 to 20)
#    0.000    1.000    5.000    0.750    5.250    0.500 
#    0.000    3.125    0.000    0.000    0.000    0.000 
#    0.000    0.000    0.000    0.000    0.000    0.000 
#
# Total GULP energy -89325.809801 kJ/mol
# GULP energy per Si atom -5582.863113 kJ/mol
# Density = 1.976020 g / cm^3
# Si number density = 19.805277 Si / 1000 Ang^3
#
#
#
# Elastic Constant Matrix: (Units=GPa)
#
#
# Indices 1 2 3 4 5 6 
#
# 1 127.7060 53.2533 52.6026 0.0000 2.7914 0.0000
# 2 53.2533 99.1011 50.4523 0.0000 -5.9298 0.0000
# 3 52.6026 50.4523 80.7736 0.0000 2.1037 0.0000
# 4 0.0000 0.0000 0.0000 22.3816 0.0000 0.9016
# 5 2.7914 -5.9298 2.1037 0.0000 31.5676 0.0000
# 6 0.0000 0.0000 0.0000 0.9016 0.0000 9.5423
#
#
#
# Elastic Compliance Matrix: (Units=1/GPa)
#
#
# Indices 1 2 3 4 5 6 
#
# 1 0.011511 -0.003619 -0.005201 0.000000 -0.001351 0.000000
# 2 -0.003619 0.016307 -0.007931 0.000000 0.003912 0.000000
# 3 -0.005201 -0.007931 0.020784 0.000000 -0.002415 0.000000
# 4 0.000000 0.000000 0.000000 0.044850 0.000000 -0.004238
# 5 -0.001351 0.003912 -0.002415 0.000000 0.032693 0.000000
# 6 0.000000 0.000000 0.000000 -0.004238 0.000000 0.105197
#
#
# Mechanical properties :
#
#
# Convention : Reuss Voigt Hill
#
# Bulk Modulus (GPa) = 66.22050 68.91079 67.56565
# Shear Modulus (GPa) = 18.52694 22.78315 20.65505
#
# Velocity S-wave (km/s) = 3.06184 3.39537 3.23291
# Velocity P-wave (km/s) = 6.78293 7.08810 6.93719
#
# Compressibility (1/GPa) = 0.01510106
#
# Stress axis : x y z
#
# Youngs Moduli (GPa) = 86.87047 61.32388 48.11402
#
# Poissons Ratio (x) = 0.22192 0.25025
# Poissons Ratio (y) = 0.31436 0.38158
# Poissons Ratio (z) = 0.45182 0.48634
#
# Static dielectric constant tensor:
#      x y z
#    x 1.750300 0.000000 0.025710 
#    y 0.000000 1.664960 0.000000 
#    z 0.025710 0.000000 1.716060 
# 
# From -- ./inp_files/15757.got.cif
#   From: 2010.05.17/outbox.cif.g08.bks.cpg/sg3_8_cif.got.tgz:15757.got - 2010.06.03 18:33:08.
