data_PCOD9114599
_publ_section_title
;
Structure prediction by ZEFSAII (Michael W. Deem and Ramdas Pophale) SiO2 
 PCOD9114599
Probable space group: P 21
;
_chemical_formula_sum "Si O2"
_cell_formula_units_Z 16
_cell_length_a 9.599841
_cell_length_b 5.503828
_cell_length_c 20.490005
_cell_angle_alpha 90.000000
_cell_angle_beta 144.043306
_cell_angle_gamma 90.000000
_cell_volume 635.678439
_symmetry_space_group_name_H-M "P 21"
_symmetry_group_IT_number 4
_symmetry_cell_setting 'monoclinic'
loop_
_space_group_symop_operation_xyz
x,y,z
-x,1/2+y,-z
loop_
_atom_site_type_symbol
_atom_site_label
_atom_site_fract_x
_atom_site_fract_y
_atom_site_fract_z
Si Si1 0.190640 0.234280 0.673616
Si Si2 0.988233 0.615100 0.253767
Si Si3 0.412415 0.763885 0.880766
Si Si4 0.893449 0.797614 0.881191
Si Si5 0.826982 0.979457 0.102002
Si Si6 0.720570 0.295501 0.857838
Si Si7 0.083270 0.729381 0.626632
Si Si8 0.357954 0.288349 0.449658
O O1 0.032831 0.223601 0.680335
O O2 0.468194 0.247388 0.795565
O O3 0.124679 0.473579 0.609461
O O4 0.143866 0.985369 0.618576
O O5 0.731087 0.496791 0.147286
O O6 0.021285 0.814538 0.211526
O O7 0.180874 0.401939 0.328390
O O8 0.348315 0.547361 0.905278
O O9 0.278552 0.721713 0.761378
O O10 0.687340 0.833014 0.992122
O O11 0.724752 0.561282 0.826287
O O12 0.061660 0.719301 0.885953
O O13 0.768053 0.057704 0.831617
O O14 0.070780 0.805841 0.010148
O O15 0.820013 0.743621 0.557142
O O16 0.527147 0.526699 0.524258
#
# Coordination Sequence:
#
# PCOD9114599 Si02
#       8
#     2   2   2   2   2   2   2   2
#     4  10  18  34  55  72 106 139 188 237 280 316
#     4  10  22  34  52  85 110 151 188 242 274 346
#     4  10  21  31  49  77 111 152 191 228 284 325
#     4  10  23  35  52  71 107 152 204 243 277 325
#     4  12  21  34  52  79 115 154 196 237 282 341
#     4  10  21  38  50  72 102 156 204 243 274 316
#     4  10  20  33  53  82 107 142 188 234 271 334
#     4  10  20  35  55  78 118 156 181 222 292 357
#
# _framework density 25.169958999999999
#
# number of rings (size 3 to 8) (size 9 to 14) (size 15 to 20)
#    0.000    2.000    2.500    3.750    3.500    2.000 
#    0.000    0.000    0.000    0.000    0.000    0.000 
#    0.000   20.000    3.500    0.000    0.000    0.000 
#
# Total GULP energy -89380.912571 kJ/mol
# GULP energy per Si atom -5586.307036 kJ/mol
# Density = 2.511267 g / cm^3
# Si number density = 25.169959 Si / 1000 Ang^3
#
#
#
# Elastic Constant Matrix: (Units=GPa)
#
#
# Indices 1 2 3 4 5 6 
#
# 1 55.9917 25.1554 24.8163 0.0000 9.6391 0.0000
# 2 25.1554 189.9890 27.2559 0.0000 16.1720 0.0000
# 3 24.8163 27.2559 79.0225 0.0000 5.0579 0.0000
# 4 0.0000 0.0000 0.0000 35.0522 0.0000 17.8310
# 5 9.6391 16.1720 5.0579 0.0000 33.6622 0.0000
# 6 0.0000 0.0000 0.0000 17.8310 0.0000 29.4623
#
#
#
# Elastic Compliance Matrix: (Units=1/GPa)
#
#
# Indices 1 2 3 4 5 6 
#
# 1 0.022091 -0.001661 -0.006069 0.000000 -0.004616 0.000000
# 2 -0.001661 0.005861 -0.001363 0.000000 -0.002135 0.000000
# 3 -0.006069 -0.001363 0.015022 0.000000 0.000136 0.000000
# 4 0.000000 0.000000 0.000000 0.041219 0.000000 -0.024946
# 5 -0.004616 -0.002135 0.000136 0.000000 0.032034 0.000000
# 6 0.000000 0.000000 0.000000 -0.024946 0.000000 0.049040
#
#
# Mechanical properties :
#
#
# Convention : Reuss Voigt Hill
#
# Bulk Modulus (GPa) = 40.34430 53.27316 46.80873
# Shear Modulus (GPa) = 26.08041 36.15371 31.11706
#
# Velocity S-wave (km/s) = 3.22245 3.79408 3.51989
# Velocity P-wave (km/s) = 5.46893 6.35647 5.92933
#
# Compressibility (1/GPa) = 0.02478665
#
# Stress axis : x y z
#
# Youngs Moduli (GPa) = 45.26814 170.62757 66.56919
#
# Poissons Ratio (x) = 0.28348 0.40400
# Poissons Ratio (y) = 0.07521 0.09074
# Poissons Ratio (z) = 0.27473 0.23257
#
# Static dielectric constant tensor:
#      x y z
#    x 2.012340 0.000000 -0.001700 
#    y 0.000000 2.065840 0.000000 
#    z -0.001700 0.000000 1.976770 
# 
# From -- ./inp_files/16355.got.cif
#   From: 2010.05.17/outbox.cif.g08.bks.cpg/sg4_9_cif.got.tgz:16355.got - 2010.06.03 18:43:04.
