data_PCOD9114448
_publ_section_title
;
Structure prediction by ZEFSAII (Michael W. Deem and Ramdas Pophale) SiO2 
 PCOD9114448
Probable space group: P 21
;
_chemical_formula_sum "Si O2"
_cell_formula_units_Z 16
_cell_length_a 7.880698
_cell_length_b 5.334187
_cell_length_c 22.914686
_cell_angle_alpha 90.000000
_cell_angle_beta 138.721267
_cell_angle_gamma 90.000000
_cell_volume 635.489392
_symmetry_space_group_name_H-M "P 21"
_symmetry_group_IT_number 4
_symmetry_cell_setting 'monoclinic'
loop_
_space_group_symop_operation_xyz
x,y,z
-x,1/2+y,-z
loop_
_atom_site_type_symbol
_atom_site_label
_atom_site_fract_x
_atom_site_fract_y
_atom_site_fract_z
Si Si1 0.261560 0.660260 0.953169
Si Si2 0.121802 0.932472 0.296730
Si Si3 0.412930 0.142796 0.154612
Si Si4 0.391747 0.143266 0.840683
Si Si5 0.485668 0.184704 0.307258
Si Si6 0.783727 0.666008 0.019054
Si Si7 0.636326 0.688261 0.401390
Si Si8 0.329123 0.116031 0.464865
O O1 0.434083 0.645848 0.056722
O O2 0.104279 0.406734 0.919542
O O3 0.114504 0.917675 0.923674
O O4 0.475908 0.657723 0.957847
O O5 0.226628 0.140697 0.279048
O O6 0.349885 0.729362 0.353658
O O7 0.121998 0.050540 0.361280
O O8 0.873503 0.780189 0.214969
O O9 0.612115 0.361489 0.184235
O O10 0.200703 0.170163 0.047055
O O11 0.479584 0.848099 0.168471
O O12 0.401406 0.198755 0.219261
O O13 0.655980 0.938007 0.367583
O O14 0.632902 0.433720 0.364978
O O15 0.787487 0.669546 0.501384
O O16 0.508784 0.863582 0.512898
#
# Coordination Sequence:
#
# PCOD9114448 Si02
#       8
#     2   2   2   2   2   2   2   2
#     4   8  14  26  43  67  92 122 157 206 235 282
#     4   9  21  30  54  75  98 124 165 212 255 288
#     4  10  20  32  48  74 102 135 160 205 247 307
#     4  10  20  31  49  76 104 125 161 211 264 284
#     4  10  19  32  50  71 100 128 168 199 246 299
#     4   8  14  26  44  65  91 123 167 193 234 279
#     4   9  18  31  51  74  89 127 167 212 232 293
#     4  10  16  30  49  76  92 118 169 216 235 280
#
# _framework density 25.177444999999999
#
# number of rings (size 3 to 8) (size 9 to 14) (size 15 to 20)
#    0.750    2.000    1.250    0.750    1.750    0.000 
#    0.000    0.000    0.000    3.000    3.250    0.000 
#    0.000    0.000    0.000    0.000    0.000    0.000 
#
# Total GULP energy -89272.067173 kJ/mol
# GULP energy per Si atom -5579.504198 kJ/mol
# Density = 2.512014 g / cm^3
# Si number density = 25.177445 Si / 1000 Ang^3
#
#
#
# Elastic Constant Matrix: (Units=GPa)
#
#
# Indices 1 2 3 4 5 6 
#
# 1 50.9817 16.3777 52.7863 0.0000 -12.3272 0.0000
# 2 16.3777 199.4462 43.3714 0.0000 -15.9426 0.0000
# 3 52.7863 43.3714 100.7880 0.0000 -39.5224 0.0000
# 4 0.0000 0.0000 0.0000 34.0740 0.0000 -7.3072
# 5 -12.3272 -15.9426 -39.5224 0.0000 40.4572 0.0000
# 6 0.0000 0.0000 0.0000 -7.3072 0.0000 26.9182
#
#
#
# Elastic Compliance Matrix: (Units=1/GPa)
#
#
# Indices 1 2 3 4 5 6 
#
# 1 0.049311 0.001827 -0.033129 0.000000 -0.016619 0.000000
# 2 0.001827 0.005601 -0.003701 0.000000 -0.000852 0.000000
# 3 -0.033129 -0.003701 0.039445 0.000000 0.026981 0.000000
# 4 0.000000 0.000000 0.000000 0.031162 0.000000 0.008459
# 5 -0.016619 -0.000852 0.026981 0.000000 0.045676 0.000000
# 6 0.000000 0.000000 0.000000 0.008459 0.000000 0.039446
#
#
# Mechanical properties :
#
#
# Convention : Reuss Voigt Hill
#
# Bulk Modulus (GPa) = 41.06538 64.03188 52.54863
# Shear Modulus (GPa) = 17.31516 36.20192 26.75854
#
# Velocity S-wave (km/s) = 2.62530 3.79604 3.26360
# Velocity P-wave (km/s) = 5.05325 6.68586 5.92605
#
# Compressibility (1/GPa) = 0.02435141
#
# Stress axis : x y z
#
# Youngs Moduli (GPa) = 20.27934 178.55378 25.35150
#
# Poissons Ratio (x) = -0.32613 0.83987
# Poissons Ratio (y) = -0.03704 0.09382
# Poissons Ratio (z) = 0.67183 0.66076
#
# Static dielectric constant tensor:
#      x y z
#    x 2.079030 0.000000 0.019470 
#    y 0.000000 2.079990 0.000000 
#    z 0.019470 0.000000 1.986580 
# 
# From -- ./inp_files/15526.got.cif
#   From: 2010.05.17/outbox.cif.g08.bks.cpg/sg4_8_cif.got.tgz:15526.got - 2010.06.03 18:43:04.
