data_PCOD9114529
_publ_section_title
;
Structure prediction by ZEFSAII (Michael W. Deem and Ramdas Pophale) SiO2 
 PCOD9114529
Probable space group: P 21
;
_chemical_formula_sum "Si O2"
_cell_formula_units_Z 14
_cell_length_a 15.434339
_cell_length_b 6.012241
_cell_length_c 14.606438
_cell_angle_alpha 90.000000
_cell_angle_beta 30.864413
_cell_angle_gamma 90.000000
_cell_volume 695.333322
_symmetry_space_group_name_H-M "P 21"
_symmetry_group_IT_number 4
_symmetry_cell_setting 'monoclinic'
loop_
_space_group_symop_operation_xyz
x,y,z
-x,1/2+y,-z
loop_
_atom_site_type_symbol
_atom_site_label
_atom_site_fract_x
_atom_site_fract_y
_atom_site_fract_z
Si Si1 0.423972 0.019060 0.436780
Si Si2 0.085049 0.796034 0.403513
Si Si3 0.205551 0.516195 0.917079
Si Si4 0.225591 0.408773 0.592665
Si Si5 0.230434 0.792822 0.451933
Si Si6 0.854740 0.285557 0.191966
Si Si7 0.063757 0.607064 0.227081
O O1 0.399336 0.283107 0.456197
O O2 0.611905 0.935498 0.281446
O O3 0.358254 0.935758 0.397236
O O4 0.289656 0.940363 0.634142
O O5 0.240436 0.803147 0.333961
O O6 0.115739 0.747183 0.268759
O O7 0.994894 0.551568 0.514798
O O8 0.172692 0.740208 0.889347
O O9 0.207610 0.549080 0.024245
O O10 0.043199 0.367749 0.040930
O O11 0.244122 0.552515 0.484144
O O12 0.174046 0.561307 0.723862
O O13 0.074906 0.240427 0.706629
O O14 0.042342 0.890592 0.644344
#
# Coordination Sequence:
#
# PCOD9114529 Si02
#       7
#     2   2   2   2   2   2   2
#     4  10  24  41  63  90 128 168 215 271 338 399
#     4  10  19  32  67  99 127 177 223 272 341 408
#     4  12  24  42  65  90 129 169 218 276 331 391
#     4  10  17  41  61  83 126 158 213 262 318 388
#     4   9  18  38  62  91 125 165 208 270 325 398
#     4  11  25  41  60  91 125 167 216 269 324 404
#     4  10  19  37  60  94 124 160 217 262 325 390
#
# _framework density 20.134226999999999
#
# number of rings (size 3 to 8) (size 9 to 14) (size 15 to 20)
#    0.000    1.714    5.714    0.857    2.000    0.000 
#    7.714    0.000    3.143    0.000    0.000    0.000 
#    0.000    0.000    0.000    0.000    0.000    0.000 
#
# Total GULP energy -77938.907470 kJ/mol
# GULP energy per Si atom -5567.064819 kJ/mol
# Density = 2.008840 g / cm^3
# Si number density = 20.134227 Si / 1000 Ang^3
#
#
#
# Elastic Constant Matrix: (Units=GPa)
#
#
# Indices 1 2 3 4 5 6 
#
# 1 89.5492 2.4783 36.9891 0.0000 11.1808 0.0000
# 2 2.4783 63.6023 13.3693 0.0000 -6.4973 0.0000
# 3 36.9891 13.3693 80.3430 0.0000 -17.7298 0.0000
# 4 0.0000 0.0000 0.0000 8.3709 0.0000 3.5091
# 5 11.1808 -6.4973 -17.7298 0.0000 25.7860 0.0000
# 6 0.0000 0.0000 0.0000 3.5091 0.0000 27.2658
#
#
#
# Elastic Compliance Matrix: (Units=1/GPa)
#
#
# Indices 1 2 3 4 5 6 
#
# 1 0.018048 0.000160 -0.011852 0.000000 -0.015934 0.000000
# 2 0.000160 0.016448 -0.002253 0.000000 0.002525 0.000000
# 3 -0.011852 -0.002253 0.022737 0.000000 0.020204 0.000000
# 4 0.000000 0.000000 0.000000 0.126274 0.000000 -0.016252
# 5 -0.015934 0.002525 0.020204 0.000000 0.060218 0.000000
# 6 0.000000 0.000000 0.000000 -0.016252 0.000000 0.038768
#
#
# Mechanical properties :
#
#
# Convention : Reuss Voigt Hill
#
# Bulk Modulus (GPa) = 34.08049 37.68532 35.88290
# Shear Modulus (GPa) = 15.61702 24.32840 19.97271
#
# Velocity S-wave (km/s) = 2.78806 3.47985 3.15298
# Velocity P-wave (km/s) = 5.22760 5.90791 5.57814
#
# Compressibility (1/GPa) = 0.02934230
#
# Stress axis : x y z
#
# Youngs Moduli (GPa) = 55.40897 60.79717 43.98160
#
# Poissons Ratio (x) = -0.00974 0.52127
# Poissons Ratio (y) = -0.00888 0.09911
# Poissons Ratio (z) = 0.65670 0.13701
#
# Static dielectric constant tensor:
#      x y z
#    x 1.752830 0.000000 0.018260 
#    y 0.000000 1.810470 0.000000 
#    z 0.018260 0.000000 1.734430 
# 
# From -- ./inp_files/10052.got.cif
#   From: 2010.05.17/outbox.cif.g08.bks.cpg/sg4_6_cif.got.tgz:10052.got - 2010.06.03 18:43:04.
