data_PCOD9114172
_publ_section_title
;
Structure prediction by ZEFSAII (Michael W. Deem and Ramdas Pophale) SiO2 
 PCOD9114172
Probable space group: P 2
;
_chemical_formula_sum "Si O2"
_cell_formula_units_Z 16
_cell_length_a 26.148943
_cell_length_b 5.946730
_cell_length_c 11.087609
_cell_angle_alpha 90.000000
_cell_angle_beta 23.186535
_cell_angle_gamma 90.000000
_cell_volume 678.835021
_symmetry_space_group_name_H-M "P 2"
_symmetry_group_IT_number 3
_symmetry_cell_setting 'monoclinic'
loop_
_space_group_symop_operation_xyz
x,y,z
-x,y,-z
loop_
_atom_site_type_symbol
_atom_site_label
_atom_site_fract_x
_atom_site_fract_y
_atom_site_fract_z
Si Si1 0.847452 0.810010 0.841161
Si Si2 0.824184 0.523581 0.139137
Si Si3 0.768427 0.980894 0.762725
Si Si4 0.426204 0.777340 0.252726
Si Si5 0.689200 0.616949 0.770824
Si Si6 0.446252 0.349946 0.740938
Si Si7 0.317436 0.133483 0.652613
Si Si8 0.065700 0.323043 0.737355
O O1 0.000000 0.834230 0.500000
O O2 0.801838 0.810427 0.799857
O O3 0.826356 0.624711 0.995937
O O4 0.778827 0.033833 0.040309
O O5 0.717363 0.668300 0.445781
O O6 0.768872 0.269418 0.255083
O O7 0.965425 0.500526 0.892877
O O8 0.885612 0.150954 0.471818
O O9 0.738190 0.863322 0.699650
O O10 0.643113 0.127810 0.074123
O O11 0.401173 0.925070 0.424374
O O12 0.500000 0.946709 0.000000
O O13 0.555341 0.621212 0.985770
O O14 0.808067 0.454389 0.485312
O O15 0.638889 0.528127 0.007567
O O16 0.500000 0.434919 0.500000
O O17 0.576242 0.305317 0.532901
O O18 0.000000 0.220097 0.000000
#
# Coordination Sequence:
#
# PCOD9114172 Si02
#       8
#     2   2   2   2   2   2   2   2
#     4  11  24  41  65  98 138 179 230 283 348 414
#     4  11  25  44  67  98 141 181 235 287 351 413
#     4  11  24  41  69 101 135 181 231 286 347 413
#     4  11  24  42  68 100 133 179 231 289 349 407
#     4  11  24  42  68  98 136 172 235 284 344 415
#     4  11  22  39  65  99 134 173 220 276 350 412
#     4  11  23  41  65  98 135 178 224 283 348 413
#     4  11  26  47  70  99 139 191 238 285 345 417
#
# _framework density 23.569792
#
# number of rings (size 3 to 8) (size 9 to 14) (size 15 to 20)
#    0.000    1.000    3.750    2.250    1.750    5.000 
#    0.000    0.000    0.000    0.000    0.000    0.000 
#    0.000    0.000    0.000    0.000    0.000    0.000 
#
# Total GULP energy -89141.182880 kJ/mol
# GULP energy per Si atom -5571.323930 kJ/mol
# Density = 2.351615 g / cm^3
# Si number density = 23.569792 Si / 1000 Ang^3
#
#
#
# Elastic Constant Matrix: (Units=GPa)
#
#
# Indices 1 2 3 4 5 6 
#
# 1 74.5624 0.9018 31.0269 0.0000 -21.6222 0.0000
# 2 0.9018 21.5720 19.5184 0.0000 -12.5571 0.0000
# 3 31.0269 19.5184 161.3020 0.0000 -1.6103 0.0000
# 4 0.0000 0.0000 0.0000 14.1543 0.0000 -7.7894
# 5 -21.6222 -12.5571 -1.6103 0.0000 35.9468 0.0000
# 6 0.0000 0.0000 0.0000 -7.7894 0.0000 27.4358
#
#
#
# Elastic Compliance Matrix: (Units=1/GPa)
#
#
# Indices 1 2 3 4 5 6 
#
# 1 0.020401 0.013893 -0.005437 0.000000 0.016881 0.000000
# 2 0.013893 0.076320 -0.011563 0.000000 0.034499 0.000000
# 3 -0.005437 -0.011563 0.008575 0.000000 -0.006925 0.000000
# 4 0.000000 0.000000 0.000000 0.083732 0.000000 0.023773
# 5 0.016881 0.034499 -0.006925 0.000000 0.049714 0.000000
# 6 0.000000 0.000000 0.000000 0.023773 0.000000 0.043198
#
#
# Mechanical properties :
#
#
# Convention : Reuss Voigt Hill
#
# Bulk Modulus (GPa) = 10.09258 40.03670 25.06464
# Shear Modulus (GPa) = 15.56745 29.24000 22.40373
#
# Velocity S-wave (km/s) = 2.57278 3.52600 3.08641
# Velocity P-wave (km/s) = 3.62172 5.79657 4.83306
#
# Compressibility (1/GPa) = 0.09908271
#
# Stress axis : x y z
#
# Youngs Moduli (GPa) = 49.01667 13.10273 116.61289
#
# Poissons Ratio (x) = -0.18203 0.63400
# Poissons Ratio (y) = -0.68098 1.34840
# Poissons Ratio (z) = 0.26649 0.15151
#
# Static dielectric constant tensor:
#      x y z
#    x 2.322910 0.000000 0.174640 
#    y 0.000000 2.016320 0.000000 
#    z 0.174640 0.000000 1.785750 
# 
# From -- ./inp_files/12755.got.cif
#   From: 2010.05.17/outbox.cif.g08.bks.cpg/sg3_7_cif.got.tgz:12755.got - 2010.06.03 18:33:08.
