data_PCOD9114549
_publ_section_title
;
Structure prediction by ZEFSAII (Michael W. Deem and Ramdas Pophale) SiO2 
 PCOD9114549
Probable space group: P 21
;
_chemical_formula_sum "Si O2"
_cell_formula_units_Z 14
_cell_length_a 14.833956
_cell_length_b 6.845934
_cell_length_c 5.497318
_cell_angle_alpha 90.000000
_cell_angle_beta 102.619026
_cell_angle_gamma 90.000000
_cell_volume 544.779894
_symmetry_space_group_name_H-M "P 21"
_symmetry_group_IT_number 4
_symmetry_cell_setting 'monoclinic'
loop_
_space_group_symop_operation_xyz
x,y,z
-x,1/2+y,-z
loop_
_atom_site_type_symbol
_atom_site_label
_atom_site_fract_x
_atom_site_fract_y
_atom_site_fract_z
Si Si1 0.904861 0.103570 0.329962
Si Si2 0.434180 0.873349 0.707647
Si Si3 0.645944 0.320968 0.838323
Si Si4 0.839950 0.137553 0.797952
Si Si5 0.705025 0.737128 0.409323
Si Si6 0.646180 0.793541 0.875480
Si Si7 0.889610 0.486782 0.533694
O O1 0.880566 0.022141 0.051306
O O2 0.876211 0.331735 0.307696
O O3 0.853550 0.029768 0.544376
O O4 0.014432 0.096327 0.437118
O O5 0.420821 0.782163 0.431549
O O6 0.381803 0.082294 0.661033
O O7 0.542078 0.868880 0.827907
O O8 0.387292 0.765226 0.910758
O O9 0.652056 0.557054 0.860823
O O10 0.741654 0.226036 0.815891
O O11 0.897009 0.336502 0.764342
O O12 0.688340 0.857125 0.643882
O O13 0.797851 0.612531 0.490754
O O14 0.700002 0.847245 0.150857
#
# Coordination Sequence:
#
# PCOD9114549 Si02
#       7
#     2   2   2   2   2   2   2
#     4  10  22  33  62  87 117 148 197 243 281 349
#     4  10  18  30  54  81 103 135 183 228 268 326
#     4  10  18  34  52  79 104 144 183 223 279 338
#     4  10  20  36  58  87 110 150 199 230 288 342
#     4  10  20  34  56  80 105 149 185 224 284 342
#     4  10  18  31  52  79 106 133 184 229 268 325
#     4  10  22  38  62  87 117 153 199 233 294 344
#
# _framework density 25.698452
#
# number of rings (size 3 to 8) (size 9 to 14) (size 15 to 20)
#    0.857    1.143    2.857    3.429    2.000    0.000 
#    0.000    0.000    0.000   27.429    0.000    0.000 
#    0.000    0.000    0.000    0.000    0.000    0.000 
#
# Total GULP energy -78249.628418 kJ/mol
# GULP energy per Si atom -5589.259173 kJ/mol
# Density = 2.563996 g / cm^3
# Si number density = 25.698452 Si / 1000 Ang^3
#
#
#
# Elastic Constant Matrix: (Units=GPa)
#
#
# Indices 1 2 3 4 5 6 
#
# 1 143.5686 35.3860 51.4904 0.0000 -20.3670 0.0000
# 2 35.3860 101.8854 4.3295 0.0000 -1.9385 0.0000
# 3 51.4904 4.3295 224.6021 0.0000 -38.1522 0.0000
# 4 0.0000 0.0000 0.0000 13.3676 0.0000 -1.0982
# 5 -20.3670 -1.9385 -38.1522 0.0000 42.6086 0.0000
# 6 0.0000 0.0000 0.0000 -1.0982 0.0000 33.3062
#
#
#
# Elastic Compliance Matrix: (Units=1/GPa)
#
#
# Indices 1 2 3 4 5 6 
#
# 1 0.008572 -0.002864 -0.001458 0.000000 0.002662 0.000000
# 2 -0.002864 0.010784 0.000353 0.000000 -0.000562 0.000000
# 3 -0.001458 0.000353 0.005501 0.000000 0.004245 0.000000
# 4 0.000000 0.000000 0.000000 0.075011 0.000000 0.002473
# 5 0.002662 -0.000562 0.004245 0.000000 0.028517 0.000000
# 6 0.000000 0.000000 0.000000 0.002473 0.000000 0.030106
#
#
# Mechanical properties :
#
#
# Convention : Reuss Voigt Hill
#
# Bulk Modulus (GPa) = 59.10604 72.49643 65.80124
# Shear Modulus (GPa) = 29.05831 43.11316 36.08573
#
# Velocity S-wave (km/s) = 3.36630 4.10036 3.75133
# Velocity P-wave (km/s) = 6.17730 7.11962 6.66513
#
# Compressibility (1/GPa) = 0.01691874
#
# Stress axis : x y z
#
# Youngs Moduli (GPa) = 116.66238 92.72907 181.79431
#
# Poissons Ratio (x) = 0.26562 0.26501
# Poissons Ratio (y) = 0.33418 -0.06423
# Poissons Ratio (z) = 0.17006 -0.03276
#
# Static dielectric constant tensor:
#      x y z
#    x 1.982070 0.000000 -0.042740 
#    y 0.000000 2.048990 0.000000 
#    z -0.042740 0.000000 2.065590 
# 
# From -- ./inp_files/2923.got.cif
#   From: 2010.05.17/outbox.cif.g08.bks.cpg/sg4_2_cif.got.tgz:2923.got - 2010.06.03 18:43:04.
