data_PCOD9114827
_publ_section_title
;
Structure prediction by ZEFSAII (Michael W. Deem and Ramdas Pophale) SiO2 
 PCOD9114827
Probable space group: P 21
;
_chemical_formula_sum "Si O2"
_cell_formula_units_Z 16
_cell_length_a 26.659841
_cell_length_b 5.271419
_cell_length_c 9.764192
_cell_angle_alpha 90.000000
_cell_angle_beta 36.718719
_cell_angle_gamma 90.000000
_cell_volume 820.428160
_symmetry_space_group_name_H-M "P 21"
_symmetry_group_IT_number 4
_symmetry_cell_setting 'monoclinic'
loop_
_space_group_symop_operation_xyz
x,y,z
-x,1/2+y,-z
loop_
_atom_site_type_symbol
_atom_site_label
_atom_site_fract_x
_atom_site_fract_y
_atom_site_fract_z
Si Si1 0.735095 0.547410 0.436090
Si Si2 0.735754 0.793939 0.726957
Si Si3 0.095810 0.539417 0.709042
Si Si4 0.567842 0.118891 0.034460
Si Si5 0.454364 0.774898 0.453491
Si Si6 0.628006 0.046666 0.615608
Si Si7 0.913752 0.541889 0.081872
Si Si8 0.619046 0.511719 0.141416
O O1 0.745335 0.604402 0.576730
O O2 0.692168 0.280366 0.498694
O O3 0.830408 0.544636 0.172104
O O4 0.677550 0.782365 0.515560
O O5 0.817100 0.972206 0.556616
O O6 0.651555 0.953338 0.881000
O O7 0.708246 0.638832 0.920699
O O8 0.097943 0.803575 0.787809
O O9 0.087660 0.309712 0.835586
O O10 0.008406 0.525280 0.816637
O O11 0.561867 0.094519 0.884173
O O12 0.591600 0.378790 0.058507
O O13 0.486818 0.002225 0.285162
O O14 0.417056 0.574099 0.430007
O O15 0.540452 0.697410 0.340869
O O16 0.385932 0.829507 0.718566
#
# Coordination Sequence:
#
# PCOD9114827 Si02
#       8
#     2   2   2   2   2   2   2   2
#     4  10  19  35  53  80 116 147 184 230 287 337
#     4   9  19  32  53  79 109 151 184 227 286 338
#     4   9  17  27  50  82 115 150 186 221 280 352
#     4  10  21  36  54  74 108 145 187 238 285 332
#     4  11  25  36  57  78 108 151 199 241 287 340
#     4  11  24  36  57  82 108 151 193 236 282 342
#     4   9  16  29  49  79 119 153 176 226 287 339
#     4  11  21  39  53  76 109 152 187 241 290 330
#
# _framework density 19.502011
#
# number of rings (size 3 to 8) (size 9 to 14) (size 15 to 20)
#    0.000    2.000    2.500    2.250    5.250    0.000 
#    0.000    0.000    0.000    0.000    0.000    0.000 
#    3.750    0.000    0.000    0.000    0.000    0.000 
#
# Total GULP energy -89164.167454 kJ/mol
# GULP energy per Si atom -5572.760466 kJ/mol
# Density = 1.945762 g / cm^3
# Si number density = 19.502011 Si / 1000 Ang^3
#
#
#
# Elastic Constant Matrix: (Units=GPa)
#
#
# Indices 1 2 3 4 5 6 
#
# 1 45.3703 7.5456 36.7521 0.0000 -1.0203 0.0000
# 2 7.5456 81.5969 16.7080 0.0000 -10.1437 0.0000
# 3 36.7521 16.7080 89.0439 0.0000 -9.7486 0.0000
# 4 0.0000 0.0000 0.0000 -4.2177 0.0000 11.3458
# 5 -1.0203 -10.1437 -9.7486 0.0000 26.8503 0.0000
# 6 0.0000 0.0000 0.0000 11.3458 0.0000 16.5865
#
#
#
# Elastic Compliance Matrix: (Units=1/GPa)
#
#
# Indices 1 2 3 4 5 6 
#
# 1 0.033538 -0.000716 -0.014161 0.000000 -0.004138 0.000000
# 2 -0.000716 0.013211 -0.001708 0.000000 0.004344 0.000000
# 3 -0.014161 -0.001708 0.017981 0.000000 0.005345 0.000000
# 4 0.000000 0.000000 0.000000 -0.083482 0.000000 0.057105
# 5 -0.004138 0.004344 0.005345 0.000000 0.040668 0.000000
# 6 0.000000 0.000000 0.000000 0.057105 0.000000 0.021228
#
#
# Mechanical properties :
#
#
# Convention : Reuss Voigt Hill
#
# Bulk Modulus (GPa) = 31.68550 37.55804 34.62177
# Shear Modulus (GPa) = 57.58055 18.17751 37.87903
#
# Velocity S-wave (km/s) = 5.43963 3.05632 4.41195
# Velocity P-wave (km/s) = 7.46561 5.63517 6.61402
#
# Compressibility (1/GPa) = 0.03156018
#
# Stress axis : x y z
#
# Youngs Moduli (GPa) = 29.81676 75.69291 55.61438
#
# Poissons Ratio (x) = 0.05420 0.78757
# Poissons Ratio (y) = 0.02135 0.09498
# Poissons Ratio (z) = 0.42224 0.12927
#
# Static dielectric constant tensor:
#      x y z
#    x 1.712360 0.000000 -0.018180 
#    y 0.000000 1.772290 0.000000 
#    z -0.018180 0.000000 1.756320 
# 
# From -- ./inp_files/9400.got.cif
#   From: 2010.05.17/outbox.cif.g08.bks.cpg/sg4_5_cif.got.tgz:9400.got - 2010.06.03 18:43:04.
