data_PCOD9114458
_publ_section_title
;
Structure prediction by ZEFSAII (Michael W. Deem and Ramdas Pophale) SiO2 
 PCOD9114458
Probable space group: P 21
;
_chemical_formula_sum "Si O2"
_cell_formula_units_Z 10
_cell_length_a 6.821609
_cell_length_b 5.216741
_cell_length_c 16.097682
_cell_angle_alpha 90.000000
_cell_angle_beta 128.198135
_cell_angle_gamma 90.000000
_cell_volume 450.198489
_symmetry_space_group_name_H-M "P 21"
_symmetry_group_IT_number 4
_symmetry_cell_setting 'monoclinic'
loop_
_space_group_symop_operation_xyz
x,y,z
-x,1/2+y,-z
loop_
_atom_site_type_symbol
_atom_site_label
_atom_site_fract_x
_atom_site_fract_y
_atom_site_fract_z
Si Si1 0.390193 0.894610 0.433742
Si Si2 0.673163 0.023017 0.040323
Si Si3 0.332691 0.586334 0.144120
Si Si4 0.824857 0.872333 0.257122
Si Si5 0.594722 0.583848 0.748778
O O1 0.539561 0.630202 0.487007
O O2 0.433252 0.016512 0.354172
O O3 0.098785 0.822690 0.361699
O O4 0.782948 0.049019 0.976599
O O5 0.490956 0.777286 0.988588
O O6 0.832419 0.981395 0.165428
O O7 0.631339 0.633496 0.206708
O O8 0.261250 0.850520 0.168907
O O9 0.290367 0.353987 0.195546
O O10 0.676466 0.067607 0.277932
#
# Coordination Sequence:
#
# PCOD9114458 Si02
#       5
#     2   2   2   2   2
#     4  12  28  43  61  88 122 162 215 262 302 355
#     4  10  16  32  62  93 118 155 194 237 298 374
#     4   9  18  37  64  91 122 153 192 244 302 370
#     4   9  23  38  67  85 125 161 198 244 312 354
#     4  10  21  40  62  87 123 153 205 251 300 363
#
# _framework density 22.212426000000001
#
# number of rings (size 3 to 8) (size 9 to 14) (size 15 to 20)
#    1.200    0.800    2.000    1.200    2.800    1.600 
#    0.000    2.000    0.000    0.000    0.000    0.000 
#    0.000    0.000    0.000    0.000    0.000    0.000 
#
# Total GULP energy -55795.306291 kJ/mol
# GULP energy per Si atom -5579.530629 kJ/mol
# Density = 2.216187 g / cm^3
# Si number density = 22.212426 Si / 1000 Ang^3
#
#
#
# Elastic Constant Matrix: (Units=GPa)
#
#
# Indices 1 2 3 4 5 6 
#
# 1 64.6218 14.3988 31.3101 0.0000 0.1360 0.0000
# 2 14.3988 135.0634 31.4900 0.0000 11.9007 0.0000
# 3 31.3101 31.4900 87.4493 0.0000 10.2694 0.0000
# 4 0.0000 0.0000 0.0000 34.8914 0.0000 -8.5286
# 5 0.1360 11.9007 10.2694 0.0000 37.3655 0.0000
# 6 0.0000 0.0000 0.0000 -8.5286 0.0000 20.8834
#
#
#
# Elastic Compliance Matrix: (Units=1/GPa)
#
#
# Indices 1 2 3 4 5 6 
#
# 1 0.018890 -0.000609 -0.006777 0.000000 0.001988 0.000000
# 2 -0.000609 0.008226 -0.002518 0.000000 -0.001926 0.000000
# 3 -0.006777 -0.002518 0.015161 0.000000 -0.003340 0.000000
# 4 0.000000 0.000000 0.000000 0.031839 0.000000 0.013003
# 5 0.001988 -0.001926 -0.003340 0.000000 0.028287 0.000000
# 6 0.000000 0.000000 0.000000 0.013003 0.000000 0.053195
#
#
# Mechanical properties :
#
#
# Convention : Reuss Voigt Hill
#
# Bulk Modulus (GPa) = 44.50810 49.05914 46.78362
# Shear Modulus (GPa) = 27.33819 32.62375 29.98097
#
# Velocity S-wave (km/s) = 3.51203 3.83654 3.67786
# Velocity P-wave (km/s) = 6.04374 6.46217 6.25645
#
# Compressibility (1/GPa) = 0.02246782
#
# Stress axis : x y z
#
# Youngs Moduli (GPa) = 52.93837 121.57255 65.95997
#
# Poissons Ratio (x) = 0.07401 0.44704
# Poissons Ratio (y) = 0.03223 0.16608
# Poissons Ratio (z) = 0.35879 0.30611
#
# Static dielectric constant tensor:
#      x y z
#    x 1.869660 0.000000 0.011140 
#    y 0.000000 1.796840 0.000000 
#    z 0.011140 0.000000 1.804310 
# 
# From -- ./inp_files/8545.got.cif
#   From: 2010.05.17/outbox.cif.g08.bks.cpg/sg4_5_cif.got.tgz:8545.got - 2010.06.03 18:43:04.
