data_PCOD9114150
_publ_section_title
;
Structure prediction by ZEFSAII (Michael W. Deem and Ramdas Pophale) SiO2 
 PCOD9114150
Probable space group: P 2
;
_chemical_formula_sum "Si O2"
_cell_formula_units_Z 12
_cell_length_a 12.654880
_cell_length_b 8.456348
_cell_length_c 8.987893
_cell_angle_alpha 90.000000
_cell_angle_beta 142.832186
_cell_angle_gamma 90.000000
_cell_volume 581.091708
_symmetry_space_group_name_H-M "P 2"
_symmetry_group_IT_number 3
_symmetry_cell_setting 'monoclinic'
loop_
_space_group_symop_operation_xyz
x,y,z
-x,y,-z
loop_
_atom_site_type_symbol
_atom_site_label
_atom_site_fract_x
_atom_site_fract_y
_atom_site_fract_z
Si Si1 0.690420 0.489460 0.704997
Si Si2 0.836766 0.590541 0.551493
Si Si3 0.000000 0.077109 0.500000
Si Si4 0.000000 0.051688 0.000000
Si Si5 0.817110 0.795289 0.989770
Si Si6 0.303185 0.855038 0.810898
Si Si7 0.030849 0.289525 0.791786
O O1 0.500000 0.415501 0.500000
O O2 0.742958 0.532498 0.596167
O O3 0.692424 0.660638 0.785129
O O4 0.828183 0.380486 0.947970
O O5 0.725921 0.689079 0.308363
O O6 0.997231 0.705274 0.777900
O O7 0.917422 0.426062 0.586603
O O8 0.097053 0.181230 0.732497
O O9 0.147210 0.971385 0.585271
O O10 0.066843 0.170184 0.204224
O O11 0.858786 0.938467 0.923295
O O12 0.738845 0.840566 0.061330
O O13 0.500000 0.909357 0.000000
#
# Coordination Sequence:
#
# PCOD9114150 Si02
#       7
#     2   2   1   1   2   2   2
#     4  11  23  42  65 102 135 175 241 285 330 408
#     4  11  21  43  67  95 131 183 231 277 336 409
#     4  12  26  46  70  98 146 182 220 290 348 414
#     4  12  18  42  68  94 128 174 236 272 338 410
#     4  11  21  40  71  95 132 180 229 283 336 404
#     4  12  25  44  69 104 135 181 236 277 342 413
#     4  11  24  42  69  97 135 189 224 278 358 404
#
# _framework density 20.650784000000002
#
# number of rings (size 3 to 8) (size 9 to 14) (size 15 to 20)
#    0.000    0.667    6.667    2.000    4.667    0.000 
#    3.000    0.833    0.000    0.000    0.000    0.000 
#    0.000    0.000    0.000    0.000    0.000    0.000 
#
# Total GULP energy -66942.142573 kJ/mol
# GULP energy per Si atom -5578.511881 kJ/mol
# Density = 2.060378 g / cm^3
# Si number density = 20.650784 Si / 1000 Ang^3
#
#
#
# Elastic Constant Matrix: (Units=GPa)
#
#
# Indices 1 2 3 4 5 6 
#
# 1 130.1003 42.6930 45.6856 0.0000 -2.6423 0.0000
# 2 42.6930 113.3354 34.3696 0.0000 -11.8712 0.0000
# 3 45.6856 34.3696 61.7993 0.0000 4.5080 0.0000
# 4 0.0000 0.0000 0.0000 21.0750 0.0000 -21.7251
# 5 -2.6423 -11.8712 4.5080 0.0000 36.6409 0.0000
# 6 0.0000 0.0000 0.0000 -21.7251 0.0000 34.9212
#
#
#
# Elastic Compliance Matrix: (Units=1/GPa)
#
#
# Indices 1 2 3 4 5 6 
#
# 1 0.010772 -0.001815 -0.007031 0.000000 0.001054 0.000000
# 2 -0.001815 0.011602 -0.005424 0.000000 0.004295 0.000000
# 3 -0.007031 -0.005424 0.024783 0.000000 -0.005313 0.000000
# 4 0.000000 0.000000 0.000000 0.132285 0.000000 0.082297
# 5 0.001054 0.004295 -0.005313 0.000000 0.029413 0.000000
# 6 0.000000 0.000000 0.000000 0.082297 0.000000 0.079834
#
#
# Mechanical properties :
#
#
# Convention : Reuss Voigt Hill
#
# Bulk Modulus (GPa) = 53.71289 61.19237 57.45263
# Shear Modulus (GPa) = 15.45905 30.69322 23.07614
#
# Velocity S-wave (km/s) = 2.73901 3.85944 3.34645
# Velocity P-wave (km/s) = 6.00579 7.03965 6.54317
#
# Compressibility (1/GPa) = 0.01861750
#
# Stress axis : x y z
#
# Youngs Moduli (GPa) = 92.82944 86.19295 40.35036
#
# Poissons Ratio (x) = 0.15648 0.28370
# Poissons Ratio (y) = 0.16853 0.21884
# Poissons Ratio (z) = 0.65267 0.46748
#
# Static dielectric constant tensor:
#      x y z
#    x 1.751340 0.000000 -0.027200 
#    y 0.000000 1.775490 0.000000 
#    z -0.027200 0.000000 1.737860 
# 
# From -- ./inp_files/7559.got.cif
#   From: 2010.05.17/outbox.cif.g08.bks.cpg/sg3_4_cif.got.tgz:7559.got - 2010.06.03 18:33:08.
