data_PCOD9114612
_publ_section_title
;
Structure prediction by ZEFSAII (Michael W. Deem and Ramdas Pophale) SiO2 
 PCOD9114612
Probable space group: P 21
;
_chemical_formula_sum "Si O2"
_cell_formula_units_Z 10
_cell_length_a 13.696772
_cell_length_b 4.771007
_cell_length_c 13.977054
_cell_angle_alpha 90.000000
_cell_angle_beta 33.279169
_cell_angle_gamma 90.000000
_cell_volume 501.180135
_symmetry_space_group_name_H-M "P 21"
_symmetry_group_IT_number 4
_symmetry_cell_setting 'monoclinic'
loop_
_space_group_symop_operation_xyz
x,y,z
-x,1/2+y,-z
loop_
_atom_site_type_symbol
_atom_site_label
_atom_site_fract_x
_atom_site_fract_y
_atom_site_fract_z
Si Si1 0.953790 0.750000 0.101202
Si Si2 0.466777 0.764587 0.963360
Si Si3 0.599343 0.063779 0.458280
Si Si4 0.474259 0.975002 0.763325
Si Si5 0.244895 0.504639 0.989054
O O1 0.054477 0.593750 0.105813
O O2 0.776815 0.910798 0.277619
O O3 0.932878 0.501757 0.040676
O O4 0.565289 0.901452 0.790490
O O5 0.566548 0.513857 0.935257
O O6 0.315518 0.190804 0.920420
O O7 0.437898 0.868738 0.553064
O O8 0.590266 0.077427 0.580771
O O9 0.618189 0.182575 0.189262
O O10 0.294673 0.623418 0.053234
#
# Coordination Sequence:
#
# PCOD9114612 Si02
#       5
#     2   2   2   2   2
#     4  12  24  38  58  85 124 164 201 239 293 353
#     4  10  18  34  60  88 112 150 202 254 292 342
#     4  12  24  38  58  85 124 164 201 239 293 353
#     4  10  20  35  58  84 119 148 202 241 294 346
#     4  10  20  35  58  84 119 148 202 241 294 346
#
# _framework density 19.952908000000001
#
# number of rings (size 3 to 8) (size 9 to 14) (size 15 to 20)
#    1.200    0.000    2.000    7.200    0.000    0.000 
#    0.000    0.000    0.000    2.400    0.000    0.000 
#    0.000    0.000    0.000    0.000    0.000    0.000 
#
# Total GULP energy -55680.798351 kJ/mol
# GULP energy per Si atom -5568.079835 kJ/mol
# Density = 1.990749 g / cm^3
# Si number density = 19.952908 Si / 1000 Ang^3
#
#
#
# Elastic Constant Matrix: (Units=GPa)
#
#
# Indices 1 2 3 4 5 6 
#
# 1 107.4147 25.3725 32.1782 0.0000 24.0954 0.0000
# 2 25.3725 107.5136 12.7640 0.0000 8.6719 0.0000
# 3 32.1782 12.7640 65.1761 0.0000 6.4903 0.0000
# 4 0.0000 0.0000 0.0000 22.2965 0.0000 0.0795
# 5 24.0954 8.6719 6.4903 0.0000 29.4301 0.0000
# 6 0.0000 0.0000 0.0000 0.0795 0.0000 33.7065
#
#
#
# Elastic Compliance Matrix: (Units=1/GPa)
#
#
# Indices 1 2 3 4 5 6 
#
# 1 0.013415 -0.001782 -0.005350 0.000000 -0.009278 0.000000
# 2 -0.001782 0.009935 -0.000940 0.000000 -0.001261 0.000000
# 3 -0.005350 -0.000940 0.018102 0.000000 0.000665 0.000000
# 4 0.000000 0.000000 0.000000 0.044850 0.000000 -0.000106
# 5 -0.009278 -0.001261 0.000665 0.000000 0.041800 0.000000
# 6 0.000000 0.000000 0.000000 -0.000106 0.000000 0.029668
#
#
# Mechanical properties :
#
#
# Convention : Reuss Voigt Hill
#
# Bulk Modulus (GPa) = 39.51463 46.74821 43.13142
# Shear Modulus (GPa) = 27.41962 31.07260 29.24611
#
# Velocity S-wave (km/s) = 3.71106 3.95054 3.83267
# Velocity P-wave (km/s) = 6.18139 6.65501 6.42257
#
# Compressibility (1/GPa) = 0.02530708
#
# Stress axis : x y z
#
# Youngs Moduli (GPa) = 74.54524 100.65344 55.24154
#
# Poissons Ratio (x) = 0.17939 0.29554
# Poissons Ratio (y) = 0.13286 0.05194
# Poissons Ratio (z) = 0.39882 0.09463
#
# Static dielectric constant tensor:
#      x y z
#    x 1.766350 0.000000 0.017570 
#    y 0.000000 1.723890 0.000000 
#    z 0.017570 0.000000 1.702830 
# 
# From -- ./inp_files/11458.got.cif
#   From: 2010.05.17/outbox.cif.g08.bks.cpg/sg4_6_cif.got.tgz:11458.got - 2010.06.03 18:43:04.
