data_PCOD9114573
_publ_section_title
;
Structure prediction by ZEFSAII (Michael W. Deem and Ramdas Pophale) SiO2 
 PCOD9114573
Probable space group: P 21
;
_chemical_formula_sum "Si O2"
_cell_formula_units_Z 14
_cell_length_a 10.201344
_cell_length_b 9.005852
_cell_length_c 12.870510
_cell_angle_alpha 90.000000
_cell_angle_beta 33.344519
_cell_angle_gamma 90.000000
_cell_volume 649.952518
_symmetry_space_group_name_H-M "P 21"
_symmetry_group_IT_number 4
_symmetry_cell_setting 'monoclinic'
loop_
_space_group_symop_operation_xyz
x,y,z
-x,1/2+y,-z
loop_
_atom_site_type_symbol
_atom_site_label
_atom_site_fract_x
_atom_site_fract_y
_atom_site_fract_z
Si Si1 0.394057 0.511580 0.131857
Si Si2 0.165838 0.959780 0.871404
Si Si3 0.221907 0.757207 0.404519
Si Si4 0.291387 0.290333 0.852293
Si Si5 0.566493 0.248158 0.163486
Si Si6 0.097553 0.492963 0.142985
Si Si7 0.790091 0.559229 0.694012
O O1 0.352760 0.642623 0.239815
O O2 0.488221 0.368542 0.129799
O O3 0.146375 0.491375 0.232164
O O4 0.590985 0.548148 0.914783
O O5 0.352916 0.840119 0.789662
O O6 0.214637 0.120829 0.886630
O O7 0.147178 0.974967 0.758484
O O8 0.901746 0.896269 0.077407
O O9 0.425980 0.802655 0.351607
O O10 0.004954 0.660524 0.590453
O O11 0.138150 0.896384 0.391333
O O12 0.250839 0.355149 0.995323
O O13 0.340120 0.139637 0.317256
O O14 0.784057 0.144499 0.980571
#
# Coordination Sequence:
#
# PCOD9114573 Si02
#       7
#     2   2   2   2   2   2   2
#     4  11  22  38  63  92 122 160 203 254 309 355
#     4  10  18  32  56  89 115 156 206 241 301 366
#     4  12  23  39  60  94 126 160 203 251 311 356
#     4  10  19  35  55  91 119 159 203 248 300 369
#     4  11  19  34  59  89 119 159 202 248 304 359
#     4   9  19  32  52  88 121 147 199 248 288 363
#     4  11  24  38  57  95 126 159 200 258 301 366
#
# _framework density 21.540035
#
# number of rings (size 3 to 8) (size 9 to 14) (size 15 to 20)
#    0.857    0.571    5.714    2.571    0.000    0.000 
#    0.000    0.000    0.000    0.000   29.714    0.000 
#    0.000    0.000    0.000    0.000    0.000    0.000 
#
# Total GULP energy -78025.697645 kJ/mol
# GULP energy per Si atom -5573.264118 kJ/mol
# Density = 2.149101 g / cm^3
# Si number density = 21.540035 Si / 1000 Ang^3
#
#
#
# Elastic Constant Matrix: (Units=GPa)
#
#
# Indices 1 2 3 4 5 6 
#
# 1 108.6563 28.7315 10.8291 0.0000 -15.6344 0.0000
# 2 28.7315 113.0043 19.0703 0.0000 -2.5768 0.0000
# 3 10.8291 19.0703 51.8833 0.0000 -2.8566 0.0000
# 4 0.0000 0.0000 0.0000 23.9186 0.0000 -14.2524
# 5 -15.6344 -2.5768 -2.8566 0.0000 23.3546 0.0000
# 6 0.0000 0.0000 0.0000 -14.2524 0.0000 47.2353
#
#
#
# Elastic Compliance Matrix: (Units=1/GPa)
#
#
# Indices 1 2 3 4 5 6 
#
# 1 0.010951 -0.002457 -0.001001 0.000000 0.006938 0.000000
# 2 -0.002457 0.009995 -0.003212 0.000000 -0.000935 0.000000
# 3 -0.001001 -0.003212 0.020747 0.000000 0.001513 0.000000
# 4 0.000000 0.000000 0.000000 0.050973 0.000000 0.015380
# 5 0.006938 -0.000935 0.001513 0.000000 0.047544 0.000000
# 6 0.000000 0.000000 0.000000 0.015380 0.000000 0.025811
#
#
# Mechanical properties :
#
#
# Convention : Reuss Voigt Hill
#
# Bulk Modulus (GPa) = 35.27027 43.42288 39.34657
# Shear Modulus (GPa) = 26.48129 33.22923 29.85526
#
# Velocity S-wave (km/s) = 3.51008 3.93195 3.72699
# Velocity P-wave (km/s) = 5.73039 6.38878 6.06852
#
# Compressibility (1/GPa) = 0.02835249
#
# Stress axis : x y z
#
# Youngs Moduli (GPa) = 91.31547 100.05242 48.19994
#
# Poissons Ratio (x) = 0.24586 0.04823
# Poissons Ratio (y) = 0.22439 0.15483
# Poissons Ratio (z) = 0.09137 0.32140
#
# Static dielectric constant tensor:
#      x y z
#    x 1.842310 0.000000 -0.052610 
#    y 0.000000 1.782440 0.000000 
#    z -0.052610 0.000000 1.789090 
# 
# From -- ./inp_files/13889.got.cif
#   From: 2010.05.17/outbox.cif.g08.bks.cpg/sg4_7_cif.got.tgz:13889.got - 2010.06.03 18:43:04.
