data_PCOD9114775
_publ_section_title
;
Structure prediction by ZEFSAII (Michael W. Deem and Ramdas Pophale) SiO2 
 PCOD9114775
Probable space group: P 21
;
_chemical_formula_sum "Si O2"
_cell_formula_units_Z 14
_cell_length_a 8.945461
_cell_length_b 8.929012
_cell_length_c 9.043330
_cell_angle_alpha 90.000000
_cell_angle_beta 53.298103
_cell_angle_gamma 90.000000
_cell_volume 579.130788
_symmetry_space_group_name_H-M "P 21"
_symmetry_group_IT_number 4
_symmetry_cell_setting 'monoclinic'
loop_
_space_group_symop_operation_xyz
x,y,z
-x,1/2+y,-z
loop_
_atom_site_type_symbol
_atom_site_label
_atom_site_fract_x
_atom_site_fract_y
_atom_site_fract_z
Si Si1 0.730667 0.038160 0.573713
Si Si2 0.293423 0.798381 0.220423
Si Si3 0.639844 0.792221 0.837465
Si Si4 0.409224 0.620677 0.723282
Si Si5 0.107346 0.052895 0.217655
Si Si6 0.635203 0.810003 0.368525
Si Si7 0.063131 0.756408 0.086681
O O1 0.633297 0.180895 0.704992
O O2 0.909811 0.108120 0.389563
O O3 0.758890 0.920400 0.690631
O O4 0.656385 0.923166 0.496089
O O5 0.152803 0.707764 0.191900
O O6 0.173437 0.946510 0.316778
O O7 0.463281 0.860566 0.023602
O O8 0.543677 0.686748 0.770481
O O9 0.756596 0.690007 0.878373
O O10 0.490828 0.689877 0.521512
O O11 0.413493 0.439852 0.721292
O O12 0.200786 0.683587 0.884675
O O13 0.092851 0.937642 0.089225
O O14 0.839578 0.738674 0.212943
#
# Coordination Sequence:
#
# PCOD9114775 Si02
#       7
#     2   2   2   2   2   2   2
#     4  10  19  33  56  83 114 144 184 236 282 346
#     4   9  18  32  55  82 108 148 179 228 296 333
#     4  10  19  33  56  83 114 144 184 236 282 346
#     4  10  22  39  62  84 118 159 199 242 288 343
#     4   9  18  32  55  82 108 148 179 228 296 333
#     4  10  22  39  62  84 118 159 199 242 288 343
#     4   8  20  40  60  78 118 154 190 240 288 346
#
# _framework density 24.174159
#
# number of rings (size 3 to 8) (size 9 to 14) (size 15 to 20)
#    0.857    1.714    0.000    1.714    4.000    2.286 
#    0.000    0.000   25.143    0.000    0.000    0.000 
#    0.000    0.000    0.000    0.000    0.000    0.000 
#
# Total GULP energy -77937.510014 kJ/mol
# GULP energy per Si atom -5566.965001 kJ/mol
# Density = 2.411914 g / cm^3
# Si number density = 24.174159 Si / 1000 Ang^3
#
#
#
# Elastic Constant Matrix: (Units=GPa)
#
#
# Indices 1 2 3 4 5 6 
#
# 1 35.2114 15.8149 38.5856 0.0000 0.2198 0.0000
# 2 15.8149 77.8753 52.1305 0.0000 -19.7150 0.0000
# 3 38.5856 52.1305 112.0442 0.0000 -29.7477 0.0000
# 4 0.0000 0.0000 0.0000 31.7550 0.0000 -2.7892
# 5 0.2198 -19.7150 -29.7477 0.0000 30.9528 0.0000
# 6 0.0000 0.0000 0.0000 -2.7892 0.0000 40.9808
#
#
#
# Elastic Compliance Matrix: (Units=1/GPa)
#
#
# Indices 1 2 3 4 5 6 
#
# 1 0.058247 -0.000591 -0.026843 0.000000 -0.026588 0.000000
# 2 -0.000591 0.019191 -0.007356 0.000000 0.005158 0.000000
# 3 -0.026843 -0.007356 0.027387 0.000000 0.021825 0.000000
# 4 0.000000 0.000000 0.000000 0.031680 0.000000 0.002156
# 5 -0.026588 0.005158 0.021825 0.000000 0.056757 0.000000
# 6 0.000000 0.000000 0.000000 0.002156 0.000000 0.024548
#
#
# Mechanical properties :
#
#
# Convention : Reuss Voigt Hill
#
# Bulk Modulus (GPa) = 28.37339 48.68811 38.53075
# Shear Modulus (GPa) = 16.71466 28.64438 22.67952
#
# Velocity S-wave (km/s) = 2.63235 3.44600 3.06628
# Velocity P-wave (km/s) = 4.58275 6.00146 5.33943
#
# Compressibility (1/GPa) = 0.03524429
#
# Stress axis : x y z
#
# Youngs Moduli (GPa) = 17.16832 52.10761 36.51433
#
# Poissons Ratio (x) = 0.03078 0.98016
# Poissons Ratio (y) = 0.01014 0.26860
# Poissons Ratio (z) = 0.46085 0.38331
#
# Static dielectric constant tensor:
#      x y z
#    x 2.092320 0.000000 0.063550 
#    y 0.000000 1.912140 0.000000 
#    z 0.063550 0.000000 1.890360 
# 
# From -- ./inp_files/11833.got.cif
#   From: 2010.05.17/outbox.cif.g08.bks.cpg/sg4_6_cif.got.tgz:11833.got - 2010.06.03 18:43:04.
