data_PCOD9114187
_publ_section_title
;
Structure prediction by ZEFSAII (Michael W. Deem and Ramdas Pophale) SiO2 
 PCOD9114187
Probable space group: P 2
;
_chemical_formula_sum "Si O2"
_cell_formula_units_Z 10
_cell_length_a 9.725256
_cell_length_b 5.927738
_cell_length_c 14.024875
_cell_angle_alpha 90.000000
_cell_angle_beta 27.095311
_cell_angle_gamma 90.000000
_cell_volume 368.256800
_symmetry_space_group_name_H-M "P 2"
_symmetry_group_IT_number 3
_symmetry_cell_setting 'monoclinic'
loop_
_space_group_symop_operation_xyz
x,y,z
-x,y,-z
loop_
_atom_site_type_symbol
_atom_site_label
_atom_site_fract_x
_atom_site_fract_y
_atom_site_fract_z
Si Si1 0.238142 0.517150 0.048854
Si Si2 0.121875 0.435653 0.531217
Si Si3 0.642040 0.010754 0.015766
Si Si4 0.275760 0.668675 0.769292
Si Si5 0.300205 0.072686 0.548971
O O1 0.397376 0.274572 0.927016
O O2 0.111827 0.513290 0.238069
O O3 0.930152 0.529882 0.177556
O O4 0.421102 0.750324 0.913353
O O5 0.462368 0.525629 0.340440
O O6 0.175763 0.175544 0.527567
O O7 0.000000 0.472690 0.500000
O O8 0.001351 0.999568 0.786927
O O9 0.500000 0.018018 0.000000
O O10 0.480961 0.870645 0.608416
O O11 0.000000 0.771088 0.000000
O O12 0.500000 0.217188 0.500000
#
# Coordination Sequence:
#
# PCOD9114187 Si02
#       5
#     2   2   2   2   2
#     4  11  24  50  75 109 146 203 248 306 377 445
#     4  11  25  46  75 106 151 196 251 319 387 444
#     4  11  23  42  80 108 147 189 252 307 380 442
#     4  12  26  46  75 106 149 203 260 308 369 461
#     4  11  22  48  73 105 145 204 251 311 376 454
#
# _framework density 27.154965000000001
#
# number of rings (size 3 to 8) (size 9 to 14) (size 15 to 20)
#    0.000    0.800    4.000    3.600    0.000    6.400 
#    7.200    0.000    0.000    0.000    0.000    0.000 
#    0.000    0.000    0.000    0.000    0.000    0.000 
#
# Total GULP energy -55745.024287 kJ/mol
# GULP energy per Si atom -5574.502429 kJ/mol
# Density = 2.709316 g / cm^3
# Si number density = 27.154965 Si / 1000 Ang^3
#
#
#
# Elastic Constant Matrix: (Units=GPa)
#
#
# Indices 1 2 3 4 5 6 
#
# 1 180.8777 38.1158 4.5624 0.0000 -19.4810 0.0000
# 2 38.1158 196.9778 20.9869 0.0000 -5.0976 0.0000
# 3 4.5624 20.9869 76.6068 0.0000 2.5601 0.0000
# 4 0.0000 0.0000 0.0000 37.9917 0.0000 -11.3138
# 5 -19.4810 -5.0976 2.5601 0.0000 48.2165 0.0000
# 6 0.0000 0.0000 0.0000 -11.3138 0.0000 45.2439
#
#
#
# Elastic Compliance Matrix: (Units=1/GPa)
#
#
# Indices 1 2 3 4 5 6 
#
# 1 0.006011 -0.001089 -0.000137 0.000000 0.002321 0.000000
# 2 -0.001089 0.005446 -0.001434 0.000000 0.000212 0.000000
# 3 -0.000137 -0.001434 0.013486 0.000000 -0.000923 0.000000
# 4 0.000000 0.000000 0.000000 0.028439 0.000000 0.007112
# 5 0.002321 0.000212 -0.000923 0.000000 0.021749 0.000000
# 6 0.000000 0.000000 0.000000 0.007112 0.000000 0.023881
#
#
# Mechanical properties :
#
#
# Convention : Reuss Voigt Hill
#
# Bulk Modulus (GPa) = 50.96165 64.64362 57.80264
# Shear Modulus (GPa) = 45.09675 52.34355 48.72015
#
# Velocity S-wave (km/s) = 4.07961 4.39519 4.24034
# Velocity P-wave (km/s) = 6.40302 7.04373 6.73100
#
# Compressibility (1/GPa) = 0.01962260
#
# Stress axis : x y z
#
# Youngs Moduli (GPa) = 166.34997 183.63332 74.15321
#
# Poissons Ratio (x) = 0.19989 0.01019
# Poissons Ratio (y) = 0.18108 0.10635
# Poissons Ratio (z) = 0.02285 0.26335
#
# Static dielectric constant tensor:
#      x y z
#    x 2.357100 0.000000 0.000720 
#    y 0.000000 2.334950 0.000000 
#    z 0.000720 0.000000 2.133810 
# 
# From -- ./inp_files/4784.got.cif
#   From: 2010.05.17/outbox.cif.g08.bks.cpg/sg3_3_cif.got.tgz:4784.got - 2010.06.03 18:33:08.
