data_PCOD9114480
_publ_section_title
;
Structure prediction by ZEFSAII (Michael W. Deem and Ramdas Pophale) SiO2 
 PCOD9114480
Probable space group: P 21
;
_chemical_formula_sum "Si O2"
_cell_formula_units_Z 14
_cell_length_a 30.381783
_cell_length_b 4.944748
_cell_length_c 13.167196
_cell_angle_alpha 90.000000
_cell_angle_beta 154.407529
_cell_angle_gamma 90.000000
_cell_volume 854.479272
_symmetry_space_group_name_H-M "P 21"
_symmetry_group_IT_number 4
_symmetry_cell_setting 'monoclinic'
loop_
_space_group_symop_operation_xyz
x,y,z
-x,1/2+y,-z
loop_
_atom_site_type_symbol
_atom_site_label
_atom_site_fract_x
_atom_site_fract_y
_atom_site_fract_z
Si Si1 0.950203 0.095060 0.850611
Si Si2 0.934405 0.363127 0.387408
Si Si3 0.518600 0.826989 0.971604
Si Si4 0.004884 0.244892 0.741256
Si Si5 0.268512 0.445226 0.532137
Si Si6 0.142152 0.745047 0.975810
Si Si7 0.691504 0.445070 0.525163
O O1 0.962555 0.229663 0.766210
O O2 0.841100 0.960453 0.644760
O O3 0.971569 0.345061 0.971569
O O4 0.850744 0.269924 0.131742
O O5 0.968719 0.670454 0.439311
O O6 0.922895 0.317228 0.483331
O O7 0.637543 0.872890 0.197981
O O8 0.501873 0.519662 0.972466
O O9 0.430255 0.920188 0.711252
O O10 0.097635 0.457709 0.919066
O O11 0.052246 0.953276 0.817045
O O12 0.287448 0.736844 0.522649
O O13 0.276208 0.232410 0.454778
O O14 0.241221 0.845059 0.241221
#
# Coordination Sequence:
#
# PCOD9114480 Si02
#       7
#     2   2   2   2   2   2   2
#     4  12  22  30  42  62  88 120 148 168 196 246
#     4   8  16  28  42  58  80 109 138 170 210 247
#     4   8  16  28  42  58  80 109 138 170 210 247
#     4  10  19  30  41  59  88 116 140 168 204 249
#     4  10  19  30  41  59  88 116 140 168 204 249
#     4  10  17  28  45  63  83 108 139 178 213 243
#     4  10  17  28  45  63  83 108 139 178 213 243
#
# _framework density 16.384247999999999
#
# number of rings (size 3 to 8) (size 9 to 14) (size 15 to 20)
#    0.000    2.286    0.000    5.143    0.000    0.000 
#    0.000    0.000    0.000    0.000    0.000    0.000 
#    0.000   29.714    0.000    0.000    0.000   48.286 
#
# Total GULP energy -77952.170288 kJ/mol
# GULP energy per Si atom -5568.012163 kJ/mol
# Density = 1.634696 g / cm^3
# Si number density = 16.384248 Si / 1000 Ang^3
#
#
#
# Elastic Constant Matrix: (Units=GPa)
#
#
# Indices 1 2 3 4 5 6 
#
# 1 51.1151 8.0004 48.1685 0.0000 -12.7811 0.0000
# 2 8.0004 75.0341 0.2910 0.0000 2.4566 0.0000
# 3 48.1685 0.2910 121.4912 0.0000 -9.6334 0.0000
# 4 0.0000 0.0000 0.0000 22.4130 0.0000 -2.2420
# 5 -12.7811 2.4566 -9.6334 0.0000 20.5349 0.0000
# 6 0.0000 0.0000 0.0000 -2.2420 0.0000 15.3724
#
#
#
# Elastic Compliance Matrix: (Units=1/GPa)
#
#
# Indices 1 2 3 4 5 6 
#
# 1 0.037217 -0.004487 -0.013363 0.000000 0.017432 0.000000
# 2 -0.004487 0.013924 0.001446 0.000000 -0.003780 0.000000
# 3 -0.013363 0.001446 0.013349 0.000000 -0.002228 0.000000
# 4 0.000000 0.000000 0.000000 0.045277 0.000000 0.006604
# 5 0.017432 -0.003780 -0.002228 0.000000 0.058955 0.000000
# 6 0.000000 0.000000 0.000000 0.006604 0.000000 0.066015
#
#
# Mechanical properties :
#
#
# Convention : Reuss Voigt Hill
#
# Bulk Modulus (GPa) = 31.56347 40.06224 35.81286
# Shear Modulus (GPa) = 17.97875 24.40943 21.19409
#
# Velocity S-wave (km/s) = 3.31617 3.86399 3.60052
# Velocity P-wave (km/s) = 5.82830 6.66424 6.26023
#
# Compressibility (1/GPa) = 0.03168219
#
# Stress axis : x y z
#
# Youngs Moduli (GPa) = 26.86917 71.81913 74.91193
#
# Poissons Ratio (x) = 0.32226 1.00104
# Poissons Ratio (y) = 0.12057 -0.10832
# Poissons Ratio (z) = 0.35905 -0.10385
#
# Static dielectric constant tensor:
#      x y z
#    x 1.541520 0.000000 -0.030190 
#    y 0.000000 1.566530 0.000000 
#    z -0.030190 0.000000 1.636310 
# 
# From -- ./inp_files/12741.got.cif
#   From: 2010.05.17/outbox.cif.g08.bks.cpg/sg4_7_cif.got.tgz:12741.got - 2010.06.03 18:43:04.
