data_PCOD9114093
_publ_section_title
;
Structure prediction by ZEFSAII (Michael W. Deem and Ramdas Pophale) SiO2 
 PCOD9114093
Probable space group: P 2
;
_chemical_formula_sum "Si O2"
_cell_formula_units_Z 11
_cell_length_a 9.632773
_cell_length_b 6.010859
_cell_length_c 16.755713
_cell_angle_alpha 90.000000
_cell_angle_beta 149.580675
_cell_angle_gamma 90.000000
_cell_volume 491.224308
_symmetry_space_group_name_H-M "P 2"
_symmetry_group_IT_number 3
_symmetry_cell_setting 'monoclinic'
loop_
_space_group_symop_operation_xyz
x,y,z
-x,y,-z
loop_
_atom_site_type_symbol
_atom_site_label
_atom_site_fract_x
_atom_site_fract_y
_atom_site_fract_z
Si Si1 0.873528 0.508780 0.849056
Si Si2 0.505368 0.213409 0.757767
Si Si3 0.000000 0.900795 0.500000
Si Si4 0.267932 0.588182 0.757767
Si Si5 0.173639 0.292815 0.849057
Si Si6 0.802127 0.900796 0.034751
O O1 0.612136 0.353897 0.734811
O O2 0.041050 0.400795 0.860701
O O3 0.000000 0.487997 0.000000
O O4 0.922804 0.768679 0.854307
O O5 0.261915 0.051652 0.612321
O O6 0.388865 0.400794 0.759245
O O7 0.708513 0.063023 0.914845
O O8 0.075050 0.749938 0.612321
O O9 0.092293 0.447700 0.734811
O O10 0.536022 0.738569 0.914845
O O11 0.500000 0.313601 0.000000
O O12 0.140121 0.032915 0.854309
#
# Coordination Sequence:
#
# PCOD9114093 Si02
#       6
#     2   2   1   2   2   2
#     4  12  23  38  64 108 150 176 226 291 370 427
#     4  11  23  43  68 102 143 188 237 291 335 439
#     4  10  26  44  80  96 136 202 254 268 348 404
#     4  11  23  43  68 102 143 188 237 291 335 439
#     4  12  23  38  64 108 150 176 226 291 370 427
#     4  11  22  35  66 102 148 184 216 292 384 411
#
# _framework density 22.393028999999999
#
# number of rings (size 3 to 8) (size 9 to 14) (size 15 to 20)
#    0.000    0.727    7.273    0.545    5.091    0.000 
#    0.000    0.000    0.000    6.545    0.000    0.000 
#    0.000    0.000    0.000    0.000    0.000    0.000 
#
# Total GULP energy -61303.137821 kJ/mol
# GULP energy per Si atom -5573.012529 kJ/mol
# Density = 2.234206 g / cm^3
# Si number density = 22.393029 Si / 1000 Ang^3
#
#
#
# Elastic Constant Matrix: (Units=GPa)
#
#
# Indices 1 2 3 4 5 6 
#
# 1 185.4430 77.5797 30.4761 0.0000 -16.3141 0.0000
# 2 77.5797 176.2689 61.8568 0.0000 -1.8237 0.0000
# 3 30.4761 61.8568 61.0674 0.0000 1.8976 0.0000
# 4 0.0000 0.0000 0.0000 13.7798 0.0000 -6.8727
# 5 -16.3141 -1.8237 1.8976 0.0000 9.2156 0.0000
# 6 0.0000 0.0000 0.0000 -6.8727 0.0000 73.0907
#
#
#
# Elastic Compliance Matrix: (Units=1/GPa)
#
#
# Indices 1 2 3 4 5 6 
#
# 1 0.008086 -0.002860 -0.001575 0.000000 0.014073 0.000000
# 2 -0.002860 0.009934 -0.008594 0.000000 -0.001328 0.000000
# 3 -0.001575 -0.008594 0.026173 0.000000 -0.009879 0.000000
# 4 0.000000 0.000000 0.000000 0.076141 0.000000 0.007159
# 5 0.014073 -0.001328 -0.009879 0.000000 0.135196 0.000000
# 6 0.000000 0.000000 0.000000 0.007159 0.000000 0.014355
#
#
# Mechanical properties :
#
#
# Convention : Reuss Voigt Hill
#
# Bulk Modulus (GPa) = 55.14336 84.73384 69.93860
# Shear Modulus (GPa) = 16.55691 36.07499 26.31595
#
# Velocity S-wave (km/s) = 2.72210 4.01807 3.43182
# Velocity P-wave (km/s) = 5.87865 7.71026 6.85589
#
# Compressibility (1/GPa) = 0.01813455
#
# Stress axis : x y z
#
# Youngs Moduli (GPa) = 123.66927 100.66371 38.20701
#
# Poissons Ratio (x) = 0.28794 0.06019
# Poissons Ratio (y) = 0.35375 0.32834
# Poissons Ratio (z) = 0.19481 0.86507
#
# Static dielectric constant tensor:
#      x y z
#    x 1.920210 0.000000 -0.003870 
#    y 0.000000 1.986790 0.000000 
#    z -0.003870 0.000000 1.886850 
# 
# From -- ./inp_files/8011.got.cif
#   From: 2010.05.17/outbox.cif.g08.bks.cpg/sg3_5_cif.got.tgz:8011.got - 2010.06.03 18:33:08.
