data_PCOD9114932
_publ_section_title
;
Structure prediction by ZEFSAII (Michael W. Deem and Ramdas Pophale) SiO2 
 PCOD9114932
Probable space group: P 21
;
_chemical_formula_sum "Si O2"
_cell_formula_units_Z 16
_cell_length_a 12.335636
_cell_length_b 8.571370
_cell_length_c 5.580302
_cell_angle_alpha 90.000000
_cell_angle_beta 98.982972
_cell_angle_gamma 90.000000
_cell_volume 582.786981
_symmetry_space_group_name_H-M "P 21"
_symmetry_group_IT_number 4
_symmetry_cell_setting 'monoclinic'
loop_
_space_group_symop_operation_xyz
x,y,z
-x,1/2+y,-z
loop_
_atom_site_type_symbol
_atom_site_label
_atom_site_fract_x
_atom_site_fract_y
_atom_site_fract_z
Si Si1 0.797775 0.943740 0.386208
Si Si2 0.016273 0.756205 0.491863
Si Si3 0.258372 0.406067 0.125031
Si Si4 0.205439 0.886668 0.285153
Si Si5 0.608999 0.377523 0.972734
Si Si6 0.336714 0.129061 0.633767
Si Si7 0.933122 0.642971 0.962592
Si Si8 0.470451 0.177260 0.276932
O O1 0.924659 0.892934 0.449148
O O2 0.757558 0.999744 0.631639
O O3 0.730569 0.781712 0.343456
O O4 0.762666 0.010848 0.117940
O O5 0.002839 0.677891 0.746355
O O6 0.987277 0.657637 0.241348
O O7 0.139689 0.809279 0.478968
O O8 0.159765 0.277887 0.081133
O O9 0.369064 0.299770 0.179581
O O10 0.271631 0.033796 0.412358
O O11 0.114495 0.968704 0.085645
O O12 0.300902 0.805294 0.169983
O O13 0.663492 0.518225 0.141784
O O14 0.563453 0.261253 0.156174
O O15 0.526831 0.493519 0.798344
O O16 0.456110 0.166287 0.561263
#
# Coordination Sequence:
#
# PCOD9114932 Si02
#       8
#     2   2   2   2   2   2   2   2
#     4   9  15  32  56  81 114 150 208 254 299 379
#     4  10  21  32  60  91 120 154 208 264 303 389
#     4   9  15  32  57  82 113 153 205 254 308 381
#     4  11  22  37  64  90 119 173 210 268 329 393
#     4  11  22  40  67  93 132 169 226 276 334 405
#     4  10  19  37  62  88 121 169 220 266 323 403
#     4  10  19  37  59  88 121 158 216 251 318 390
#     4  10  21  37  63  97 120 174 221 275 338 390
#
# _framework density 27.454286
#
# number of rings (size 3 to 8) (size 9 to 14) (size 15 to 20)
#    0.000    2.000    6.250    0.750    1.750    2.000 
#    0.000    0.000   13.750    0.000    0.000    0.000 
#    0.000    0.000    0.000    0.000    0.000    0.000 
#
# Total GULP energy -89446.059845 kJ/mol
# GULP energy per Si atom -5590.378740 kJ/mol
# Density = 2.739180 g / cm^3
# Si number density = 27.454286 Si / 1000 Ang^3
#
#
#
# Elastic Constant Matrix: (Units=GPa)
#
#
# Indices 1 2 3 4 5 6 
#
# 1 95.1261 33.8873 45.5531 0.0000 -55.7667 0.0000
# 2 33.8873 72.7951 27.4784 0.0000 -16.9334 0.0000
# 3 45.5531 27.4784 173.0821 0.0000 -30.9590 0.0000
# 4 0.0000 0.0000 0.0000 31.2678 0.0000 -4.0749
# 5 -55.7667 -16.9334 -30.9590 0.0000 52.0326 0.0000
# 6 0.0000 0.0000 0.0000 -4.0749 0.0000 27.2346
#
#
#
# Elastic Compliance Matrix: (Units=1/GPa)
#
#
# Indices 1 2 3 4 5 6 
#
# 1 0.032034 -0.007035 -0.001771 0.000000 0.030990 0.000000
# 2 -0.007035 0.016853 -0.001334 0.000000 -0.002849 0.000000
# 3 -0.001771 -0.001334 0.006757 0.000000 0.001689 0.000000
# 4 0.000000 0.000000 0.000000 0.032618 0.000000 0.004880
# 5 0.030990 -0.002849 0.001689 0.000000 0.052510 0.000000
# 6 0.000000 0.000000 0.000000 0.004880 0.000000 0.037448
#
#
# Mechanical properties :
#
#
# Convention : Reuss Voigt Hill
#
# Bulk Modulus (GPa) = 28.27653 61.64899 44.96276
# Shear Modulus (GPa) = 23.77690 37.71263 30.74477
#
# Velocity S-wave (km/s) = 2.94607 3.71030 3.35005
# Velocity P-wave (km/s) = 4.67914 6.39211 5.60149
#
# Compressibility (1/GPa) = 0.03536502
#
# Stress axis : x y z
#
# Youngs Moduli (GPa) = 31.21676 59.33718 147.98471
#
# Poissons Ratio (x) = 0.41744 0.26208
# Poissons Ratio (y) = 0.21961 0.19735
# Poissons Ratio (z) = 0.05528 0.07913
#
# Static dielectric constant tensor:
#      x y z
#    x 2.233550 0.000000 0.035830 
#    y 0.000000 2.104200 0.000000 
#    z 0.035830 0.000000 2.312220 
# 
# From -- ./inp_files/2942.got.cif
#   From: 2010.05.17/outbox.cif.g08.bks.cpg/sg4_2_cif.got.tgz:2942.got - 2010.06.03 18:43:04.
