data_PCOD9114069
_publ_section_title
;
Structure prediction by ZEFSAII (Michael W. Deem and Ramdas Pophale) SiO2 
 PCOD9114069
Probable space group: P 2
;
_chemical_formula_sum "Si O2"
_cell_formula_units_Z 14
_cell_length_a 21.925761
_cell_length_b 5.151031
_cell_length_c 15.527652
_cell_angle_alpha 90.000000
_cell_angle_beta 159.920394
_cell_angle_gamma 90.000000
_cell_volume 602.088837
_symmetry_space_group_name_H-M "P 2"
_symmetry_group_IT_number 3
_symmetry_cell_setting 'monoclinic'
loop_
_space_group_symop_operation_xyz
x,y,z
-x,y,-z
loop_
_atom_site_type_symbol
_atom_site_label
_atom_site_fract_x
_atom_site_fract_y
_atom_site_fract_z
Si Si1 0.613011 0.564050 0.071151
Si Si2 0.704908 0.496814 0.747628
Si Si3 0.795776 0.993399 0.759127
Si Si4 0.183734 0.206216 0.772233
Si Si5 0.451367 0.899722 0.732469
Si Si6 0.046823 0.415257 0.761865
Si Si7 0.198701 0.918905 0.555670
O O1 0.766937 0.380547 0.244453
O O2 0.686742 0.834548 0.208509
O O3 0.500000 0.451687 0.000000
O O4 0.498452 0.616012 0.833735
O O5 0.500000 0.528107 0.500000
O O6 0.778141 0.764045 0.805255
O O7 0.734417 0.265079 0.718690
O O8 0.809579 0.423507 0.972463
O O9 0.666261 0.918384 0.508278
O O10 0.000000 0.013706 0.000000
O O11 0.143251 0.402139 0.797329
O O12 0.000000 0.064369 0.500000
O O13 0.356800 0.036336 0.024478
O O14 0.329289 0.993245 0.650548
O O15 0.913751 0.653183 0.604310
O O16 0.940436 0.147022 0.623518
#
# Coordination Sequence:
#
# PCOD9114069 Si02
#       7
#     2   2   2   2   2   2   2
#     4  10  25  45  71 108 149 196 243 306 373 455
#     4  12  27  48  73 109 153 198 247 317 383 444
#     4  12  27  50  78 113 147 197 264 317 369 442
#     4  12  26  44  76 112 152 195 255 304 377 456
#     4  11  27  44  78 104 152 198 254 307 379 443
#     4  12  26  47  77 105 151 195 251 305 381 443
#     4  11  26  49  74 109 147 197 245 306 376 453
#
# _framework density 23.252382999999998
#
# number of rings (size 3 to 8) (size 9 to 14) (size 15 to 20)
#    0.000    0.571    1.429    5.143   10.000    1.143 
#    0.000    0.000    0.000    0.000    0.000    0.000 
#    0.000    0.000    0.000    0.000    0.000    0.000 
#
# Total GULP energy -78360.700637 kJ/mol
# GULP energy per Si atom -5597.192903 kJ/mol
# Density = 2.319946 g / cm^3
# Si number density = 23.252383 Si / 1000 Ang^3
#
#
#
# Elastic Constant Matrix: (Units=GPa)
#
#
# Indices 1 2 3 4 5 6 
#
# 1 86.4836 2.8850 39.5820 0.0000 27.2512 0.0000
# 2 2.8850 72.2081 -12.6234 0.0000 25.1923 0.0000
# 3 39.5820 -12.6234 114.2316 0.0000 3.1655 0.0000
# 4 0.0000 0.0000 0.0000 30.2909 0.0000 1.5559
# 5 27.2512 25.1923 3.1655 0.0000 52.9453 0.0000
# 6 0.0000 0.0000 0.0000 1.5559 0.0000 12.1788
#
#
#
# Elastic Compliance Matrix: (Units=1/GPa)
#
#
# Indices 1 2 3 4 5 6 
#
# 1 0.016854 0.001551 -0.005417 0.000000 -0.009089 0.000000
# 2 0.001551 0.017245 0.001621 0.000000 -0.009101 0.000000
# 3 -0.005417 0.001621 0.010772 0.000000 0.001373 0.000000
# 4 0.000000 0.000000 0.000000 0.033231 0.000000 -0.004246
# 5 -0.009089 -0.009101 0.001373 0.000000 0.027814 0.000000
# 6 0.000000 0.000000 0.000000 -0.004246 0.000000 0.082652
#
#
# Mechanical properties :
#
#
# Convention : Reuss Voigt Hill
#
# Bulk Modulus (GPa) = 24.76448 36.95672 30.86060
# Shear Modulus (GPa) = 24.21065 35.28832 29.74949
#
# Velocity S-wave (km/s) = 3.23028 3.89989 3.58077
# Velocity P-wave (km/s) = 4.95847 6.01724 5.51332
#
# Compressibility (1/GPa) = 0.04038041
#
# Stress axis : x y z
#
# Youngs Moduli (GPa) = 59.33196 57.98687 92.83172
#
# Poissons Ratio (x) = -0.08991 0.50286
# Poissons Ratio (y) = -0.09200 -0.15045
# Poissons Ratio (z) = 0.32140 -0.09398
#
# Static dielectric constant tensor:
#      x y z
#    x 2.011420 0.000000 0.021250 
#    y 0.000000 1.860530 0.000000 
#    z 0.021250 0.000000 1.905530 
# 
# From -- ./inp_files/14306.got.cif
#   From: 2010.05.17/outbox.cif.g08.bks.cpg/sg3_8_cif.got.tgz:14306.got - 2010.06.03 18:33:08.
