data_PCOD9114461
_publ_section_title
;
Structure prediction by ZEFSAII (Michael W. Deem and Ramdas Pophale) SiO2 
 PCOD9114461
Probable space group: P 21
;
_chemical_formula_sum "Si O2"
_cell_formula_units_Z 16
_cell_length_a 6.422049
_cell_length_b 14.414356
_cell_length_c 7.111982
_cell_angle_alpha 90.000000
_cell_angle_beta 114.351840
_cell_angle_gamma 90.000000
_cell_volume 599.780663
_symmetry_space_group_name_H-M "P 21"
_symmetry_group_IT_number 4
_symmetry_cell_setting 'monoclinic'
loop_
_space_group_symop_operation_xyz
x,y,z
-x,1/2+y,-z
loop_
_atom_site_type_symbol
_atom_site_label
_atom_site_fract_x
_atom_site_fract_y
_atom_site_fract_z
Si Si1 0.838752 0.222250 0.646136
Si Si2 0.901600 0.157416 0.262467
Si Si3 0.800192 0.595750 0.154621
Si Si4 0.337299 0.826838 0.943148
Si Si5 0.419451 0.890461 0.537266
Si Si6 0.885202 0.931659 0.811047
Si Si7 0.373524 0.106865 0.490906
Si Si8 0.637973 0.983116 0.108593
O O1 0.920182 0.214443 0.461482
O O2 0.742417 0.324103 0.640832
O O3 0.611880 0.158547 0.559086
O O4 0.050726 0.185473 0.846882
O O5 0.707953 0.216098 0.077190
O O6 0.161994 0.146137 0.290853
O O7 0.814315 0.052880 0.272480
O O8 0.691848 0.615878 0.315368
O O9 0.596555 0.543548 0.971532
O O10 0.000065 0.518982 0.247560
O O11 0.364997 0.865898 0.737244
O O12 0.551092 0.878671 0.122999
O O13 0.096916 0.865519 0.925337
O O14 0.691630 0.877625 0.623576
O O15 0.386884 0.996664 0.469323
O O16 0.758608 0.971698 0.948728
#
# Coordination Sequence:
#
# PCOD9114461 Si02
#       8
#     2   2   2   2   2   2   2   2
#     4  10  21  35  58  86 114 146 183 239 281 333
#     4  10  23  37  56  86 118 144 187 238 282 331
#     4  10  18  35  58  79 109 146 189 226 276 332
#     4   9  19  37  59  82 107 155 193 223 277 341
#     4  10  18  33  57  86 109 143 195 225 286 336
#     4  10  16  33  62  77 105 149 189 230 265 338
#     4  11  19  36  57  86 113 143 191 233 283 331
#     4  10  20  36  59  82 111 150 191 226 278 344
#
# _framework density 26.676418999999999
#
# number of rings (size 3 to 8) (size 9 to 14) (size 15 to 20)
#    0.000    2.000    5.000    0.750    0.000    2.000 
#    2.250    0.000    5.500    0.000    0.000    0.000 
#    0.000    0.000    0.000    0.000    0.000    0.000 
#
# Total GULP energy -89379.538794 kJ/mol
# GULP energy per Si atom -5586.221175 kJ/mol
# Density = 2.661570 g / cm^3
# Si number density = 26.676419 Si / 1000 Ang^3
#
#
#
# Elastic Constant Matrix: (Units=GPa)
#
#
# Indices 1 2 3 4 5 6 
#
# 1 119.7618 23.6253 14.8901 0.0000 12.6290 0.0000
# 2 23.6253 93.9837 7.7520 0.0000 -7.5396 0.0000
# 3 14.8901 7.7520 75.1319 0.0000 2.5815 0.0000
# 4 0.0000 0.0000 0.0000 29.3487 0.0000 7.1268
# 5 12.6290 -7.5396 2.5815 0.0000 14.6320 0.0000
# 6 0.0000 0.0000 0.0000 7.1268 0.0000 40.6885
#
#
#
# Elastic Compliance Matrix: (Units=1/GPa)
#
#
# Indices 1 2 3 4 5 6 
#
# 1 0.010253 -0.003294 -0.001338 0.000000 -0.010311 0.000000
# 2 -0.003294 0.012295 -0.000937 0.000000 0.009344 0.000000
# 3 -0.001338 -0.000937 0.013732 0.000000 -0.001751 0.000000
# 4 0.000000 0.000000 0.000000 0.035587 0.000000 -0.006233
# 5 -0.010311 0.009344 -0.001751 0.000000 0.082367 0.000000
# 6 0.000000 0.000000 0.000000 -0.006233 0.000000 0.025669
#
#
# Mechanical properties :
#
#
# Convention : Reuss Voigt Hill
#
# Bulk Modulus (GPa) = 39.77329 42.37914 41.07621
# Shear Modulus (GPa) = 25.07252 33.10784 29.09018
#
# Velocity S-wave (km/s) = 3.06907 3.52673 3.30583
# Velocity P-wave (km/s) = 5.24412 5.70128 5.47747
#
# Compressibility (1/GPa) = 0.02514250
#
# Stress axis : x y z
#
# Youngs Moduli (GPa) = 97.52805 81.33304 72.82318
#
# Poissons Ratio (x) = 0.26794 0.09743
# Poissons Ratio (y) = 0.32129 0.06822
# Poissons Ratio (z) = 0.13048 0.07619
#
# Static dielectric constant tensor:
#      x y z
#    x 2.049640 0.000000 -0.000980 
#    y 0.000000 2.154910 0.000000 
#    z -0.000980 0.000000 2.153430 
# 
# From -- ./inp_files/1516.got.cif
#   From: 2010.05.17/outbox.cif.g08.bks.cpg/sg4_1_cif.got.tgz:1516.got - 2010.06.03 18:43:04.
