data_PCOD9114751
_publ_section_title
;
Structure prediction by ZEFSAII (Michael W. Deem and Ramdas Pophale) SiO2 
 PCOD9114751
Probable space group: P 21
;
_chemical_formula_sum "Si O2"
_cell_formula_units_Z 10
_cell_length_a 11.602213
_cell_length_b 4.992373
_cell_length_c 19.573156
_cell_angle_alpha 90.000000
_cell_angle_beta 158.403593
_cell_angle_gamma 90.000000
_cell_volume 417.286860
_symmetry_space_group_name_H-M "P 21"
_symmetry_group_IT_number 4
_symmetry_cell_setting 'monoclinic'
loop_
_space_group_symop_operation_xyz
x,y,z
-x,1/2+y,-z
loop_
_atom_site_type_symbol
_atom_site_label
_atom_site_fract_x
_atom_site_fract_y
_atom_site_fract_z
Si Si1 0.372339 0.398850 0.335521
Si Si2 0.928967 0.173562 0.717775
Si Si3 0.190472 0.005385 0.114520
Si Si4 0.977413 0.156141 0.313197
Si Si5 0.188722 0.513817 0.629818
O O1 0.563410 0.234819 0.499289
O O2 0.090355 0.551746 0.217754
O O3 0.277531 0.173605 0.229620
O O4 0.656887 0.589031 0.466557
O O5 0.098569 0.447527 0.789960
O O6 0.044675 0.951368 0.728232
O O7 0.478546 0.990823 0.222302
O O8 0.929680 0.205706 0.939157
O O9 0.794406 0.098728 0.281760
O O10 0.005498 0.236803 0.518998
#
# Coordination Sequence:
#
# PCOD9114751 Si02
#       5
#     2   2   2   2   2
#     4  10  20  37  60  93 128 157 215 266 319 364
#     4  10  19  32  63  96 117 152 217 290 299 344
#     4  12  28  41  61  96 144 176 201 257 341 407
#     4  10  19  33  59  96 114 151 213 277 308 347
#     4  12  22  41  67  91 129 174 224 270 303 380
#
# _framework density 23.964328999999999
#
# number of rings (size 3 to 8) (size 9 to 14) (size 15 to 20)
#    1.200    0.000    4.000    3.600    2.800    0.000 
#    0.000    0.000    0.000    4.800    0.000    0.000 
#    0.000    0.000    0.000    0.000    0.000    0.000 
#
# Total GULP energy -55922.609610 kJ/mol
# GULP energy per Si atom -5592.260961 kJ/mol
# Density = 2.390978 g / cm^3
# Si number density = 23.964329 Si / 1000 Ang^3
#
#
#
# Elastic Constant Matrix: (Units=GPa)
#
#
# Indices 1 2 3 4 5 6 
#
# 1 119.9730 8.2527 8.7024 0.0000 22.4955 0.0000
# 2 8.2527 90.5068 15.3634 0.0000 14.2857 0.0000
# 3 8.7024 15.3634 34.5709 0.0000 23.8943 0.0000
# 4 0.0000 0.0000 0.0000 8.9517 0.0000 -4.9736
# 5 22.4955 14.2857 23.8943 0.0000 33.6960 0.0000
# 6 0.0000 0.0000 0.0000 -4.9736 0.0000 43.8280
#
#
#
# Elastic Compliance Matrix: (Units=1/GPa)
#
#
# Indices 1 2 3 4 5 6 
#
# 1 0.009807 -0.000103 0.004064 0.000000 -0.009386 0.000000
# 2 -0.000103 0.012064 -0.003624 0.000000 -0.002476 0.000000
# 3 0.004064 -0.003624 0.059478 0.000000 -0.043354 0.000000
# 4 0.000000 0.000000 0.000000 0.119228 0.000000 0.013530
# 5 -0.009386 -0.002476 -0.043354 0.000000 0.067736 0.000000
# 6 0.000000 0.000000 0.000000 0.013530 0.000000 0.024352
#
#
# Mechanical properties :
#
#
# Convention : Reuss Voigt Hill
#
# Bulk Modulus (GPa) = 12.19143 34.40973 23.30058
# Shear Modulus (GPa) = 15.65767 31.47729 23.56748
#
# Velocity S-wave (km/s) = 2.55889 3.62816 3.13939
# Velocity P-wave (km/s) = 3.71873 5.65167 4.78384
#
# Compressibility (1/GPa) = 0.08202481
#
# Stress axis : x y z
#
# Youngs Moduli (GPa) = 101.96431 82.88923 16.81284
#
# Poissons Ratio (x) = 0.00851 -0.06833
# Poissons Ratio (y) = 0.01047 0.06093
# Poissons Ratio (z) = -0.41438 0.30038
#
# Static dielectric constant tensor:
#      x y z
#    x 1.914800 0.000000 -0.077480 
#    y 0.000000 1.894560 0.000000 
#    z -0.077480 0.000000 2.014190 
# 
# From -- ./inp_files/9085.got.cif
#   From: 2010.05.17/outbox.cif.g08.bks.cpg/sg4_5_cif.got.tgz:9085.got - 2010.06.03 18:43:04.
