data_PCOD9114593
_publ_section_title
;
Structure prediction by ZEFSAII (Michael W. Deem and Ramdas Pophale) SiO2 
 PCOD9114593
Probable space group: P 21
;
_chemical_formula_sum "Si O2"
_cell_formula_units_Z 16
_cell_length_a 17.492415
_cell_length_b 5.747524
_cell_length_c 12.057842
_cell_angle_alpha 90.000000
_cell_angle_beta 134.695451
_cell_angle_gamma 90.000000
_cell_volume 861.750157
_symmetry_space_group_name_H-M "P 21"
_symmetry_group_IT_number 4
_symmetry_cell_setting 'monoclinic'
loop_
_space_group_symop_operation_xyz
x,y,z
-x,1/2+y,-z
loop_
_atom_site_type_symbol
_atom_site_label
_atom_site_fract_x
_atom_site_fract_y
_atom_site_fract_z
Si Si1 0.876049 0.623530 0.119547
Si Si2 0.416496 0.560499 0.027678
Si Si3 0.116952 0.519652 0.052938
Si Si4 0.257702 0.731890 0.017646
Si Si5 0.639741 0.559567 0.145790
Si Si6 0.140475 0.210897 0.531363
Si Si7 0.930090 0.818051 0.771593
Si Si8 0.904944 0.000802 0.324637
O O1 0.902527 0.754348 0.259212
O O2 0.974575 0.453403 0.194449
O O3 0.759159 0.506430 0.010718
O O4 0.874291 0.790927 0.012621
O O5 0.377041 0.307464 0.939393
O O6 0.376359 0.805560 0.928737
O O7 0.367418 0.604503 0.099673
O O8 0.544107 0.564578 0.139315
O O9 0.207318 0.677391 0.086524
O O10 0.125962 0.471707 0.191635
O O11 0.998007 0.621702 0.906395
O O12 0.174753 0.643015 0.836802
O O13 0.758067 0.574096 0.317718
O O14 0.145389 0.231923 0.403774
O O15 0.136295 0.456545 0.593638
O O16 0.025021 0.096541 0.440755
#
# Coordination Sequence:
#
# PCOD9114593 Si02
#       8
#     2   2   2   2   2   2   2   2
#     4  10  18  34  52  75 108 151 181 230 269 344
#     4  10  21  42  60  86 115 156 196 243 279 351
#     4  10  20  33  52  77 106 151 197 226 277 337
#     4  10  20  35  55  81 108 151 190 237 281 337
#     4  10  23  38  62  86 120 153 195 233 294 349
#     4  12  22  34  52  87 118 154 179 237 289 356
#     4  11  20  34  51  74 112 149 189 228 280 340
#     4  11  22  32  48  82 119 143 177 216 297 354
#
# _framework density 18.566869000000001
#
# number of rings (size 3 to 8) (size 9 to 14) (size 15 to 20)
#    0.000    1.500    6.250    1.500    3.500    1.000 
#    0.000    0.000    0.000    0.000    3.250    0.000 
#    0.000    0.000    0.000    0.000    0.000    0.000 
#
# Total GULP energy -89093.415787 kJ/mol
# GULP energy per Si atom -5568.338487 kJ/mol
# Density = 1.852461 g / cm^3
# Si number density = 18.566869 Si / 1000 Ang^3
#
#
#
# Elastic Constant Matrix: (Units=GPa)
#
#
# Indices 1 2 3 4 5 6 
#
# 1 98.5997 9.0693 21.8171 0.0000 -6.7528 0.0000
# 2 9.0693 60.3286 3.5610 0.0000 -2.5122 0.0000
# 3 21.8171 3.5610 41.5017 0.0000 -8.1836 0.0000
# 4 0.0000 0.0000 0.0000 13.6951 0.0000 0.1800
# 5 -6.7528 -2.5122 -8.1836 0.0000 30.4953 0.0000
# 6 0.0000 0.0000 0.0000 0.1800 0.0000 31.1419
#
#
#
# Elastic Compliance Matrix: (Units=1/GPa)
#
#
# Indices 1 2 3 4 5 6 
#
# 1 0.011615 -0.001366 -0.005811 0.000000 0.000900 0.000000
# 2 -0.001366 0.016852 -0.000543 0.000000 0.000940 0.000000
# 3 -0.005811 -0.000543 0.028439 0.000000 0.006300 0.000000
# 4 0.000000 0.000000 0.000000 0.073024 0.000000 -0.000422
# 5 0.000900 0.000940 0.006300 0.000000 0.034759 0.000000
# 6 0.000000 0.000000 0.000000 -0.000422 0.000000 0.032113
#
#
# Mechanical properties :
#
#
# Convention : Reuss Voigt Hill
#
# Bulk Modulus (GPa) = 24.11529 29.92497 27.02013
# Shear Modulus (GPa) = 22.11747 26.13198 24.12473
#
# Velocity S-wave (km/s) = 3.45517 3.75567 3.60855
# Velocity P-wave (km/s) = 5.37905 5.91263 5.65214
#
# Compressibility (1/GPa) = 0.04146747
#
# Stress axis : x y z
#
# Youngs Moduli (GPa) = 86.09455 59.33887 35.16266
#
# Poissons Ratio (x) = 0.08103 0.20434
# Poissons Ratio (y) = 0.11757 0.01908
# Poissons Ratio (z) = 0.50032 0.03220
#
# Static dielectric constant tensor:
#      x y z
#    x 1.699470 0.000000 -0.006880 
#    y 0.000000 1.771990 0.000000 
#    z -0.006880 0.000000 1.623860 
# 
# From -- ./inp_files/11524.got.cif
#   From: 2010.05.17/outbox.cif.g08.bks.cpg/sg4_6_cif.got.tgz:11524.got - 2010.06.03 18:43:04.
