data_PCOD9114220
_publ_section_title
;
Structure prediction by ZEFSAII (Michael W. Deem and Ramdas Pophale) SiO2 
 PCOD9114220
Probable space group: P 2
;
_chemical_formula_sum "Si O2"
_cell_formula_units_Z 10
_cell_length_a 9.043083
_cell_length_b 10.247708
_cell_length_c 8.241623
_cell_angle_alpha 90.000000
_cell_angle_beta 29.665198
_cell_angle_gamma 90.000000
_cell_volume 378.007683
_symmetry_space_group_name_H-M "P 2"
_symmetry_group_IT_number 3
_symmetry_cell_setting 'monoclinic'
loop_
_space_group_symop_operation_xyz
x,y,z
-x,y,-z
loop_
_atom_site_type_symbol
_atom_site_label
_atom_site_fract_x
_atom_site_fract_y
_atom_site_fract_z
Si Si1 0.035681 0.481160 0.654728
Si Si2 0.757697 0.065676 0.365533
Si Si3 0.267043 0.710454 0.855267
Si Si4 0.723604 0.865474 0.658227
Si Si5 0.448744 0.326522 0.738092
O O1 0.000000 0.502813 0.500000
O O2 0.379020 0.443294 0.339922
O O3 0.918639 0.599918 0.873463
O O4 0.878198 0.350655 0.879594
O O5 0.500000 0.999751 0.500000
O O6 0.586143 0.182620 0.622274
O O7 0.869537 0.966981 0.394039
O O8 0.000000 0.110027 0.000000
O O9 0.500000 0.659568 0.500000
O O10 0.490587 0.778900 0.773370
O O11 0.000000 0.779131 0.000000
O O12 0.000000 0.806761 0.500000
O O13 0.500000 0.931249 0.000000
O O14 0.500000 0.351103 0.500000
#
# Coordination Sequence:
#
# PCOD9114220 Si02
#       5
#     2   2   2   2   2
#     4  12  26  45  71 108 148 185 238 307 374 432
#     4  11  24  46  74 105 144 193 248 298 357 440
#     4  12  27  49  76 103 144 200 255 300 359 445
#     4  12  28  48  72 107 150 191 245 312 374 430
#     4  11  23  44  73 105 143 191 242 295 361 441
#
# _framework density 26.454488999999999
#
# number of rings (size 3 to 8) (size 9 to 14) (size 15 to 20)
#    0.000    0.400    0.000    9.600    0.000    8.000 
#    0.000    2.000    0.000    0.000    0.000    0.000 
#    0.000    0.000    0.000    0.000    0.000    0.000 
#
# Total GULP energy -55917.682509 kJ/mol
# GULP energy per Si atom -5591.768251 kJ/mol
# Density = 2.639428 g / cm^3
# Si number density = 26.454489 Si / 1000 Ang^3
#
#
#
# Elastic Constant Matrix: (Units=GPa)
#
#
# Indices 1 2 3 4 5 6 
#
# 1 175.1543 59.1210 29.7015 0.0000 -18.9761 0.0000
# 2 59.1210 85.4629 14.5262 0.0000 1.3459 0.0000
# 3 29.7015 14.5262 118.9881 0.0000 9.4818 0.0000
# 4 0.0000 0.0000 0.0000 38.1254 0.0000 1.3483
# 5 -18.9761 1.3459 9.4818 0.0000 72.4607 0.0000
# 6 0.0000 0.0000 0.0000 1.3483 0.0000 21.6496
#
#
#
# Elastic Compliance Matrix: (Units=1/GPa)
#
#
# Indices 1 2 3 4 5 6 
#
# 1 0.008031 -0.005331 -0.001546 0.000000 0.002404 0.000000
# 2 -0.005331 0.015488 -0.000430 0.000000 -0.001627 0.000000
# 3 -0.001546 -0.000430 0.008968 0.000000 -0.001570 0.000000
# 4 0.000000 0.000000 0.000000 0.026287 0.000000 -0.001637
# 5 0.002404 -0.001627 -0.001570 0.000000 0.014666 0.000000
# 6 0.000000 0.000000 0.000000 -0.001637 0.000000 0.046292
#
#
# Mechanical properties :
#
#
# Convention : Reuss Voigt Hill
#
# Bulk Modulus (GPa) = 55.95105 65.14475 60.54790
# Shear Modulus (GPa) = 35.63715 44.86424 40.25070
#
# Velocity S-wave (km/s) = 3.67428 4.12260 3.90488
# Velocity P-wave (km/s) = 6.26070 6.88039 6.57785
#
# Compressibility (1/GPa) = 0.01787277
#
# Stress axis : x y z
#
# Youngs Moduli (GPa) = 124.51396 64.56779 111.51185
#
# Poissons Ratio (x) = 0.34421 0.17234
# Poissons Ratio (y) = 0.66378 0.04799
# Poissons Ratio (z) = 0.19244 0.02779
#
# Static dielectric constant tensor:
#      x y z
#    x 2.110680 0.000000 -0.074830 
#    y 0.000000 2.125210 0.000000 
#    z -0.074830 0.000000 1.986400 
# 
# From -- ./inp_files/5686.got.cif
#   From: 2010.05.17/outbox.cif.g08.bks.cpg/sg3_3_cif.got.tgz:5686.got - 2010.06.03 18:33:08.
