data_PCOD9114152
_publ_section_title
;
Structure prediction by ZEFSAII (Michael W. Deem and Ramdas Pophale) SiO2 
 PCOD9114152
Probable space group: P 2
;
_chemical_formula_sum "Si O2"
_cell_formula_units_Z 8
_cell_length_a 5.092412
_cell_length_b 8.266534
_cell_length_c 7.791402
_cell_angle_alpha 90.000000
_cell_angle_beta 75.790635
_cell_angle_gamma 90.000000
_cell_volume 317.956689
_symmetry_space_group_name_H-M "P 2"
_symmetry_group_IT_number 3
_symmetry_cell_setting 'monoclinic'
loop_
_space_group_symop_operation_xyz
x,y,z
-x,y,-z
loop_
_atom_site_type_symbol
_atom_site_label
_atom_site_fract_x
_atom_site_fract_y
_atom_site_fract_z
Si Si1 0.674964 0.796150 0.299811
Si Si2 0.799061 0.446651 0.372256
Si Si3 0.371595 0.211585 0.865937
Si Si4 0.232373 0.978399 0.192689
O O1 0.500000 0.805573 0.500000
O O2 0.803286 0.617950 0.272725
O O3 0.443320 0.832739 0.196011
O O4 0.930981 0.917578 0.273606
O O5 0.500000 0.432812 0.500000
O O6 0.823364 0.304701 0.228503
O O7 0.000000 0.445772 0.500000
O O8 0.619397 0.123825 0.724291
O O9 0.500000 0.320287 0.000000
O O10 0.252829 0.067134 0.004185
#
# Coordination Sequence:
#
# PCOD9114152 Si02
#       4
#     2   2   2   2
#     4  11  21  41  72 114 151 191 246 311 376 432
#     4  11  24  44  75 115 150 192 248 316 374 441
#     4   8  23  48  72 111 146 199 252 293 382 438
#     4   9  22  42  71 102 152 195 246 304 363 454
#
# _framework density 25.160658000000002
#
# number of rings (size 3 to 8) (size 9 to 14) (size 15 to 20)
#    1.500    0.500    0.000    3.750    0.000    9.000 
#    4.500    1.250   11.000    0.000    0.000    0.000 
#    0.000    0.000    0.000    0.000    0.000    0.000 
#
# Total GULP energy -44544.293552 kJ/mol
# GULP energy per Si atom -5568.036694 kJ/mol
# Density = 2.510339 g / cm^3
# Si number density = 25.160658 Si / 1000 Ang^3
#
#
#
# Elastic Constant Matrix: (Units=GPa)
#
#
# Indices 1 2 3 4 5 6 
#
# 1 225.3883 67.9184 45.1185 0.0000 22.3989 0.0000
# 2 67.9184 128.5904 57.4462 0.0000 10.3121 0.0000
# 3 45.1185 57.4462 80.4838 0.0000 20.7693 0.0000
# 4 0.0000 0.0000 0.0000 -58.1573 0.0000 67.0090
# 5 22.3989 10.3121 20.7693 0.0000 50.9358 0.0000
# 6 0.0000 0.0000 0.0000 67.0090 0.0000 -2.3998
#
#
#
# Elastic Compliance Matrix: (Units=1/GPa)
#
#
# Indices 1 2 3 4 5 6 
#
# 1 0.005493 -0.002319 -0.001031 0.000000 -0.001526 0.000000
# 2 -0.002319 0.012454 -0.008049 0.000000 0.001780 0.000000
# 3 -0.001031 -0.008049 0.020352 0.000000 -0.006216 0.000000
# 4 0.000000 0.000000 0.000000 0.000552 0.000000 0.015402
# 5 -0.001526 0.001780 -0.006216 0.000000 0.022478 0.000000
# 6 0.000000 0.000000 0.000000 0.015402 0.000000 0.013368
#
#
# Mechanical properties :
#
#
# Convention : Reuss Voigt Hill
#
# Bulk Modulus (GPa) = 64.50521 86.15876 75.33198
# Shear Modulus (GPa) = 48.70404 15.67437 32.18920
#
# Velocity S-wave (km/s) = 4.40446 2.49865 3.58068
# Velocity P-wave (km/s) = 7.18043 6.53009 6.86297
#
# Compressibility (1/GPa) = 0.01550262
#
# Stress axis : x y z
#
# Youngs Moduli (GPa) = 182.03347 80.29353 49.13575
#
# Poissons Ratio (x) = 0.18617 0.05065
# Poissons Ratio (y) = 0.42207 0.39549
# Poissons Ratio (z) = 0.18765 0.64628
#
# Static dielectric constant tensor:
#      x y z
#    x 2.243320 0.000000 0.073080 
#    y 0.000000 2.099200 0.000000 
#    z 0.073080 0.000000 2.312040 
# 
# From -- ./inp_files/4087.got.cif
#   From: 2010.05.17/outbox.cif.g08.bks.cpg/sg3_3_cif.got.tgz:4087.got - 2010.06.03 18:33:08.
