data_PCOD9114434
_publ_section_title
;
Structure prediction by ZEFSAII (Michael W. Deem and Ramdas Pophale) SiO2 
 PCOD9114434
Probable space group: P 2
;
_chemical_formula_sum "Si O2"
_cell_formula_units_Z 13
_cell_length_a 12.000000
_cell_length_b 6.000000
_cell_length_c 9.000000
_cell_angle_alpha 90.000000
_cell_angle_beta 80.000000
_cell_angle_gamma 90.000000
_cell_volume 638.155424
_symmetry_space_group_name_H-M "P 2"
_symmetry_group_IT_number 3
_symmetry_cell_setting 'monoclinic'
loop_
_space_group_symop_operation_xyz
x,y,z
-x,y,-z
loop_
_atom_site_type_symbol
_atom_site_label
_atom_site_fract_x
_atom_site_fract_y
_atom_site_fract_z
Si Si1 0.363048 0.605240 0.210599
Si Si2 0.000000 0.127896 0.000000
Si Si3 0.685750 0.601892 0.424425
Si Si4 0.500000 0.243458 0.500000
Si Si5 0.138788 0.741493 0.093811
Si Si6 0.910584 0.514814 0.205998
Si Si7 0.448238 0.936855 0.756636
Si Si8 0.500000 0.242277 0.000000
O O1 0.327344 0.609160 0.393503
O O2 0.256816 0.706835 0.147116
O O3 0.476124 0.750398 0.185558
O O4 0.409210 0.383142 0.118628
O O5 0.945021 0.269607 0.145528
O O6 0.098331 0.984881 0.054566
O O7 0.598585 0.399432 0.412645
O O8 0.813384 0.543256 0.349103
O O9 0.641888 0.811873 0.332406
O O10 0.528482 0.079631 0.627785
O O11 0.030013 0.639774 0.207275
O O12 0.139537 0.614905 0.935749
O O13 0.423741 0.100372 0.899954
#
# Coordination Sequence:
#
# PCOD9114434 Si02
#       8
#     2   1   2   1   2   2   2   1
#     4  12  25  46  66 103 142 176 234 291 334 417
#     4   8  18  48  64 102 126 174 236 274 358 402
#     4  12  24  45  69  99 143 180 231 286 347 413
#     4  12  22  44  66  98 142 188 218 278 360 410
#     4   9  22  42  67  95 133 175 228 287 334 412
#     4   9  22  42  68  95 129 178 226 285 347 403
#     4  12  25  45  67 102 143 188 226 278 355 414
#     4  12  28  44  68 108 140 190 234 282 346 412
#
# _framework density 20.371213000000001
#
# number of rings (size 3 to 8) (size 9 to 14) (size 15 to 20)
#    0.000    1.538    4.615    0.462    6.462    5.538 
#    2.769    0.000    0.000    0.000    0.000    0.000 
#    0.000    0.000    0.000    0.000    0.000    0.000 
#
# Total GULP energy -72428.874098 kJ/mol
# GULP energy per Si atom -5571.451854 kJ/mol
# Density = 2.032485 g / cm^3
# Si number density = 20.371213 Si / 1000 Ang^3
#
#
#
# Elastic Constant Matrix: (Units=GPa)
#
#
# Indices 1 2 3 4 5 6 
#
# 1 66.4281 12.5019 28.0517 0.0000 2.2310 0.0000
# 2 12.5019 85.6469 44.0431 0.0000 4.0465 0.0000
# 3 28.0517 44.0431 115.2790 0.0000 -2.3135 0.0000
# 4 0.0000 0.0000 0.0000 34.6448 0.0000 9.1551
# 5 2.2310 4.0465 -2.3135 0.0000 45.7449 0.0000
# 6 0.0000 0.0000 0.0000 9.1551 0.0000 -14.0396
#
#
#
# Elastic Compliance Matrix: (Units=1/GPa)
#
#
# Indices 1 2 3 4 5 6 
#
# 1 0.016835 -0.000366 -0.003977 0.000000 -0.000990 0.000000
# 2 -0.000366 0.014652 -0.005540 0.000000 -0.001558 0.000000
# 3 -0.003977 -0.005540 0.011785 0.000000 0.001280 0.000000
# 4 0.000000 0.000000 0.000000 0.024622 0.000000 0.016055
# 5 -0.000990 -0.001558 0.001280 0.000000 0.022111 0.000000
# 6 0.000000 0.000000 0.000000 0.016055 0.000000 -0.060758
#
#
# Mechanical properties :
#
#
# Convention : Reuss Voigt Hill
#
# Bulk Modulus (GPa) = 42.54132 48.50526 45.52329
# Shear Modulus (GPa) = 87.95451 25.45386 56.70419
#
# Velocity S-wave (km/s) = 6.57796 3.53866 5.28165
# Velocity P-wave (km/s) = 8.86686 6.36856 7.71945
#
# Compressibility (1/GPa) = 0.02350656
#
# Stress axis : x y z
#
# Youngs Moduli (GPa) = 59.39909 68.25100 84.85620
#
# Poissons Ratio (x) = 0.02496 0.33746
# Poissons Ratio (y) = 0.02172 0.47011
# Poissons Ratio (z) = 0.23622 0.37812
#
# Static dielectric constant tensor:
#      x y z
#    x 1.703180 0.000000 -0.009760 
#    y 0.000000 1.841360 0.000000 
#    z -0.009760 0.000000 1.745680 
# 
# From -- ./inp_files/6658.got.cif
#   From: 2010.05.17/outbox.ucp.g08.bks.cvg/sg3_4_cif.got.tgz:6658.got - 2010.06.11 12:50:29.
