data_PCOD9114334
_publ_section_title
;
Structure prediction by ZEFSAII (Michael W. Deem and Ramdas Pophale) SiO2 
 PCOD9114334
Probable space group: P 2
;
_chemical_formula_sum "Si O2"
_cell_formula_units_Z 11
_cell_length_a 7.261388
_cell_length_b 5.741663
_cell_length_c 10.553302
_cell_angle_alpha 90.000000
_cell_angle_beta 97.719589
_cell_angle_gamma 90.000000
_cell_volume 436.005431
_symmetry_space_group_name_H-M "P 2"
_symmetry_group_IT_number 3
_symmetry_cell_setting 'monoclinic'
loop_
_space_group_symop_operation_xyz
x,y,z
-x,y,-z
loop_
_atom_site_type_symbol
_atom_site_label
_atom_site_fract_x
_atom_site_fract_y
_atom_site_fract_z
Si Si1 0.224663 0.197620 0.905896
Si Si2 0.432205 0.722580 0.709719
Si Si3 0.989600 0.850091 0.251476
Si Si4 0.500000 0.817780 0.000000
Si Si5 0.615847 0.231353 0.348614
Si Si6 0.000000 0.066713 0.500000
Si Si7 0.000000 0.573892 0.000000
O O1 0.354663 0.247684 0.799872
O O2 0.040477 0.097932 0.821845
O O3 0.318656 0.983815 0.984584
O O4 0.176585 0.414915 0.983977
O O5 0.209343 0.751397 0.715841
O O6 0.503962 0.707495 0.861206
O O7 0.472646 0.485651 0.636698
O O8 0.480133 0.975097 0.650201
O O9 0.045559 0.694894 0.138189
O O10 0.082709 0.909123 0.393096
O O11 0.821153 0.209510 0.431645
#
# Coordination Sequence:
#
# PCOD9114334 Si02
#       7
#     2   2   2   1   2   1   1
#     4   9  19  33  49  80 117 161 188 239 293 354
#     4   9  17  31  48  77 108 148 188 240 280 333
#     4   9  19  33  49  80 117 161 188 239 293 354
#     4   8  18  34  52  74 120 158 200 236 290 352
#     4   9  17  31  48  77 108 148 188 240 280 333
#     4   8  18  34  52  74 120 158 200 236 290 352
#     4  12  18  32  56  78 132 160 178 244 306 356
#
# _framework density 25.229042
#
# number of rings (size 3 to 8) (size 9 to 14) (size 15 to 20)
#    0.000    3.636    1.818    0.545    0.000    5.818 
#    0.000    0.000    0.000    0.000    0.000    0.000 
#    0.000  653.091    0.000    0.000    0.000    0.000 
#
# Total GULP energy -61254.512835 kJ/mol
# GULP energy per Si atom -5568.592076 kJ/mol
# Density = 2.517162 g / cm^3
# Si number density = 25.229042 Si / 1000 Ang^3
#
#
#
# Elastic Constant Matrix: (Units=GPa)
#
#
# Indices 1 2 3 4 5 6 
#
# 1 34.4100 8.1135 29.6442 0.0000 -9.0238 0.0000
# 2 8.1135 179.3382 76.6372 0.0000 -5.6515 0.0000
# 3 29.6442 76.6372 169.1029 0.0000 -0.5215 0.0000
# 4 0.0000 0.0000 0.0000 21.4475 0.0000 1.4251
# 5 -9.0238 -5.6515 -0.5215 0.0000 36.5322 0.0000
# 6 0.0000 0.0000 0.0000 1.4251 0.0000 20.0668
#
#
#
# Elastic Compliance Matrix: (Units=1/GPa)
#
#
# Indices 1 2 3 4 5 6 
#
# 1 0.037422 0.001729 -0.007315 0.000000 0.009407 0.000000
# 2 0.001729 0.007034 -0.003486 0.000000 0.001466 0.000000
# 3 -0.007315 -0.003486 0.008769 0.000000 -0.002221 0.000000
# 4 0.000000 0.000000 0.000000 0.046847 0.000000 -0.003327
# 5 0.009407 0.001466 -0.002221 0.000000 0.029892 0.000000
# 6 0.000000 0.000000 0.000000 -0.003327 0.000000 0.050070
#
#
# Mechanical properties :
#
#
# Convention : Reuss Voigt Hill
#
# Bulk Modulus (GPa) = 28.50534 67.96010 48.23272
# Shear Modulus (GPa) = 23.82419 33.50638 28.66529
#
# Velocity S-wave (km/s) = 3.07631 3.64825 3.37442
# Velocity P-wave (km/s) = 4.89299 6.68895 5.86018
#
# Compressibility (1/GPa) = 0.03508114
#
# Stress axis : x y z
#
# Youngs Moduli (GPa) = 26.72212 142.16979 114.03743
#
# Poissons Ratio (x) = -0.24586 0.83417
# Poissons Ratio (y) = -0.04621 0.39758
# Poissons Ratio (z) = 0.19547 0.49566
#
# Static dielectric constant tensor:
#      x y z
#    x 2.043580 0.000000 0.033400 
#    y 0.000000 2.157860 0.000000 
#    z 0.033400 0.000000 1.958830 
# 
# From -- ./inp_files/10158.got.cif
#   From: 2010.05.17/outbox.cif.g08.bks.cpg/sg3_6_cif.got.tgz:10158.got - 2010.06.03 18:33:08.
