data_PCOD9114148
_publ_section_title
;
Structure prediction by ZEFSAII (Michael W. Deem and Ramdas Pophale) SiO2 
 PCOD9114148
Probable space group: P 2
;
_chemical_formula_sum "Si O2"
_cell_formula_units_Z 12
_cell_length_a 7.771416
_cell_length_b 10.570009
_cell_length_c 7.397837
_cell_angle_alpha 90.000000
_cell_angle_beta 120.527299
_cell_angle_gamma 90.000000
_cell_volume 523.454223
_symmetry_space_group_name_H-M "P 2"
_symmetry_group_IT_number 3
_symmetry_cell_setting 'monoclinic'
loop_
_space_group_symop_operation_xyz
x,y,z
-x,y,-z
loop_
_atom_site_type_symbol
_atom_site_label
_atom_site_fract_x
_atom_site_fract_y
_atom_site_fract_z
Si Si1 0.161984 0.866760 0.715027
Si Si2 0.763108 0.735261 0.888637
Si Si3 0.586854 0.490945 0.866669
Si Si4 0.866745 0.112270 0.102898
Si Si5 0.464490 0.982605 0.291057
Si Si6 0.809339 0.360707 0.281898
O O1 0.336604 0.931478 0.694758
O O2 0.000000 0.803187 0.500000
O O3 0.056229 0.981471 0.768147
O O4 0.255374 0.774213 0.910750
O O5 0.657028 0.604136 0.778536
O O6 0.670510 0.857473 0.742574
O O7 0.000000 0.722068 0.000000
O O8 0.400358 0.396501 0.727458
O O9 0.500000 0.557478 0.000000
O O10 0.773290 0.419523 0.060699
O O11 0.843711 0.215292 0.246880
O O12 0.000000 0.149011 0.000000
O O13 0.653478 0.073402 0.906440
O O14 0.500000 0.048876 0.500000
O O15 0.000000 0.404928 0.500000
#
# Coordination Sequence:
#
# PCOD9114148 Si02
#       6
#     2   2   2   2   2   2
#     4  11  22  37  66  94 129 171 210 258 340 392
#     4  11  21  40  63  92 135 169 210 273 322 386
#     4   8  21  39  63  87 127 163 228 258 316 368
#     4  11  22  39  63  95 132 165 212 269 323 388
#     4  11  23  39  63 100 131 165 214 262 331 400
#     4   9  21  41  68  89 127 170 227 265 325 376
#
# _framework density 22.924641999999999
#
# number of rings (size 3 to 8) (size 9 to 14) (size 15 to 20)
#    1.000    0.667    0.000    7.500    4.667    1.333 
#    3.000    0.000    0.000    0.000    0.000    0.000 
#    0.000    0.000    0.000    0.000    0.000    0.000 
#
# Total GULP energy -66860.595548 kJ/mol
# GULP energy per Si atom -5571.716296 kJ/mol
# Density = 2.287246 g / cm^3
# Si number density = 22.924642 Si / 1000 Ang^3
#
#
#
# Elastic Constant Matrix: (Units=GPa)
#
#
# Indices 1 2 3 4 5 6 
#
# 1 93.5370 15.7779 26.0001 0.0000 17.5931 0.0000
# 2 15.7779 80.3893 14.6979 0.0000 11.7855 0.0000
# 3 26.0001 14.6979 126.7333 0.0000 17.5339 0.0000
# 4 0.0000 0.0000 0.0000 19.6297 0.0000 9.0714
# 5 17.5931 11.7855 17.5339 0.0000 28.1972 0.0000
# 6 0.0000 0.0000 0.0000 9.0714 0.0000 24.8449
#
#
#
# Elastic Compliance Matrix: (Units=1/GPa)
#
#
# Indices 1 2 3 4 5 6 
#
# 1 0.012522 -0.001247 -0.001549 0.000000 -0.006329 0.000000
# 2 -0.001247 0.013458 -0.000694 0.000000 -0.004416 0.000000
# 3 -0.001549 -0.000694 0.008879 0.000000 -0.004265 0.000000
# 4 0.000000 0.000000 0.000000 0.061284 0.000000 -0.022376
# 5 -0.006329 -0.004416 -0.004265 0.000000 0.043911 0.000000
# 6 0.000000 0.000000 0.000000 -0.022376 0.000000 0.048420
#
#
# Mechanical properties :
#
#
# Convention : Reuss Voigt Hill
#
# Bulk Modulus (GPa) = 35.86788 45.95681 40.91234
# Shear Modulus (GPa) = 24.42046 30.81327 27.61687
#
# Velocity S-wave (km/s) = 3.26736 3.67019 3.47462
# Velocity P-wave (km/s) = 5.46938 6.16853 5.82945
#
# Compressibility (1/GPa) = 0.02788010
#
# Stress axis : x y z
#
# Youngs Moduli (GPa) = 79.85863 74.30291 112.62697
#
# Poissons Ratio (x) = 0.09263 0.17444
# Poissons Ratio (y) = 0.09956 0.07818
# Poissons Ratio (z) = 0.12369 0.05158
#
# Static dielectric constant tensor:
#      x y z
#    x 1.915380 0.000000 0.026180 
#    y 0.000000 1.865910 0.000000 
#    z 0.026180 0.000000 1.872960 
# 
# From -- ./inp_files/5727.got.cif
#   From: 2010.05.17/outbox.cif.g08.bks.cpg/sg3_3_cif.got.tgz:5727.got - 2010.06.03 18:33:08.
