data_PCOD9114591
_publ_section_title
;
Structure prediction by ZEFSAII (Michael W. Deem and Ramdas Pophale) SiO2 
 PCOD9114591
Probable space group: P 21
;
_chemical_formula_sum "Si O2"
_cell_formula_units_Z 16
_cell_length_a 8.122896
_cell_length_b 13.879777
_cell_length_c 8.724383
_cell_angle_alpha 90.000000
_cell_angle_beta 134.428582
_cell_angle_gamma 90.000000
_cell_volume 702.427439
_symmetry_space_group_name_H-M "P 21"
_symmetry_group_IT_number 4
_symmetry_cell_setting 'monoclinic'
loop_
_space_group_symop_operation_xyz
x,y,z
-x,1/2+y,-z
loop_
_atom_site_type_symbol
_atom_site_label
_atom_site_fract_x
_atom_site_fract_y
_atom_site_fract_z
Si Si1 0.518950 0.783710 0.393283
Si Si2 0.261978 0.726472 0.696082
Si Si3 0.878435 0.626855 0.594431
Si Si4 0.551912 0.468262 0.452744
Si Si5 0.862360 0.884528 0.402886
Si Si6 0.540181 0.905059 0.952391
Si Si7 0.838377 0.547550 0.243315
Si Si8 0.775648 0.136410 0.659576
O O1 0.735477 0.714109 0.577614
O O2 0.450302 0.867960 0.462994
O O3 0.628167 0.840194 0.321096
O O4 0.302130 0.711194 0.259346
O O5 0.462337 0.793172 0.893164
O O6 0.305303 0.676612 0.560582
O O7 0.145247 0.653427 0.742137
O O8 0.059371 0.804554 0.533799
O O9 0.788421 0.529366 0.612743
O O10 0.786852 0.614536 0.357424
O O11 0.490348 0.444226 0.238102
O O12 0.359100 0.538951 0.392645
O O13 0.965069 0.974112 0.563368
O O14 0.790454 0.912162 0.186198
O O15 0.370400 0.977526 0.935249
O O16 0.955862 0.611023 0.188526
#
# Coordination Sequence:
#
# PCOD9114591 Si02
#       8
#     2   2   2   2   2   2   2   2
#     4  10  18  33  60  85 109 150 184 228 287 329
#     4   9  18  36  59  81 111 152 188 230 276 334
#     4   8  18  32  55  83 108 143 192 224 270 340
#     4  10  18  33  60  85 109 150 184 228 287 329
#     4  10  20  36  61  84 112 151 191 226 279 341
#     4  10  20  36  61  84 112 151 191 226 279 341
#     4   9  18  36  59  81 111 152 188 230 276 334
#     4  10  18  34  59  83 114 147 188 234 282 328
#
# _framework density 22.778153
#
# number of rings (size 3 to 8) (size 9 to 14) (size 15 to 20)
#    0.000    2.500    2.500    0.000    0.000    0.000 
#    0.000   16.250    5.500    0.000    0.000    0.000 
#    0.000    0.000    0.000    0.000    0.000    0.000 
#
# Total GULP energy -89236.664718 kJ/mol
# GULP energy per Si atom -5577.291545 kJ/mol
# Density = 2.272631 g / cm^3
# Si number density = 22.778153 Si / 1000 Ang^3
#
#
#
# Elastic Constant Matrix: (Units=GPa)
#
#
# Indices 1 2 3 4 5 6 
#
# 1 91.4081 35.4130 -3.4748 0.0000 -1.6628 0.0000
# 2 35.4130 114.5422 13.7521 0.0000 -0.1312 0.0000
# 3 -3.4748 13.7521 31.4890 0.0000 6.6079 0.0000
# 4 0.0000 0.0000 0.0000 3.2691 0.0000 -4.9142
# 5 -1.6628 -0.1312 6.6079 0.0000 5.0635 0.0000
# 6 0.0000 0.0000 0.0000 -4.9142 0.0000 68.0172
#
#
#
# Elastic Compliance Matrix: (Units=1/GPa)
#
#
# Indices 1 2 3 4 5 6 
#
# 1 0.012746 -0.004346 0.003374 0.000000 -0.000330 0.000000
# 2 -0.004346 0.010911 -0.006892 0.000000 0.007849 0.000000
# 3 0.003374 -0.006892 0.048123 0.000000 -0.061872 0.000000
# 4 0.000000 0.000000 0.000000 0.343162 0.000000 0.024793
# 5 -0.000330 0.007849 -0.061872 0.000000 0.278330 0.000000
# 6 0.000000 0.000000 0.000000 0.024793 0.000000 0.016493
#
#
# Mechanical properties :
#
#
# Convention : Reuss Voigt Hill
#
# Bulk Modulus (GPa) = 17.84074 36.53552 27.18813
# Shear Modulus (GPa) = 6.71884 28.05324 17.38604
#
# Velocity S-wave (km/s) = 1.71933 3.51320 2.76574
# Velocity P-wave (km/s) = 3.43378 5.70362 4.70756
#
# Compressibility (1/GPa) = 0.05605149
#
# Stress axis : x y z
#
# Youngs Moduli (GPa) = 78.45627 91.65472 20.78010
#
# Poissons Ratio (x) = 0.39834 -0.07011
# Poissons Ratio (y) = 0.34098 0.14321
# Poissons Ratio (z) = -0.26470 0.63165
#
# Static dielectric constant tensor:
#      x y z
#    x 1.907200 0.000000 -0.005990 
#    y 0.000000 1.905150 0.000000 
#    z -0.005990 0.000000 1.770800 
# 
# From -- ./inp_files/6579.got.cif
#   From: 2010.05.17/outbox.cif.g08.bks.cpg/sg4_4_cif.got.tgz:6579.got - 2010.06.03 18:43:04.
