data_PCOD9114714
_publ_section_title
;
Structure prediction by ZEFSAII (Michael W. Deem and Ramdas Pophale) SiO2 
 PCOD9114714
Probable space group: P 21
;
_chemical_formula_sum "Si O2"
_cell_formula_units_Z 10
_cell_length_a 9.213522
_cell_length_b 8.493120
_cell_length_c 6.979946
_cell_angle_alpha 90.000000
_cell_angle_beta 73.224170
_cell_angle_gamma 90.000000
_cell_volume 522.946397
_symmetry_space_group_name_H-M "P 21"
_symmetry_group_IT_number 4
_symmetry_cell_setting 'monoclinic'
loop_
_space_group_symop_operation_xyz
x,y,z
-x,1/2+y,-z
loop_
_atom_site_type_symbol
_atom_site_label
_atom_site_fract_x
_atom_site_fract_y
_atom_site_fract_z
Si Si1 0.088348 0.803290 0.774368
Si Si2 0.688743 0.131087 0.043932
Si Si3 0.179835 0.080595 0.010935
Si Si4 0.220103 0.818983 0.319013
Si Si5 0.542743 0.791455 0.116743
O O1 0.111360 0.819238 0.539861
O O2 0.932180 0.721681 0.892747
O O3 0.220876 0.689073 0.806663
O O4 0.111166 0.967675 0.875087
O O5 0.795691 0.170250 0.819257
O O6 0.543894 0.242156 0.047600
O O7 0.631395 0.954360 0.071091
O O8 0.339618 0.153384 0.884995
O O9 0.602113 0.310300 0.688632
O O10 0.200784 0.970582 0.190096
#
# Coordination Sequence:
#
# PCOD9114714 Si02
#       5
#     2   2   2   2   2
#     4  11  23  39  61  87 120 153 199 236 294 350
#     4   9  19  38  60  86 117 154 191 239 289 341
#     4  11  23  40  59  88 121 154 191 246 291 340
#     4   9  21  39  60  85 116 154 198 235 286 348
#     4  10  18  42  62  82 126 151 189 248 288 341
#
# _framework density 19.122420999999999
#
# number of rings (size 3 to 8) (size 9 to 14) (size 15 to 20)
#    1.200    0.800    2.000    1.200    0.000    6.400 
#    0.000    0.000    0.000    0.000    0.000    0.000 
#    0.000    0.000    0.000    0.000    0.000    0.000 
#
# Total GULP energy -55697.634224 kJ/mol
# GULP energy per Si atom -5569.763422 kJ/mol
# Density = 1.907890 g / cm^3
# Si number density = 19.122421 Si / 1000 Ang^3
#
#
#
# Elastic Constant Matrix: (Units=GPa)
#
#
# Indices 1 2 3 4 5 6 
#
# 1 50.4149 0.6852 -12.5983 0.0000 -0.0445 0.0000
# 2 0.6852 42.1507 1.7271 0.0000 1.8076 0.0000
# 3 -12.5983 1.7271 57.5721 0.0000 -5.8931 0.0000
# 4 0.0000 0.0000 0.0000 10.3332 0.0000 3.6536
# 5 -0.0445 1.8076 -5.8931 0.0000 12.1379 0.0000
# 6 0.0000 0.0000 0.0000 3.6536 0.0000 50.1713
#
#
#
# Elastic Compliance Matrix: (Units=1/GPa)
#
#
# Indices 1 2 3 4 5 6 
#
# 1 0.021069 -0.000652 0.004891 0.000000 0.002549 0.000000
# 2 -0.000652 0.023968 -0.001292 0.000000 -0.004199 0.000000
# 3 0.004891 -0.001292 0.019468 0.000000 0.009662 0.000000
# 4 0.000000 0.000000 0.000000 0.099333 0.000000 -0.007234
# 5 0.002549 -0.004199 0.009662 0.000000 0.087712 0.000000
# 6 0.000000 0.000000 0.000000 -0.007234 0.000000 0.020458
#
#
# Mechanical properties :
#
#
# Convention : Reuss Voigt Hill
#
# Bulk Modulus (GPa) = 14.20484 14.41840 14.31162
# Shear Modulus (GPa) = 17.26638 25.21671 21.24155
#
# Velocity S-wave (km/s) = 3.00815 3.63533 3.33651
# Velocity P-wave (km/s) = 4.41699 5.01769 4.72689
#
# Compressibility (1/GPa) = 0.07039855
#
# Stress axis : x y z
#
# Youngs Moduli (GPa) = 47.46369 41.72228 51.36760
#
# Poissons Ratio (x) = 0.02721 -0.25123
# Poissons Ratio (y) = 0.03096 0.06634
# Poissons Ratio (z) = -0.23214 0.05389
#
# Static dielectric constant tensor:
#      x y z
#    x 1.708280 0.000000 -0.003760 
#    y 0.000000 1.664660 0.000000 
#    z -0.003760 0.000000 1.632330 
# 
# From -- ./inp_files/981.got.cif
#   From: 2010.05.17/outbox.cif.g08.bks.cpg/sg4_1_cif.got.tgz:981.got - 2010.06.03 18:43:04.
