data_PCOD9114396
_publ_section_title
;
Structure prediction by ZEFSAII (Michael W. Deem and Ramdas Pophale) SiO2 
 PCOD9114396
Probable space group: P 2
;
_chemical_formula_sum "Si O2"
_cell_formula_units_Z 14
_cell_length_a 16.401628
_cell_length_b 6.388675
_cell_length_c 7.525364
_cell_angle_alpha 90.000000
_cell_angle_beta 46.670136
_cell_angle_gamma 90.000000
_cell_volume 573.598005
_symmetry_space_group_name_H-M "P 2"
_symmetry_group_IT_number 3
_symmetry_cell_setting 'monoclinic'
loop_
_space_group_symop_operation_xyz
x,y,z
-x,y,-z
loop_
_atom_site_type_symbol
_atom_site_label
_atom_site_fract_x
_atom_site_fract_y
_atom_site_fract_z
Si Si1 0.500000 0.476591 0.500000
Si Si2 0.500000 0.828595 0.000000
Si Si3 0.745509 0.605179 0.026166
Si Si4 0.907186 0.609502 0.280254
Si Si5 0.945280 0.294493 0.757333
Si Si6 0.311736 0.500362 0.282757
Si Si7 0.828425 0.966709 0.166657
Si Si8 0.593979 0.160389 0.647589
O O1 0.615316 0.594171 0.280558
O O2 0.535831 0.330456 0.610589
O O3 0.399969 0.675774 0.195527
O O4 0.495001 0.979608 0.176835
O O5 0.803799 0.792231 0.048922
O O6 0.822233 0.399863 0.937084
O O7 0.738138 0.596933 0.823203
O O8 0.790596 0.491998 0.428310
O O9 0.872413 0.846288 0.279387
O O10 0.967805 0.491096 0.351484
O O11 0.000000 0.555726 0.000000
O O12 0.000000 0.187714 0.500000
O O13 0.921294 0.122331 0.945530
O O14 0.369166 0.276855 0.223264
O O15 0.708035 0.069066 0.392305
#
# Coordination Sequence:
#
# PCOD9114396 Si02
#       8
#     1   1   2   2   2   2   2   2
#     4  12  26  48  82 110 168 202 250 336 388 460
#     4  12  26  46  76 110 156 204 258 312 396 472
#     4  12  27  50  76 113 157 204 258 321 393 458
#     4  12  25  50  80 110 154 203 253 329 387 453
#     4  12  27  54  77 111 159 204 260 321 393 462
#     4  12  27  49  77 110 160 203 254 330 389 463
#     4  12  28  50  80 117 151 205 271 314 387 471
#     4  12  27  48  75 119 155 207 262 315 393 470
#
# _framework density 24.407335
#
# number of rings (size 3 to 8) (size 9 to 14) (size 15 to 20)
#    0.000    0.000    5.714    3.857    4.000    4.571 
#    0.000    0.000    0.000    0.000    0.000    0.000 
#    0.000    0.000    0.000    0.000    0.000    0.000 
#
# Total GULP energy -78039.330757 kJ/mol
# GULP energy per Si atom -5574.237911 kJ/mol
# Density = 2.435178 g / cm^3
# Si number density = 24.407335 Si / 1000 Ang^3
#
#
#
# Elastic Constant Matrix: (Units=GPa)
#
#
# Indices 1 2 3 4 5 6 
#
# 1 64.7607 40.5083 16.4079 0.0000 -13.3358 0.0000
# 2 40.5083 83.4989 26.7496 0.0000 -9.7085 0.0000
# 3 16.4079 26.7496 130.0872 0.0000 -34.5908 0.0000
# 4 0.0000 0.0000 0.0000 -64.6923 0.0000 -55.4885
# 5 -13.3358 -9.7085 -34.5908 0.0000 40.8423 0.0000
# 6 0.0000 0.0000 0.0000 -55.4885 0.0000 9.3083
#
#
#
# Elastic Compliance Matrix: (Units=1/GPa)
#
#
# Indices 1 2 3 4 5 6 
#
# 1 0.023194 -0.010853 0.000818 0.000000 0.005687 0.000000
# 2 -0.010853 0.017934 -0.002746 0.000000 -0.001606 0.000000
# 3 0.000818 -0.002746 0.010385 0.000000 0.008410 0.000000
# 4 0.000000 0.000000 0.000000 -0.002529 0.000000 -0.015074
# 5 0.005687 -0.001606 0.008410 0.000000 0.033082 0.000000
# 6 0.000000 0.000000 0.000000 -0.015074 0.000000 0.017574
#
#
# Mechanical properties :
#
#
# Convention : Reuss Voigt Hill
#
# Bulk Modulus (GPa) = 38.53372 49.51982 44.02677
# Shear Modulus (GPa) = 37.35455 10.07038 23.71247
#
# Velocity S-wave (km/s) = 3.91636 2.03345 3.12032
# Velocity P-wave (km/s) = 6.02267 5.08391 5.57309
#
# Compressibility (1/GPa) = 0.02595130
#
# Stress axis : x y z
#
# Youngs Moduli (GPa) = 43.11480 55.75868 96.29472
#
# Poissons Ratio (x) = 0.60516 -0.07880
# Poissons Ratio (y) = 0.46793 0.26443
# Poissons Ratio (z) = -0.03528 0.15312
#
# Static dielectric constant tensor:
#      x y z
#    x 2.332000 0.000000 -0.037370 
#    y 0.000000 1.939540 0.000000 
#    z -0.037370 0.000000 2.016580 
# 
# From -- ./inp_files/8848.got.cif
#   From: 2010.05.17/outbox.cif.g08.bks.cpg/sg3_5_cif.got.tgz:8848.got - 2010.06.03 18:33:08.
