data_PCOD9114667
_publ_section_title
;
Structure prediction by ZEFSAII (Michael W. Deem and Ramdas Pophale) SiO2 
 PCOD9114667
Probable space group: P 21
;
_chemical_formula_sum "Si O2"
_cell_formula_units_Z 14
_cell_length_a 9.740558
_cell_length_b 9.297026
_cell_length_c 9.002345
_cell_angle_alpha 90.000000
_cell_angle_beta 136.801390
_cell_angle_gamma 90.000000
_cell_volume 558.053265
_symmetry_space_group_name_H-M "P 21"
_symmetry_group_IT_number 4
_symmetry_cell_setting 'monoclinic'
loop_
_space_group_symop_operation_xyz
x,y,z
-x,1/2+y,-z
loop_
_atom_site_type_symbol
_atom_site_label
_atom_site_fract_x
_atom_site_fract_y
_atom_site_fract_z
Si Si1 0.256326 0.054680 0.776685
Si Si2 0.756256 0.755557 0.487230
Si Si3 0.747275 0.231696 0.739113
Si Si4 0.824745 0.993658 0.326443
Si Si5 0.760594 0.255282 0.102449
Si Si6 0.165582 0.287159 0.926000
Si Si7 0.581321 0.915744 0.619901
O O1 0.319955 0.119401 0.667435
O O2 0.284170 0.160515 0.937328
O O3 0.011137 0.055677 0.565355
O O4 0.311760 0.894634 0.865667
O O5 0.673086 0.796037 0.580101
O O6 0.996308 0.748520 0.691621
O O7 0.706456 0.891249 0.343570
O O8 0.648998 0.367360 0.575207
O O9 0.980285 0.228639 0.876404
O O10 0.645517 0.076659 0.624026
O O11 0.721868 0.257172 0.896203
O O12 0.697327 0.113813 0.142697
O O13 0.912068 0.889794 0.267464
O O14 0.313658 0.381433 0.142399
#
# Coordination Sequence:
#
# PCOD9114667 Si02
#       7
#     2   2   2   2   2   2   2
#     4   9  20  35  71  99 125 175 221 275 338 402
#     4   9  19  41  65  95 133 170 223 278 332 401
#     4  12  27  42  67 103 138 180 228 280 336 409
#     4   9  18  37  69  96 125 175 227 267 335 399
#     4  10  18  37  65  99 131 169 224 273 332 404
#     4  11  23  44  72  94 133 181 221 277 342 400
#     4  12  27  44  67 102 139 178 230 280 337 405
#
# _framework density 25.087212000000001
#
# number of rings (size 3 to 8) (size 9 to 14) (size 15 to 20)
#    0.000    1.714    2.857    2.571    2.000    2.286 
#    0.000    1.429   25.143    0.000    0.000    0.000 
#    0.000    0.000    0.000    0.000    0.000    0.000 
#
# Total GULP energy -78364.919589 kJ/mol
# GULP energy per Si atom -5597.494256 kJ/mol
# Density = 2.503011 g / cm^3
# Si number density = 25.087212 Si / 1000 Ang^3
#
#
#
# Elastic Constant Matrix: (Units=GPa)
#
#
# Indices 1 2 3 4 5 6 
#
# 1 82.5256 23.9599 19.5687 0.0000 -7.2531 0.0000
# 2 23.9599 134.3700 16.9273 0.0000 -8.6328 0.0000
# 3 19.5687 16.9273 95.7190 0.0000 4.0295 0.0000
# 4 0.0000 0.0000 0.0000 41.0019 0.0000 -7.9130
# 5 -7.2531 -8.6328 4.0295 0.0000 37.6002 0.0000
# 6 0.0000 0.0000 0.0000 -7.9130 0.0000 21.8054
#
#
#
# Elastic Compliance Matrix: (Units=1/GPa)
#
#
# Indices 1 2 3 4 5 6 
#
# 1 0.013489 -0.001932 -0.002518 0.000000 0.002428 0.000000
# 2 -0.001932 0.008026 -0.001091 0.000000 0.001587 0.000000
# 3 -0.002518 -0.001091 0.011237 0.000000 -0.001941 0.000000
# 4 0.000000 0.000000 0.000000 0.026226 0.000000 0.009517
# 5 0.002428 0.001587 -0.001941 0.000000 0.027636 0.000000
# 6 0.000000 0.000000 0.000000 0.009517 0.000000 0.049314
#
#
# Mechanical properties :
#
#
# Convention : Reuss Voigt Hill
#
# Bulk Modulus (GPa) = 46.14915 48.16961 47.15938
# Shear Modulus (GPa) = 32.41837 36.89209 34.65523
#
# Velocity S-wave (km/s) = 3.59866 3.83894 3.72074
# Velocity P-wave (km/s) = 5.97516 6.23638 6.10717
#
# Compressibility (1/GPa) = 0.02166887
#
# Stress axis : x y z
#
# Youngs Moduli (GPa) = 74.13490 124.59419 88.99389
#
# Poissons Ratio (x) = 0.24072 0.22411
# Poissons Ratio (y) = 0.14323 0.09711
# Poissons Ratio (z) = 0.18669 0.13596
#
# Static dielectric constant tensor:
#      x y z
#    x 2.000120 0.000000 0.078420 
#    y 0.000000 1.985500 0.000000 
#    z 0.078420 0.000000 1.964260 
# 
# From -- ./inp_files/7486.got.cif
#   From: 2010.05.17/outbox.cif.g08.bks.cpg/sg4_4_cif.got.tgz:7486.got - 2010.06.03 18:43:04.
