data_PCOD9114481
_publ_section_title
;
Structure prediction by ZEFSAII (Michael W. Deem and Ramdas Pophale) SiO2 
 PCOD9114481
Probable space group: P 21
;
_chemical_formula_sum "Si O2"
_cell_formula_units_Z 14
_cell_length_a 7.122036
_cell_length_b 5.404610
_cell_length_c 20.543331
_cell_angle_alpha 90.000000
_cell_angle_beta 134.647926
_cell_angle_gamma 90.000000
_cell_volume 562.570213
_symmetry_space_group_name_H-M "P 21"
_symmetry_group_IT_number 4
_symmetry_cell_setting 'monoclinic'
loop_
_space_group_symop_operation_xyz
x,y,z
-x,1/2+y,-z
loop_
_atom_site_type_symbol
_atom_site_label
_atom_site_fract_x
_atom_site_fract_y
_atom_site_fract_z
Si Si1 0.358429 0.390720 0.246344
Si Si2 0.138243 0.890208 0.154318
Si Si3 0.955400 0.375717 0.716579
Si Si4 0.064581 0.946890 0.553328
Si Si5 0.876122 0.376517 0.234359
Si Si6 0.426132 0.372548 0.021249
Si Si7 0.453926 0.294849 0.518040
O O1 0.298684 0.636271 0.190324
O O2 0.642454 0.405052 0.348890
O O3 0.129886 0.386625 0.246661
O O4 0.310245 0.138238 0.194960
O O5 0.011081 0.888214 0.197037
O O6 0.887925 0.893641 0.045913
O O7 0.645557 0.349013 0.625658
O O8 0.073437 0.624156 0.716000
O O9 0.105082 0.138127 0.726391
O O10 0.833231 0.909453 0.548450
O O11 0.982647 0.722399 0.485060
O O12 0.608247 0.361841 0.128863
O O13 0.483345 0.118665 0.995817
O O14 0.571833 0.498355 0.495736
#
# Coordination Sequence:
#
# PCOD9114481 Si02
#       7
#     2   2   2   2   2   2   2
#     4  10  18  29  46  72 106 141 182 225 287 337
#     4  10  18  29  47  78 115 147 179 237 293 356
#     4  10  18  32  49  70 102 148 188 226 288 344
#     4  12  23  40  64  89 115 156 209 257 309 372
#     4  10  17  28  48  77 113 145 181 234 293 354
#     4  12  16  27  43  76 120 152 178 222 309 360
#     4  12  26  43  61  86 123 161 207 261 307 357
#
# _framework density 24.885784999999998
#
# number of rings (size 3 to 8) (size 9 to 14) (size 15 to 20)
#    0.000    1.143    5.714    6.000    0.000    0.000 
#    0.000    0.000    0.000    0.000    0.000    0.000 
#    0.000   38.857    0.000    0.000    0.000    0.000 
#
# Total GULP energy -78283.785529 kJ/mol
# GULP energy per Si atom -5591.698966 kJ/mol
# Density = 2.482914 g / cm^3
# Si number density = 24.885785 Si / 1000 Ang^3
#
#
#
# Elastic Constant Matrix: (Units=GPa)
#
#
# Indices 1 2 3 4 5 6 
#
# 1 30.8732 1.8910 19.0905 0.0000 12.4312 0.0000
# 2 1.8910 244.9634 62.6007 0.0000 7.1376 0.0000
# 3 19.0905 62.6007 227.0582 0.0000 38.6484 0.0000
# 4 0.0000 0.0000 0.0000 34.1436 0.0000 3.5680
# 5 12.4312 7.1376 38.6484 0.0000 26.5098 0.0000
# 6 0.0000 0.0000 0.0000 3.5680 0.0000 12.8167
#
#
#
# Elastic Compliance Matrix: (Units=1/GPa)
#
#
# Indices 1 2 3 4 5 6 
#
# 1 0.039960 0.000308 -0.000321 0.000000 -0.018354 0.000000
# 2 0.000308 0.004406 -0.001349 0.000000 0.000636 0.000000
# 3 -0.000321 -0.001349 0.006272 0.000000 -0.008630 0.000000
# 4 0.000000 0.000000 0.000000 0.030166 0.000000 -0.008398
# 5 -0.018354 0.000636 -0.008630 0.000000 0.058740 0.000000
# 6 0.000000 0.000000 0.000000 -0.008398 0.000000 0.080361
#
#
# Mechanical properties :
#
#
# Convention : Reuss Voigt Hill
#
# Bulk Modulus (GPa) = 20.86991 74.45102 47.66046
# Shear Modulus (GPa) = 20.95564 42.64820 31.80192
#
# Velocity S-wave (km/s) = 2.90500 4.14425 3.57867
# Velocity P-wave (km/s) = 4.43356 7.27198 6.02238
#
# Compressibility (1/GPa) = 0.04791588
#
# Stress axis : x y z
#
# Youngs Moduli (GPa) = 25.02480 226.96074 159.43857
#
# Poissons Ratio (x) = -0.06996 0.05112
# Poissons Ratio (y) = -0.00771 0.21506
# Poissons Ratio (z) = 0.00802 0.30614
#
# Static dielectric constant tensor:
#      x y z
#    x 2.033560 0.000000 -0.012060 
#    y 0.000000 2.086560 0.000000 
#    z -0.012060 0.000000 1.956600 
# 
# From -- ./inp_files/8582.got.cif
#   From: 2010.05.17/outbox.cif.g08.bks.cpg/sg4_5_cif.got.tgz:8582.got - 2010.06.03 18:43:04.
