data_PCOD9114333
_publ_section_title
;
Structure prediction by ZEFSAII (Michael W. Deem and Ramdas Pophale) SiO2 
 PCOD9114333
Probable space group: P 2
;
_chemical_formula_sum "Si O2"
_cell_formula_units_Z 7
_cell_length_a 9.108318
_cell_length_b 5.002774
_cell_length_c 9.347069
_cell_angle_alpha 90.000000
_cell_angle_beta 136.984542
_cell_angle_gamma 90.000000
_cell_volume 290.558418
_symmetry_space_group_name_H-M "P 2"
_symmetry_group_IT_number 3
_symmetry_cell_setting 'monoclinic'
loop_
_space_group_symop_operation_xyz
x,y,z
-x,y,-z
loop_
_atom_site_type_symbol
_atom_site_label
_atom_site_fract_x
_atom_site_fract_y
_atom_site_fract_z
Si Si1 0.149843 0.327380 0.800359
Si Si2 0.583981 0.197222 0.280963
Si Si3 0.146190 0.831958 0.364963
Si Si4 0.500000 0.548414 0.500000
O O1 0.233011 0.299285 0.697245
O O2 0.037246 0.613734 0.737229
O O3 0.360332 0.248018 0.041432
O O4 0.975575 0.111141 0.727149
O O5 0.555526 0.360951 0.406537
O O6 0.668109 0.899645 0.383193
O O7 0.288729 0.733731 0.333085
#
# Coordination Sequence:
#
# PCOD9114333 Si02
#       4
#     2   2   2   1
#     4  11  29  49  86 108 152 210 266 305 397 458
#     4  11  28  53  77 119 153 201 265 325 372 486
#     4  12  27  50  77 115 153 206 248 328 382 461
#     4  12  28  50  74 116 162 188 260 326 394 448
#
# _framework density 24.091539999999998
#
# number of rings (size 3 to 8) (size 9 to 14) (size 15 to 20)
#    0.000    0.571    2.857    1.714   12.000    3.429 
#    5.143    0.000    0.000    0.000    0.000    0.000 
#    0.000    0.000    0.000    0.000    0.000    0.000 
#
# Total GULP energy -39125.467562 kJ/mol
# GULP energy per Si atom -5589.352509 kJ/mol
# Density = 2.403671 g / cm^3
# Si number density = 24.091540 Si / 1000 Ang^3
#
#
#
# Elastic Constant Matrix: (Units=GPa)
#
#
# Indices 1 2 3 4 5 6 
#
# 1 165.7107 41.1769 48.3482 0.0000 30.9916 0.0000
# 2 41.1769 142.3683 39.4149 0.0000 13.3836 0.0000
# 3 48.3482 39.4149 112.6310 0.0000 31.9804 0.0000
# 4 0.0000 0.0000 0.0000 31.2241 0.0000 19.7022
# 5 30.9916 13.3836 31.9804 0.0000 26.6688 0.0000
# 6 0.0000 0.0000 0.0000 19.7022 0.0000 51.1602
#
#
#
# Elastic Compliance Matrix: (Units=1/GPa)
#
#
# Indices 1 2 3 4 5 6 
#
# 1 0.008051 -0.001387 -0.000776 0.000000 -0.007730 0.000000
# 2 -0.001387 0.008033 -0.002318 0.000000 0.000360 0.000000
# 3 -0.000776 -0.002318 0.014308 0.000000 -0.015093 0.000000
# 4 0.000000 0.000000 0.000000 0.042307 0.000000 -0.016293
# 5 -0.007730 0.000360 -0.015093 0.000000 0.064398 0.000000
# 6 0.000000 0.000000 0.000000 -0.016293 0.000000 0.025821
#
#
# Mechanical properties :
#
#
# Convention : Reuss Voigt Hill
#
# Bulk Modulus (GPa) = 46.66224 75.39889 61.03057
# Shear Modulus (GPa) = 27.92907 41.26196 34.59552
#
# Velocity S-wave (km/s) = 3.40853 4.14299 3.79357
# Velocity P-wave (km/s) = 5.90775 7.36550 6.67653
#
# Compressibility (1/GPa) = 0.02143060
#
# Stress axis : x y z
#
# Youngs Moduli (GPa) = 124.20291 124.48452 69.88922
#
# Poissons Ratio (x) = 0.17269 0.05423
# Poissons Ratio (y) = 0.17230 0.16200
# Poissons Ratio (z) = 0.09637 0.28856
#
# Static dielectric constant tensor:
#      x y z
#    x 1.897230 0.000000 0.049010 
#    y 0.000000 1.934790 0.000000 
#    z 0.049010 0.000000 2.077000 
# 
# From -- ./inp_files/4820.got.cif
#   From: 2010.05.17/outbox.cif.g08.bks.cpg/sg3_3_cif.got.tgz:4820.got - 2010.06.03 18:33:08.
