data_PCOD9114820
_publ_section_title
;
Structure prediction by ZEFSAII (Michael W. Deem and Ramdas Pophale) SiO2 
 PCOD9114820
Probable space group: P 21
;
_chemical_formula_sum "Si O2"
_cell_formula_units_Z 16
_cell_length_a 26.271676
_cell_length_b 5.251110
_cell_length_c 9.633964
_cell_angle_alpha 90.000000
_cell_angle_beta 153.545742
_cell_angle_gamma 90.000000
_cell_volume 592.072986
_symmetry_space_group_name_H-M "P 21"
_symmetry_group_IT_number 4
_symmetry_cell_setting 'monoclinic'
loop_
_space_group_symop_operation_xyz
x,y,z
-x,1/2+y,-z
loop_
_atom_site_type_symbol
_atom_site_label
_atom_site_fract_x
_atom_site_fract_y
_atom_site_fract_z
Si Si1 0.807122 0.495010 0.307754
Si Si2 0.057285 0.076941 0.104102
Si Si3 0.343163 0.181647 0.690100
Si Si4 0.832870 0.684448 0.979187
Si Si5 0.560345 0.350163 0.613246
Si Si6 0.301501 0.683375 0.302083
Si Si7 0.577209 0.176967 0.099971
Si Si8 0.940986 0.989612 0.550150
O O1 0.832024 0.558682 0.530360
O O2 0.872998 0.722404 0.385544
O O3 0.856994 0.215112 0.393348
O O4 0.675150 0.474790 0.954077
O O5 0.975436 0.874824 0.989688
O O6 0.034436 0.941937 0.901841
O O7 0.223856 0.196339 0.317129
O O8 0.374277 0.428740 0.852473
O O9 0.379503 0.932515 0.859924
O O10 0.443671 0.179305 0.812101
O O11 0.770082 0.440225 0.886636
O O12 0.785893 0.948613 0.927263
O O13 0.967606 0.630952 0.327178
O O14 0.484970 0.606716 0.409900
O O15 0.598595 0.208066 0.564764
O O16 0.355349 0.674025 0.586851
#
# Coordination Sequence:
#
# PCOD9114820 Si02
#       8
#     2   2   2   2   2   2   2   2
#     4  10  21  40  64  90 128 167 211 273 317 366
#     4   8  16  32  58  88 124 162 202 249 313 376
#     4   8  14  25  45  73 108 153 188 225 280 358
#     4  10  19  34  59  92 127 163 194 244 321 398
#     4  12  26  46  68  88 117 170 234 283 321 362
#     4  10  21  38  59  84 124 165 203 265 314 361
#     4   8  14  27  47  69 106 152 194 230 288 344
#     4  10  19  36  64  98 130 166 198 251 330 407
#
# _framework density 27.023696999999999
#
# number of rings (size 3 to 8) (size 9 to 14) (size 15 to 20)
#    0.000    2.500    0.000    2.250    0.000    0.000 
#    2.250    2.500   11.000    0.000    0.000    0.000 
#    0.000    0.000    0.000    0.000    0.000    0.000 
#
# Total GULP energy -89367.166532 kJ/mol
# GULP energy per Si atom -5585.447908 kJ/mol
# Density = 2.696219 g / cm^3
# Si number density = 27.023697 Si / 1000 Ang^3
#
#
#
# Elastic Constant Matrix: (Units=GPa)
#
#
# Indices 1 2 3 4 5 6 
#
# 1 47.1147 15.5722 26.6684 0.0000 -6.5176 0.0000
# 2 15.5722 256.0291 55.9432 0.0000 15.4202 0.0000
# 3 26.6684 55.9432 137.4969 0.0000 11.9858 0.0000
# 4 0.0000 0.0000 0.0000 51.1364 0.0000 4.8895
# 5 -6.5176 15.4202 11.9858 0.0000 39.6919 0.0000
# 6 0.0000 0.0000 0.0000 4.8895 0.0000 29.5171
#
#
#
# Elastic Compliance Matrix: (Units=1/GPa)
#
#
# Indices 1 2 3 4 5 6 
#
# 1 0.025190 -0.000780 -0.005089 0.000000 0.005976 0.000000
# 2 -0.000780 0.004365 -0.001505 0.000000 -0.001369 0.000000
# 3 -0.005089 -0.001505 0.009135 0.000000 -0.003009 0.000000
# 4 0.000000 0.000000 0.000000 0.019870 0.000000 -0.003291
# 5 0.005976 -0.001369 -0.003009 0.000000 0.027616 0.000000
# 6 0.000000 0.000000 0.000000 -0.003291 0.000000 0.034424
#
#
# Mechanical properties :
#
#
# Convention : Reuss Voigt Hill
#
# Bulk Modulus (GPa) = 41.77057 70.77871 56.27464
# Shear Modulus (GPa) = 34.88483 46.89954 40.89219
#
# Velocity S-wave (km/s) = 3.59680 4.17045 3.89420
# Velocity P-wave (km/s) = 5.72188 7.03124 6.41008
#
# Compressibility (1/GPa) = 0.02394030
#
# Stress axis : x y z
#
# Youngs Moduli (GPa) = 39.69820 229.11613 109.47207
#
# Poissons Ratio (x) = 0.17871 0.55714
# Poissons Ratio (y) = 0.03096 0.16478
# Poissons Ratio (z) = 0.20204 0.34486
#
# Static dielectric constant tensor:
#      x y z
#    x 2.319580 0.000000 -0.007480 
#    y 0.000000 2.234280 0.000000 
#    z -0.007480 0.000000 2.113840 
# 
# From -- ./inp_files/13149.got.cif
#   From: 2010.05.17/outbox.cif.g08.bks.cpg/sg4_7_cif.got.tgz:13149.got - 2010.06.03 18:43:04.
