data_PCOD9114227
_publ_section_title
;
Structure prediction by ZEFSAII (Michael W. Deem and Ramdas Pophale) SiO2 
 PCOD9114227
Probable space group: P 2
;
_chemical_formula_sum "Si O2"
_cell_formula_units_Z 10
_cell_length_a 15.209695
_cell_length_b 5.260735
_cell_length_c 5.072634
_cell_angle_alpha 90.000000
_cell_angle_beta 67.920969
_cell_angle_gamma 90.000000
_cell_volume 376.117732
_symmetry_space_group_name_H-M "P 2"
_symmetry_group_IT_number 3
_symmetry_cell_setting 'monoclinic'
loop_
_space_group_symop_operation_xyz
x,y,z
-x,y,-z
loop_
_atom_site_type_symbol
_atom_site_label
_atom_site_fract_x
_atom_site_fract_y
_atom_site_fract_z
Si Si1 0.909623 0.939710 0.921129
Si Si2 0.352481 0.421117 0.740301
Si Si3 0.598239 0.119891 0.831391
Si Si4 0.846243 0.431580 0.757016
Si Si5 0.258073 0.779398 0.522312
O O1 0.818518 0.924661 0.217436
O O2 0.911976 0.660987 0.786759
O O3 0.000000 0.989430 0.000000
O O4 0.896150 0.160178 0.719487
O O5 0.388907 0.233088 0.473772
O O6 0.347676 0.690694 0.598806
O O7 0.402682 0.348861 0.954492
O O8 0.242136 0.404700 0.944675
O O9 0.692368 0.948103 0.760053
O O10 0.500000 0.979199 0.000000
O O11 0.796749 0.542663 0.550862
#
# Coordination Sequence:
#
# PCOD9114227 Si02
#       5
#     2   2   2   2   2
#     4  11  25  46  76 117 156 203 261 322 390 469
#     4  11  24  47  74 107 151 204 253 320 390 460
#     4  12  26  48  74 112 155 203 266 326 388 463
#     4  11  23  46  78 107 156 206 256 319 393 465
#     4  11  26  47  77 108 156 208 260 322 393 470
#
# _framework density 26.587418
#
# number of rings (size 3 to 8) (size 9 to 14) (size 15 to 20)
#    0.000    0.800    4.000    2.400    2.800    1.600 
#    3.600    6.000    0.000    0.000    0.000    0.000 
#    0.000    0.000    0.000    0.000    0.000    0.000 
#
# Total GULP energy -55970.201892 kJ/mol
# GULP energy per Si atom -5597.020189 kJ/mol
# Density = 2.652690 g / cm^3
# Si number density = 26.587418 Si / 1000 Ang^3
#
#
#
# Elastic Constant Matrix: (Units=GPa)
#
#
# Indices 1 2 3 4 5 6 
#
# 1 95.4013 45.1675 43.1042 0.0000 1.3356 0.0000
# 2 45.1675 145.0805 42.7023 0.0000 3.1848 0.0000
# 3 43.1042 42.7023 138.3538 0.0000 10.7514 0.0000
# 4 0.0000 0.0000 0.0000 16.0592 0.0000 16.9331
# 5 1.3356 3.1848 10.7514 0.0000 54.9505 0.0000
# 6 0.0000 0.0000 0.0000 16.9331 0.0000 33.3822
#
#
#
# Elastic Compliance Matrix: (Units=1/GPa)
#
#
# Indices 1 2 3 4 5 6 
#
# 1 0.013477 -0.003255 -0.003232 0.000000 0.000494 0.000000
# 2 -0.003255 0.008368 -0.001561 0.000000 -0.000100 0.000000
# 3 -0.003232 -0.001561 0.008838 0.000000 -0.001560 0.000000
# 4 0.000000 0.000000 0.000000 0.133871 0.000000 -0.067906
# 5 0.000494 -0.000100 -0.001560 0.000000 0.018497 0.000000
# 6 0.000000 0.000000 0.000000 -0.067906 0.000000 0.064401
#
#
# Mechanical properties :
#
#
# Convention : Reuss Voigt Hill
#
# Bulk Modulus (GPa) = 68.55937 71.19816 69.87877
# Shear Modulus (GPa) = 18.62825 37.40250 28.01538
#
# Velocity S-wave (km/s) = 2.64984 3.75477 3.24961
# Velocity P-wave (km/s) = 5.93334 6.75535 6.35764
#
# Compressibility (1/GPa) = 0.01458590
#
# Stress axis : x y z
#
# Youngs Moduli (GPa) = 74.20221 119.50701 113.14988
#
# Poissons Ratio (x) = 0.38901 0.36574
# Poissons Ratio (y) = 0.24154 0.17659
# Poissons Ratio (z) = 0.23985 0.18652
#
# Static dielectric constant tensor:
#      x y z
#    x 2.137730 0.000000 0.048920 
#    y 0.000000 2.173150 0.000000 
#    z 0.048920 0.000000 2.034310 
# 
# From -- ./inp_files/2796.got.cif
#   From: 2010.05.17/outbox.cif.g08.bks.cpg/sg3_2_cif.got.tgz:2796.got - 2010.06.03 18:33:08.
