data_PCOD9114985
_publ_section_title
;
Structure prediction by ZEFSAII (Michael W. Deem and Ramdas Pophale) SiO2 
 PCOD9114985
Probable space group: P 21
;
_chemical_formula_sum "Si O2"
_cell_formula_units_Z 16
_cell_length_a 9.321187
_cell_length_b 5.512269
_cell_length_c 15.296579
_cell_angle_alpha 90.000000
_cell_angle_beta 74.416019
_cell_angle_gamma 90.000000
_cell_volume 757.058459
_symmetry_space_group_name_H-M "P 21"
_symmetry_group_IT_number 4
_symmetry_cell_setting 'monoclinic'
loop_
_space_group_symop_operation_xyz
x,y,z
-x,1/2+y,-z
loop_
_atom_site_type_symbol
_atom_site_label
_atom_site_fract_x
_atom_site_fract_y
_atom_site_fract_z
Si Si1 0.199255 0.131480 0.967967
Si Si2 0.399382 0.207322 0.627206
Si Si3 0.215523 0.715531 0.254564
Si Si4 0.394132 0.097974 0.309609
Si Si5 0.114056 0.632454 0.076371
Si Si6 0.668036 0.945207 0.521977
Si Si7 0.072562 0.696406 0.458213
Si Si8 0.447841 0.998785 0.795822
O O1 0.353941 0.097257 0.891338
O O2 0.059593 0.130748 0.923314
O O3 0.184930 0.384019 0.024331
O O4 0.179125 0.884012 0.026602
O O5 0.509115 0.410640 0.649234
O O6 0.288287 0.324806 0.576564
O O7 0.357377 0.069720 0.722350
O O8 0.496639 0.025316 0.551941
O O9 0.144529 0.652157 0.174140
O O10 0.104429 0.649506 0.351080
O O11 0.382086 0.599036 0.231973
O O12 0.262470 0.990375 0.272042
O O13 0.323474 0.276374 0.393734
O O14 0.515259 0.216919 0.224201
O O15 0.766274 0.179891 0.522836
O O16 0.992851 0.458936 0.510658
#
# Coordination Sequence:
#
# PCOD9114985 Si02
#       8
#     2   2   2   2   2   2   2   2
#     4  10  24  48  69 105 132 175 221 281 346 409
#     4  10  20  34  62  91 121 176 217 281 331 379
#     4  11  24  43  68  98 132 182 226 280 342 400
#     4  10  19  38  63  93 132 172 220 289 330 389
#     4  10  25  46  74  95 141 176 217 277 346 423
#     4  11  20  37  60  89 130 176 231 268 334 388
#     4  12  27  43  63  94 140 183 226 278 330 404
#     4  10  23  39  69  97 134 172 228 290 331 404
#
# _framework density 21.134430999999999
#
# number of rings (size 3 to 8) (size 9 to 14) (size 15 to 20)
#    0.000    1.500    5.000    0.750    5.250    2.000 
#    2.250    0.000    0.000    0.000    0.000    0.000 
#    0.000    0.000    0.000    0.000    0.000    0.000 
#
# Total GULP energy -89144.607108 kJ/mol
# GULP energy per Si atom -5571.537944 kJ/mol
# Density = 2.108633 g / cm^3
# Si number density = 21.134431 Si / 1000 Ang^3
#
#
#
# Elastic Constant Matrix: (Units=GPa)
#
#
# Indices 1 2 3 4 5 6 
#
# 1 43.4959 30.8624 61.1346 0.0000 5.3648 0.0000
# 2 30.8624 107.9715 51.7642 0.0000 0.4408 0.0000
# 3 61.1346 51.7642 143.9241 0.0000 14.2618 0.0000
# 4 0.0000 0.0000 0.0000 26.0500 0.0000 -2.3303
# 5 5.3648 0.4408 14.2618 0.0000 35.2583 0.0000
# 6 0.0000 0.0000 0.0000 -2.3303 0.0000 33.9222
#
#
#
# Elastic Compliance Matrix: (Units=1/GPa)
#
#
# Indices 1 2 3 4 5 6 
#
# 1 0.060079 -0.005946 -0.023422 0.000000 0.000407 0.000000
# 2 -0.005946 0.011862 -0.001891 0.000000 0.001521 0.000000
# 3 -0.023422 -0.001891 0.017941 0.000000 -0.003670 0.000000
# 4 0.000000 0.000000 0.000000 0.038625 0.000000 0.002653
# 5 0.000407 0.001521 -0.003670 0.000000 0.029766 0.000000
# 6 0.000000 0.000000 0.000000 0.002653 0.000000 0.029661
#
#
# Mechanical properties :
#
#
# Convention : Reuss Voigt Hill
#
# Bulk Modulus (GPa) = 36.54427 64.76824 50.65626
# Shear Modulus (GPa) = 19.26244 29.15478 24.20861
#
# Velocity S-wave (km/s) = 3.02226 3.71818 3.38813
# Velocity P-wave (km/s) = 5.43209 7.01039 6.27109
#
# Compressibility (1/GPa) = 0.02736407
#
# Stress axis : x y z
#
# Youngs Moduli (GPa) = 16.64477 84.30414 55.73881
#
# Poissons Ratio (x) = 0.50124 1.30549
# Poissons Ratio (y) = 0.09896 0.10543
# Poissons Ratio (z) = 0.38985 0.15946
#
# Static dielectric constant tensor:
#      x y z
#    x 1.775260 0.000000 -0.013210 
#    y 0.000000 1.898440 0.000000 
#    z -0.013210 0.000000 1.768520 
# 
# From -- ./inp_files/13444.got.cif
#   From: 2010.05.17/outbox.cif.g08.bks.cpg/sg4_7_cif.got.tgz:13444.got - 2010.06.03 18:43:04.
