data_PCOD9114496
_publ_section_title
;
Structure prediction by ZEFSAII (Michael W. Deem and Ramdas Pophale) SiO2 
 PCOD9114496
Probable space group: P 21
;
_chemical_formula_sum "Si O2"
_cell_formula_units_Z 16
_cell_length_a 10.499096
_cell_length_b 9.420140
_cell_length_c 8.921688
_cell_angle_alpha 90.000000
_cell_angle_beta 63.704023
_cell_angle_gamma 90.000000
_cell_volume 791.070310
_symmetry_space_group_name_H-M "P 21"
_symmetry_group_IT_number 4
_symmetry_cell_setting 'monoclinic'
loop_
_space_group_symop_operation_xyz
x,y,z
-x,1/2+y,-z
loop_
_atom_site_type_symbol
_atom_site_label
_atom_site_fract_x
_atom_site_fract_y
_atom_site_fract_z
Si Si1 0.471115 0.440030 0.959549
Si Si2 0.210951 0.643120 0.584610
Si Si3 0.791636 0.541036 0.792511
Si Si4 0.612377 0.161469 0.783939
Si Si5 0.004166 0.061721 0.565313
Si Si6 0.044928 0.316076 0.182256
Si Si7 0.113879 0.752971 0.161028
Si Si8 0.798033 0.014083 0.101002
O O1 0.624950 0.514121 0.866521
O O2 0.497625 0.275066 0.905793
O O3 0.350221 0.493286 0.909078
O O4 0.422186 0.500068 0.147884
O O5 0.348586 0.677813 0.411776
O O6 0.101699 0.584904 0.517724
O O7 0.231824 0.534486 0.709134
O O8 0.118407 0.768601 0.709580
O O9 0.849131 0.689607 0.825901
O O10 0.863990 0.420193 0.859591
O O11 0.852073 0.521484 0.592919
O O12 0.751779 0.206939 0.804880
O O13 0.941464 0.941019 0.703462
O O14 0.014610 0.200409 0.665985
O O15 0.098908 0.384300 0.999203
O O16 0.127981 0.655708 0.007519
#
# Coordination Sequence:
#
# PCOD9114496 Si02
#       8
#     2   2   2   2   2   2   2   2
#     4  10  19  34  57  82 112 149 183 221 270 326
#     4  10  21  36  57  82 113 143 177 231 286 319
#     4  10  17  30  56  84 106 140 195 230 255 318
#     4   9  18  35  56  78 105 145 189 224 262 319
#     4   9  17  33  55  80 104 138 187 236 276 312
#     4  10  20  35  58  82 105 142 190 231 267 325
#     4   8  17  32  53  77 107 142 176 225 280 316
#     4  10  21  37  54  79 116 147 171 218 288 335
#
# _framework density 20.225764000000002
#
# number of rings (size 3 to 8) (size 9 to 14) (size 15 to 20)
#    0.000    2.500    0.000    4.500    0.000    2.000 
#    0.000    5.000    0.000   15.000    0.000    0.000 
#    0.000    0.000    0.000    0.000    0.000    0.000 
#
# Total GULP energy -89099.764781 kJ/mol
# GULP energy per Si atom -5568.735299 kJ/mol
# Density = 2.017973 g / cm^3
# Si number density = 20.225764 Si / 1000 Ang^3
#
#
#
# Elastic Constant Matrix: (Units=GPa)
#
#
# Indices 1 2 3 4 5 6 
#
# 1 31.4698 16.2497 23.0458 0.0000 -9.6326 0.0000
# 2 16.2497 92.2277 51.9445 0.0000 -1.9817 0.0000
# 3 23.0458 51.9445 117.8575 0.0000 2.2977 0.0000
# 4 0.0000 0.0000 0.0000 21.3232 0.0000 -6.8280
# 5 -9.6326 -1.9817 2.2977 0.0000 30.4691 0.0000
# 6 0.0000 0.0000 0.0000 -6.8280 0.0000 17.0800
#
#
#
# Elastic Compliance Matrix: (Units=1/GPa)
#
#
# Indices 1 2 3 4 5 6 
#
# 1 0.043019 -0.003178 -0.007283 0.000000 0.013943 0.000000
# 2 -0.003178 0.014719 -0.005874 0.000000 0.000396 0.000000
# 3 -0.007283 -0.005874 0.012569 0.000000 -0.003632 0.000000
# 4 0.000000 0.000000 0.000000 0.053782 0.000000 0.021500
# 5 0.013943 0.000396 -0.003632 0.000000 0.037528 0.000000
# 6 0.000000 0.000000 0.000000 0.021500 0.000000 0.067143
#
#
# Mechanical properties :
#
#
# Convention : Reuss Voigt Hill
#
# Bulk Modulus (GPa) = 26.56949 47.11502 36.84226
# Shear Modulus (GPa) = 18.24988 23.79545 21.02267
#
# Velocity S-wave (km/s) = 3.00710 3.43372 3.22747
# Velocity P-wave (km/s) = 5.02214 6.25026 5.66955
#
# Compressibility (1/GPa) = 0.03763715
#
# Stress axis : x y z
#
# Youngs Moduli (GPa) = 23.24572 67.93780 79.56385
#
# Poissons Ratio (x) = 0.21591 0.57946
# Poissons Ratio (y) = 0.07387 0.46733
# Poissons Ratio (z) = 0.16930 0.39905
#
# Static dielectric constant tensor:
#      x y z
#    x 1.734240 0.000000 -0.054990 
#    y 0.000000 1.811500 0.000000 
#    z -0.054990 0.000000 1.817750 
# 
# From -- ./inp_files/7815.got.cif
#   From: 2010.05.17/outbox.cif.g08.bks.cpg/sg4_4_cif.got.tgz:7815.got - 2010.06.03 18:43:04.
