data_PCOD9114001
_publ_section_title
;
Structure prediction by ZEFSAII (Michael W. Deem and Ramdas Pophale) SiO2 
 PCOD9114001
Probable space group: P 2
;
_chemical_formula_sum "Si O2"
_cell_formula_units_Z 15
_cell_length_a 25.316559
_cell_length_b 4.983654
_cell_length_c 15.330169
_cell_angle_alpha 90.000000
_cell_angle_beta 18.224020
_cell_angle_gamma 90.000000
_cell_volume 604.885837
_symmetry_space_group_name_H-M "P 2"
_symmetry_group_IT_number 3
_symmetry_cell_setting 'monoclinic'
loop_
_space_group_symop_operation_xyz
x,y,z
-x,y,-z
loop_
_atom_site_type_symbol
_atom_site_label
_atom_site_fract_x
_atom_site_fract_y
_atom_site_fract_z
Si Si1 0.422296 0.757480 0.906898
Si Si2 0.828247 0.507415 0.573296
Si Si3 0.145428 0.798622 0.014925
Si Si4 0.948272 0.073517 0.177937
Si Si5 0.023341 0.101973 0.373928
Si Si6 0.500000 0.942897 0.500000
Si Si7 0.725460 0.579183 0.555843
Si Si8 0.379321 0.269093 0.858183
O O1 0.570463 0.640607 0.735937
O O2 0.429658 0.561140 0.811965
O O3 0.428696 0.055676 0.857334
O O4 0.255577 0.720001 0.229158
O O5 0.699387 0.472006 0.695285
O O6 0.873020 0.265165 0.566088
O O7 0.005590 0.563354 0.242585
O O8 0.100755 0.934492 0.175868
O O9 0.100594 0.999979 0.005429
O O10 0.344286 0.759456 0.711020
O O11 0.862374 0.365625 0.303996
O O12 0.806218 0.874548 0.437919
O O13 0.000000 0.987880 0.000000
O O14 0.000000 0.941346 0.500000
O O15 0.177125 0.293867 0.162129
O O16 0.451511 0.138797 0.656636
#
# Coordination Sequence:
#
# PCOD9114001 Si02
#       8
#     2   2   2   2   2   1   2   2
#     4  12  26  46  74 106 145 186 245 304 365 436
#     4  11  24  44  71 108 142 193 235 310 363 441
#     4  10  24  44  70 102 148 186 249 292 371 425
#     4  11  24  46  71 103 140 195 235 301 352 440
#     4  11  21  41  68 100 139 188 235 294 356 437
#     4  10  26  48  70 104 148 196 240 304 352 444
#     4  11  25  45  72 105 143 182 248 291 375 419
#     4  11  27  46  68 106 142 194 236 300 365 429
#
# _framework density 24.798069000000002
#
# number of rings (size 3 to 8) (size 9 to 14) (size 15 to 20)
#    0.000    1.067    2.667    2.400    7.467    1.067 
#    2.400    2.667    0.000    0.000    0.000    0.000 
#    0.000    0.000    0.000    0.000    0.000    0.000 
#
# Total GULP energy -83718.374606 kJ/mol
# GULP energy per Si atom -5581.224974 kJ/mol
# Density = 2.474163 g / cm^3
# Si number density = 24.798069 Si / 1000 Ang^3
#
#
#
# Elastic Constant Matrix: (Units=GPa)
#
#
# Indices 1 2 3 4 5 6 
#
# 1 167.6355 19.8908 46.2636 0.0000 -0.6385 0.0000
# 2 19.8908 84.1534 16.1822 0.0000 -16.2471 0.0000
# 3 46.2636 16.1822 90.0898 0.0000 -14.1460 0.0000
# 4 0.0000 0.0000 0.0000 29.3616 0.0000 -0.7905
# 5 -0.6385 -16.2471 -14.1460 0.0000 51.9271 0.0000
# 6 0.0000 0.0000 0.0000 -0.7905 0.0000 39.6322
#
#
#
# Elastic Compliance Matrix: (Units=1/GPa)
#
#
# Indices 1 2 3 4 5 6 
#
# 1 0.007109 -0.001230 -0.003632 0.000000 -0.001287 0.000000
# 2 -0.001230 0.013122 -0.001131 0.000000 0.003782 0.000000
# 3 -0.003632 -0.001131 0.013691 0.000000 0.003331 0.000000
# 4 0.000000 0.000000 0.000000 0.034076 0.000000 0.000680
# 5 -0.001287 0.003782 0.003331 0.000000 0.021333 0.000000
# 6 0.000000 0.000000 0.000000 0.000680 0.000000 0.025246
#
#
# Mechanical properties :
#
#
# Convention : Reuss Voigt Hill
#
# Bulk Modulus (GPa) = 45.58884 56.28354 50.93619
# Shear Modulus (GPa) = 37.34850 41.48699 39.41775
#
# Velocity S-wave (km/s) = 3.88507 4.09466 3.99124
# Velocity P-wave (km/s) = 6.20878 6.71573 6.46722
#
# Compressibility (1/GPa) = 0.02193519
#
# Stress axis : x y z
#
# Youngs Moduli (GPa) = 140.67401 76.21014 73.03966
#
# Poissons Ratio (x) = 0.09376 0.26525
# Poissons Ratio (y) = 0.17308 0.08263
# Poissons Ratio (z) = 0.51086 0.08621
#
# Static dielectric constant tensor:
#      x y z
#    x 1.820910 0.000000 -0.137770 
#    y 0.000000 1.980490 0.000000 
#    z -0.137770 0.000000 2.074090 
# 
# From -- ./inp_files/14396.got.cif
#   From: 2010.05.17/outbox.cif.g08.bks.cpg/sg3_8_cif.got.tgz:14396.got - 2010.06.03 18:33:08.
