data_PCOD9114548
_publ_section_title
;
Structure prediction by ZEFSAII (Michael W. Deem and Ramdas Pophale) SiO2 
 PCOD9114548
Probable space group: P 21
;
_chemical_formula_sum "Si O2"
_cell_formula_units_Z 16
_cell_length_a 7.182746
_cell_length_b 8.154536
_cell_length_c 15.391063
_cell_angle_alpha 90.000000
_cell_angle_beta 141.103980
_cell_angle_gamma 90.000000
_cell_volume 566.050378
_symmetry_space_group_name_H-M "P 21"
_symmetry_group_IT_number 4
_symmetry_cell_setting 'monoclinic'
loop_
_space_group_symop_operation_xyz
x,y,z
-x,1/2+y,-z
loop_
_atom_site_type_symbol
_atom_site_label
_atom_site_fract_x
_atom_site_fract_y
_atom_site_fract_z
Si Si1 0.631870 0.171970 0.287997
Si Si2 0.425321 0.427189 0.459385
Si Si3 0.429358 0.125081 0.776668
Si Si4 0.021878 0.855248 0.464571
Si Si5 0.794417 0.631306 0.713752
Si Si6 0.713227 0.448332 0.944583
Si Si7 0.204100 0.433001 0.967697
Si Si8 0.086217 0.610365 0.202464
O O1 0.857584 0.316279 0.395190
O O2 0.367248 0.203086 0.260178
O O3 0.474315 0.113465 0.143322
O O4 0.792507 0.002039 0.372996
O O5 0.705765 0.403030 0.497484
O O6 0.583591 0.479349 0.605702
O O7 0.235359 0.261663 0.374927
O O8 0.228497 0.572920 0.346521
O O9 0.530174 0.284511 0.868207
O O10 0.651100 0.115194 0.774155
O O11 0.123767 0.187650 0.624449
O O12 0.501570 0.978169 0.870375
O O13 0.108384 0.568351 0.861313
O O14 0.957128 0.442388 0.955723
O O15 0.875967 0.463137 0.094643
O O16 0.115640 0.269136 0.884109
#
# Coordination Sequence:
#
# PCOD9114548 Si02
#       8
#     2   2   2   2   2   2   2   2
#     4   9  19  34  53  80 111 143 181 229 279 332
#     4  11  22  35  55  80 111 146 184 228 277 332
#     4   9  17  31  51  78 111 143 177 224 276 330
#     4  10  20  33  54  82 115 147 179 223 281 340
#     4  10  21  36  53  77 106 143 186 229 272 323
#     4   8  16  29  47  76 108 136 176 224 268 316
#     4   9  17  30  52  76 103 137 179 227 271 317
#     4  10  18  30  53  83 109 141 184 232 278 320
#
# _framework density 28.266037000000001
#
# number of rings (size 3 to 8) (size 9 to 14) (size 15 to 20)
#    0.000    2.500    0.000    3.000    0.000    8.000 
#    0.000    0.000    0.000   12.000    0.000    3.500 
#    0.000    0.000    0.000    0.000    0.000    0.000 
#
# Total GULP energy -89556.126523 kJ/mol
# GULP energy per Si atom -5597.257908 kJ/mol
# Density = 2.820170 g / cm^3
# Si number density = 28.266037 Si / 1000 Ang^3
#
#
#
# Elastic Constant Matrix: (Units=GPa)
#
#
# Indices 1 2 3 4 5 6 
#
# 1 89.6088 -22.7954 -7.0414 0.0000 -4.6922 0.0000
# 2 -22.7954 99.3147 19.9159 0.0000 6.8148 0.0000
# 3 -7.0414 19.9159 181.0422 0.0000 -14.0929 0.0000
# 4 0.0000 0.0000 0.0000 69.3019 0.0000 -0.7560
# 5 -4.6922 6.8148 -14.0929 0.0000 15.2396 0.0000
# 6 0.0000 0.0000 0.0000 -0.7560 0.0000 11.2951
#
#
#
# Elastic Compliance Matrix: (Units=1/GPa)
#
#
# Indices 1 2 3 4 5 6 
#
# 1 0.011975 0.002458 0.000428 0.000000 0.002983 0.000000
# 2 0.002458 0.011353 -0.001605 0.000000 -0.005805 0.000000
# 3 0.000428 -0.001605 0.006231 0.000000 0.006612 0.000000
# 4 0.000000 0.000000 0.000000 0.014440 0.000000 0.000966
# 5 0.002983 -0.005805 0.006612 0.000000 0.075247 0.000000
# 6 0.000000 0.000000 0.000000 0.000966 0.000000 0.088599
#
#
# Mechanical properties :
#
#
# Convention : Reuss Voigt Hill
#
# Bulk Modulus (GPa) = 31.13274 38.90265 35.01769
# Shear Modulus (GPa) = 23.14908 44.49309 33.82108
#
# Velocity S-wave (km/s) = 2.86487 3.97178 3.46284
# Velocity P-wave (km/s) = 4.68844 5.90138 5.32953
#
# Compressibility (1/GPa) = 0.03212052
#
# Stress axis : x y z
#
# Youngs Moduli (GPa) = 83.50913 88.07942 160.47537
#
# Poissons Ratio (x) = -0.21651 -0.06861
# Poissons Ratio (y) = -0.20527 0.25759
# Poissons Ratio (z) = -0.03570 0.14138
#
# Static dielectric constant tensor:
#      x y z
#    x 2.143560 0.000000 0.028140 
#    y 0.000000 2.287560 0.000000 
#    z 0.028140 0.000000 2.164480 
# 
# From -- ./inp_files/7673.got.cif
#   From: 2010.05.17/outbox.cif.g08.bks.cpg/sg4_4_cif.got.tgz:7673.got - 2010.06.03 18:43:04.
