data_PCOD9114391
_publ_section_title
;
Structure prediction by ZEFSAII (Michael W. Deem and Ramdas Pophale) SiO2 
 PCOD9114391
Probable space group: P 2
;
_chemical_formula_sum "Si O2"
_cell_formula_units_Z 11
_cell_length_a 5.730318
_cell_length_b 5.123701
_cell_length_c 15.242140
_cell_angle_alpha 90.000000
_cell_angle_beta 70.658254
_cell_angle_gamma 90.000000
_cell_volume 422.258030
_symmetry_space_group_name_H-M "P 2"
_symmetry_group_IT_number 3
_symmetry_cell_setting 'monoclinic'
loop_
_space_group_symop_operation_xyz
x,y,z
-x,y,-z
loop_
_atom_site_type_symbol
_atom_site_label
_atom_site_fract_x
_atom_site_fract_y
_atom_site_fract_z
Si Si1 0.181224 0.161650 0.857841
Si Si2 0.897606 0.836710 0.770836
Si Si3 0.500000 0.216572 0.500000
Si Si4 0.351300 0.454922 0.679954
Si Si5 0.405086 0.656364 0.913423
Si Si6 0.210406 0.837572 0.407058
O O1 0.346459 0.218379 0.749847
O O2 0.222393 0.424194 0.907520
O O3 0.932366 0.058429 0.841378
O O4 0.272560 0.928507 0.907862
O O5 0.137201 0.649245 0.740116
O O6 0.655311 0.671558 0.824635
O O7 0.885279 0.946397 0.673869
O O8 0.310615 0.377309 0.583842
O O9 0.362285 0.043101 0.445653
O O10 0.609346 0.603290 0.641621
O O11 0.500000 0.629128 0.000000
O O12 0.000000 0.749387 0.500000
#
# Coordination Sequence:
#
# PCOD9114391 Si02
#       6
#     2   2   1   2   2   2
#     4  12  26  54  78 120 161 203 276 328 402 506
#     4  12  26  50  82 112 166 217 263 343 411 475
#     4  12  26  44  70 112 164 204 284 326 388 506
#     4  12  25  48  74 111 164 208 274 332 397 496
#     4  12  29  55  84 120 163 209 270 339 415 490
#     4  12  25  47  73 114 161 217 270 336 407 477
#
# _framework density 26.050422000000001
#
# number of rings (size 3 to 8) (size 9 to 14) (size 15 to 20)
#    0.000    0.000    3.636    6.545    2.545    4.364 
#    6.545    1.818    0.000    0.000    0.000    0.000 
#    0.000    0.000    0.000    0.000    0.000    0.000 
#
# Total GULP energy -61656.284133 kJ/mol
# GULP energy per Si atom -5605.116739 kJ/mol
# Density = 2.599113 g / cm^3
# Si number density = 26.050422 Si / 1000 Ang^3
#
#
#
# Elastic Constant Matrix: (Units=GPa)
#
#
# Indices 1 2 3 4 5 6 
#
# 1 95.1572 38.8682 47.3521 0.0000 17.5084 0.0000
# 2 38.8682 141.0518 35.4156 0.0000 23.4101 0.0000
# 3 47.3521 35.4156 173.8417 0.0000 40.0033 0.0000
# 4 0.0000 0.0000 0.0000 24.4345 0.0000 13.1615
# 5 17.5084 23.4101 40.0033 0.0000 77.8163 0.0000
# 6 0.0000 0.0000 0.0000 13.1615 0.0000 9.1165
#
#
#
# Elastic Compliance Matrix: (Units=1/GPa)
#
#
# Indices 1 2 3 4 5 6 
#
# 1 0.013207 -0.002810 -0.002876 0.000000 -0.000648 0.000000
# 2 -0.002810 0.008264 -0.000558 0.000000 -0.001567 0.000000
# 3 -0.002876 -0.000558 0.007329 0.000000 -0.002953 0.000000
# 4 0.000000 0.000000 0.000000 0.184053 0.000000 -0.265717
# 5 -0.000648 -0.001567 -0.002953 0.000000 0.014986 0.000000
# 6 0.000000 0.000000 0.000000 -0.265717 0.000000 0.493306
#
#
# Mechanical properties :
#
#
# Convention : Reuss Voigt Hill
#
# Bulk Modulus (GPa) = 61.29980 72.59138 66.94559
# Shear Modulus (GPa) = 6.76527 41.50113 24.13320
#
# Velocity S-wave (km/s) = 1.61327 3.99571 3.04699
# Velocity P-wave (km/s) = 5.20120 7.01525 6.17520
#
# Compressibility (1/GPa) = 0.01631327
#
# Stress axis : x y z
#
# Youngs Moduli (GPa) = 75.71816 121.00751 136.44859
#
# Poissons Ratio (x) = 0.33999 0.39241
# Poissons Ratio (y) = 0.21274 0.07608
# Poissons Ratio (z) = 0.21776 0.06747
#
# Static dielectric constant tensor:
#      x y z
#    x 2.056990 0.000000 0.016720 
#    y 0.000000 2.093830 0.000000 
#    z 0.016720 0.000000 2.062100 
# 
# From -- ./inp_files/12785.got.cif
#   From: 2010.05.17/outbox.cif.g08.bks.cpg/sg3_7_cif.got.tgz:12785.got - 2010.06.03 18:33:08.
