data_PCOD9114562
_publ_section_title
;
Structure prediction by ZEFSAII (Michael W. Deem and Ramdas Pophale) SiO2 
 PCOD9114562
Probable space group: P 21
;
_chemical_formula_sum "Si O2"
_cell_formula_units_Z 16
_cell_length_a 8.918760
_cell_length_b 11.772982
_cell_length_c 7.096396
_cell_angle_alpha 90.000000
_cell_angle_beta 121.109344
_cell_angle_gamma 90.000000
_cell_volume 637.962743
_symmetry_space_group_name_H-M "P 21"
_symmetry_group_IT_number 4
_symmetry_cell_setting 'monoclinic'
loop_
_space_group_symop_operation_xyz
x,y,z
-x,1/2+y,-z
loop_
_atom_site_type_symbol
_atom_site_label
_atom_site_fract_x
_atom_site_fract_y
_atom_site_fract_z
Si Si1 0.285136 0.666090 0.630896
Si Si2 0.369851 0.009146 0.118276
Si Si3 0.951565 0.251448 0.226777
Si Si4 0.390252 0.345729 0.892057
Si Si5 0.057636 0.465870 0.497352
Si Si6 0.315837 0.161577 0.570203
Si Si7 0.260834 0.917862 0.448471
Si Si8 0.786817 0.722776 0.900560
O O1 0.461217 0.592287 0.738902
O O2 0.129225 0.583591 0.459492
O O3 0.294433 0.789270 0.537186
O O4 0.221347 0.694159 0.804225
O O5 0.224239 0.105022 0.992055
O O6 0.437621 0.921384 0.007906
O O7 0.305980 0.936775 0.257816
O O8 0.963521 0.383667 0.287062
O O9 0.107564 0.190530 0.451897
O O10 0.018982 0.239384 0.057227
O O11 0.240173 0.408189 0.675953
O O12 0.417083 0.230179 0.792672
O O13 0.303232 0.318359 0.034151
O O14 0.934672 0.451073 0.603598
O O15 0.328399 0.209282 0.365759
O O16 0.359886 0.029094 0.597865
#
# Coordination Sequence:
#
# PCOD9114562 Si02
#       8
#     2   2   2   2   2   2   2   2
#     4  10  18  31  58  85 114 153 192 236 288 346
#     4  10  22  34  54  87 123 153 192 240 288 352
#     4   8  16  33  59  79 110 143 192 240 286 333
#     4  10  20  37  61  82 112 159 193 232 299 344
#     4   9  17  34  59  85 110 147 199 242 281 347
#     4   8  17  35  61  81 107 150 191 230 295 334
#     4  10  19  33  58  87 118 150 193 244 288 341
#     4   9  19  39  56  80 118 151 188 246 287 335
#
# _framework density 25.079836
#
# number of rings (size 3 to 8) (size 9 to 14) (size 15 to 20)
#    0.750    2.000    1.250    0.000    3.500    0.000 
#    2.250    2.500   19.250    0.000    0.000    0.000 
#    0.000    0.000    0.000    0.000    0.000    0.000 
#
# Total GULP energy -89151.778857 kJ/mol
# GULP energy per Si atom -5571.986179 kJ/mol
# Density = 2.502275 g / cm^3
# Si number density = 25.079836 Si / 1000 Ang^3
#
#
#
# Elastic Constant Matrix: (Units=GPa)
#
#
# Indices 1 2 3 4 5 6 
#
# 1 117.6679 55.9606 33.0835 0.0000 -18.3004 0.0000
# 2 55.9606 137.9426 34.6228 0.0000 -18.4910 0.0000
# 3 33.0835 34.6228 57.0331 0.0000 -4.8897 0.0000
# 4 0.0000 0.0000 0.0000 22.8703 0.0000 -10.8427
# 5 -18.3004 -18.4910 -4.8897 0.0000 36.5945 0.0000
# 6 0.0000 0.0000 0.0000 -10.8427 0.0000 52.9656
#
#
#
# Elastic Compliance Matrix: (Units=1/GPa)
#
#
# Indices 1 2 3 4 5 6 
#
# 1 0.011889 -0.003153 -0.004663 0.000000 0.003729 0.000000
# 2 -0.003153 0.009905 -0.003935 0.000000 0.002903 0.000000
# 3 -0.004663 -0.003935 0.022515 0.000000 -0.001312 0.000000
# 4 0.000000 0.000000 0.000000 0.048424 0.000000 0.009913
# 5 0.003729 0.002903 -0.001312 0.000000 0.030483 0.000000
# 6 0.000000 0.000000 0.000000 0.009913 0.000000 0.020909
#
#
# Mechanical properties :
#
#
# Convention : Reuss Voigt Hill
#
# Bulk Modulus (GPa) = 48.06036 62.21970 55.14003
# Shear Modulus (GPa) = 28.64283 35.08455 31.86369
#
# Velocity S-wave (km/s) = 3.38311 3.74426 3.56826
# Velocity P-wave (km/s) = 5.87070 6.59964 6.24581
#
# Compressibility (1/GPa) = 0.02080717
#
# Stress axis : x y z
#
# Youngs Moduli (GPa) = 84.11188 100.95618 44.41486
#
# Poissons Ratio (x) = 0.31830 0.20710
# Poissons Ratio (y) = 0.26519 0.17479
# Poissons Ratio (z) = 0.39219 0.39730
#
# Static dielectric constant tensor:
#      x y z
#    x 2.033140 0.000000 0.010610 
#    y 0.000000 2.070540 0.000000 
#    z 0.010610 0.000000 1.994340 
# 
# From -- ./inp_files/5986.got.cif
#   From: 2010.05.17/outbox.cif.g08.bks.cpg/sg4_3_cif.got.tgz:5986.got - 2010.06.03 18:43:04.
