data_PCOD9114003
_publ_section_title
;
Structure prediction by ZEFSAII (Michael W. Deem and Ramdas Pophale) SiO2 
 PCOD9114003
Probable space group: P 2
;
_chemical_formula_sum "Si O2"
_cell_formula_units_Z 12
_cell_length_a 10.081779
_cell_length_b 5.300772
_cell_length_c 16.144065
_cell_angle_alpha 90.000000
_cell_angle_beta 145.242935
_cell_angle_gamma 90.000000
_cell_volume 491.856900
_symmetry_space_group_name_H-M "P 2"
_symmetry_group_IT_number 3
_symmetry_cell_setting 'monoclinic'
loop_
_space_group_symop_operation_xyz
x,y,z
-x,y,-z
loop_
_atom_site_type_symbol
_atom_site_label
_atom_site_fract_x
_atom_site_fract_y
_atom_site_fract_z
Si Si1 0.703661 0.845470 0.547896
Si Si2 0.952526 0.163022 0.155006
Si Si3 0.135079 0.534793 0.767756
Si Si4 0.500000 0.917638 0.000000
Si Si5 0.748712 0.278899 0.329644
Si Si6 0.489569 0.796854 0.728089
Si Si7 0.000000 0.936414 0.000000
O O1 0.500000 0.731786 0.500000
O O2 0.574231 0.906887 0.396272
O O3 0.898714 0.655472 0.616171
O O4 0.848872 0.042487 0.680953
O O5 0.923552 0.452758 0.168553
O O6 0.697587 0.058530 0.049170
O O7 0.002463 0.101299 0.085821
O O8 0.343459 0.726871 0.866751
O O9 0.202917 0.309154 0.743059
O O10 0.633841 0.534164 0.308891
O O11 0.000000 0.240196 0.500000
O O12 0.595605 0.033190 0.262400
O O13 0.765939 0.772174 0.878360
#
# Coordination Sequence:
#
# PCOD9114003 Si02
#       7
#     2   2   2   1   2   2   1
#     4  11  24  48  71 104 146 202 255 312 381 460
#     4  11  25  47  73 104 153 198 258 312 385 462
#     4  11  25  43  75 106 146 200 251 315 389 453
#     4  10  24  44  72 106 142 198 248 316 382 462
#     4  12  26  47  79 114 152 196 261 324 385 452
#     4  12  28  49  78 115 157 200 260 323 385 469
#     4  12  28  50  74 116 160 210 258 320 396 462
#
# _framework density 24.397341999999998
#
# number of rings (size 3 to 8) (size 9 to 14) (size 15 to 20)
#    0.000    0.667    3.333    3.000    9.333    2.667 
#    0.000    0.000    0.000    0.000    0.000    0.000 
#    0.000    0.000    0.000    0.000    0.000    0.000 
#
# Total GULP energy -67099.007538 kJ/mol
# GULP energy per Si atom -5591.583962 kJ/mol
# Density = 2.434181 g / cm^3
# Si number density = 24.397342 Si / 1000 Ang^3
#
#
#
# Elastic Constant Matrix: (Units=GPa)
#
#
# Indices 1 2 3 4 5 6 
#
# 1 103.8744 17.1840 58.0508 0.0000 -3.3996 0.0000
# 2 17.1840 67.7442 26.2195 0.0000 8.7141 0.0000
# 3 58.0508 26.2195 151.7126 0.0000 18.4307 0.0000
# 4 0.0000 0.0000 0.0000 194.9435 0.0000 -39.3142
# 5 -3.3996 8.7141 18.4307 0.0000 64.7721 0.0000
# 6 0.0000 0.0000 0.0000 -39.3142 0.0000 22.8163
#
#
#
# Elastic Compliance Matrix: (Units=1/GPa)
#
#
# Indices 1 2 3 4 5 6 
#
# 1 0.012678 -0.001632 -0.004844 0.000000 0.002263 0.000000
# 2 -0.001632 0.016153 -0.001960 0.000000 -0.001701 0.000000
# 3 -0.004844 -0.001960 0.009097 0.000000 -0.002579 0.000000
# 4 0.000000 0.000000 0.000000 0.007861 0.000000 0.013546
# 5 0.002263 -0.001701 -0.002579 0.000000 0.016520 0.000000
# 6 0.000000 0.000000 0.000000 0.013546 0.000000 0.067169
#
#
# Mechanical properties :
#
#
# Convention : Reuss Voigt Hill
#
# Bulk Modulus (GPa) = 47.49506 58.47111 52.98308
# Shear Modulus (GPa) = 32.60078 71.29818 51.94948
#
# Velocity S-wave (km/s) = 3.65943 5.41176 4.61945
# Velocity P-wave (km/s) = 6.11268 7.94152 7.08635
#
# Compressibility (1/GPa) = 0.02105482
#
# Stress axis : x y z
#
# Youngs Moduli (GPa) = 78.87540 61.90800 109.92604
#
# Poissons Ratio (x) = 0.10105 0.53248
# Poissons Ratio (y) = 0.12875 0.21550
# Poissons Ratio (z) = 0.38207 0.12136
#
# Static dielectric constant tensor:
#      x y z
#    x 1.897050 0.000000 0.006630 
#    y 0.000000 1.967900 0.000000 
#    z 0.006630 0.000000 1.805540 
# 
# From -- ./inp_files/8182.got.cif
#   From: 2010.05.17/outbox.cif.g08.bks.cpg/sg3_5_cif.got.tgz:8182.got - 2010.06.03 18:33:08.
