data_PCOD9114724
_publ_section_title
;
Structure prediction by ZEFSAII (Michael W. Deem and Ramdas Pophale) SiO2 
 PCOD9114724
Probable space group: P 21
;
_chemical_formula_sum "Si O2"
_cell_formula_units_Z 16
_cell_length_a 19.982342
_cell_length_b 5.079029
_cell_length_c 6.590386
_cell_angle_alpha 90.000000
_cell_angle_beta 73.973531
_cell_angle_gamma 90.000000
_cell_volume 642.868267
_symmetry_space_group_name_H-M "P 21"
_symmetry_group_IT_number 4
_symmetry_cell_setting 'monoclinic'
loop_
_space_group_symop_operation_xyz
x,y,z
-x,1/2+y,-z
loop_
_atom_site_type_symbol
_atom_site_label
_atom_site_fract_x
_atom_site_fract_y
_atom_site_fract_z
Si Si1 0.382951 0.436510 0.386180
Si Si2 0.780690 0.138225 0.828948
Si Si3 0.483235 0.799534 0.878764
Si Si4 0.240466 0.408821 0.740765
Si Si5 0.354438 0.931479 0.169162
Si Si6 0.913410 0.893015 0.575885
Si Si7 0.036168 0.891596 0.217193
Si Si8 0.846310 0.402612 0.145069
O O1 0.463159 0.346115 0.350611
O O2 0.318038 0.400746 0.589286
O O3 0.385597 0.741172 0.318940
O O4 0.360639 0.234598 0.223425
O O5 0.721731 0.312444 0.780202
O O6 0.832667 0.967021 0.651435
O O7 0.750625 0.941726 0.024095
O O8 0.823141 0.343984 0.932362
O O9 0.492682 0.512126 0.968674
O O10 0.401442 0.865554 0.931465
O O11 0.191874 0.158705 0.743532
O O12 0.193517 0.660433 0.718278
O O13 0.946104 0.106476 0.704857
O O14 0.953615 0.922494 0.328941
O O15 0.930978 0.614092 0.661866
O O16 0.070606 0.918807 0.964585
#
# Coordination Sequence:
#
# PCOD9114724 Si02
#       8
#     2   2   2   2   2   2   2   2
#     4  10  20  34  52  73  95 132 173 205 236 307
#     4   9  20  30  50  74 106 124 157 209 264 290
#     4   8  16  32  50  69  90 123 166 206 235 282
#     4  10  19  31  49  69 103 131 158 203 253 294
#     4  10  20  32  55  73  97 127 170 209 253 288
#     4   9  16  24  43  66 100 125 156 203 244 287
#     4   9  14  26  40  67  96 127 163 193 241 288
#     4   9  17  29  47  69 101 129 157 200 252 294
#
# _framework density 24.888456999999999
#
# number of rings (size 3 to 8) (size 9 to 14) (size 15 to 20)
#    0.750    2.000    1.250    0.750    1.750    0.000 
#    0.000    0.000    2.750    0.000    0.000    3.500 
#    0.000    0.000    0.000    0.000    0.000    0.000 
#
# Total GULP energy -89170.277386 kJ/mol
# GULP energy per Si atom -5573.142337 kJ/mol
# Density = 2.483181 g / cm^3
# Si number density = 24.888457 Si / 1000 Ang^3
#
#
#
# Elastic Constant Matrix: (Units=GPa)
#
#
# Indices 1 2 3 4 5 6 
#
# 1 60.0012 9.4180 70.9513 0.0000 -32.8406 0.0000
# 2 9.4180 129.0213 44.1054 0.0000 -7.0948 0.0000
# 3 70.9513 44.1054 213.6998 0.0000 -84.0808 0.0000
# 4 0.0000 0.0000 0.0000 31.6973 0.0000 -9.0339
# 5 -32.8406 -7.0948 -84.0808 0.0000 53.4299 0.0000
# 6 0.0000 0.0000 0.0000 -9.0339 0.0000 20.2846
#
#
#
# Elastic Compliance Matrix: (Units=1/GPa)
#
#
# Indices 1 2 3 4 5 6 
#
# 1 0.028420 0.000679 -0.007005 0.000000 0.006535 0.000000
# 2 0.000679 0.008731 -0.003695 0.000000 -0.004237 0.000000
# 3 -0.007005 -0.003695 0.015441 0.000000 0.019504 0.000000
# 4 0.000000 0.000000 0.000000 0.036135 0.000000 0.016093
# 5 0.006535 -0.004237 0.019504 0.000000 0.052863 0.000000
# 6 0.000000 0.000000 0.000000 0.016093 0.000000 0.056466
#
#
# Mechanical properties :
#
#
# Convention : Reuss Voigt Hill
#
# Bulk Modulus (GPa) = 30.71988 72.40797 51.56393
# Shear Modulus (GPa) = 21.83923 39.63221 30.73572
#
# Velocity S-wave (km/s) = 2.96545 3.99481 3.51798
# Velocity P-wave (km/s) = 4.90867 7.10170 6.10447
#
# Compressibility (1/GPa) = 0.03255221
#
# Stress axis : x y z
#
# Youngs Moduli (GPa) = 35.18697 114.53309 64.76105
#
# Poissons Ratio (x) = -0.07781 0.45362
# Poissons Ratio (y) = -0.02390 0.23928
# Poissons Ratio (z) = 0.24647 0.42317
#
# Static dielectric constant tensor:
#      x y z
#    x 2.085070 0.000000 -0.072760 
#    y 0.000000 1.911240 0.000000 
#    z -0.072760 0.000000 2.083980 
# 
# From -- ./inp_files/9970.got.cif
#   From: 2010.05.17/outbox.cif.g08.bks.cpg/sg4_5_cif.got.tgz:9970.got - 2010.06.03 18:43:04.
