data_PCOD9114592
_publ_section_title
;
Structure prediction by ZEFSAII (Michael W. Deem and Ramdas Pophale) SiO2 
 PCOD9114592
Probable space group: P 21
;
_chemical_formula_sum "Si O2"
_cell_formula_units_Z 16
_cell_length_a 20.890837
_cell_length_b 5.120502
_cell_length_c 15.512072
_cell_angle_alpha 90.000000
_cell_angle_beta 152.067938
_cell_angle_gamma 90.000000
_cell_volume 777.280183
_symmetry_space_group_name_H-M "P 21"
_symmetry_group_IT_number 4
_symmetry_cell_setting 'monoclinic'
loop_
_space_group_symop_operation_xyz
x,y,z
-x,1/2+y,-z
loop_
_atom_site_type_symbol
_atom_site_label
_atom_site_fract_x
_atom_site_fract_y
_atom_site_fract_z
Si Si1 0.011450 0.213800 0.306088
Si Si2 0.827857 0.225530 0.826267
Si Si3 0.613108 0.827828 0.841947
Si Si4 0.082073 0.006677 0.569600
Si Si5 0.928910 0.940163 0.796356
Si Si6 0.557280 0.497626 0.518141
Si Si7 0.734440 0.355925 0.066389
Si Si8 0.160367 0.328733 0.015665
O O1 0.092700 0.097762 0.483419
O O2 0.101484 0.337613 0.335828
O O3 0.883796 0.381433 0.194168
O O4 0.930603 0.989583 0.159997
O O5 0.819684 0.094684 0.722416
O O6 0.721705 0.462942 0.707958
O O7 0.782322 0.028150 0.846419
O O8 0.991141 0.241183 0.044551
O O9 0.491680 0.934956 0.638025
O O10 0.713999 0.719949 0.887112
O O11 0.620047 0.574702 0.910607
O O12 0.677321 0.074157 0.969614
O O13 0.026736 0.268462 0.551896
O O14 0.215413 0.896096 0.775929
O O15 0.056977 0.125716 0.930688
O O16 0.501425 0.772665 0.487193
#
# Coordination Sequence:
#
# PCOD9114592 Si02
#       8
#     2   2   2   2   2   2   2   2
#     4   9  20  29  51  77 112 148 181 231 286 353
#     4  11  23  35  55  80 111 164 197 245 284 344
#     4  11  20  35  53  77 111 152 190 234 285 337
#     4  10  19  32  51  82 115 150 185 231 293 357
#     4  11  20  35  54  78 116 154 199 233 294 347
#     4  12  25  39  58  83 115 158 210 248 285 331
#     4  10  19  33  53  77 111 150 183 229 292 350
#     4  10  18  34  49  74 109 150 191 225 285 337
#
# _framework density 20.584599000000001
#
# number of rings (size 3 to 8) (size 9 to 14) (size 15 to 20)
#    0.000    1.500    3.750    3.750    3.500    0.000 
#    0.000    0.000    0.000    0.000    0.000    0.000 
#    3.750    0.000    0.250    0.000    0.000    0.000 
#
# Total GULP energy -89105.742178 kJ/mol
# GULP energy per Si atom -5569.108886 kJ/mol
# Density = 2.053775 g / cm^3
# Si number density = 20.584599 Si / 1000 Ang^3
#
#
#
# Elastic Constant Matrix: (Units=GPa)
#
#
# Indices 1 2 3 4 5 6 
#
# 1 61.8992 3.7489 31.2801 0.0000 -28.5040 0.0000
# 2 3.7489 66.1820 16.9375 0.0000 -11.7456 0.0000
# 3 31.2801 16.9375 84.1010 0.0000 -27.0572 0.0000
# 4 0.0000 0.0000 0.0000 27.8612 0.0000 -12.8006
# 5 -28.5040 -11.7456 -27.0572 0.0000 29.0975 0.0000
# 6 0.0000 0.0000 0.0000 -12.8006 0.0000 30.1357
#
#
#
# Elastic Compliance Matrix: (Units=1/GPa)
#
#
# Indices 1 2 3 4 5 6 
#
# 1 0.030796 0.004174 -0.002921 0.000000 0.029136 0.000000
# 2 0.004174 0.017006 -0.002074 0.000000 0.009025 0.000000
# 3 -0.002921 -0.002074 0.017414 0.000000 0.012495 0.000000
# 4 0.000000 0.000000 0.000000 0.044595 0.000000 0.018942
# 5 0.029136 0.009025 0.012495 0.000000 0.078171 0.000000
# 6 0.000000 0.000000 0.000000 0.018942 0.000000 0.041229
#
#
# Mechanical properties :
#
#
# Convention : Reuss Voigt Hill
#
# Bulk Modulus (GPa) = 15.72950 35.12392 25.42671
# Shear Modulus (GPa) = 19.83778 28.09990 23.96884
#
# Velocity S-wave (km/s) = 3.10775 3.69873 3.41604
# Velocity P-wave (km/s) = 4.53161 5.94483 5.28566
#
# Compressibility (1/GPa) = 0.06357481
#
# Stress axis : x y z
#
# Youngs Moduli (GPa) = 32.47225 58.80325 57.42390
#
# Poissons Ratio (x) = -0.24544 0.16772
# Poissons Ratio (y) = -0.13554 0.11908
# Poissons Ratio (z) = 0.09484 0.12194
#
# Static dielectric constant tensor:
#      x y z
#    x 1.829210 0.000000 -0.042200 
#    y 0.000000 1.900040 0.000000 
#    z -0.042200 0.000000 1.795260 
# 
# From -- ./inp_files/14399.got.cif
#   From: 2010.05.17/outbox.cif.g08.bks.cpg/sg4_8_cif.got.tgz:14399.got - 2010.06.03 18:43:04.
