data_PCOD9114886
_publ_section_title
;
Structure prediction by ZEFSAII (Michael W. Deem and Ramdas Pophale) SiO2 
 PCOD9114886
Probable space group: P 21
;
_chemical_formula_sum "Si O2"
_cell_formula_units_Z 14
_cell_length_a 17.109106
_cell_length_b 5.050924
_cell_length_c 6.376893
_cell_angle_alpha 90.000000
_cell_angle_beta 73.336742
_cell_angle_gamma 90.000000
_cell_volume 527.929305
_symmetry_space_group_name_H-M "P 21"
_symmetry_group_IT_number 4
_symmetry_cell_setting 'monoclinic'
loop_
_space_group_symop_operation_xyz
x,y,z
-x,1/2+y,-z
loop_
_atom_site_type_symbol
_atom_site_label
_atom_site_fract_x
_atom_site_fract_y
_atom_site_fract_z
Si Si1 0.952969 0.183270 0.789490
Si Si2 0.895201 0.683031 0.078877
Si Si3 0.530465 0.193604 0.854239
Si Si4 0.248428 0.062211 0.543778
Si Si5 0.391801 0.077667 0.699699
Si Si6 0.185565 0.562996 0.365533
Si Si7 0.671074 0.078662 0.006961
O O1 0.909848 0.106016 0.605707
O O2 0.048985 0.146305 0.755323
O O3 0.925869 0.474298 0.882916
O O4 0.914880 0.973661 0.982795
O O5 0.802227 0.641470 0.210301
O O6 0.487803 0.133374 0.664836
O O7 0.513145 0.488880 0.949098
O O8 0.624022 0.125217 0.822195
O O9 0.344415 0.096745 0.516868
O O10 0.215298 0.269639 0.398808
O O11 0.218474 0.769846 0.509928
O O12 0.351659 0.295070 0.884920
O O13 0.366766 0.792082 0.806644
O O14 0.235294 0.629309 0.114888
#
# Coordination Sequence:
#
# PCOD9114886 Si02
#       7
#     2   2   2   2   2   2   2
#     4  10  21  39  61  81 103 139 184 222 260 312
#     4  10  21  39  61  81 103 139 184 222 260 312
#     4   8  16  30  54  80  98 130 182 228 258 298
#     4  12  24  36  53  82 115 143 173 215 271 321
#     4  10  19  36  58  78 104 141 184 222 260 312
#     4  12  24  36  53  82 115 143 173 215 271 321
#     4  10  19  36  58  78 104 141 184 222 260 312
#
# _framework density 26.518704
#
# number of rings (size 3 to 8) (size 9 to 14) (size 15 to 20)
#    0.000    1.714    0.000    5.143    0.000    1.143 
#    0.000    1.429    0.000    0.000    0.000    0.000 
#    0.000    0.000    0.000    0.000    0.000    0.000 
#
# Total GULP energy -78385.260543 kJ/mol
# GULP energy per Si atom -5598.947182 kJ/mol
# Density = 2.645835 g / cm^3
# Si number density = 26.518704 Si / 1000 Ang^3
#
#
#
# Elastic Constant Matrix: (Units=GPa)
#
#
# Indices 1 2 3 4 5 6 
#
# 1 151.8088 16.7107 19.4406 0.0000 49.1845 0.0000
# 2 16.7107 75.2347 17.0228 0.0000 2.7485 0.0000
# 3 19.4406 17.0228 45.4120 0.0000 7.0012 0.0000
# 4 0.0000 0.0000 0.0000 46.7003 0.0000 7.6749
# 5 49.1845 2.7485 7.0012 0.0000 46.8998 0.0000
# 6 0.0000 0.0000 0.0000 7.6749 0.0000 27.1711
#
#
#
# Elastic Compliance Matrix: (Units=1/GPa)
#
#
# Indices 1 2 3 4 5 6 
#
# 1 0.010452 -0.001412 -0.002322 0.000000 -0.010532 0.000000
# 2 -0.001412 0.014714 -0.005125 0.000000 0.001383 0.000000
# 3 -0.002322 -0.005125 0.025091 0.000000 -0.001011 0.000000
# 4 0.000000 0.000000 0.000000 0.022456 0.000000 -0.006343
# 5 -0.010532 0.001383 -0.001011 0.000000 0.032437 0.000000
# 6 0.000000 0.000000 0.000000 -0.006343 0.000000 0.038595
#
#
# Mechanical properties :
#
#
# Convention : Reuss Voigt Hill
#
# Bulk Modulus (GPa) = 30.72943 42.08928 36.40935
# Shear Modulus (GPa) = 29.01770 38.77301 33.89535
#
# Velocity S-wave (km/s) = 3.31151 3.82789 3.57903
# Velocity P-wave (km/s) = 5.12196 5.95340 5.55326
#
# Compressibility (1/GPa) = 0.03254210
#
# Stress axis : x y z
#
# Youngs Moduli (GPa) = 95.67359 67.96134 39.85454
#
# Poissons Ratio (x) = 0.09593 0.09253
# Poissons Ratio (y) = 0.13504 0.20424
# Poissons Ratio (z) = 0.22212 0.34828
#
# Static dielectric constant tensor:
#      x y z
#    x 2.086480 0.000000 0.100080 
#    y 0.000000 1.989190 0.000000 
#    z 0.100080 0.000000 2.063030 
# 
# From -- ./inp_files/3892.got.cif
#   From: 2010.05.17/outbox.cif.g08.bks.cpg/sg4_2_cif.got.tgz:3892.got - 2010.06.03 18:43:04.
