data_PCOD9114120
_publ_section_title
;
Structure prediction by ZEFSAII (Michael W. Deem and Ramdas Pophale) SiO2 
 PCOD9114120
Probable space group: P 2
;
_chemical_formula_sum "Si O2"
_cell_formula_units_Z 13
_cell_length_a 9.329426
_cell_length_b 5.347641
_cell_length_c 15.549148
_cell_angle_alpha 90.000000
_cell_angle_beta 137.533299
_cell_angle_gamma 90.000000
_cell_volume 523.759005
_symmetry_space_group_name_H-M "P 2"
_symmetry_group_IT_number 3
_symmetry_cell_setting 'monoclinic'
loop_
_space_group_symop_operation_xyz
x,y,z
-x,y,-z
loop_
_atom_site_type_symbol
_atom_site_label
_atom_site_fract_x
_atom_site_fract_y
_atom_site_fract_z
Si Si1 0.223069 0.327550 0.711868
Si Si2 0.632006 0.054815 0.387476
Si Si3 0.000000 0.676420 0.500000
Si Si4 0.416835 0.657070 0.048804
Si Si5 0.772572 0.869557 0.869375
Si Si6 0.888182 0.057184 0.668811
Si Si7 0.939145 0.547946 0.800428
O O1 0.310113 0.267904 0.655346
O O2 0.038460 0.521136 0.604203
O O3 0.407362 0.455423 0.847219
O O4 0.105843 0.104480 0.709806
O O5 0.700800 0.079991 0.516083
O O6 0.385367 0.006822 0.264692
O O7 0.788829 0.836834 0.422495
O O8 0.367766 0.831791 0.107783
O O9 0.500000 0.791034 0.000000
O O10 0.190557 0.534027 0.928712
O O11 0.831056 0.614963 0.843965
O O12 0.000000 0.979049 0.000000
O O13 0.874786 0.294092 0.726165
O O14 0.900013 0.793597 0.723451
#
# Coordination Sequence:
#
# PCOD9114120 Si02
#       7
#     2   2   1   2   2   2   2
#     4  12  24  41  73 121 150 194 254 328 384 441
#     4  12  25  42  80 111 153 202 249 323 383 451
#     4  12  20  44  68 120 156 190 248 320 402 434
#     4  11  24  45  78 112 146 203 256 316 374 445
#     4  10  26  52  74 107 154 208 253 308 387 456
#     4  12  25  48  78 113 156 196 259 312 385 454
#     4  11  28  51  75 111 162 203 251 312 376 466
#
# _framework density 24.820577
#
# number of rings (size 3 to 8) (size 9 to 14) (size 15 to 20)
#    0.000    0.615    6.154    0.923    2.154    4.308 
#    0.000    7.692    0.000    0.000    0.000    0.000 
#    0.000    0.000    0.000    0.000    0.000    0.000 
#
# Total GULP energy -72789.264159 kJ/mol
# GULP energy per Si atom -5599.174166 kJ/mol
# Density = 2.476408 g / cm^3
# Si number density = 24.820577 Si / 1000 Ang^3
#
#
#
# Elastic Constant Matrix: (Units=GPa)
#
#
# Indices 1 2 3 4 5 6 
#
# 1 117.5841 18.4445 43.4966 0.0000 -5.4342 0.0000
# 2 18.4445 83.4356 49.6191 0.0000 -7.8765 0.0000
# 3 43.4966 49.6191 209.9934 0.0000 -5.4754 0.0000
# 4 0.0000 0.0000 0.0000 34.5612 0.0000 -11.6125
# 5 -5.4342 -7.8765 -5.4754 0.0000 36.2403 0.0000
# 6 0.0000 0.0000 0.0000 -11.6125 0.0000 24.9027
#
#
#
# Elastic Compliance Matrix: (Units=1/GPa)
#
#
# Indices 1 2 3 4 5 6 
#
# 1 0.009321 -0.000976 -0.001676 0.000000 0.000932 0.000000
# 2 -0.000976 0.014284 -0.003108 0.000000 0.002489 0.000000
# 3 -0.001676 -0.003108 0.005842 0.000000 -0.000044 0.000000
# 4 0.000000 0.000000 0.000000 0.034310 0.000000 0.015999
# 5 0.000932 0.002489 -0.000044 0.000000 0.028268 0.000000
# 6 0.000000 0.000000 0.000000 0.015999 0.000000 0.047617
#
#
# Mechanical properties :
#
#
# Convention : Reuss Voigt Hill
#
# Bulk Modulus (GPa) = 55.77921 70.45929 63.11925
# Shear Modulus (GPa) = 31.81932 39.10438 35.46185
#
# Velocity S-wave (km/s) = 3.58435 3.97354 3.78395
# Velocity P-wave (km/s) = 6.29697 7.03570 6.67656
#
# Compressibility (1/GPa) = 0.01792783
#
# Stress axis : x y z
#
# Youngs Moduli (GPa) = 107.28933 70.00638 171.16154
#
# Poissons Ratio (x) = 0.06832 0.28682
# Poissons Ratio (y) = 0.10470 0.53201
# Poissons Ratio (z) = 0.17979 0.21760
#
# Static dielectric constant tensor:
#      x y z
#    x 2.017820 0.000000 -0.012590 
#    y 0.000000 2.010350 0.000000 
#    z -0.012590 0.000000 1.952270 
# 
# From -- ./inp_files/14893.got.cif
#   From: 2010.05.17/outbox.cif.g08.bks.cpg/sg3_8_cif.got.tgz:14893.got - 2010.06.03 18:33:08.
