data_PCOD9114041
_publ_section_title
;
Structure prediction by ZEFSAII (Michael W. Deem and Ramdas Pophale) SiO2 
 PCOD9114041
Probable space group: P 2
;
_chemical_formula_sum "Si O2"
_cell_formula_units_Z 13
_cell_length_a 10.391654
_cell_length_b 8.907031
_cell_length_c 7.820462
_cell_angle_alpha 90.000000
_cell_angle_beta 49.334196
_cell_angle_gamma 90.000000
_cell_volume 549.059022
_symmetry_space_group_name_H-M "P 2"
_symmetry_group_IT_number 3
_symmetry_cell_setting 'monoclinic'
loop_
_space_group_symop_operation_xyz
x,y,z
-x,y,-z
loop_
_atom_site_type_symbol
_atom_site_label
_atom_site_fract_x
_atom_site_fract_y
_atom_site_fract_z
Si Si1 0.357409 0.707840 0.759565
Si Si2 0.927367 0.961259 0.380379
Si Si3 0.000000 0.772385 0.000000
Si Si4 0.277595 0.460973 0.065498
Si Si5 0.054549 0.301244 0.758968
Si Si6 0.404970 0.320350 0.314584
Si Si7 0.542665 0.964524 0.765888
O O1 0.500000 0.656189 0.500000
O O2 0.330144 0.629179 0.969062
O O3 0.410065 0.879177 0.759783
O O4 0.173909 0.683602 0.834238
O O5 0.018263 0.876289 0.149225
O O6 0.730814 0.913242 0.550288
O O7 0.000000 0.919868 0.500000
O O8 0.951168 0.139957 0.332075
O O9 0.406490 0.380598 0.821186
O O10 0.332686 0.397914 0.202624
O O11 0.083169 0.415112 0.202651
O O12 0.250683 0.347903 0.575954
O O13 0.000000 0.277341 0.000000
O O14 0.439987 0.143523 0.264886
O O15 0.500000 0.932958 0.000000
#
# Coordination Sequence:
#
# PCOD9114041 Si02
#       7
#     2   2   1   2   2   2   2
#     4  12  29  47  71 106 159 202 250 310 389 468
#     4  11  23  44  75 111 152 193 255 321 376 447
#     4  12  26  50  70 112 150 200 258 310 386 452
#     4  11  25  46  70 102 150 197 242 308 378 457
#     4  11  24  41  73 109 142 194 248 317 376 438
#     4  10  24  47  72 109 141 187 260 310 373 448
#     4  11  22  46  77 110 146 193 255 320 374 449
#
# _framework density 23.676873000000001
#
# number of rings (size 3 to 8) (size 9 to 14) (size 15 to 20)
#    0.000    0.923    3.846    3.231    7.538    0.000 
#    0.000    1.538    0.000    0.000    0.000    0.000 
#    0.000    0.000    0.000    0.000    0.000    0.000 
#
# Total GULP energy -72627.960139 kJ/mol
# GULP energy per Si atom -5586.766165 kJ/mol
# Density = 2.362298 g / cm^3
# Si number density = 23.676873 Si / 1000 Ang^3
#
#
#
# Elastic Constant Matrix: (Units=GPa)
#
#
# Indices 1 2 3 4 5 6 
#
# 1 82.6445 20.1413 38.0010 0.0000 -5.3000 0.0000
# 2 20.1413 73.7537 29.9366 0.0000 2.0305 0.0000
# 3 38.0010 29.9366 166.5398 0.0000 -18.5978 0.0000
# 4 0.0000 0.0000 0.0000 52.9670 0.0000 0.3958
# 5 -5.3000 2.0305 -18.5978 0.0000 51.0347 0.0000
# 6 0.0000 0.0000 0.0000 0.3958 0.0000 24.6710
#
#
#
# Elastic Compliance Matrix: (Units=1/GPa)
#
#
# Indices 1 2 3 4 5 6 
#
# 1 0.014027 -0.002778 -0.002633 0.000000 0.000608 0.000000
# 2 -0.002778 0.015303 -0.002311 0.000000 -0.001740 0.000000
# 3 -0.002633 -0.002311 0.007298 0.000000 0.002478 0.000000
# 4 0.000000 0.000000 0.000000 0.018882 0.000000 -0.000303
# 5 0.000608 -0.001740 0.002478 0.000000 0.020630 0.000000
# 6 0.000000 0.000000 0.000000 -0.000303 0.000000 0.040538
#
#
# Mechanical properties :
#
#
# Convention : Reuss Voigt Hill
#
# Bulk Modulus (GPa) = 47.20989 55.45508 51.33249
# Shear Modulus (GPa) = 35.92351 41.39181 38.65766
#
# Velocity S-wave (km/s) = 3.89940 4.18568 4.04507
# Velocity P-wave (km/s) = 6.34479 6.84342 6.59881
#
# Compressibility (1/GPa) = 0.02118200
#
# Stress axis : x y z
#
# Youngs Moduli (GPa) = 71.29114 65.34495 137.03124
#
# Poissons Ratio (x) = 0.18156 0.36086
# Poissons Ratio (y) = 0.19808 0.31670
# Poissons Ratio (z) = 0.18774 0.15102
#
# Static dielectric constant tensor:
#      x y z
#    x 1.903300 0.000000 -0.037560 
#    y 0.000000 1.972780 0.000000 
#    z -0.037560 0.000000 1.837960 
# 
# From -- ./inp_files/7333.got.cif
#   From: 2010.05.17/outbox.cif.g08.bks.cpg/sg3_4_cif.got.tgz:7333.got - 2010.06.03 18:33:08.
