data_PCOD9114350
_publ_section_title
;
Structure prediction by ZEFSAII (Michael W. Deem and Ramdas Pophale) SiO2 
 PCOD9114350
Probable space group: P 2
;
_chemical_formula_sum "Si O2"
_cell_formula_units_Z 14
_cell_length_a 8.277688
_cell_length_b 8.280579
_cell_length_c 9.417432
_cell_angle_alpha 90.000000
_cell_angle_beta 115.077220
_cell_angle_gamma 90.000000
_cell_volume 584.661564
_symmetry_space_group_name_H-M "P 2"
_symmetry_group_IT_number 3
_symmetry_cell_setting 'monoclinic'
loop_
_space_group_symop_operation_xyz
x,y,z
-x,y,-z
loop_
_atom_site_type_symbol
_atom_site_label
_atom_site_fract_x
_atom_site_fract_y
_atom_site_fract_z
Si Si1 0.500000 0.462960 0.500000
Si Si2 0.535746 0.928540 0.848783
Si Si3 0.709923 0.747436 0.688952
Si Si4 0.700320 0.434650 0.080208
Si Si5 0.334240 0.247059 0.658765
Si Si6 0.150819 0.122576 0.953860
Si Si7 0.903706 0.021853 0.601810
Si Si8 0.000000 0.611293 0.000000
O O1 0.662403 0.586185 0.585050
O O2 0.481681 0.346216 0.627510
O O3 0.544668 0.789484 0.733625
O O4 0.413326 0.079717 0.754569
O O5 0.500000 0.885802 0.000000
O O6 0.742459 0.982677 0.929786
O O7 0.757081 0.901762 0.610954
O O8 0.883595 0.708344 0.844591
O O9 0.741510 0.376727 0.256204
O O10 0.699254 0.257121 0.010205
O O11 0.851276 0.524324 0.045987
O O12 0.500000 0.504254 0.000000
O O13 0.189880 0.183400 0.491817
O O14 0.051409 0.065924 0.774752
O O15 0.000000 0.189662 0.000000
O O16 0.000000 0.946577 0.500000
#
# Coordination Sequence:
#
# PCOD9114350 Si02
#       8
#     1   2   2   2   2   2   2   1
#     4  12  30  44  66 102 162 200 236 296 382 458
#     4  12  23  46  78 107 139 189 257 312 363 430
#     4  12  28  47  67 106 153 203 239 298 379 455
#     4  12  24  45  77 117 142 188 255 312 376 431
#     4  12  25  44  75 108 142 192 252 312 368 432
#     4  12  22  41  76 110 141 183 247 322 363 421
#     4  12  25  44  74 108 142 186 251 313 367 429
#     4  12  30  48  76 106 156 202 246 304 376 458
#
# _framework density 23.945474999999998
#
# number of rings (size 3 to 8) (size 9 to 14) (size 15 to 20)
#    0.000    0.000    6.429    3.429    2.000    2.857 
#    0.000    0.000    0.000    0.000    0.000    0.000 
#    0.000    0.000    0.000    0.000    0.000    0.000 
#
# Total GULP energy -78238.224814 kJ/mol
# GULP energy per Si atom -5588.444630 kJ/mol
# Density = 2.389097 g / cm^3
# Si number density = 23.945475 Si / 1000 Ang^3
#
#
#
# Elastic Constant Matrix: (Units=GPa)
#
#
# Indices 1 2 3 4 5 6 
#
# 1 132.2671 42.0982 25.8507 0.0000 -22.3784 0.0000
# 2 42.0982 81.4213 33.0014 0.0000 -9.0949 0.0000
# 3 25.8507 33.0014 107.1013 0.0000 1.7804 0.0000
# 4 0.0000 0.0000 0.0000 24.0675 0.0000 15.8915
# 5 -22.3784 -9.0949 1.7804 0.0000 56.5473 0.0000
# 6 0.0000 0.0000 0.0000 15.8915 0.0000 -3.6951
#
#
#
# Elastic Compliance Matrix: (Units=1/GPa)
#
#
# Indices 1 2 3 4 5 6 
#
# 1 0.009645 -0.004190 -0.001090 0.000000 0.003177 0.000000
# 2 -0.004190 0.016187 -0.003994 0.000000 0.001071 0.000000
# 3 -0.001090 -0.003994 0.010854 0.000000 -0.001415 0.000000
# 4 0.000000 0.000000 0.000000 0.010821 0.000000 0.046538
# 5 0.003177 0.001071 -0.001415 0.000000 0.019158 0.000000
# 6 0.000000 0.000000 0.000000 0.046538 0.000000 -0.070481
#
#
# Mechanical properties :
#
#
# Convention : Reuss Voigt Hill
#
# Bulk Modulus (GPa) = 55.13318 58.07670 56.60494
# Shear Modulus (GPa) = 240.64483 30.03988 135.34236
#
# Velocity S-wave (km/s) = 10.03569 3.54575 7.52620
# Velocity P-wave (km/s) = 12.54437 6.40855 9.96069
#
# Compressibility (1/GPa) = 0.01813790
#
# Stress axis : x y z
#
# Youngs Moduli (GPa) = 103.68484 61.77882 92.13032
#
# Poissons Ratio (x) = 0.25886 0.10038
# Poissons Ratio (y) = 0.43445 0.36798
# Poissons Ratio (z) = 0.11297 0.24675
#
# Static dielectric constant tensor:
#      x y z
#    x 1.960110 0.000000 -0.027010 
#    y 0.000000 1.882340 0.000000 
#    z -0.027010 0.000000 1.940710 
# 
# From -- ./inp_files/5679.got.cif
#   From: 2010.05.17/outbox.cif.g08.bks.cpg/sg3_3_cif.got.tgz:5679.got - 2010.06.03 18:33:08.
