data_PCOD9114629
_publ_section_title
;
Structure prediction by ZEFSAII (Michael W. Deem and Ramdas Pophale) SiO2 
 PCOD9114629
Probable space group: P 21
;
_chemical_formula_sum "Si O2"
_cell_formula_units_Z 14
_cell_length_a 9.775659
_cell_length_b 16.750804
_cell_length_c 4.973610
_cell_angle_alpha 90.000000
_cell_angle_beta 128.306407
_cell_angle_gamma 90.000000
_cell_volume 639.088479
_symmetry_space_group_name_H-M "P 21"
_symmetry_group_IT_number 4
_symmetry_cell_setting 'monoclinic'
loop_
_space_group_symop_operation_xyz
x,y,z
-x,1/2+y,-z
loop_
_atom_site_type_symbol
_atom_site_label
_atom_site_fract_x
_atom_site_fract_y
_atom_site_fract_z
Si Si1 0.676808 0.079130 0.032878
Si Si2 0.802101 0.287267 0.679767
Si Si3 0.049930 0.502842 0.295606
Si Si4 0.855511 0.455211 0.579682
Si Si5 0.812217 0.622743 0.739684
Si Si6 0.964363 0.219025 0.373435
Si Si7 0.521800 0.145836 0.343295
O O1 0.828226 0.145841 0.198648
O O2 0.530901 0.115052 0.051743
O O3 0.609089 0.078505 0.646376
O O4 0.772282 0.009765 0.318498
O O5 0.753394 0.375051 0.520013
O O6 0.949799 0.256505 0.649629
O O7 0.641675 0.225089 0.490785
O O8 0.886244 0.284902 0.075418
O O9 0.913301 0.468306 0.345464
O O10 0.026486 0.455417 0.987748
O O11 0.980721 0.591127 0.117645
O O12 0.760334 0.535923 0.557079
O O13 0.667022 0.657264 0.758856
O O14 0.867952 0.682206 0.570359
#
# Coordination Sequence:
#
# PCOD9114629 Si02
#       7
#     2   2   2   2   2   2   2
#     4  10  18  35  53  89 107 146 189 243 269 338
#     4  10  21  38  56  86 116 155 193 237 297 344
#     4  10  19  34  61  81 115 144 201 241 274 338
#     4  10  21  34  62  82 117 154 198 234 295 344
#     4  10  22  35  62  90 114 150 201 237 290 338
#     4  10  19  34  60  80 113 147 197 240 274 347
#     4  10  22  32  60  84 120 146 191 238 293 339
#
# _framework density 21.906199999999998
#
# number of rings (size 3 to 8) (size 9 to 14) (size 15 to 20)
#    0.857    1.143    1.429    4.286    2.000    0.000 
#    0.000    0.000    9.429    0.000    0.000    0.000 
#    0.000    0.000    0.000    0.000    0.000    0.000 
#
# Total GULP energy -77979.687374 kJ/mol
# GULP energy per Si atom -5569.977670 kJ/mol
# Density = 2.185634 g / cm^3
# Si number density = 21.906200 Si / 1000 Ang^3
#
#
#
# Elastic Constant Matrix: (Units=GPa)
#
#
# Indices 1 2 3 4 5 6 
#
# 1 142.7552 23.7646 9.6395 0.0000 -9.3788 0.0000
# 2 23.7646 69.1066 7.7247 0.0000 2.5651 0.0000
# 3 9.6395 7.7247 54.2914 0.0000 -20.8855 0.0000
# 4 0.0000 0.0000 0.0000 17.7614 0.0000 -7.5326
# 5 -9.3788 2.5651 -20.8855 0.0000 39.6239 0.0000
# 6 0.0000 0.0000 0.0000 -7.5326 0.0000 23.3793
#
#
#
# Elastic Compliance Matrix: (Units=1/GPa)
#
#
# Indices 1 2 3 4 5 6 
#
# 1 0.007583 -0.002646 -0.000268 0.000000 0.001825 0.000000
# 2 -0.002646 0.015840 -0.003035 0.000000 -0.003251 0.000000
# 3 -0.000268 -0.003035 0.023769 0.000000 0.012662 0.000000
# 4 0.000000 0.000000 0.000000 0.065213 0.000000 0.021011
# 5 0.001825 -0.003251 0.012662 0.000000 0.032554 0.000000
# 6 0.000000 0.000000 0.000000 0.021011 0.000000 0.049543
#
#
# Mechanical properties :
#
#
# Convention : Reuss Voigt Hill
#
# Bulk Modulus (GPa) = 28.33162 38.71231 33.52196
# Shear Modulus (GPa) = 22.91853 31.15453 27.03653
#
# Velocity S-wave (km/s) = 3.23803 3.77527 3.51692
# Velocity P-wave (km/s) = 5.19047 6.05919 5.64158
#
# Compressibility (1/GPa) = 0.03529625
#
# Stress axis : x y z
#
# Youngs Moduli (GPa) = 131.86688 63.13098 42.07092
#
# Poissons Ratio (x) = 0.16702 0.01127
# Poissons Ratio (y) = 0.34887 0.12768
# Poissons Ratio (z) = 0.03533 0.19159
#
# Static dielectric constant tensor:
#      x y z
#    x 1.799020 0.000000 0.039760 
#    y 0.000000 1.834780 0.000000 
#    z 0.039760 0.000000 1.914300 
# 
# From -- ./inp_files/2086.got.cif
#   From: 2010.05.17/outbox.cif.g08.bks.cpg/sg4_2_cif.got.tgz:2086.got - 2010.06.03 18:43:04.
