data_PCOD9114984
_publ_section_title
;
Structure prediction by ZEFSAII (Michael W. Deem and Ramdas Pophale) SiO2 
 PCOD9114984
Probable space group: P 21
;
_chemical_formula_sum "Si O2"
_cell_formula_units_Z 16
_cell_length_a 9.184936
_cell_length_b 16.355901
_cell_length_c 5.224695
_cell_angle_alpha 90.000000
_cell_angle_beta 102.131637
_cell_angle_gamma 90.000000
_cell_volume 767.366188
_symmetry_space_group_name_H-M "P 21"
_symmetry_group_IT_number 4
_symmetry_cell_setting 'monoclinic'
loop_
_space_group_symop_operation_xyz
x,y,z
-x,1/2+y,-z
loop_
_atom_site_type_symbol
_atom_site_label
_atom_site_fract_x
_atom_site_fract_y
_atom_site_fract_z
Si Si1 0.829923 0.138770 0.439895
Si Si2 0.209554 0.906382 0.557799
Si Si3 0.800827 0.040912 0.913987
Si Si4 0.082475 0.377464 0.854299
Si Si5 0.511369 0.960678 0.720130
Si Si6 0.894045 0.275827 0.123549
Si Si7 0.636971 0.250072 0.653831
Si Si8 0.604305 0.860009 0.256322
O O1 0.875939 0.091067 0.712654
O O2 0.670661 0.179840 0.460231
O O3 0.924692 0.216886 0.374946
O O4 0.827925 0.076740 0.204609
O O5 0.334174 0.975483 0.634139
O O6 0.300352 0.833498 0.450148
O O7 0.058198 0.916375 0.345935
O O8 0.161777 0.864533 0.804579
O O9 0.622137 0.035520 0.812104
O O10 0.856931 0.947660 0.935300
O O11 0.219693 0.355572 0.721878
O O12 0.027075 0.297356 0.984202
O O13 0.569123 0.921581 0.475919
O O14 0.535550 0.897620 0.967729
O O15 0.755022 0.235116 0.925302
O O16 0.477077 0.275053 0.701455
#
# Coordination Sequence:
#
# PCOD9114984 Si02
#       8
#     2   2   2   2   2   2   2   2
#     4  11  22  39  61  91 124 173 212 254 320 390
#     4   9  19  34  62  92 123 153 207 257 310 367
#     4  11  23  38  61  94 128 161 212 267 319 371
#     4  10  23  36  62 102 127 160 211 270 312 368
#     4  10  20  37  58  90 121 154 196 254 313 363
#     4  10  19  38  63  93 122 166 216 255 307 387
#     4   9  18  37  61  90 114 162 209 256 304 372
#     4  10  20  35  60  94 121 145 199 267 307 348
#
# _framework density 20.850542000000001
#
# number of rings (size 3 to 8) (size 9 to 14) (size 15 to 20)
#    0.000    2.000    2.500    1.500    5.250    0.000 
#    0.000    0.000    0.000    7.500    0.000    0.000 
#    0.000    0.000    0.000    0.000    0.000    0.000 
#
# Total GULP energy -89169.192479 kJ/mol
# GULP energy per Si atom -5573.074530 kJ/mol
# Density = 2.080309 g / cm^3
# Si number density = 20.850542 Si / 1000 Ang^3
#
#
#
# Elastic Constant Matrix: (Units=GPa)
#
#
# Indices 1 2 3 4 5 6 
#
# 1 117.8287 19.1938 35.9654 0.0000 -6.8236 0.0000
# 2 19.1938 43.6856 20.0738 0.0000 -8.9210 0.0000
# 3 35.9654 20.0738 110.3027 0.0000 -21.2899 0.0000
# 4 0.0000 0.0000 0.0000 30.5491 0.0000 -9.6917
# 5 -6.8236 -8.9210 -21.2899 0.0000 31.2747 0.0000
# 6 0.0000 0.0000 0.0000 -9.6917 0.0000 20.8261
#
#
#
# Elastic Compliance Matrix: (Units=1/GPa)
#
#
# Indices 1 2 3 4 5 6 
#
# 1 0.009804 -0.003178 -0.002741 0.000000 -0.000633 0.000000
# 2 -0.003178 0.026609 -0.002850 0.000000 0.004957 0.000000
# 3 -0.002741 -0.002850 0.011750 0.000000 0.006588 0.000000
# 4 0.000000 0.000000 0.000000 0.038404 0.000000 0.017872
# 5 -0.000633 0.004957 0.006588 0.000000 0.037735 0.000000
# 6 0.000000 0.000000 0.000000 0.017872 0.000000 0.056333
#
#
# Mechanical properties :
#
#
# Convention : Reuss Voigt Hill
#
# Bulk Modulus (GPa) = 32.65109 46.92036 39.78572
# Shear Modulus (GPa) = 23.99462 29.63557 26.81510
#
# Velocity S-wave (km/s) = 3.39601 3.77415 3.59006
# Velocity P-wave (km/s) = 5.57412 6.44549 6.02557
#
# Compressibility (1/GPa) = 0.03062685
#
# Stress axis : x y z
#
# Youngs Moduli (GPa) = 101.99485 37.58183 85.10851
#
# Poissons Ratio (x) = 0.11942 0.23326
# Poissons Ratio (y) = 0.32410 0.24253
# Poissons Ratio (z) = 0.27954 0.10709
#
# Static dielectric constant tensor:
#      x y z
#    x 1.778040 0.000000 0.015930 
#    y 0.000000 1.822490 0.000000 
#    z 0.015930 0.000000 1.827320 
# 
# From -- ./inp_files/2060.got.cif
#   From: 2010.05.17/outbox.cif.g08.bks.cpg/sg4_2_cif.got.tgz:2060.got - 2010.06.03 18:43:04.
