data_PCOD9114577
_publ_section_title
;
Structure prediction by ZEFSAII (Michael W. Deem and Ramdas Pophale) SiO2 
 PCOD9114577
Probable space group: P 21
;
_chemical_formula_sum "Si O2"
_cell_formula_units_Z 16
_cell_length_a 8.057572
_cell_length_b 10.211133
_cell_length_c 7.535844
_cell_angle_alpha 90.000000
_cell_angle_beta 96.467739
_cell_angle_gamma 90.000000
_cell_volume 616.079985
_symmetry_space_group_name_H-M "P 21"
_symmetry_group_IT_number 4
_symmetry_cell_setting 'monoclinic'
loop_
_space_group_symop_operation_xyz
x,y,z
-x,1/2+y,-z
loop_
_atom_site_type_symbol
_atom_site_label
_atom_site_fract_x
_atom_site_fract_y
_atom_site_fract_z
Si Si1 0.666644 0.271950 0.051877
Si Si2 0.796181 0.858901 0.780789
Si Si3 0.759373 0.538156 0.148603
Si Si4 0.649144 0.080374 0.545377
Si Si5 0.556407 0.766401 0.290240
Si Si6 0.007068 0.765446 0.135147
Si Si7 0.104135 0.413988 0.561373
Si Si8 0.583260 0.602623 0.777361
O O1 0.582250 0.150556 0.139046
O O2 0.824394 0.238963 0.949536
O O3 0.725328 0.387954 0.187062
O O4 0.519668 0.321867 0.900954
O O5 0.880819 0.837189 0.980671
O O6 0.933905 0.863740 0.640600
O O7 0.677960 0.735014 0.733194
O O8 0.688575 0.987760 0.719897
O O9 0.927616 0.625060 0.181006
O O10 0.711902 0.542062 0.932733
O O11 0.630318 0.625399 0.241473
O O12 0.592457 0.224607 0.596284
O O13 0.491965 0.032863 0.404220
O O14 0.824377 0.061316 0.457713
O O15 0.720126 0.842113 0.370233
O O16 0.018722 0.865149 0.302266
#
# Coordination Sequence:
#
# PCOD9114577 Si02
#       8
#     2   2   2   2   2   2   2   2
#     4  11  23  37  62  92 120 159 207 247 298 372
#     4   9  20  37  62  84 119 159 200 247 305 353
#     4   9  21  37  60  86 118 165 199 249 312 344
#     4  10  18  32  58  88 114 152 194 254 302 340
#     4  10  19  36  59  90 116 150 208 262 297 351
#     4  10  22  42  60  84 126 164 200 234 306 378
#     4   9  20  37  62  84 119 159 200 247 305 353
#     4  10  19  36  59  90 116 150 208 262 297 351
#
# _framework density 25.970656000000002
#
# number of rings (size 3 to 8) (size 9 to 14) (size 15 to 20)
#    0.750    1.500    1.250    2.250    0.000    4.000 
#    2.250    0.000    0.000    0.000    0.000    0.000 
#    0.000    0.000    0.000    0.000    0.000    0.000 
#
# Total GULP energy -89262.658671 kJ/mol
# GULP energy per Si atom -5578.916167 kJ/mol
# Density = 2.591155 g / cm^3
# Si number density = 25.970656 Si / 1000 Ang^3
#
#
#
# Elastic Constant Matrix: (Units=GPa)
#
#
# Indices 1 2 3 4 5 6 
#
# 1 82.7945 6.7807 14.1452 0.0000 -2.6220 0.0000
# 2 6.7807 42.0570 -0.4063 0.0000 2.5019 0.0000
# 3 14.1452 -0.4063 78.3493 0.0000 4.1392 0.0000
# 4 0.0000 0.0000 0.0000 24.3935 0.0000 -2.6757
# 5 -2.6220 2.5019 4.1392 0.0000 45.1617 0.0000
# 6 0.0000 0.0000 0.0000 -2.6757 0.0000 21.5704
#
#
#
# Elastic Compliance Matrix: (Units=1/GPa)
#
#
# Indices 1 2 3 4 5 6 
#
# 1 0.012690 -0.002132 -0.002359 0.000000 0.001071 0.000000
# 2 -0.002132 0.024217 0.000591 0.000000 -0.001520 0.000000
# 3 -0.002359 0.000591 0.013265 0.000000 -0.001385 0.000000
# 4 0.000000 0.000000 0.000000 0.041560 0.000000 0.005155
# 5 0.001071 -0.001520 -0.001385 0.000000 0.022416 0.000000
# 6 0.000000 0.000000 0.000000 0.005155 0.000000 0.046999
#
#
# Mechanical properties :
#
#
# Convention : Reuss Voigt Hill
#
# Bulk Modulus (GPa) = 23.60060 27.13780 25.36920
# Shear Modulus (GPa) = 27.31170 30.40387 28.85779
#
# Velocity S-wave (km/s) = 3.24641 3.42526 3.33704
# Velocity P-wave (km/s) = 4.81242 5.11032 4.96360
#
# Compressibility (1/GPa) = 0.04237181
#
# Stress axis : x y z
#
# Youngs Moduli (GPa) = 78.80459 41.29308 75.38385
#
# Poissons Ratio (x) = 0.08805 0.17780
# Poissons Ratio (y) = 0.16804 -0.04454
# Poissons Ratio (z) = 0.18587 -0.02440
#
# Static dielectric constant tensor:
#      x y z
#    x 2.019430 0.000000 0.001510 
#    y 0.000000 2.170340 0.000000 
#    z 0.001510 0.000000 2.132660 
# 
# From -- ./inp_files/5955.got.cif
#   From: 2010.05.17/outbox.cif.g08.bks.cpg/sg4_3_cif.got.tgz:5955.got - 2010.06.03 18:43:04.
