data_PCOD9114089
_publ_section_title
;
Structure prediction by ZEFSAII (Michael W. Deem and Ramdas Pophale) SiO2 
 PCOD9114089
Probable space group: P 2
;
_chemical_formula_sum "Si O2"
_cell_formula_units_Z 13
_cell_length_a 20.980232
_cell_length_b 5.369102
_cell_length_c 15.064921
_cell_angle_alpha 90.000000
_cell_angle_beta 18.261700
_cell_angle_gamma 90.000000
_cell_volume 531.764345
_symmetry_space_group_name_H-M "P 2"
_symmetry_group_IT_number 3
_symmetry_cell_setting 'monoclinic'
loop_
_space_group_symop_operation_xyz
x,y,z
-x,y,-z
loop_
_atom_site_type_symbol
_atom_site_label
_atom_site_fract_x
_atom_site_fract_y
_atom_site_fract_z
Si Si1 0.202370 0.199230 0.544165
Si Si2 0.367780 0.685388 0.003170
Si Si3 0.149565 0.359431 0.170292
Si Si4 0.055489 0.690225 0.145178
Si Si5 0.500000 0.834569 0.500000
Si Si6 0.469945 0.037216 0.353199
Si Si7 0.500000 0.409351 0.000000
Si Si8 0.000000 0.055421 0.500000
O O1 0.061820 0.446593 0.736887
O O2 0.326359 0.182172 0.473406
O O3 0.353302 0.240251 0.259322
O O4 0.065257 0.947371 0.713045
O O5 0.259356 0.437776 0.114549
O O6 0.199407 0.893654 0.229608
O O7 0.501531 0.783864 0.743126
O O8 0.445146 0.611265 0.995783
O O9 0.070319 0.604672 0.228066
O O10 0.972758 0.194289 0.442165
O O11 0.320156 0.186105 0.901841
O O12 0.294907 0.694916 0.802944
O O13 0.407544 0.975381 0.535889
#
# Coordination Sequence:
#
# PCOD9114089 Si02
#       8
#     2   2   2   2   1   2   1   1
#     4  12  30  53  81 128 167 212 273 339 409 520
#     4  11  24  47  73 114 162 217 270 330 400 503
#     4  11  24  47  72 118 158 217 271 340 388 514
#     4  12  30  52  86 120 162 215 286 339 419 484
#     4  12  28  60  88 110 158 228 276 368 420 456
#     4  11  26  53  80 115 163 213 281 341 413 488
#     4  12  28  50  80 116 174 224 250 330 434 488
#     4  10  26  40  74 112 168 212 274 336 404 476
#
# _framework density 24.446918
#
# number of rings (size 3 to 8) (size 9 to 14) (size 15 to 20)
#    0.000    0.615    3.077    2.308    6.462    6.769 
#    0.000    4.615    0.000    0.000    0.000    0.000 
#    0.000    0.000    0.000    0.000    0.000    0.000 
#
# Total GULP energy -72449.720815 kJ/mol
# GULP energy per Si atom -5573.055447 kJ/mol
# Density = 2.439128 g / cm^3
# Si number density = 24.446918 Si / 1000 Ang^3
#
#
#
# Elastic Constant Matrix: (Units=GPa)
#
#
# Indices 1 2 3 4 5 6 
#
# 1 180.3244 44.0219 19.8604 0.0000 -2.8581 0.0000
# 2 44.0219 130.1222 53.4859 0.0000 1.9500 0.0000
# 3 19.8604 53.4859 89.0463 0.0000 5.8103 0.0000
# 4 0.0000 0.0000 0.0000 26.8552 0.0000 -9.1844
# 5 -2.8581 1.9500 5.8103 0.0000 31.5590 0.0000
# 6 0.0000 0.0000 0.0000 -9.1844 0.0000 43.9843
#
#
#
# Elastic Compliance Matrix: (Units=1/GPa)
#
#
# Indices 1 2 3 4 5 6 
#
# 1 0.006062 -0.001974 -0.000213 0.000000 0.000710 0.000000
# 2 -0.001974 0.010855 -0.006098 0.000000 0.000273 0.000000
# 3 -0.000213 -0.006098 0.015098 0.000000 -0.002422 0.000000
# 4 0.000000 0.000000 0.000000 0.040100 0.000000 0.008373
# 5 0.000710 0.000273 -0.002422 0.000000 0.032180 0.000000
# 6 0.000000 0.000000 0.000000 0.008373 0.000000 0.024484
#
#
# Mechanical properties :
#
#
# Convention : Reuss Voigt Hill
#
# Bulk Modulus (GPa) = 64.73923 70.46993 67.60458
# Shear Modulus (GPa) = 33.22302 39.28802 36.25552
#
# Velocity S-wave (km/s) = 3.69044 4.01318 3.85519
# Velocity P-wave (km/s) = 6.68567 7.09665 6.89422
#
# Compressibility (1/GPa) = 0.01544659
#
# Stress axis : x y z
#
# Youngs Moduli (GPa) = 164.95724 92.12068 66.23287
#
# Poissons Ratio (x) = 0.18186 0.01408
# Poissons Ratio (y) = 0.32565 0.40387
# Poissons Ratio (z) = 0.03508 0.56173
#
# Static dielectric constant tensor:
#      x y z
#    x 1.969910 0.000000 -0.067750 
#    y 0.000000 1.980120 0.000000 
#    z -0.067750 0.000000 1.998780 
# 
# From -- ./inp_files/14298.got.cif
#   From: 2010.05.17/outbox.cif.g08.bks.cpg/sg3_8_cif.got.tgz:14298.got - 2010.06.03 18:33:08.
