data_PCOD9114033
_publ_section_title
;
Structure prediction by ZEFSAII (Michael W. Deem and Ramdas Pophale) SiO2 
 PCOD9114033
Probable space group: P 2
;
_chemical_formula_sum "Si O2"
_cell_formula_units_Z 10
_cell_length_a 5.018539
_cell_length_b 9.400076
_cell_length_c 9.174780
_cell_angle_alpha 90.000000
_cell_angle_beta 114.871290
_cell_angle_gamma 90.000000
_cell_volume 392.675349
_symmetry_space_group_name_H-M "P 2"
_symmetry_group_IT_number 3
_symmetry_cell_setting 'monoclinic'
loop_
_space_group_symop_operation_xyz
x,y,z
-x,y,-z
loop_
_atom_site_type_symbol
_atom_site_label
_atom_site_fract_x
_atom_site_fract_y
_atom_site_fract_z
Si Si1 0.000000 0.003930 0.500000
Si Si2 0.067631 0.796984 0.759205
Si Si3 0.492415 0.198437 0.253116
Si Si4 0.500000 0.406242 0.500000
Si Si5 0.000000 0.001963 0.000000
Si Si6 0.568005 0.605123 0.760611
Si Si7 0.500000 0.400041 0.000000
O O1 0.741533 0.102446 0.381649
O O2 0.094744 0.898216 0.393175
O O3 0.131179 0.897282 0.909811
O O4 0.364743 0.734394 0.762653
O O5 0.859872 0.666565 0.755626
O O6 0.355194 0.297290 0.350387
O O7 0.628884 0.292501 0.151755
O O8 0.244172 0.101292 0.127008
O O9 0.384632 0.515041 0.597368
O O10 0.648474 0.509024 0.919597
#
# Coordination Sequence:
#
# PCOD9114033 Si02
#       7
#     1   2   2   1   1   2   1
#     4  12  26  46  76 108 150 192 246 304 370 440
#     4  12  26  46  76 108 150 192 246 304 370 440
#     4  11  25  46  74 110 145 197 244 306 368 437
#     4  10  24  46  74 104 148 190 248 300 364 436
#     4  12  26  46  76 108 150 192 246 304 370 440
#     4  11  25  46  74 110 145 197 244 306 368 437
#     4  10  24  46  74 104 148 190 248 300 364 436
#
# _framework density 25.466327
#
# number of rings (size 3 to 8) (size 9 to 14) (size 15 to 20)
#    0.000    0.800    0.000    6.000    0.000    9.600 
#    0.000    0.000    0.000    0.000    0.000    0.000 
#    0.000    0.000    0.000    0.000    0.000    0.000 
#
# Total GULP energy -55929.915065 kJ/mol
# GULP energy per Si atom -5592.991506 kJ/mol
# Density = 2.540836 g / cm^3
# Si number density = 25.466327 Si / 1000 Ang^3
#
#
#
# Elastic Constant Matrix: (Units=GPa)
#
#
# Indices 1 2 3 4 5 6 
#
# 1 48.6123 14.3629 49.0478 0.0000 12.8679 0.0000
# 2 14.3629 127.4919 94.2697 0.0000 1.7621 0.0000
# 3 49.0478 94.2697 207.0309 0.0000 -12.8465 0.0000
# 4 0.0000 0.0000 0.0000 94.1898 0.0000 -36.6122
# 5 12.8679 1.7621 -12.8465 0.0000 47.1992 0.0000
# 6 0.0000 0.0000 0.0000 -36.6122 0.0000 -8.0666
#
#
#
# Elastic Compliance Matrix: (Units=1/GPa)
#
#
# Indices 1 2 3 4 5 6 
#
# 1 0.033121 0.004206 -0.010509 0.000000 -0.012047 0.000000
# 2 0.004206 0.012536 -0.006922 0.000000 -0.003499 0.000000
# 3 -0.010509 -0.006922 0.010849 0.000000 0.006076 0.000000
# 4 0.000000 0.000000 0.000000 0.003841 0.000000 -0.017432
# 5 -0.012047 -0.003499 0.006076 0.000000 0.026256 0.000000
# 6 0.000000 0.000000 0.000000 -0.017432 0.000000 -0.044847
#
#
# Mechanical properties :
#
#
# Convention : Reuss Voigt Hill
#
# Bulk Modulus (GPa) = 33.27193 77.61065 55.44129
# Shear Modulus (GPa) = 63.91915 41.69479 52.80697
#
# Velocity S-wave (km/s) = 5.01537 4.05069 4.55862
# Velocity P-wave (km/s) = 6.82877 7.24012 7.03745
#
# Compressibility (1/GPa) = 0.03005537
#
# Stress axis : x y z
#
# Youngs Moduli (GPa) = 30.19270 79.76863 92.17615
#
# Poissons Ratio (x) = -0.33551 0.96871
# Poissons Ratio (y) = -0.12699 0.63803
# Poissons Ratio (z) = 0.31730 0.55214
#
# Static dielectric constant tensor:
#      x y z
#    x 1.936150 0.000000 0.005560 
#    y 0.000000 2.013650 0.000000 
#    z 0.005560 0.000000 1.966100 
# 
# From -- ./inp_files/4199.got.cif
#   From: 2010.05.17/outbox.cif.g08.bks.cpg/sg3_3_cif.got.tgz:4199.got - 2010.06.03 18:33:08.
