data_PCOD9114706
_publ_section_title
;
Structure prediction by ZEFSAII (Michael W. Deem and Ramdas Pophale) SiO2 
 PCOD9114706
Probable space group: P 21
;
_chemical_formula_sum "Si O2"
_cell_formula_units_Z 12
_cell_length_a 22.559022
_cell_length_b 4.962160
_cell_length_c 16.470390
_cell_angle_alpha 90.000000
_cell_angle_beta 160.637757
_cell_angle_gamma 90.000000
_cell_volume 611.265917
_symmetry_space_group_name_H-M "P 21"
_symmetry_group_IT_number 4
_symmetry_cell_setting 'monoclinic'
loop_
_space_group_symop_operation_xyz
x,y,z
-x,1/2+y,-z
loop_
_atom_site_type_symbol
_atom_site_label
_atom_site_fract_x
_atom_site_fract_y
_atom_site_fract_z
Si Si1 0.145072 0.591180 0.896761
Si Si2 0.891708 0.074506 0.392607
Si Si3 0.562346 0.723907 0.960258
Si Si4 0.648697 0.617071 0.897075
Si Si5 0.435071 0.350245 0.370302
Si Si6 0.229621 0.917726 0.625111
O O1 0.931950 0.594760 0.619422
O O2 0.025013 0.822557 0.550775
O O3 0.211552 0.365153 0.918562
O O4 0.237185 0.473394 0.097666
O O5 0.691879 0.979315 0.114762
O O6 0.865818 0.173284 0.451016
O O7 0.245935 0.863560 0.003154
O O8 0.656223 0.565812 0.156399
O O9 0.567554 0.572342 0.880774
O O10 0.368071 0.813415 0.737774
O O11 0.515984 0.725565 0.654985
O O12 0.552089 0.601264 0.551600
#
# Coordination Sequence:
#
# PCOD9114706 Si02
#       6
#     2   2   2   2   2   2
#     4  10  24  38  66  98 124 172 222 271 325 398
#     4  12  26  40  62  84 124 176 234 272 310 380
#     4  12  27  42  61  94 142 186 221 271 328 384
#     4  10  24  38  66  98 124 172 222 271 325 398
#     4  10  18  40  68  98 130 156 216 290 346 382
#     4  12  27  42  61  94 142 186 221 271 328 384
#
# _framework density 19.631388999999999
#
# number of rings (size 3 to 8) (size 9 to 14) (size 15 to 20)
#    1.000    0.000    5.000    1.000    9.333    0.000 
#    0.000    0.000    0.000    2.000    0.000    0.000 
#    0.000    0.000    0.000    0.000    0.000    0.000 
#
# Total GULP energy -66892.972396 kJ/mol
# GULP energy per Si atom -5574.414366 kJ/mol
# Density = 1.958671 g / cm^3
# Si number density = 19.631389 Si / 1000 Ang^3
#
#
#
# Elastic Constant Matrix: (Units=GPa)
#
#
# Indices 1 2 3 4 5 6 
#
# 1 82.1907 34.4883 58.2495 0.0000 5.7303 0.0000
# 2 34.4883 129.6413 34.7669 0.0000 4.0666 0.0000
# 3 58.2495 34.7669 85.8846 0.0000 -10.8545 0.0000
# 4 0.0000 0.0000 0.0000 28.9586 0.0000 1.2062
# 5 5.7303 4.0666 -10.8545 0.0000 35.3552 0.0000
# 6 0.0000 0.0000 0.0000 1.2062 0.0000 23.9916
#
#
#
# Elastic Compliance Matrix: (Units=1/GPa)
#
#
# Indices 1 2 3 4 5 6 
#
# 1 0.026936 -0.001816 -0.018788 0.000000 -0.009925 0.000000
# 2 -0.001816 0.008936 -0.002579 0.000000 -0.001525 0.000000
# 3 -0.018788 -0.002579 0.026896 0.000000 0.011599 0.000000
# 4 0.000000 0.000000 0.000000 0.034605 0.000000 -0.001740
# 5 -0.009925 -0.001525 0.011599 0.000000 0.033629 0.000000
# 6 0.000000 0.000000 0.000000 -0.001740 0.000000 0.041769
#
#
# Mechanical properties :
#
#
# Convention : Reuss Voigt Hill
#
# Bulk Modulus (GPa) = 60.96470 61.41398 61.18934
# Shear Modulus (GPa) = 22.26143 29.00856 25.63500
#
# Velocity S-wave (km/s) = 3.37110 3.84821 3.61753
# Velocity P-wave (km/s) = 6.80254 7.14818 6.97750
#
# Compressibility (1/GPa) = 0.01640293
#
# Stress axis : x y z
#
# Youngs Moduli (GPa) = 37.12485 111.90661 37.18024
#
# Poissons Ratio (x) = 0.20321 0.69855
# Poissons Ratio (y) = 0.06741 0.09587
# Poissons Ratio (z) = 0.69751 0.28856
#
# Static dielectric constant tensor:
#      x y z
#    x 1.703880 0.000000 -0.057350 
#    y 0.000000 1.773390 0.000000 
#    z -0.057350 0.000000 1.740030 
# 
# From -- ./inp_files/13116.got.cif
#   From: 2010.05.17/outbox.cif.g08.bks.cpg/sg4_7_cif.got.tgz:13116.got - 2010.06.03 18:43:04.
