data_PCOD9114921
_publ_section_title
;
Structure prediction by ZEFSAII (Michael W. Deem and Ramdas Pophale) SiO2 
 PCOD9114921
Probable space group: P 21
;
_chemical_formula_sum "Si O2"
_cell_formula_units_Z 12
_cell_length_a 12.646160
_cell_length_b 8.152276
_cell_length_c 7.619760
_cell_angle_alpha 90.000000
_cell_angle_beta 141.621124
_cell_angle_gamma 90.000000
_cell_volume 487.721255
_symmetry_space_group_name_H-M "P 21"
_symmetry_group_IT_number 4
_symmetry_cell_setting 'monoclinic'
loop_
_space_group_symop_operation_xyz
x,y,z
-x,1/2+y,-z
loop_
_atom_site_type_symbol
_atom_site_label
_atom_site_fract_x
_atom_site_fract_y
_atom_site_fract_z
Si Si1 0.810760 0.401410 0.203584
Si Si2 0.418523 0.195840 0.145484
Si Si3 0.716331 0.330758 0.707549
Si Si4 0.212296 0.178983 0.305382
Si Si5 0.447615 0.386169 0.863893
Si Si6 0.981837 0.391401 0.780120
O O1 0.956490 0.389105 0.538536
O O2 0.756120 0.591162 0.092597
O O3 0.817663 0.318984 0.022210
O O4 0.641259 0.331059 0.075254
O O5 0.535136 0.243059 0.462850
O O6 0.540267 0.068670 0.195219
O O7 0.405553 0.359166 0.011639
O O8 0.685718 0.526029 0.643439
O O9 0.832881 0.291127 0.690647
O O10 0.317948 0.275503 0.586905
O O11 0.061134 0.073401 0.202825
O O12 0.148979 0.309641 0.078932
#
# Coordination Sequence:
#
# PCOD9114921 Si02
#       6
#     2   2   2   2   2   2
#     4  10  22  37  68  89 125 154 212 261 313 366
#     4  10  19  37  64  94 124 156 211 259 313 366
#     4  10  22  40  60  92 124 163 210 260 312 368
#     4  10  22  38  63  85 127 163 212 252 308 377
#     4  10  19  36  65  93 116 166 202 261 315 361
#     4  10  22  42  58  87 124 168 203 255 309 372
#
# _framework density 24.604220000000002
#
# number of rings (size 3 to 8) (size 9 to 14) (size 15 to 20)
#    2.000    0.000    3.333    1.000    4.667    0.000 
#    3.000    0.000    0.000    0.000    0.000    0.000 
#    0.000    0.000    0.000    0.000    0.000    0.000 
#
# Total GULP energy -66812.426066 kJ/mol
# GULP energy per Si atom -5567.702172 kJ/mol
# Density = 2.454822 g / cm^3
# Si number density = 24.604220 Si / 1000 Ang^3
#
#
#
# Elastic Constant Matrix: (Units=GPa)
#
#
# Indices 1 2 3 4 5 6 
#
# 1 36.8831 6.8994 7.8850 0.0000 -12.8030 0.0000
# 2 6.8994 52.6719 38.1049 0.0000 8.8753 0.0000
# 3 7.8850 38.1049 123.8530 0.0000 -37.2609 0.0000
# 4 0.0000 0.0000 0.0000 52.9075 0.0000 3.4788
# 5 -12.8030 8.8753 -37.2609 0.0000 41.5558 0.0000
# 6 0.0000 0.0000 0.0000 3.4788 0.0000 33.7355
#
#
#
# Elastic Compliance Matrix: (Units=1/GPa)
#
#
# Indices 1 2 3 4 5 6 
#
# 1 0.035734 -0.014998 0.009059 0.000000 0.022335 0.000000
# 2 -0.014998 0.042902 -0.022446 0.000000 -0.033910 0.000000
# 3 0.009059 -0.022446 0.022849 0.000000 0.028072 0.000000
# 4 0.000000 0.000000 0.000000 0.019030 0.000000 -0.001962
# 5 0.022335 -0.033910 0.028072 0.000000 0.063358 0.000000
# 6 0.000000 0.000000 0.000000 -0.001962 0.000000 0.029845
#
#
# Mechanical properties :
#
#
# Convention : Reuss Voigt Hill
#
# Bulk Modulus (GPa) = 22.36395 35.46518 28.91456
# Shear Modulus (GPa) = 17.51963 36.34101 26.93032
#
# Velocity S-wave (km/s) = 2.67134 3.84738 3.31197
# Velocity P-wave (km/s) = 4.31554 5.84653 5.13838
#
# Compressibility (1/GPa) = 0.04471483
#
# Stress axis : x y z
#
# Youngs Moduli (GPa) = 27.98418 23.30871 43.76617
#
# Poissons Ratio (x) = 0.34957 -0.39646
# Poissons Ratio (y) = 0.41969 0.98239
# Poissons Ratio (z) = -0.25350 0.52320
#
# Static dielectric constant tensor:
#      x y z
#    x 2.088800 0.000000 -0.026280 
#    y 0.000000 1.933140 0.000000 
#    z -0.026280 0.000000 1.914180 
# 
# From -- ./inp_files/9636.got.cif
#   From: 2010.05.17/outbox.cif.g08.bks.cpg/sg4_5_cif.got.tgz:9636.got - 2010.06.03 18:43:04.
