data_PCOD9114347
_publ_section_title
;
Structure prediction by ZEFSAII (Michael W. Deem and Ramdas Pophale) SiO2 
 PCOD9114347
Probable space group: P 2
;
_chemical_formula_sum "Si O2"
_cell_formula_units_Z 14
_cell_length_a 14.141556
_cell_length_b 4.918084
_cell_length_c 9.932280
_cell_angle_alpha 90.000000
_cell_angle_beta 117.990922
_cell_angle_gamma 90.000000
_cell_volume 609.977198
_symmetry_space_group_name_H-M "P 2"
_symmetry_group_IT_number 3
_symmetry_cell_setting 'monoclinic'
loop_
_space_group_symop_operation_xyz
x,y,z
-x,y,-z
loop_
_atom_site_type_symbol
_atom_site_label
_atom_site_fract_x
_atom_site_fract_y
_atom_site_fract_z
Si Si1 0.326501 0.644560 0.648288
Si Si2 0.469292 0.140149 0.826179
Si Si3 0.626924 0.413330 0.606527
Si Si4 0.102988 0.106335 0.010897
Si Si5 0.932714 0.351940 0.736517
Si Si6 0.100130 0.852967 0.466910
Si Si7 0.670755 0.930019 0.797810
O O1 0.402006 0.420178 0.771216
O O2 0.321633 0.542203 0.491439
O O3 0.205354 0.724171 0.607524
O O4 0.391586 0.920456 0.708140
O O5 0.580606 0.086668 0.822619
O O6 0.500000 0.086746 0.000000
O O7 0.500000 0.396634 0.500000
O O8 0.669017 0.112056 0.661547
O O9 0.644754 0.623360 0.740840
O O10 0.117944 0.313075 0.148177
O O11 0.212041 0.952599 0.060629
O O12 0.000000 0.938070 0.000000
O O13 0.054874 0.256848 0.849556
O O14 0.927765 0.648388 0.673172
O O15 0.883598 0.143726 0.594340
O O16 0.000000 0.869771 0.500000
#
# Coordination Sequence:
#
# PCOD9114347 Si02
#       7
#     2   2   2   2   2   2   2
#     4  12  25  43  63  95 121 161 203 263 302 355
#     4  12  26  43  63  88 129 165 206 244 302 371
#     4  12  22  39  69  92 127 149 213 252 312 357
#     4   8  22  41  65  90 130 156 205 255 306 360
#     4   9  22  42  61  95 121 162 202 252 309 351
#     4  12  24  41  66  89 126 162 207 247 306 365
#     4  12  22  41  63  97 119 170 197 253 308 363
#
# _framework density 22.951675000000002
#
# number of rings (size 3 to 8) (size 9 to 14) (size 15 to 20)
#    0.857    0.000    2.857    4.714    0.000    5.714 
#    0.000    0.000    0.000    0.000    0.000    0.000 
#    0.000    0.000    0.000    0.000    0.000    0.000 
#
# Total GULP energy -78206.300076 kJ/mol
# GULP energy per Si atom -5586.164291 kJ/mol
# Density = 2.289944 g / cm^3
# Si number density = 22.951675 Si / 1000 Ang^3
#
#
#
# Elastic Constant Matrix: (Units=GPa)
#
#
# Indices 1 2 3 4 5 6 
#
# 1 124.2982 9.7872 23.9449 0.0000 28.8210 0.0000
# 2 9.7872 83.6894 -3.9533 0.0000 3.0547 0.0000
# 3 23.9449 -3.9533 54.3533 0.0000 3.6093 0.0000
# 4 0.0000 0.0000 0.0000 -1.0326 0.0000 -1.5402
# 5 28.8210 3.0547 3.6093 0.0000 41.2388 0.0000
# 6 0.0000 0.0000 0.0000 -1.5402 0.0000 17.9283
#
#
#
# Elastic Compliance Matrix: (Units=1/GPa)
#
#
# Indices 1 2 3 4 5 6 
#
# 1 0.010569 -0.001186 -0.004283 0.000000 -0.006924 0.000000
# 2 -0.001186 0.012162 0.001420 0.000000 -0.000197 0.000000
# 3 -0.004283 0.001420 0.020314 0.000000 0.001110 0.000000
# 4 0.000000 0.000000 0.000000 -0.858437 0.000000 -0.073749
# 5 -0.006924 -0.000197 0.001110 0.000000 0.029005 0.000000
# 6 0.000000 0.000000 0.000000 -0.073749 0.000000 0.049442
#
#
# Mechanical properties :
#
#
# Convention : Reuss Voigt Hill
#
# Bulk Modulus (GPa) = 28.61333 35.76653 32.18993
# Shear Modulus (GPa) = -6.97157 27.13105 10.07974
#
# Velocity S-wave (km/s) = -1.74473 3.44189 2.09792
# Velocity P-wave (km/s) = 2.90432 5.60470 4.46362
#
# Compressibility (1/GPa) = 0.03494875
#
# Stress axis : x y z
#
# Youngs Moduli (GPa) = 94.61707 82.22438 49.22627
#
# Poissons Ratio (x) = 0.09748 0.21081
# Poissons Ratio (y) = 0.11218 -0.06990
# Poissons Ratio (z) = 0.40520 -0.11675
#
# Static dielectric constant tensor:
#      x y z
#    x 1.990100 0.000000 0.027550 
#    y 0.000000 1.821980 0.000000 
#    z 0.027550 0.000000 1.887950 
# 
# From -- ./inp_files/8078.got.cif
#   From: 2010.05.17/outbox.cif.g08.bks.cpg/sg3_5_cif.got.tgz:8078.got - 2010.06.03 18:33:08.
