data_PCOD9114663
_publ_section_title
;
Structure prediction by ZEFSAII (Michael W. Deem and Ramdas Pophale) SiO2 
 PCOD9114663
Probable space group: P 21
;
_chemical_formula_sum "Si O2"
_cell_formula_units_Z 16
_cell_length_a 8.034100
_cell_length_b 8.850666
_cell_length_c 16.391672
_cell_angle_alpha 90.000000
_cell_angle_beta 34.448981
_cell_angle_gamma 90.000000
_cell_volume 659.327595
_symmetry_space_group_name_H-M "P 21"
_symmetry_group_IT_number 4
_symmetry_cell_setting 'monoclinic'
loop_
_space_group_symop_operation_xyz
x,y,z
-x,1/2+y,-z
loop_
_atom_site_type_symbol
_atom_site_label
_atom_site_fract_x
_atom_site_fract_y
_atom_site_fract_z
Si Si1 0.627603 0.747260 0.803232
Si Si2 0.235828 0.672243 0.578432
Si Si3 0.467830 0.965821 0.414461
Si Si4 0.856516 0.102282 0.116069
Si Si5 0.170924 0.592784 0.306916
Si Si6 0.944631 0.359805 0.191182
Si Si7 0.298083 0.104669 0.800948
Si Si8 0.794433 0.165539 0.891269
O O1 0.385283 0.686954 0.839756
O O2 0.913682 0.642137 0.673741
O O3 0.708894 0.921503 0.755738
O O4 0.491254 0.727577 0.948762
O O5 0.394651 0.532852 0.556905
O O6 0.153967 0.782608 0.686717
O O7 0.404566 0.787551 0.451058
O O8 0.683860 0.005977 0.252965
O O9 0.162115 0.060507 0.529007
O O10 0.032297 0.229776 0.094391
O O11 0.090184 0.037799 0.958072
O O12 0.403238 0.660695 0.277970
O O13 0.168197 0.682223 0.221135
O O14 0.665338 0.458235 0.271474
O O15 0.193240 0.484642 0.101454
O O16 0.073073 0.206663 0.837461
#
# Coordination Sequence:
#
# PCOD9114663 Si02
#       8
#     2   2   2   2   2   2   2   2
#     4  10  18  37  61  86 117 163 199 251 315 358
#     4  10  21  41  63  84 126 169 202 261 302 369
#     4  10  22  41  59  90 123 165 211 243 314 373
#     4  10  20  36  60  88 121 157 200 255 309 376
#     4  11  20  38  63  86 120 165 199 249 312 366
#     4   9  17  36  58  80 122 153 195 253 307 350
#     4   9  19  34  58  86 115 146 196 253 299 351
#     4   9  19  33  58  90 110 152 206 241 298 373
#
# _framework density 24.267147000000001
#
# number of rings (size 3 to 8) (size 9 to 14) (size 15 to 20)
#    0.750    1.500    3.750    0.000    3.500    0.000 
#    6.750    2.500    2.750    0.000    0.000    0.000 
#    0.000    0.000    0.000    0.000    0.000    0.000 
#
# Total GULP energy -89272.686029 kJ/mol
# GULP energy per Si atom -5579.542877 kJ/mol
# Density = 2.421191 g / cm^3
# Si number density = 24.267147 Si / 1000 Ang^3
#
#
#
# Elastic Constant Matrix: (Units=GPa)
#
#
# Indices 1 2 3 4 5 6 
#
# 1 119.0762 17.6329 25.0174 0.0000 -4.3985 0.0000
# 2 17.6329 37.6349 14.3021 0.0000 -1.2908 0.0000
# 3 25.0174 14.3021 100.6429 0.0000 -5.0075 0.0000
# 4 0.0000 0.0000 0.0000 32.0975 0.0000 -4.9012
# 5 -4.3985 -1.2908 -5.0075 0.0000 41.3191 0.0000
# 6 0.0000 0.0000 0.0000 -4.9012 0.0000 22.3922
#
#
#
# Elastic Compliance Matrix: (Units=1/GPa)
#
#
# Indices 1 2 3 4 5 6 
#
# 1 0.009339 -0.003682 -0.001765 0.000000 0.000665 0.000000
# 2 -0.003682 0.029546 -0.003277 0.000000 0.000134 0.000000
# 3 -0.001765 -0.003277 0.010892 0.000000 0.001030 0.000000
# 4 0.000000 0.000000 0.000000 0.032232 0.000000 0.007055
# 5 0.000665 0.000134 0.001030 0.000000 0.024402 0.000000
# 6 0.000000 0.000000 0.000000 0.007055 0.000000 0.046203
#
#
# Mechanical properties :
#
#
# Convention : Reuss Voigt Hill
#
# Bulk Modulus (GPa) = 30.93199 41.25099 36.09149
# Shear Modulus (GPa) = 27.64929 32.52188 30.08558
#
# Velocity S-wave (km/s) = 3.37912 3.66479 3.52485
# Velocity P-wave (km/s) = 5.29138 5.91128 5.60990
#
# Compressibility (1/GPa) = 0.03232899
#
# Stress axis : x y z
#
# Youngs Moduli (GPa) = 107.08262 33.84555 91.81252
#
# Poissons Ratio (x) = 0.12461 0.16205
# Poissons Ratio (y) = 0.39426 0.30085
# Poissons Ratio (z) = 0.18901 0.11091
#
# Static dielectric constant tensor:
#      x y z
#    x 2.042150 0.000000 0.000140 
#    y 0.000000 1.932840 0.000000 
#    z 0.000140 0.000000 1.967480 
# 
# From -- ./inp_files/14982.got.cif
#   From: 2010.05.17/outbox.cif.g08.bks.cpg/sg4_8_cif.got.tgz:14982.got - 2010.06.03 18:43:04.
