data_PCOD9114805
_publ_section_title
;
Structure prediction by ZEFSAII (Michael W. Deem and Ramdas Pophale) SiO2 
 PCOD9114805
Probable space group: P 21
;
_chemical_formula_sum "Si O2"
_cell_formula_units_Z 16
_cell_length_a 10.714902
_cell_length_b 13.022726
_cell_length_c 5.541376
_cell_angle_alpha 90.000000
_cell_angle_beta 60.939234
_cell_angle_gamma 90.000000
_cell_volume 675.882733
_symmetry_space_group_name_H-M "P 21"
_symmetry_group_IT_number 4
_symmetry_cell_setting 'monoclinic'
loop_
_space_group_symop_operation_xyz
x,y,z
-x,1/2+y,-z
loop_
_atom_site_type_symbol
_atom_site_label
_atom_site_fract_x
_atom_site_fract_y
_atom_site_fract_z
Si Si1 0.219381 0.470100 0.801866
Si Si2 0.615471 0.414442 0.295440
Si Si3 0.365321 0.253780 0.569716
Si Si4 0.949669 0.366732 0.991090
Si Si5 0.282299 0.581798 0.244414
Si Si6 0.577105 0.701572 0.985126
Si Si7 0.409352 0.907782 0.184146
Si Si8 0.892211 0.281938 0.544925
O O1 0.268124 0.352796 0.711606
O O2 0.277834 0.530063 0.513262
O O3 0.261681 0.511607 0.026080
O O4 0.048276 0.464966 0.941452
O O5 0.525709 0.306227 0.391514
O O6 0.782306 0.392537 0.140094
O O7 0.575414 0.467943 0.582173
O O8 0.581446 0.466235 0.074670
O O9 0.358576 0.181975 0.810819
O O10 0.332942 0.199728 0.345317
O O11 0.966203 0.297022 0.215961
O O12 0.978287 0.320089 0.698718
O O13 0.429055 0.643752 0.082129
O O14 0.157021 0.666404 0.364008
O O15 0.530819 0.821794 0.056927
O O16 0.256103 0.849308 0.329744
#
# Coordination Sequence:
#
# PCOD9114805 Si02
#       8
#     2   2   2   2   2   2   2   2
#     4  12  24  35  56  97 130 140 180 270 324 317
#     4   8  14  27  48  69  96 138 186 216 252 329
#     4  10  19  34  56  84 113 152 197 238 284 354
#     4  10  19  34  56  84 113 152 197 238 284 354
#     4  11  22  38  60  90 120 155 198 247 296 352
#     4   9  17  33  56  76 104 154 203 224 263 358
#     4   7  12  22  44  74  88 113 180 237 238 276
#     4   9  17  33  56  76 104 154 203 224 263 358
#
# _framework density 23.672743000000001
#
# number of rings (size 3 to 8) (size 9 to 14) (size 15 to 20)
#    0.000    2.500    0.000    4.500    0.000    2.000 
#    0.000    0.000    0.000    9.000    0.000    0.000 
#    0.000    0.000    0.000    0.000    0.000    0.000 
#
# Total GULP energy -89305.390449 kJ/mol
# GULP energy per Si atom -5581.586903 kJ/mol
# Density = 2.361886 g / cm^3
# Si number density = 23.672743 Si / 1000 Ang^3
#
#
#
# Elastic Constant Matrix: (Units=GPa)
#
#
# Indices 1 2 3 4 5 6 
#
# 1 56.2197 7.4628 47.3369 0.0000 23.3160 0.0000
# 2 7.4628 35.1479 16.9720 0.0000 6.5522 0.0000
# 3 47.3369 16.9720 165.9788 0.0000 69.1623 0.0000
# 4 0.0000 0.0000 0.0000 28.2593 0.0000 6.3552
# 5 23.3160 6.5522 69.1623 0.0000 59.9256 0.0000
# 6 0.0000 0.0000 0.0000 6.3552 0.0000 31.4189
#
#
#
# Elastic Compliance Matrix: (Units=1/GPa)
#
#
# Indices 1 2 3 4 5 6 
#
# 1 0.023759 -0.001908 -0.005425 0.000000 -0.002775 0.000000
# 2 -0.001908 0.030090 -0.002834 0.000000 0.000723 0.000000
# 3 -0.005425 -0.002834 0.013203 0.000000 -0.012817 0.000000
# 4 0.000000 0.000000 0.000000 0.037073 0.000000 -0.007499
# 5 -0.002775 0.000723 -0.012817 0.000000 0.032480 0.000000
# 6 0.000000 0.000000 0.000000 -0.007499 0.000000 0.033345
#
#
# Mechanical properties :
#
#
# Convention : Reuss Voigt Hill
#
# Bulk Modulus (GPa) = 21.40494 44.54329 32.97412
# Shear Modulus (GPa) = 24.28886 36.29243 30.29064
#
# Velocity S-wave (km/s) = 3.20664 3.91972 3.58097
# Velocity P-wave (km/s) = 4.77197 6.27238 5.57290
#
# Compressibility (1/GPa) = 0.04671819
#
# Stress axis : x y z
#
# Youngs Moduli (GPa) = 42.08932 33.23364 75.74304
#
# Poissons Ratio (x) = 0.06341 0.41089
# Poissons Ratio (y) = 0.08030 0.21466
# Poissons Ratio (z) = 0.22832 0.09419
#
# Static dielectric constant tensor:
#      x y z
#    x 1.950580 0.000000 0.049470 
#    y 0.000000 1.869910 0.000000 
#    z 0.049470 0.000000 1.971100 
# 
# From -- ./inp_files/3046.got.cif
#   From: 2010.05.17/outbox.cif.g08.bks.cpg/sg4_2_cif.got.tgz:3046.got - 2010.06.03 18:43:04.
