data_PCOD9114686
_publ_section_title
;
Structure prediction by ZEFSAII (Michael W. Deem and Ramdas Pophale) SiO2 
 PCOD9114686
Probable space group: P 21
;
_chemical_formula_sum "Si O2"
_cell_formula_units_Z 14
_cell_length_a 8.551399
_cell_length_b 10.771567
_cell_length_c 11.150549
_cell_angle_alpha 90.000000
_cell_angle_beta 43.000491
_cell_angle_gamma 90.000000
_cell_volume 700.486274
_symmetry_space_group_name_H-M "P 21"
_symmetry_group_IT_number 4
_symmetry_cell_setting 'monoclinic'
loop_
_space_group_symop_operation_xyz
x,y,z
-x,1/2+y,-z
loop_
_atom_site_type_symbol
_atom_site_label
_atom_site_fract_x
_atom_site_fract_y
_atom_site_fract_z
Si Si1 0.784180 0.404860 0.323536
Si Si2 0.311823 0.400588 0.029563
Si Si3 0.352739 0.411889 0.719214
Si Si4 0.114398 0.028198 0.100683
Si Si5 0.422822 0.151409 0.092838
Si Si6 0.668117 0.284858 0.141971
Si Si7 0.142581 0.159538 0.851427
O O1 0.607797 0.427707 0.529253
O O2 0.683420 0.315007 0.274879
O O3 0.807367 0.534850 0.243495
O O4 0.045425 0.373780 0.211754
O O5 0.327854 0.416506 0.876522
O O6 0.401273 0.535297 0.027187
O O7 0.448437 0.278246 0.999396
O O8 0.287453 0.271912 0.721206
O O9 0.152518 0.495335 0.771319
O O10 0.187276 0.081522 0.188116
O O11 0.263074 0.910263 0.969839
O O12 0.183194 0.135333 0.968598
O O13 0.452733 0.210471 0.208913
O O14 0.879396 0.196468 0.991114
#
# Coordination Sequence:
#
# PCOD9114686 Si02
#       7
#     2   2   2   2   2   2   2
#     4  11  23  41  69  99 126 178 232 273 324 398
#     4  12  24  42  68  96 136 174 228 272 338 400
#     4  11  23  41  69  99 126 178 232 273 324 398
#     4  10  19  37  64  94 123 169 220 268 326 393
#     4  12  22  38  70  96 132 182 206 276 354 386
#     4  10  19  37  64  94 123 169 220 268 326 393
#     4  10  18  38  66  92 128 166 224 274 322 388
#
# _framework density 19.986115000000002
#
# number of rings (size 3 to 8) (size 9 to 14) (size 15 to 20)
#    0.000    1.143    8.571    0.000    0.000    3.429 
#    0.000    2.857    0.000    0.000    0.000    0.000 
#    0.000    0.000    0.000    0.000    0.000    0.000 
#
# Total GULP energy -77945.365828 kJ/mol
# GULP energy per Si atom -5567.526131 kJ/mol
# Density = 1.994063 g / cm^3
# Si number density = 19.986115 Si / 1000 Ang^3
#
#
#
# Elastic Constant Matrix: (Units=GPa)
#
#
# Indices 1 2 3 4 5 6 
#
# 1 93.5417 42.6657 18.3849 0.0000 -10.9812 0.0000
# 2 42.6657 111.6155 10.5141 0.0000 -4.8683 0.0000
# 3 18.3849 10.5141 71.3626 0.0000 -11.4119 0.0000
# 4 0.0000 0.0000 0.0000 7.9205 0.0000 -2.2309
# 5 -10.9812 -4.8683 -11.4119 0.0000 7.3466 0.0000
# 6 0.0000 0.0000 0.0000 -2.2309 0.0000 52.2305
#
#
#
# Elastic Compliance Matrix: (Units=1/GPa)
#
#
# Indices 1 2 3 4 5 6 
#
# 1 0.015251 -0.004976 -0.000103 0.000000 0.019337 0.000000
# 2 -0.004976 0.010864 -0.000475 0.000000 -0.000977 0.000000
# 3 -0.000103 -0.000475 0.018673 0.000000 0.028537 0.000000
# 4 0.000000 0.000000 0.000000 0.127793 0.000000 0.005458
# 5 0.019337 -0.000977 0.028537 0.000000 0.208702 0.000000
# 6 0.000000 0.000000 0.000000 0.005458 0.000000 0.019379
#
#
# Mechanical properties :
#
#
# Convention : Reuss Voigt Hill
#
# Bulk Modulus (GPa) = 29.69302 46.62768 38.16035
# Shear Modulus (GPa) = 11.82044 27.16318 19.49181
#
# Velocity S-wave (km/s) = 2.43458 3.69060 3.12632
# Velocity P-wave (km/s) = 4.77409 6.44526 5.67157
#
# Compressibility (1/GPa) = 0.03367794
#
# Stress axis : x y z
#
# Youngs Moduli (GPa) = 65.57090 92.04941 53.55333
#
# Poissons Ratio (x) = 0.45808 0.00554
# Poissons Ratio (y) = 0.32631 0.02542
# Poissons Ratio (z) = 0.00678 0.04370
#
# Static dielectric constant tensor:
#      x y z
#    x 1.829900 0.000000 -0.009960 
#    y 0.000000 1.778330 0.000000 
#    z -0.009960 0.000000 1.674040 
# 
# From -- ./inp_files/5942.got.cif
#   From: 2010.05.17/outbox.cif.g08.bks.cpg/sg4_3_cif.got.tgz:5942.got - 2010.06.03 18:43:04.
