data_PCOD9114433
_publ_section_title
;
Structure prediction by ZEFSAII (Michael W. Deem and Ramdas Pophale) SiO2 
 PCOD9114433
Probable space group: P 2
;
_chemical_formula_sum "Si O2"
_cell_formula_units_Z 11
_cell_length_a 9.000000
_cell_length_b 6.000000
_cell_length_c 9.000000
_cell_angle_alpha 90.000000
_cell_angle_beta 70.000000
_cell_angle_gamma 90.000000
_cell_volume 456.690614
_symmetry_space_group_name_H-M "P 2"
_symmetry_group_IT_number 3
_symmetry_cell_setting 'monoclinic'
loop_
_space_group_symop_operation_xyz
x,y,z
-x,y,-z
loop_
_atom_site_type_symbol
_atom_site_label
_atom_site_fract_x
_atom_site_fract_y
_atom_site_fract_z
Si Si1 0.952035 0.107590 0.672920
Si Si2 0.663752 0.407773 0.711934
Si Si3 0.609434 0.062520 0.227098
Si Si4 0.129013 0.387508 0.856046
Si Si5 0.224417 0.746665 0.596077
Si Si6 0.500000 0.726203 0.000000
O O1 0.771757 0.194114 0.728531
O O2 0.000000 0.214452 0.500000
O O3 0.027217 0.236876 0.781288
O O4 0.051300 0.870804 0.636524
O O5 0.518141 0.259300 0.699660
O O6 0.723075 0.597576 0.568041
O O7 0.619553 0.558866 0.871218
O O8 0.754373 0.208864 0.112657
O O9 0.664241 0.937284 0.362531
O O10 0.562957 0.884520 0.113838
O O11 0.217514 0.566253 0.728087
O O12 0.000000 0.508515 0.000000
#
# Coordination Sequence:
#
# PCOD9114433 Si02
#       6
#     2   2   2   2   2   1
#     4  11  27  51  79 115 153 211 272 334 392 480
#     4  12  29  55  81 119 168 205 282 332 394 491
#     4  11  29  53  77 123 158 216 270 332 401 485
#     4  11  27  50  78 116 166 208 269 332 402 482
#     4  11  28  53  82 116 163 218 262 336 415 464
#     4  12  30  50  86 116 162 220 262 336 410 458
#
# _framework density 24.086328000000002
#
# number of rings (size 3 to 8) (size 9 to 14) (size 15 to 20)
#    0.000    0.727    1.818    1.636   12.727    7.273 
#    0.000    0.000    0.000    0.000    0.000    0.000 
#    0.000    0.000    0.000    0.000    0.000    0.000 
#
# Total GULP energy -61291.435561 kJ/mol
# GULP energy per Si atom -5571.948687 kJ/mol
# Density = 2.403151 g / cm^3
# Si number density = 24.086328 Si / 1000 Ang^3
#
#
#
# Elastic Constant Matrix: (Units=GPa)
#
#
# Indices 1 2 3 4 5 6 
#
# 1 121.3329 69.2272 15.0187 0.0000 6.6298 0.0000
# 2 69.2272 127.7288 52.0758 0.0000 -11.5074 0.0000
# 3 15.0187 52.0758 102.2201 0.0000 -6.3446 0.0000
# 4 0.0000 0.0000 0.0000 66.2265 0.0000 28.4094
# 5 6.6298 -11.5074 -6.3446 0.0000 27.0375 0.0000
# 6 0.0000 0.0000 0.0000 28.4094 0.0000 108.9629
#
#
#
# Elastic Compliance Matrix: (Units=1/GPa)
#
#
# Indices 1 2 3 4 5 6 
#
# 1 0.013237 -0.008579 0.002027 0.000000 -0.006421 0.000000
# 2 -0.008579 0.015699 -0.006284 0.000000 0.007311 0.000000
# 3 0.002027 -0.006284 0.012674 0.000000 -0.000197 0.000000
# 4 0.000000 0.000000 0.000000 0.017001 0.000000 -0.004433
# 5 -0.006421 0.007311 -0.000197 0.000000 0.041626 0.000000
# 6 0.000000 0.000000 0.000000 -0.004433 0.000000 0.010333
#
#
# Mechanical properties :
#
#
# Convention : Reuss Voigt Hill
#
# Bulk Modulus (GPa) = 62.74023 69.32504 66.03264
# Shear Modulus (GPa) = 35.32223 54.77605 45.04914
#
# Velocity S-wave (km/s) = 3.83363 4.77398 4.32941
# Velocity P-wave (km/s) = 6.76019 7.69625 7.24336
#
# Compressibility (1/GPa) = 0.01593874
#
# Stress axis : x y z
#
# Youngs Moduli (GPa) = 75.54835 63.69663 78.90192
#
# Poissons Ratio (x) = 0.54646 -0.15995
# Poissons Ratio (y) = 0.64813 0.49580
# Poissons Ratio (z) = -0.15315 0.40026
#
# Static dielectric constant tensor:
#      x y z
#    x 2.082090 0.000000 -0.091930 
#    y 0.000000 1.895300 0.000000 
#    z -0.091930 0.000000 1.933380 
# 
# From -- ./inp_files/4863.got.cif
#   From: 2010.05.17/outbox.ucp.g08.bks.cvg/sg3_3_cif.got.tgz:4863.got - 2010.06.11 12:50:29.
