data_PCOD9114725
_publ_section_title
;
Structure prediction by ZEFSAII (Michael W. Deem and Ramdas Pophale) SiO2 
 PCOD9114725
Probable space group: P 21
;
_chemical_formula_sum "Si O2"
_cell_formula_units_Z 16
_cell_length_a 8.250845
_cell_length_b 5.630770
_cell_length_c 31.542991
_cell_angle_alpha 90.000000
_cell_angle_beta 23.134521
_cell_angle_gamma 90.000000
_cell_volume 575.759930
_symmetry_space_group_name_H-M "P 21"
_symmetry_group_IT_number 4
_symmetry_cell_setting 'monoclinic'
loop_
_space_group_symop_operation_xyz
x,y,z
-x,1/2+y,-z
loop_
_atom_site_type_symbol
_atom_site_label
_atom_site_fract_x
_atom_site_fract_y
_atom_site_fract_z
Si Si1 0.268723 0.993770 0.887700
Si Si2 0.904973 0.660297 0.639402
Si Si3 0.489551 0.995195 0.139074
Si Si4 0.039017 0.128232 0.164942
Si Si5 0.985672 0.125290 0.861170
Si Si6 0.416502 0.660806 0.431855
Si Si7 0.910647 0.161350 0.634624
Si Si8 0.594830 0.663746 0.572324
O O1 0.449198 0.723186 0.844377
O O2 0.533911 0.228417 0.836332
O O3 0.082955 0.060836 0.886388
O O4 0.905731 0.985399 0.009895
O O5 0.448651 0.654155 0.728386
O O6 0.945674 0.406297 0.651306
O O7 0.255409 0.659510 0.518943
O O8 0.955095 0.915165 0.648669
O O9 0.151664 0.070794 0.185613
O O10 0.214795 0.390584 0.111390
O O11 0.189628 0.891128 0.103374
O O12 0.441643 0.152562 0.730232
O O13 0.623849 0.414875 0.369104
O O14 0.981897 0.661135 0.510912
O O15 0.617075 0.910650 0.373285
O O16 0.205717 0.166499 0.523019
#
# Coordination Sequence:
#
# PCOD9114725 Si02
#       8
#     2   2   2   2   2   2   2   2
#     4  10  21  36  51  68  93 122 150 184 226 270
#     4   8  14  23  35  55  82 108 136 174 216 252
#     4  10  21  36  51  68  93 122 150 184 226 270
#     4  10  19  31  49  71  93 118 150 188 226 266
#     4  10  19  31  49  71  93 118 150 188 226 266
#     4   8  12  18  29  46  72 106 136 162 202 254
#     4   8  14  23  35  55  82 108 136 174 216 252
#     4   8  12  18  29  46  72 106 136 162 202 254
#
# _framework density 27.789358
#
# number of rings (size 3 to 8) (size 9 to 14) (size 15 to 20)
#    0.000    3.000    0.000    1.500    0.000    1.000 
#    0.000    0.000    0.000    0.000    0.000    0.000 
#    0.000    2.000    0.000    0.000    0.000   16.000 
#
# Total GULP energy -89442.207776 kJ/mol
# GULP energy per Si atom -5590.137986 kJ/mol
# Density = 2.772611 g / cm^3
# Si number density = 27.789358 Si / 1000 Ang^3
#
#
#
# Elastic Constant Matrix: (Units=GPa)
#
#
# Indices 1 2 3 4 5 6 
#
# 1 103.5127 26.2364 -6.7582 -0.0247 -10.2386 0.0161
# 2 26.2364 340.9744 33.5716 -0.0992 7.6767 -0.0657
# 3 -6.7582 33.5716 80.1042 0.1001 -5.1932 0.0888
# 4 -0.0247 -0.0992 0.1001 6.8048 -0.0584 6.1509
# 5 -10.2386 7.6767 -5.1932 -0.0584 31.6035 -0.0433
# 6 0.0161 -0.0657 0.0888 6.1509 -0.0433 29.8938
#
#
#
# Elastic Compliance Matrix: (Units=1/GPa)
#
#
# Indices 1 2 3 4 5 6 
#
# 1 0.010411 -0.001043 0.001567 0.000048 0.003884 -0.000017
# 2 -0.001043 0.003193 -0.001514 0.000054 -0.001362 -0.000001
# 3 0.001567 -0.001514 0.013451 -0.000187 0.003086 -0.000001
# 4 0.000048 0.000054 -0.000187 0.180537 0.000254 -0.037146
# 5 0.003884 -0.001362 0.003086 0.000254 0.033739 -0.000018
# 6 -0.000017 -0.000001 -0.000001 -0.037146 -0.000018 0.041095
#
#
# Mechanical properties :
#
#
# Convention : Reuss Voigt Hill
#
# Bulk Modulus (GPa) = 39.88036 70.07676 54.97856
# Shear Modulus (GPa) = 17.07861 45.09654 31.08758
#
# Velocity S-wave (km/s) = 2.48175 4.03277 3.34831
# Velocity P-wave (km/s) = 4.75334 6.85246 5.89705
#
# Compressibility (1/GPa) = 0.02507500
#
# Stress axis : x y z
#
# Youngs Moduli (GPa) = 96.04793 313.20389 74.34426
#
# Poissons Ratio (x) = 0.32662 -0.11651
# Poissons Ratio (y) = 0.10016 0.11259
# Poissons Ratio (z) = -0.15053 0.47434
#
# Static dielectric constant tensor:
#      x y z
#    x 2.073510 -0.000360 -0.036580 
#    y -0.000360 2.200790 0.000410 
#    z -0.036580 0.000410 2.146420 
# 
# From -- ./inp_files/4178.got.cif
#   From: 2010.05.17/outbox.cif.g08.bks.cpg/sg4_3_cif.got.tgz:4178.got - 2010.06.03 18:43:04.
