data_PCOD9114689
_publ_section_title
;
Structure prediction by ZEFSAII (Michael W. Deem and Ramdas Pophale) SiO2 
 PCOD9114689
Probable space group: P 21
;
_chemical_formula_sum "Si O2"
_cell_formula_units_Z 16
_cell_length_a 8.256983
_cell_length_b 12.617945
_cell_length_c 6.721171
_cell_angle_alpha 90.000000
_cell_angle_beta 86.982353
_cell_angle_gamma 90.000000
_cell_volume 699.281986
_symmetry_space_group_name_H-M "P 21"
_symmetry_group_IT_number 4
_symmetry_cell_setting 'monoclinic'
loop_
_space_group_symop_operation_xyz
x,y,z
-x,1/2+y,-z
loop_
_atom_site_type_symbol
_atom_site_label
_atom_site_fract_x
_atom_site_fract_y
_atom_site_fract_z
Si Si1 0.344686 0.185070 0.555015
Si Si2 0.236761 0.917863 0.815691
Si Si3 0.024549 0.098874 0.719513
Si Si4 0.796966 0.179875 0.029023
Si Si5 0.681734 0.465141 0.644073
Si Si6 0.548256 0.059783 0.819458
Si Si7 0.661542 0.916810 0.449425
Si Si8 0.978603 0.013426 0.280164
O O1 0.186381 0.168086 0.700452
O O2 0.341749 0.090676 0.396444
O O3 0.490425 0.161173 0.695158
O O4 0.341633 0.299185 0.463705
O O5 0.230957 0.798597 0.896251
O O6 0.073628 0.990639 0.834562
O O7 0.269982 0.914460 0.573930
O O8 0.391312 0.987306 0.880898
O O9 0.993772 0.061267 0.499864
O O10 0.881538 0.170593 0.809298
O O11 0.924207 0.114230 0.154351
O O12 0.640359 0.105642 0.003887
O O13 0.498297 0.425152 0.680719
O O14 0.844729 0.458664 0.766120
O O15 0.645797 0.993046 0.643950
O O16 0.823455 0.936934 0.311831
#
# Coordination Sequence:
#
# PCOD9114689 Si02
#       8
#     2   2   2   2   2   2   2   2
#     4   8  18  38  63  84 124 176 204 263 338 367
#     4   8  20  41  64  88 133 174 206 277 331 375
#     4   9  21  43  60  92 136 155 225 282 300 409
#     4  12  22  40  70  96 129 180 210 269 353 377
#     4   8  20  40  58  93 130 157 223 277 297 398
#     4   9  21  41  61  97 137 159 226 281 304 409
#     4  10  18  38  67  89 125 178 211 264 334 377
#     4  10  22  39  63  97 126 169 221 265 319 408
#
# _framework density 22.880610999999998
#
# number of rings (size 3 to 8) (size 9 to 14) (size 15 to 20)
#    0.000    3.500    1.250    0.000    0.000   10.000 
#    9.000    1.250    0.000    0.000    0.000    0.000 
#    0.000    0.000    0.000    0.000    0.000    0.000 
#
# Total GULP energy -89160.076443 kJ/mol
# GULP energy per Si atom -5572.504778 kJ/mol
# Density = 2.282853 g / cm^3
# Si number density = 22.880611 Si / 1000 Ang^3
#
#
#
# Elastic Constant Matrix: (Units=GPa)
#
#
# Indices 1 2 3 4 5 6 
#
# 1 105.7939 24.3000 10.7014 0.0000 18.9302 0.0000
# 2 24.3000 122.4474 23.1267 0.0000 9.6705 0.0000
# 3 10.7014 23.1267 45.0296 0.0000 22.8975 0.0000
# 4 0.0000 0.0000 0.0000 12.9517 0.0000 -7.7221
# 5 18.9302 9.6705 22.8975 0.0000 29.6114 0.0000
# 6 0.0000 0.0000 0.0000 -7.7221 0.0000 11.1970
#
#
#
# Elastic Compliance Matrix: (Units=1/GPa)
#
#
# Indices 1 2 3 4 5 6 
#
# 1 0.011190 -0.002066 0.002796 0.000000 -0.008641 0.000000
# 2 -0.002066 0.009446 -0.005707 0.000000 0.002650 0.000000
# 3 0.002796 -0.005707 0.040270 0.000000 -0.031063 0.000000
# 4 0.000000 0.000000 0.000000 0.131130 0.000000 0.090435
# 5 -0.008641 0.002650 -0.031063 0.000000 0.062449 0.000000
# 6 0.000000 0.000000 0.000000 0.090435 0.000000 0.151680
#
#
# Mechanical properties :
#
#
# Convention : Reuss Voigt Hill
#
# Bulk Modulus (GPa) = 19.62725 43.28078 31.45401
# Shear Modulus (GPa) = 11.54458 25.09486 18.31972
#
# Velocity S-wave (km/s) = 2.24867 3.31535 2.83267
# Velocity P-wave (km/s) = 3.91647 5.79762 4.94728
#
# Compressibility (1/GPa) = 0.05094958
#
# Stress axis : x y z
#
# Youngs Moduli (GPa) = 89.36302 105.87007 24.83254
#
# Poissons Ratio (x) = 0.21876 -0.06942
# Poissons Ratio (y) = 0.18465 0.14173
# Poissons Ratio (z) = -0.24983 0.60424
#
# Static dielectric constant tensor:
#      x y z
#    x 1.990810 0.000000 -0.014020 
#    y 0.000000 1.816970 0.000000 
#    z -0.014020 0.000000 1.939930 
# 
# From -- ./inp_files/6294.got.cif
#   From: 2010.05.17/outbox.cif.g08.bks.cpg/sg4_4_cif.got.tgz:6294.got - 2010.06.03 18:43:04.
