data_PCOD9114697
_publ_section_title
;
Structure prediction by ZEFSAII (Michael W. Deem and Ramdas Pophale) SiO2 
 PCOD9114697
Probable space group: P 21
;
_chemical_formula_sum "Si O2"
_cell_formula_units_Z 16
_cell_length_a 7.510013
_cell_length_b 12.542899
_cell_length_c 7.722256
_cell_angle_alpha 90.000000
_cell_angle_beta 65.830076
_cell_angle_gamma 90.000000
_cell_volume 663.647137
_symmetry_space_group_name_H-M "P 21"
_symmetry_group_IT_number 4
_symmetry_cell_setting 'monoclinic'
loop_
_space_group_symop_operation_xyz
x,y,z
-x,1/2+y,-z
loop_
_atom_site_type_symbol
_atom_site_label
_atom_site_fract_x
_atom_site_fract_y
_atom_site_fract_z
Si Si1 0.890978 0.959660 0.753267
Si Si2 0.568383 0.312542 0.505061
Si Si3 0.800928 0.713708 0.474813
Si Si4 0.858685 0.587630 0.087599
Si Si5 0.032523 0.774031 0.853944
Si Si6 0.836377 0.307152 0.823911
Si Si7 0.427876 0.636818 0.188171
Si Si8 0.748960 0.494916 0.638984
O O1 0.867286 0.835286 0.808634
O O2 0.045379 0.974666 0.538960
O O3 0.714435 0.035774 0.775613
O O4 0.003892 0.998296 0.883078
O O5 0.367337 0.300931 0.481383
O O6 0.758614 0.298596 0.311310
O O7 0.578495 0.214873 0.639809
O O8 0.590252 0.427516 0.589855
O O9 0.814653 0.650658 0.285879
O O10 0.732995 0.622086 0.635772
O O11 0.019471 0.762595 0.386519
O O12 0.642184 0.587361 0.096414
O O13 0.984984 0.650329 0.895094
O O14 0.042242 0.809417 0.049763
O O15 0.660851 0.222269 0.913514
O O16 0.763441 0.424017 0.804749
#
# Coordination Sequence:
#
# PCOD9114697 Si02
#       8
#     2   2   2   2   2   2   2   2
#     4  10  19  40  60  84 125 152 204 250 295 356
#     4   9  20  35  63  88 115 156 206 250 300 359
#     4   9  17  38  60  85 120 157 202 255 291 357
#     4   9  19  38  64  82 120 159 195 242 312 347
#     4  10  20  40  58  90 125 154 188 258 307 352
#     4  10  19  38  62  84 123 160 195 251 309 354
#     4  10  18  39  66  80 112 169 199 243 293 360
#     4   9  18  36  59  89 112 159 211 243 295 371
#
# _framework density 24.109197000000002
#
# number of rings (size 3 to 8) (size 9 to 14) (size 15 to 20)
#    0.000    2.500    3.750    0.000    0.000    0.000 
#   13.500    7.500    0.000    0.000    0.000    0.000 
#    0.000    0.000    0.000    0.000    0.000    0.000 
#
# Total GULP energy -89170.748625 kJ/mol
# GULP energy per Si atom -5573.171789 kJ/mol
# Density = 2.405432 g / cm^3
# Si number density = 24.109197 Si / 1000 Ang^3
#
#
#
# Elastic Constant Matrix: (Units=GPa)
#
#
# Indices 1 2 3 4 5 6 
#
# 1 79.0502 13.5266 -6.0247 0.0000 -7.2006 0.0000
# 2 13.5266 81.0358 13.6139 0.0000 -1.3124 0.0000
# 3 -6.0247 13.6139 18.1116 0.0000 6.3609 0.0000
# 4 0.0000 0.0000 0.0000 30.9186 0.0000 5.3030
# 5 -7.2006 -1.3124 6.3609 0.0000 18.0918 0.0000
# 6 0.0000 0.0000 0.0000 5.3030 0.0000 24.8309
#
#
#
# Elastic Compliance Matrix: (Units=1/GPa)
#
#
# Indices 1 2 3 4 5 6 
#
# 1 0.013961 -0.003283 0.005983 0.000000 0.003215 0.000000
# 2 -0.003283 0.015379 -0.014358 0.000000 0.004857 0.000000
# 3 0.005983 -0.014358 0.077038 0.000000 -0.025746 0.000000
# 4 0.000000 0.000000 0.000000 0.033573 0.000000 -0.007170
# 5 0.003215 0.004857 -0.025746 0.000000 0.065957 0.000000
# 6 0.000000 0.000000 0.000000 -0.007170 0.000000 0.041804
#
#
# Mechanical properties :
#
#
# Convention : Reuss Voigt Hill
#
# Bulk Modulus (GPa) = 12.03930 24.49213 18.26571
# Shear Modulus (GPa) = 16.73832 25.24039 20.98936
#
# Velocity S-wave (km/s) = 2.63776 3.23912 2.95379
# Velocity P-wave (km/s) = 3.77909 4.91631 4.38473
#
# Compressibility (1/GPa) = 0.08306131
#
# Stress axis : x y z
#
# Youngs Moduli (GPa) = 71.62894 65.02336 12.98058
#
# Poissons Ratio (x) = 0.21350 -0.07766
# Poissons Ratio (y) = 0.23519 0.18638
# Poissons Ratio (z) = -0.42856 0.93361
#
# Static dielectric constant tensor:
#      x y z
#    x 1.971910 0.000000 0.056820 
#    y 0.000000 2.024730 0.000000 
#    z 0.056820 0.000000 1.934650 
# 
# From -- ./inp_files/6224.got.cif
#   From: 2010.05.17/outbox.cif.g08.bks.cpg/sg4_4_cif.got.tgz:6224.got - 2010.06.03 18:43:04.
