data_PCOD9114942
_publ_section_title
;
Structure prediction by ZEFSAII (Michael W. Deem and Ramdas Pophale) SiO2 
 PCOD9114942
Probable space group: P 21
;
_chemical_formula_sum "Si O2"
_cell_formula_units_Z 16
_cell_length_a 30.417167
_cell_length_b 4.991069
_cell_length_c 23.930369
_cell_angle_alpha 90.000000
_cell_angle_beta 11.765923
_cell_angle_gamma 90.000000
_cell_volume 740.812685
_symmetry_space_group_name_H-M "P 21"
_symmetry_group_IT_number 4
_symmetry_cell_setting 'monoclinic'
loop_
_space_group_symop_operation_xyz
x,y,z
-x,1/2+y,-z
loop_
_atom_site_type_symbol
_atom_site_label
_atom_site_fract_x
_atom_site_fract_y
_atom_site_fract_z
Si Si1 0.257108 0.095150 0.646100
Si Si2 0.088247 0.959800 0.620521
Si Si3 0.002747 0.095273 0.072181
Si Si4 0.570591 0.476537 0.124635
Si Si5 0.482207 0.454365 0.984828
Si Si6 0.861573 0.697636 0.664874
Si Si7 0.318662 0.477348 0.944300
Si Si8 0.072544 0.464587 0.714931
O O1 0.503190 0.041177 0.324645
O O2 0.177847 0.384089 0.723991
O O3 0.195707 0.069555 0.787506
O O4 0.107530 0.884271 0.798393
O O5 0.329600 0.971713 0.295642
O O6 0.033053 0.669051 0.713679
O O7 0.059545 0.168084 0.706721
O O8 0.919137 0.026839 0.782514
O O9 0.061905 0.027726 0.062098
O O10 0.692569 0.564779 0.917332
O O11 0.621997 0.175443 0.078887
O O12 0.318270 0.511745 0.428662
O O13 0.650613 0.675038 0.073454
O O14 0.445839 0.743845 0.057140
O O15 0.266389 0.331319 0.226849
O O16 0.015603 0.447419 0.459065
#
# Coordination Sequence:
#
# PCOD9114942 Si02
#       8
#     2   2   2   2   2   2   2   2
#     4  10  19  37  61 101 129 165 217 271 315 376
#     4  12  28  43  65  95 137 169 216 262 331 398
#     4  10  20  35  66  95 130 168 217 268 320 373
#     4  12  25  43  70  94 129 167 226 267 317 378
#     4  12  28  48  67  93 133 175 210 263 342 399
#     4  12  28  46  68 100 127 165 222 279 321 383
#     4  12  24  43  66 100 132 173 214 271 321 382
#     4  12  22  45  65  96 127 178 214 265 319 387
#
# _framework density 21.597902000000001
#
# number of rings (size 3 to 8) (size 9 to 14) (size 15 to 20)
#    0.000    0.500    3.750    4.500    7.000    0.000 
#    0.000    1.250    0.000    0.000    0.000    0.000 
#    0.000    0.000    0.000    0.000    0.000    0.000 
#
# Total GULP energy -89581.263656 kJ/mol
# GULP energy per Si atom -5598.828978 kJ/mol
# Density = 2.154874 g / cm^3
# Si number density = 21.597902 Si / 1000 Ang^3
#
#
#
# Elastic Constant Matrix: (Units=GPa)
#
#
# Indices 1 2 3 4 5 6 
#
# 1 42.5530 -11.1575 2.6113 0.0000 4.4969 0.0000
# 2 -11.1575 63.7139 7.1098 0.0000 2.6031 0.0000
# 3 2.6113 7.1098 21.5411 0.0000 4.6670 0.0000
# 4 0.0000 0.0000 0.0000 25.8609 0.0000 1.8427
# 5 4.4969 2.6031 4.6670 0.0000 29.8298 0.0000
# 6 0.0000 0.0000 0.0000 1.8427 0.0000 44.8314
#
#
#
# Elastic Compliance Matrix: (Units=1/GPa)
#
#
# Indices 1 2 3 4 5 6 
#
# 1 0.025453 0.005049 -0.003959 0.000000 -0.003658 0.000000
# 2 0.005049 0.017307 -0.006037 0.000000 -0.001327 0.000000
# 3 -0.003959 -0.006037 0.050359 0.000000 -0.006755 0.000000
# 4 0.000000 0.000000 0.000000 0.038782 0.000000 -0.001594
# 5 -0.003658 -0.001327 -0.006755 0.000000 0.035248 0.000000
# 6 0.000000 0.000000 0.000000 -0.001594 0.000000 0.022371
#
#
# Mechanical properties :
#
#
# Convention : Reuss Voigt Hill
#
# Bulk Modulus (GPa) = 12.01575 13.88172 12.94873
# Shear Modulus (GPa) = 22.01120 28.72071 25.36595
#
# Velocity S-wave (km/s) = 3.19585 3.65059 3.43076
# Velocity P-wave (km/s) = 4.38103 4.92040 4.65853
#
# Compressibility (1/GPa) = 0.08322413
#
# Stress axis : x y z
#
# Youngs Moduli (GPa) = 39.28743 57.77964 19.85749
#
# Poissons Ratio (x) = -0.29171 0.07862
# Poissons Ratio (y) = -0.19835 0.11988
# Poissons Ratio (z) = 0.15555 0.34881
#
# Static dielectric constant tensor:
#      x y z
#    x 1.798150 0.000000 0.040890 
#    y 0.000000 1.743480 0.000000 
#    z 0.040890 0.000000 1.768410 
# 
# From -- ./inp_files/16255.got.cif
#   From: 2010.05.17/outbox.cif.g08.bks.cpg/sg4_9_cif.got.tgz:16255.got - 2010.06.03 18:43:04.
