data_PCOD9114059
_publ_section_title
;
Structure prediction by ZEFSAII (Michael W. Deem and Ramdas Pophale) SiO2 
 PCOD9114059
Probable space group: P 2
;
_chemical_formula_sum "Si O2"
_cell_formula_units_Z 14
_cell_length_a 10.249437
_cell_length_b 7.150744
_cell_length_c 15.258243
_cell_angle_alpha 90.000000
_cell_angle_beta 34.481824
_cell_angle_gamma 90.000000
_cell_volume 633.115969
_symmetry_space_group_name_H-M "P 2"
_symmetry_group_IT_number 3
_symmetry_cell_setting 'monoclinic'
loop_
_space_group_symop_operation_xyz
x,y,z
-x,y,-z
loop_
_atom_site_type_symbol
_atom_site_label
_atom_site_fract_x
_atom_site_fract_y
_atom_site_fract_z
Si Si1 0.462544 0.389750 0.343301
Si Si2 0.575130 0.804526 0.695659
Si Si3 0.069180 0.315190 0.335244
Si Si4 0.765711 0.116284 0.081769
Si Si5 0.016882 0.021907 0.223759
Si Si6 0.000000 0.016846 0.500000
Si Si7 0.706220 0.710094 0.819977
Si Si8 0.500000 0.154381 0.500000
O O1 0.477623 0.613015 0.324915
O O2 0.192480 0.345711 0.489543
O O3 0.602481 0.296001 0.185813
O O4 0.532662 0.289855 0.396474
O O5 0.602508 0.781905 0.785565
O O6 0.375301 0.953394 0.790710
O O7 0.826889 0.893561 0.537552
O O8 0.075964 0.218392 0.237815
O O9 0.150926 0.150354 0.354213
O O10 0.180194 0.515395 0.270834
O O11 0.000000 0.167033 0.000000
O O12 0.849458 0.037583 0.942224
O O13 0.735767 0.031138 0.375471
O O14 0.124693 0.851754 0.220782
O O15 0.500000 0.671331 0.000000
#
# Coordination Sequence:
#
# PCOD9114059 Si02
#       8
#     2   2   2   2   2   1   2   1
#     4  11  25  47  74 106 146 200 253 310 372 448
#     4  12  26  44  74 109 150 193 248 313 380 452
#     4  11  25  43  71 106 145 195 240 306 374 449
#     4  12  26  49  74 105 147 199 251 310 380 447
#     4  11  25  48  75 107 150 192 253 308 380 446
#     4  12  22  46  74 108 148 194 250 316 386 450
#     4  12  26  44  72 115 151 191 244 313 385 452
#     4  10  24  52  78 108 152 204 254 312 370 450
#
# _framework density 22.112853000000001
#
# number of rings (size 3 to 8) (size 9 to 14) (size 15 to 20)
#    0.000    0.571    5.714    1.714    2.000    1.143 
#    5.143    1.429    0.000    0.000    0.000    0.000 
#    0.000    0.000    0.000    0.000    0.000    0.000 
#
# Total GULP energy -78183.714426 kJ/mol
# GULP energy per Si atom -5584.551030 kJ/mol
# Density = 2.206252 g / cm^3
# Si number density = 22.112853 Si / 1000 Ang^3
#
#
#
# Elastic Constant Matrix: (Units=GPa)
#
#
# Indices 1 2 3 4 5 6 
#
# 1 48.2277 17.3539 38.9592 0.0000 -1.6925 0.0000
# 2 17.3539 128.4090 43.6651 0.0000 -14.5355 0.0000
# 3 38.9592 43.6651 111.1625 0.0000 -0.9999 0.0000
# 4 0.0000 0.0000 0.0000 35.9721 0.0000 -0.7415
# 5 -1.6925 -14.5355 -0.9999 0.0000 40.9655 0.0000
# 6 0.0000 0.0000 0.0000 -0.7415 0.0000 29.4410
#
#
#
# Elastic Compliance Matrix: (Units=1/GPa)
#
#
# Indices 1 2 3 4 5 6 
#
# 1 0.028980 -0.000432 -0.009980 0.000000 0.000800 0.000000
# 2 -0.000432 0.009407 -0.003515 0.000000 0.003234 0.000000
# 3 -0.009980 -0.003515 0.013862 0.000000 -0.001321 0.000000
# 4 0.000000 0.000000 0.000000 0.027814 0.000000 0.000701
# 5 0.000800 0.003234 -0.001321 0.000000 0.025559 0.000000
# 6 0.000000 0.000000 0.000000 0.000701 0.000000 0.033984
#
#
# Mechanical properties :
#
#
# Convention : Reuss Voigt Hill
#
# Bulk Modulus (GPa) = 40.98968 54.19508 47.59238
# Shear Modulus (GPa) = 28.47505 33.79713 31.13609
#
# Velocity S-wave (km/s) = 3.59237 3.91371 3.75648
# Velocity P-wave (km/s) = 5.98194 6.70704 6.35484
#
# Compressibility (1/GPa) = 0.02439638
#
# Stress axis : x y z
#
# Youngs Moduli (GPa) = 34.50600 106.30060 72.13905
#
# Poissons Ratio (x) = 0.04596 0.71993
# Poissons Ratio (y) = 0.01492 0.25354
# Poissons Ratio (z) = 0.34436 0.37360
#
# Static dielectric constant tensor:
#      x y z
#    x 1.877280 0.000000 0.025010 
#    y 0.000000 1.813530 0.000000 
#    z 0.025010 0.000000 1.833410 
# 
# From -- ./inp_files/15176.got.cif
#   From: 2010.05.17/outbox.cif.g08.bks.cpg/sg3_8_cif.got.tgz:15176.got - 2010.06.03 18:33:08.
