data_PCOD9114952
_publ_section_title
;
Structure prediction by ZEFSAII (Michael W. Deem and Ramdas Pophale) SiO2 
 PCOD9114952
Probable space group: P 21
;
_chemical_formula_sum "Si O2"
_cell_formula_units_Z 16
_cell_length_a 9.270751
_cell_length_b 13.430600
_cell_length_c 9.257235
_cell_angle_alpha 90.000000
_cell_angle_beta 133.602435
_cell_angle_gamma 90.000000
_cell_volume 834.671700
_symmetry_space_group_name_H-M "P 21"
_symmetry_group_IT_number 4
_symmetry_cell_setting 'monoclinic'
loop_
_space_group_symop_operation_xyz
x,y,z
-x,1/2+y,-z
loop_
_atom_site_type_symbol
_atom_site_label
_atom_site_fract_x
_atom_site_fract_y
_atom_site_fract_z
Si Si1 0.390820 0.618670 0.192534
Si Si2 0.249416 0.245216 0.599589
Si Si3 0.763410 0.131136 0.603232
Si Si4 0.070627 0.619737 0.737812
Si Si5 0.383860 0.741725 0.754805
Si Si6 0.415633 0.964443 0.889954
Si Si7 0.212650 0.468695 0.632945
Si Si8 0.797162 0.641779 0.129342
O O1 0.516016 0.720256 0.249523
O O2 0.362351 0.607486 0.342431
O O3 0.516497 0.533779 0.196974
O O4 0.178465 0.612775 0.965318
O O5 0.183152 0.358774 0.551783
O O6 0.179208 0.201914 0.704893
O O7 0.133407 0.179642 0.402027
O O8 0.684118 0.225124 0.456643
O O9 0.993410 0.148191 0.805569
O O10 0.758109 0.042470 0.481519
O O11 0.231161 0.681478 0.752066
O O12 0.052812 0.517109 0.633967
O O13 0.379172 0.854479 0.806594
O O14 0.601617 0.690662 0.923034
O O15 0.245882 0.027479 0.854606
O O16 0.593940 0.961202 0.130027
#
# Coordination Sequence:
#
# PCOD9114952 Si02
#       8
#     2   2   2   2   2   2   2   2
#     4  10  23  41  53  85 128 152 192 241 295 353
#     4  11  20  36  65  85 111 157 197 242 291 346
#     4  11  24  38  57  86 126 155 190 244 298 356
#     4  10  20  37  60  90 113 153 194 251 285 345
#     4  11  20  38  64  88 115 151 205 246 287 346
#     4  10  20  38  65  84 115 155 197 249 291 344
#     4  10  19  37  63  88 116 145 206 243 290 346
#     4  11  20  37  61  90 112 154 195 244 293 342
#
# _framework density 19.169212999999999
#
# number of rings (size 3 to 8) (size 9 to 14) (size 15 to 20)
#    0.000    1.500    8.750    0.000    1.750    2.000 
#    0.000    0.000    0.000    0.000    0.000    0.000 
#    0.000    0.000    0.000    0.000    0.000    0.000 
#
# Total GULP energy -89222.397575 kJ/mol
# GULP energy per Si atom -5576.399848 kJ/mol
# Density = 1.912558 g / cm^3
# Si number density = 19.169213 Si / 1000 Ang^3
#
#
#
# Elastic Constant Matrix: (Units=GPa)
#
#
# Indices 1 2 3 4 5 6 
#
# 1 52.3275 8.3975 19.5100 0.0000 -5.2029 0.0000
# 2 8.3975 98.8796 12.9302 0.0000 2.7099 0.0000
# 3 19.5100 12.9302 67.0508 0.0000 2.2641 0.0000
# 4 0.0000 0.0000 0.0000 22.1679 0.0000 0.6228
# 5 -5.2029 2.7099 2.2641 0.0000 31.8443 0.0000
# 6 0.0000 0.0000 0.0000 0.6228 0.0000 6.6178
#
#
#
# Elastic Compliance Matrix: (Units=1/GPa)
#
#
# Indices 1 2 3 4 5 6 
#
# 1 0.022073 -0.001160 -0.006339 0.000000 0.004156 0.000000
# 2 -0.001160 0.010453 -0.001646 0.000000 -0.000962 0.000000
# 3 -0.006339 -0.001646 0.017148 0.000000 -0.002115 0.000000
# 4 0.000000 0.000000 0.000000 0.045230 0.000000 -0.004257
# 5 0.004156 -0.000962 -0.002115 0.000000 0.032314 0.000000
# 6 0.000000 0.000000 0.000000 -0.004257 0.000000 0.151509
#
#
# Mechanical properties :
#
#
# Convention : Reuss Voigt Hill
#
# Bulk Modulus (GPa) = 31.86306 33.32591 32.59448
# Shear Modulus (GPa) = 16.26130 23.95401 20.10765
#
# Velocity S-wave (km/s) = 2.91572 3.53881 3.24227
# Velocity P-wave (km/s) = 5.29087 5.84127 5.57287
#
# Compressibility (1/GPa) = 0.03138431
#
# Stress axis : x y z
#
# Youngs Moduli (GPa) = 45.30352 95.66274 58.31750
#
# Poissons Ratio (x) = 0.11092 0.36970
# Poissons Ratio (y) = 0.05253 0.09599
# Poissons Ratio (z) = 0.28720 0.15746
#
# Static dielectric constant tensor:
#      x y z
#    x 1.636820 0.000000 0.048660 
#    y 0.000000 1.706110 0.000000 
#    z 0.048660 0.000000 1.725860 
# 
# From -- ./inp_files/6672.got.cif
#   From: 2010.05.17/outbox.cif.g08.bks.cpg/sg4_4_cif.got.tgz:6672.got - 2010.06.03 18:43:04.
