data_PCOD9114726
_publ_section_title
;
Structure prediction by ZEFSAII (Michael W. Deem and Ramdas Pophale) SiO2 
 PCOD9114726
Probable space group: P 21
;
_chemical_formula_sum "Si O2"
_cell_formula_units_Z 14
_cell_length_a 20.181186
_cell_length_b 5.056500
_cell_length_c 5.539834
_cell_angle_alpha 90.000000
_cell_angle_beta 62.399385
_cell_angle_gamma 90.000000
_cell_volume 500.984755
_symmetry_space_group_name_H-M "P 21"
_symmetry_group_IT_number 4
_symmetry_cell_setting 'monoclinic'
loop_
_space_group_symop_operation_xyz
x,y,z
-x,1/2+y,-z
loop_
_atom_site_type_symbol
_atom_site_label
_atom_site_fract_x
_atom_site_fract_y
_atom_site_fract_z
Si Si1 0.551352 0.412180 0.657157
Si Si2 0.022176 0.033906 0.809017
Si Si3 0.118657 0.419083 0.174878
Si Si4 0.405933 0.413882 0.128199
Si Si5 0.697958 0.550033 0.204332
Si Si6 0.259107 0.550981 0.143836
Si Si7 0.836412 0.419635 0.208099
O O1 0.581626 0.614837 0.811047
O O2 0.610331 0.484352 0.353245
O O3 0.564845 0.113607 0.716773
O O4 0.462579 0.463805 0.806870
O O5 0.889569 0.476115 0.346550
O O6 0.969429 0.977008 0.669115
O O7 0.007523 0.323963 0.940154
O O8 0.172222 0.476067 0.311377
O O9 0.148137 0.630220 0.924886
O O10 0.133332 0.130452 0.041982
O O11 0.319759 0.478851 0.238994
O O12 0.712697 0.853224 0.117138
O O13 0.747701 0.472990 0.355367
O O14 0.731950 0.353073 0.947374
#
# Coordination Sequence:
#
# PCOD9114726 Si02
#       7
#     2   2   2   2   2   2   2
#     4  10  21  36  51  68  93 125 157 187 227 282
#     4   8  12  20  34  54  84 116 140 170 218 264
#     4   8  14  23  37  60  88 114 142 180 222 262
#     4  10  21  36  51  68  93 125 157 187 227 282
#     4  10  19  31  49  73  96 118 152 196 234 267
#     4  10  19  31  49  73  96 118 152 196 234 267
#     4   8  14  23  37  60  88 114 142 180 222 262
#
# _framework density 27.944960999999999
#
# number of rings (size 3 to 8) (size 9 to 14) (size 15 to 20)
#    0.000    2.857    0.000    1.714    0.000    1.143 
#    0.000    0.000    0.000    0.000    0.000    2.000 
#    0.000    0.000    0.000    0.000    0.000    0.000 
#
# Total GULP energy -78308.149283 kJ/mol
# GULP energy per Si atom -5593.439234 kJ/mol
# Density = 2.788136 g / cm^3
# Si number density = 27.944961 Si / 1000 Ang^3
#
#
#
# Elastic Constant Matrix: (Units=GPa)
#
#
# Indices 1 2 3 4 5 6 
#
# 1 132.3430 23.4275 25.9277 0.0000 4.0618 0.0000
# 2 23.4275 116.0876 55.9862 0.0000 -16.1129 0.0000
# 3 25.9277 55.9862 68.5990 0.0000 -0.8710 0.0000
# 4 0.0000 0.0000 0.0000 39.7585 0.0000 -8.8817
# 5 4.0618 -16.1129 -0.8710 0.0000 -11.0272 0.0000
# 6 0.0000 0.0000 0.0000 -8.8817 0.0000 42.6640
#
#
#
# Elastic Compliance Matrix: (Units=1/GPa)
#
#
# Indices 1 2 3 4 5 6 
#
# 1 0.008056 0.000338 -0.003286 0.000000 0.002733 0.000000
# 2 0.000338 0.010897 -0.009213 0.000000 -0.015071 0.000000
# 3 -0.003286 -0.009213 0.023471 0.000000 0.010397 0.000000
# 4 0.000000 0.000000 0.000000 0.026379 0.000000 0.005491
# 5 0.002733 -0.015071 0.010397 0.000000 -0.068479 0.000000
# 6 0.000000 0.000000 0.000000 0.005491 0.000000 0.024582
#
#
# Mechanical properties :
#
#
# Convention : Reuss Voigt Hill
#
# Bulk Modulus (GPa) = 55.24176 58.63470 56.93823
# Shear Modulus (GPa) = 90.47794 28.39161 59.43478
#
# Velocity S-wave (km/s) = 5.69627 3.19091 4.61678
# Velocity P-wave (km/s) = 7.94193 5.88248 6.98849
#
# Compressibility (1/GPa) = 0.01810225
#
# Stress axis : x y z
#
# Youngs Moduli (GPa) = 124.12798 91.76633 42.60644
#
# Poissons Ratio (x) = -0.03106 0.14002
# Poissons Ratio (y) = -0.04201 0.39253
# Poissons Ratio (z) = 0.40794 0.84543
#
# Static dielectric constant tensor:
#      x y z
#    x 2.308820 0.000000 -0.009370 
#    y 0.000000 2.051800 0.000000 
#    z -0.009370 0.000000 2.234680 
# 
# From -- ./inp_files/9726.got.cif
#   From: 2010.05.17/outbox.cif.g08.bks.cpg/sg4_5_cif.got.tgz:9726.got - 2010.06.03 18:43:04.
