data_PCOD9114054
_publ_section_title
;
Structure prediction by ZEFSAII (Michael W. Deem and Ramdas Pophale) SiO2 
 PCOD9114054
Probable space group: P 2
;
_chemical_formula_sum "Si O2"
_cell_formula_units_Z 12
_cell_length_a 10.165565
_cell_length_b 5.147256
_cell_length_c 16.869364
_cell_angle_alpha 90.000000
_cell_angle_beta 32.969123
_cell_angle_gamma 90.000000
_cell_volume 480.345975
_symmetry_space_group_name_H-M "P 2"
_symmetry_group_IT_number 3
_symmetry_cell_setting 'monoclinic'
loop_
_space_group_symop_operation_xyz
x,y,z
-x,y,-z
loop_
_atom_site_type_symbol
_atom_site_label
_atom_site_fract_x
_atom_site_fract_y
_atom_site_fract_z
Si Si1 0.878544 0.846350 0.436535
Si Si2 0.134276 0.070184 0.851653
Si Si3 0.270189 0.717606 0.650356
Si Si4 0.179802 0.353057 0.112113
Si Si5 0.366522 0.335190 0.362301
Si Si6 0.670266 0.487868 0.799882
O O1 0.786273 0.910321 0.394139
O O2 0.739918 0.592250 0.541881
O O3 0.153733 0.737868 0.292563
O O4 0.799971 0.093156 0.526948
O O5 0.348605 0.278238 0.762493
O O6 0.913772 0.143369 0.903448
O O7 0.282020 0.857102 0.727802
O O8 0.000000 0.990361 0.000000
O O9 0.500000 0.569331 0.500000
O O10 0.051684 0.528256 0.763852
O O11 0.245034 0.297118 0.170853
O O12 0.393897 0.525827 0.966266
O O13 0.337171 0.369232 0.283209
#
# Coordination Sequence:
#
# PCOD9114054 Si02
#       6
#     2   2   2   2   2   2
#     4  11  27  48  79 116 159 209 263 327 400 482
#     4  12  26  46  78 116 155 209 268 340 396 479
#     4  11  24  45  74 112 154 212 260 333 396 474
#     4  10  24  49  74 110 158 211 268 330 412 473
#     4  12  26  51  80 119 156 210 271 332 399 477
#     4  10  24  49  75 112 161 211 265 333 403 488
#
# _framework density 24.981995999999999
#
# number of rings (size 3 to 8) (size 9 to 14) (size 15 to 20)
#    0.000    1.000    3.333    1.500    4.667    5.333 
#    6.000    1.667    0.000    0.000    0.000    0.000 
#    0.000    0.000    0.000    0.000    0.000    0.000 
#
# Total GULP energy -67090.077296 kJ/mol
# GULP energy per Si atom -5590.839775 kJ/mol
# Density = 2.492514 g / cm^3
# Si number density = 24.981996 Si / 1000 Ang^3
#
#
#
# Elastic Constant Matrix: (Units=GPa)
#
#
# Indices 1 2 3 4 5 6 
#
# 1 144.7943 41.7839 70.5324 0.0000 20.9933 0.0000
# 2 41.7839 93.8420 66.3843 0.0000 9.9440 0.0000
# 3 70.5324 66.3843 214.2808 0.0000 3.5371 0.0000
# 4 0.0000 0.0000 0.0000 18.2783 0.0000 0.1090
# 5 20.9933 9.9440 3.5371 0.0000 63.9965 0.0000
# 6 0.0000 0.0000 0.0000 0.1090 0.0000 28.8744
#
#
#
# Elastic Compliance Matrix: (Units=1/GPa)
#
#
# Indices 1 2 3 4 5 6 
#
# 1 0.008982 -0.002143 -0.002252 0.000000 -0.002489 0.000000
# 2 -0.002143 0.014390 -0.003731 0.000000 -0.001327 0.000000
# 3 -0.002252 -0.003731 0.006548 0.000000 0.000956 0.000000
# 4 0.000000 0.000000 0.000000 0.054711 0.000000 -0.000207
# 5 -0.002489 -0.001327 0.000956 0.000000 0.016596 0.000000
# 6 0.000000 0.000000 0.000000 -0.000207 0.000000 0.034633
#
#
# Mechanical properties :
#
#
# Convention : Reuss Voigt Hill
#
# Bulk Modulus (GPa) = 73.15414 90.03534 81.59474
# Shear Modulus (GPa) = 31.91462 40.51096 36.21279
#
# Velocity S-wave (km/s) = 3.57810 4.03129 3.81143
# Velocity P-wave (km/s) = 6.81298 7.60176 7.21815
#
# Compressibility (1/GPa) = 0.01366977
#
# Stress axis : x y z
#
# Youngs Moduli (GPa) = 111.32778 69.49196 152.71924
#
# Poissons Ratio (x) = 0.14891 0.34388
# Poissons Ratio (y) = 0.23856 0.56977
# Poissons Ratio (z) = 0.25068 0.25926
#
# Static dielectric constant tensor:
#      x y z
#    x 2.143150 0.000000 -0.033820 
#    y 0.000000 1.975940 0.000000 
#    z -0.033820 0.000000 2.003280 
# 
# From -- ./inp_files/15148.got.cif
#   From: 2010.05.17/outbox.cif.g08.bks.cpg/sg3_8_cif.got.tgz:15148.got - 2010.06.03 18:33:08.
