data_PCOD9114165
_publ_section_title
;
Structure prediction by ZEFSAII (Michael W. Deem and Ramdas Pophale) SiO2 
 PCOD9114165
Probable space group: P 2
;
_chemical_formula_sum "Si O2"
_cell_formula_units_Z 16
_cell_length_a 8.245085
_cell_length_b 17.854375
_cell_length_c 9.139395
_cell_angle_alpha 90.000000
_cell_angle_beta 146.754814
_cell_angle_gamma 90.000000
_cell_volume 737.589048
_symmetry_space_group_name_H-M "P 2"
_symmetry_group_IT_number 3
_symmetry_cell_setting 'monoclinic'
loop_
_space_group_symop_operation_xyz
x,y,z
-x,y,-z
loop_
_atom_site_type_symbol
_atom_site_label
_atom_site_fract_x
_atom_site_fract_y
_atom_site_fract_z
Si Si1 0.814699 0.627270 0.511841
Si Si2 0.172357 0.399274 0.780970
Si Si3 0.756123 0.054901 0.073198
Si Si4 0.337431 0.887592 0.037587
Si Si5 0.164642 0.797581 0.465956
Si Si6 0.791619 0.541279 0.979064
Si Si7 0.632615 0.122528 0.450453
Si Si8 0.178676 0.283683 0.286571
O O1 0.719934 0.713299 0.462025
O O2 0.536475 0.570788 0.305802
O O3 0.000000 0.620400 0.500000
O O4 0.040435 0.607659 0.810629
O O5 0.000000 0.415586 0.500000
O O6 0.998391 0.337897 0.741750
O O7 0.500000 0.369188 0.000000
O O8 0.214524 0.473137 0.911215
O O9 0.075979 0.077130 0.374740
O O10 0.500000 0.053372 0.000000
O O11 0.632685 0.115271 0.864276
O O12 0.768928 0.971798 0.015552
O O13 0.577119 0.858083 0.331319
O O14 0.500000 0.888653 0.000000
O O15 0.077199 0.827087 0.829547
O O16 0.000000 0.798065 0.500000
O O17 0.000000 0.519825 0.000000
O O18 0.500000 0.090215 0.500000
O O19 0.741714 0.205950 0.571808
O O20 0.500000 0.319683 0.500000
O O21 0.000000 0.271990 0.000000
#
# Coordination Sequence:
#
# PCOD9114165 Si02
#       8
#     2   2   2   2   2   2   2   2
#     4  11  22  39  65  93 120 157 211 265 306 358
#     4  12  26  44  68  98 127 158 204 265 312 361
#     4  11  22  37  62  92 123 160 210 264 306 359
#     4   9  17  31  53  85 119 153 198 254 311 361
#     4   9  17  31  55  85 116 152 199 255 310 361
#     4  12  25  42  63  89 127 169 202 243 309 380
#     4  11  23  41  62  88 125 167 205 247 308 378
#     4  11  24  45  68  92 125 168 209 251 310 382
#
# _framework density 21.692294
#
# number of rings (size 3 to 8) (size 9 to 14) (size 15 to 20)
#    0.000    1.250    0.000    7.500    0.000    6.500 
#    0.000    0.000    0.000   15.000    0.000    0.000 
#    0.000    0.000    0.000    0.000    0.000    0.000 
#
# Total GULP energy -89457.295199 kJ/mol
# GULP energy per Si atom -5591.080950 kJ/mol
# Density = 2.164292 g / cm^3
# Si number density = 21.692294 Si / 1000 Ang^3
#
#
#
# Elastic Constant Matrix: (Units=GPa)
#
#
# Indices 1 2 3 4 5 6 
#
# 1 77.1572 24.2529 13.1903 0.0000 19.4511 0.0000
# 2 24.2529 86.0100 4.6421 0.0000 9.1318 0.0000
# 3 13.1903 4.6421 81.0317 0.0000 14.7733 0.0000
# 4 0.0000 0.0000 0.0000 14.8153 0.0000 25.6293
# 5 19.4511 9.1318 14.7733 0.0000 36.9916 0.0000
# 6 0.0000 0.0000 0.0000 25.6293 0.0000 24.3673
#
#
#
# Elastic Compliance Matrix: (Units=1/GPa)
#
#
# Indices 1 2 3 4 5 6 
#
# 1 0.016115 -0.003729 -0.001114 0.000000 -0.007108 0.000000
# 2 -0.003729 0.012804 0.000100 0.000000 -0.001240 0.000000
# 3 -0.001114 0.000100 0.013389 0.000000 -0.004786 0.000000
# 4 0.000000 0.000000 0.000000 -0.082363 0.000000 0.086629
# 5 -0.007108 -0.001240 -0.004786 0.000000 0.032988 0.000000
# 6 0.000000 0.000000 0.000000 0.086629 0.000000 -0.050077
#
#
# Mechanical properties :
#
#
# Convention : Reuss Voigt Hill
#
# Bulk Modulus (GPa) = 30.46753 36.48549 33.47651
# Shear Modulus (GPa) = -136.18185 28.70908 -53.73638
#
# Velocity S-wave (km/s) = -7.93191 3.64190 -4.98256
# Velocity P-wave (km/s) = 8.35530 5.87713 4.19943
#
# Compressibility (1/GPa) = 0.03282183
#
# Stress axis : x y z
#
# Youngs Moduli (GPa) = 62.05331 78.09826 74.68815
#
# Poissons Ratio (x) = 0.29125 0.08317
# Poissons Ratio (y) = 0.23142 -0.00743
# Poissons Ratio (z) = 0.06910 -0.00777
#
# Static dielectric constant tensor:
#      x y z
#    x 1.851520 0.000000 0.002100 
#    y 0.000000 1.770380 0.000000 
#    z 0.002100 0.000000 1.751340 
# 
# From -- ./inp_files/6292.got.cif
#   From: 2010.05.17/outbox.cif.g08.bks.cpg/sg3_4_cif.got.tgz:6292.got - 2010.06.03 18:33:08.
