data_PCOD9114270
_publ_section_title
;
Structure prediction by ZEFSAII (Michael W. Deem and Ramdas Pophale) SiO2 
 PCOD9114270
Probable space group: P 2
;
_chemical_formula_sum "Si O2"
_cell_formula_units_Z 16
_cell_length_a 7.007957
_cell_length_b 5.333398
_cell_length_c 19.606935
_cell_angle_alpha 90.000000
_cell_angle_beta 101.382016
_cell_angle_gamma 90.000000
_cell_volume 718.420684
_symmetry_space_group_name_H-M "P 2"
_symmetry_group_IT_number 3
_symmetry_cell_setting 'monoclinic'
loop_
_space_group_symop_operation_xyz
x,y,z
-x,y,-z
loop_
_atom_site_type_symbol
_atom_site_label
_atom_site_fract_x
_atom_site_fract_y
_atom_site_fract_z
Si Si1 0.338992 0.412660 0.932160
Si Si2 0.915505 0.609151 0.570884
Si Si3 0.532769 0.567555 0.201510
Si Si4 0.902174 0.918257 0.066625
Si Si5 0.876928 0.836020 0.288763
Si Si6 0.455168 0.184458 0.696455
Si Si7 0.795120 0.914452 0.797422
Si Si8 0.338766 0.111375 0.431287
O O1 0.424439 0.401393 0.861463
O O2 0.185955 0.643570 0.923485
O O3 0.254686 0.140761 0.943953
O O4 0.500000 0.477572 0.000000
O O5 0.810878 0.343802 0.576778
O O6 0.000000 0.606946 0.500000
O O7 0.069538 0.665054 0.642307
O O8 0.768368 0.845981 0.565908
O O9 0.724069 0.741902 0.220796
O O10 0.541294 0.469463 0.280245
O O11 0.316535 0.674278 0.180170
O O12 0.060062 0.002855 0.134187
O O13 0.000000 0.905282 0.000000
O O14 0.075832 0.879427 0.261372
O O15 0.760634 0.075978 0.309368
O O16 0.543949 0.121411 0.630765
O O17 0.609452 0.076953 0.762424
O O18 0.500000 0.148757 0.500000
#
# Coordination Sequence:
#
# PCOD9114270 Si02
#       8
#     2   2   2   2   2   2   2   2
#     4  12  27  47  71 105 147 188 240 296 358 420
#     4  12  27  46  74 103 145 192 238 295 356 427
#     4  11  26  42  75 104 145 187 234 300 352 423
#     4  12  27  46  74 103 145 192 238 295 356 427
#     4  11  24  46  71 107 142 185 241 288 359 421
#     4  11  26  42  75 104 145 187 234 300 352 423
#     4  11  24  46  71 107 142 185 241 288 359 421
#     4  12  27  47  71 105 147 188 240 296 358 420
#
# _framework density 22.271075
#
# number of rings (size 3 to 8) (size 9 to 14) (size 15 to 20)
#    0.000    0.500    2.500    4.500   10.500    2.000 
#    0.000    0.000    0.000    0.000    0.000    0.000 
#    0.000    0.000    0.000    0.000    0.000    0.000 
#
# Total GULP energy -89369.645914 kJ/mol
# GULP energy per Si atom -5585.602870 kJ/mol
# Density = 2.222039 g / cm^3
# Si number density = 22.271075 Si / 1000 Ang^3
#
#
#
# Elastic Constant Matrix: (Units=GPa)
#
#
# Indices 1 2 3 4 5 6 
#
# 1 108.3928 16.3408 28.4694 0.0000 -13.7399 0.0000
# 2 16.3408 55.1134 -12.1586 0.0000 -10.1606 0.0000
# 3 28.4694 -12.1586 120.4788 0.0000 -7.2780 0.0000
# 4 0.0000 0.0000 0.0000 27.7567 0.0000 -0.2673
# 5 -13.7399 -10.1606 -7.2780 0.0000 61.1074 0.0000
# 6 0.0000 0.0000 0.0000 -0.2673 0.0000 28.5816
#
#
#
# Elastic Compliance Matrix: (Units=1/GPa)
#
#
# Indices 1 2 3 4 5 6 
#
# 1 0.010674 -0.003506 -0.002786 0.000000 0.001485 0.000000
# 2 -0.003506 0.020408 0.003067 0.000000 0.002970 0.000000
# 3 -0.002786 0.003067 0.009328 0.000000 0.000995 0.000000
# 4 0.000000 0.000000 0.000000 0.036031 0.000000 0.000337
# 5 0.001485 0.002970 0.000995 0.000000 0.017311 0.000000
# 6 0.000000 0.000000 0.000000 0.000337 0.000000 0.034991
#
#
# Mechanical properties :
#
#
# Convention : Reuss Voigt Hill
#
# Bulk Modulus (GPa) = 29.44533 38.80983 34.12758
# Shear Modulus (GPa) = 34.12666 40.24471 37.18569
#
# Velocity S-wave (km/s) = 3.91875 4.25554 4.09061
# Velocity P-wave (km/s) = 5.80736 6.45059 6.13741
#
# Compressibility (1/GPa) = 0.03396124
#
# Stress axis : x y z
#
# Youngs Moduli (GPa) = 93.68243 48.99998 107.20067
#
# Poissons Ratio (x) = 0.17178 0.29871
# Poissons Ratio (y) = 0.32843 -0.32883
# Poissons Ratio (z) = 0.26104 -0.15030
#
# Static dielectric constant tensor:
#      x y z
#    x 1.831430 0.000000 0.008130 
#    y 0.000000 1.967330 0.000000 
#    z 0.008130 0.000000 1.780580 
# 
# From -- ./inp_files/15602.got.cif
#   From: 2010.05.17/outbox.cif.g08.bks.cpg/sg3_8_cif.got.tgz:15602.got - 2010.06.03 18:33:08.
