data_PCOD9114937
_publ_section_title
;
Structure prediction by ZEFSAII (Michael W. Deem and Ramdas Pophale) SiO2 
 PCOD9114937
Probable space group: P 21
;
_chemical_formula_sum "Si O2"
_cell_formula_units_Z 16
_cell_length_a 7.553292
_cell_length_b 7.715240
_cell_length_c 12.334084
_cell_angle_alpha 90.000000
_cell_angle_beta 62.623558
_cell_angle_gamma 90.000000
_cell_volume 638.274945
_symmetry_space_group_name_H-M "P 21"
_symmetry_group_IT_number 4
_symmetry_cell_setting 'monoclinic'
loop_
_space_group_symop_operation_xyz
x,y,z
-x,1/2+y,-z
loop_
_atom_site_type_symbol
_atom_site_label
_atom_site_fract_x
_atom_site_fract_y
_atom_site_fract_z
Si Si1 0.945853 0.821370 0.124073
Si Si2 0.448154 0.759218 0.513669
Si Si3 0.749685 0.505030 0.090333
Si Si4 0.300494 0.252276 0.105751
Si Si5 0.964316 0.067082 0.318417
Si Si6 0.583936 0.990012 0.107235
Si Si7 0.575908 0.009999 0.647122
Si Si8 0.745544 0.353543 0.636690
O O1 0.881466 0.623322 0.134511
O O2 0.773365 0.947477 0.125980
O O3 0.982450 0.907147 0.229101
O O4 0.127157 0.844532 0.989134
O O5 0.581305 0.839145 0.571135
O O6 0.554035 0.635369 0.396488
O O7 0.354402 0.895808 0.452180
O O8 0.257256 0.646346 0.609373
O O9 0.547792 0.476802 0.211227
O O10 0.726875 0.626529 0.991270
O O11 0.105992 0.221983 0.233677
O O12 0.483983 0.173941 0.119864
O O13 0.356585 0.427758 0.030211
O O14 0.066504 0.975485 0.393474
O O15 0.407850 0.886327 0.220477
O O16 0.756198 0.142236 0.624971
#
# Coordination Sequence:
#
# PCOD9114937 Si02
#       8
#     2   2   2   2   2   2   2   2
#     4  10  21  36  63  92 129 166 215 279 336 402
#     4  10  23  41  68  97 127 176 233 280 324 404
#     4  10  21  38  59  92 128 165 219 275 337 398
#     4   9  19  37  58  84 125 158 209 263 331 395
#     4  10  22  40  65  93 132 170 218 277 345 384
#     4  10  19  37  60  87 126 168 211 261 338 391
#     4  10  22  42  68  93 133 175 232 272 336 400
#     4   9  21  43  63  88 132 176 211 279 337 398
#
# _framework density 25.067567
#
# number of rings (size 3 to 8) (size 9 to 14) (size 15 to 20)
#    0.750    1.500    2.500    0.000    8.750    3.000 
#    2.250    2.500    0.000    0.000    0.000    0.000 
#    0.000    0.000    0.000    0.000    0.000    0.000 
#
# Total GULP energy -89192.853531 kJ/mol
# GULP energy per Si atom -5574.553346 kJ/mol
# Density = 2.501051 g / cm^3
# Si number density = 25.067567 Si / 1000 Ang^3
#
#
#
# Elastic Constant Matrix: (Units=GPa)
#
#
# Indices 1 2 3 4 5 6 
#
# 1 61.3929 14.8017 28.9957 0.0000 -12.0558 0.0000
# 2 14.8017 71.4174 38.8401 0.0000 -1.1527 0.0000
# 3 28.9957 38.8401 113.0338 0.0000 -12.1085 0.0000
# 4 0.0000 0.0000 0.0000 28.6126 0.0000 11.9068
# 5 -12.0558 -1.1527 -12.1085 0.0000 34.8348 0.0000
# 6 0.0000 0.0000 0.0000 11.9068 0.0000 39.4083
#
#
#
# Elastic Compliance Matrix: (Units=1/GPa)
#
#
# Indices 1 2 3 4 5 6 
#
# 1 0.019602 -0.001913 -0.003792 0.000000 0.005402 0.000000
# 2 -0.001913 0.017487 -0.005741 0.000000 -0.002079 0.000000
# 3 -0.003792 -0.005741 0.012081 0.000000 0.002697 0.000000
# 4 0.000000 0.000000 0.000000 0.039976 0.000000 -0.012078
# 5 0.005402 -0.002079 0.002697 0.000000 0.031445 0.000000
# 6 0.000000 0.000000 0.000000 -0.012078 0.000000 0.029025
#
#
# Mechanical properties :
#
#
# Convention : Reuss Voigt Hill
#
# Bulk Modulus (GPa) = 38.05458 45.67993 41.86725
# Shear Modulus (GPa) = 27.58355 31.45158 29.51757
#
# Velocity S-wave (km/s) = 3.32078 3.54598 3.43522
# Velocity P-wave (km/s) = 5.46966 5.91841 5.69845
#
# Compressibility (1/GPa) = 0.02627805
#
# Stress axis : x y z
#
# Youngs Moduli (GPa) = 51.01605 57.18448 82.77283
#
# Poissons Ratio (x) = 0.10939 0.31389
# Poissons Ratio (y) = 0.09759 0.47519
# Poissons Ratio (z) = 0.19346 0.32829
#
# Static dielectric constant tensor:
#      x y z
#    x 2.037470 0.000000 0.027000 
#    y 0.000000 2.072020 0.000000 
#    z 0.027000 0.000000 2.050010 
# 
# From -- ./inp_files/10928.got.cif
#   From: 2010.05.17/outbox.cif.g08.bks.cpg/sg4_6_cif.got.tgz:10928.got - 2010.06.03 18:43:04.
