data_PCOD9114736
_publ_section_title
;
Structure prediction by ZEFSAII (Michael W. Deem and Ramdas Pophale) SiO2 
 PCOD9114736
Probable space group: P 21
;
_chemical_formula_sum "Si O2"
_cell_formula_units_Z 16
_cell_length_a 6.900434
_cell_length_b 5.219121
_cell_length_c 18.852916
_cell_angle_alpha 90.000000
_cell_angle_beta 126.095531
_cell_angle_gamma 90.000000
_cell_volume 548.634264
_symmetry_space_group_name_H-M "P 21"
_symmetry_group_IT_number 4
_symmetry_cell_setting 'monoclinic'
loop_
_space_group_symop_operation_xyz
x,y,z
-x,1/2+y,-z
loop_
_atom_site_type_symbol
_atom_site_label
_atom_site_fract_x
_atom_site_fract_y
_atom_site_fract_z
Si Si1 0.597164 0.903610 0.361678
Si Si2 0.024525 0.923193 0.709822
Si Si3 0.978084 0.709289 0.555165
Si Si4 0.358186 0.873504 0.444874
Si Si5 0.258676 0.309295 0.913406
Si Si6 0.835194 0.905276 0.958926
Si Si7 0.071538 0.308610 0.168067
Si Si8 0.342252 0.417515 0.785899
O O1 0.800939 0.743324 0.450828
O O2 0.370052 0.862690 0.362577
O O3 0.540136 0.870293 0.266205
O O4 0.740630 0.174616 0.398163
O O5 0.942182 0.906716 0.611245
O O6 0.839128 0.859315 0.732938
O O7 0.221356 0.696314 0.758804
O O8 0.144249 0.194378 0.746111
O O9 0.892431 0.450778 0.575982
O O10 0.488365 0.628529 0.504072
O O11 0.050104 0.529093 0.861528
O O12 0.440783 0.367186 0.887329
O O13 0.132983 0.030149 0.884813
O O14 0.340142 0.366087 0.011946
O O15 0.750780 0.850764 0.860049
O O16 0.037354 0.681932 0.011548
#
# Coordination Sequence:
#
# PCOD9114736 Si02
#       8
#     2   2   2   2   2   2   2   2
#     4  10  19  32  51  69  91 121 152 186 226 269
#     4   9  17  27  41  61  84 112 146 181 217 260
#     4  10  19  32  51  69  91 121 152 186 226 269
#     4  10  22  36  50  70  92 116 152 192 224 264
#     4   8  13  21  32  50  75 104 137 170 208 251
#     4   8  12  18  30  46  70 104 134 164 206 250
#     4   8  13  21  32  50  75 104 137 170 208 251
#     4   9  17  27  41  61  84 112 146 181 217 260
#
# _framework density 29.163328
#
# number of rings (size 3 to 8) (size 9 to 14) (size 15 to 20)
#    0.000    3.000    0.000    1.500    0.000    6.000 
#    0.000    0.000    0.000    0.000    0.000    0.000 
#    0.000    0.000    0.000   67.500    0.000   19.000 
#
# Total GULP energy -89438.677482 kJ/mol
# GULP energy per Si atom -5589.917343 kJ/mol
# Density = 2.909695 g / cm^3
# Si number density = 29.163328 Si / 1000 Ang^3
#
#
#
# Elastic Constant Matrix: (Units=GPa)
#
#
# Indices 1 2 3 4 5 6 
#
# 1 83.8524 22.4137 67.7619 0.0000 -16.1422 0.0000
# 2 22.4137 156.2604 30.0987 0.0000 34.9525 0.0000
# 3 67.7619 30.0987 215.6566 0.0000 -71.8005 0.0000
# 4 0.0000 0.0000 0.0000 57.9625 0.0000 9.6551
# 5 -16.1422 34.9525 -71.8005 0.0000 51.8641 0.0000
# 6 0.0000 0.0000 0.0000 9.6551 0.0000 24.8419
#
#
#
# Elastic Compliance Matrix: (Units=1/GPa)
#
#
# Indices 1 2 3 4 5 6 
#
# 1 0.016393 -0.000541 -0.006038 0.000000 -0.002893 0.000000
# 2 -0.000541 0.012562 -0.008270 0.000000 -0.020083 0.000000
# 3 -0.006038 -0.008270 0.016543 0.000000 0.026596 0.000000
# 4 0.000000 0.000000 0.000000 0.018447 0.000000 -0.007170
# 5 -0.002893 -0.020083 0.026596 0.000000 0.068735 0.000000
# 6 0.000000 0.000000 0.000000 -0.007170 0.000000 0.043041
#
#
# Mechanical properties :
#
#
# Convention : Reuss Voigt Hill
#
# Bulk Modulus (GPa) = 63.28954 77.36867 70.32910
# Shear Modulus (GPa) = 23.73186 49.30005 36.51595
#
# Velocity S-wave (km/s) = 2.85574 4.11601 3.54237
# Velocity P-wave (km/s) = 5.71161 7.01254 6.39524
#
# Compressibility (1/GPa) = 0.01580040
#
# Stress axis : x y z
#
# Youngs Moduli (GPa) = 61.00051 79.60386 60.44680
#
# Poissons Ratio (x) = 0.04309 0.36501
# Poissons Ratio (y) = 0.03302 0.49987
# Poissons Ratio (z) = 0.36835 0.65829
#
# Static dielectric constant tensor:
#      x y z
#    x 2.169510 0.000000 -0.056490 
#    y 0.000000 2.276090 0.000000 
#    z -0.056490 0.000000 2.489270 
# 
# From -- ./inp_files/9429.got.cif
#   From: 2010.05.17/outbox.cif.g08.bks.cpg/sg4_5_cif.got.tgz:9429.got - 2010.06.03 18:43:04.
