data_PCOD9114607
_publ_section_title
;
Structure prediction by ZEFSAII (Michael W. Deem and Ramdas Pophale) SiO2 
 PCOD9114607
Probable space group: P 21
;
_chemical_formula_sum "Si O2"
_cell_formula_units_Z 14
_cell_length_a 16.188807
_cell_length_b 4.923534
_cell_length_c 29.197906
_cell_angle_alpha 90.000000
_cell_angle_beta 16.966648
_cell_angle_gamma 90.000000
_cell_volume 679.127141
_symmetry_space_group_name_H-M "P 21"
_symmetry_group_IT_number 4
_symmetry_cell_setting 'monoclinic'
loop_
_space_group_symop_operation_xyz
x,y,z
-x,1/2+y,-z
loop_
_atom_site_type_symbol
_atom_site_label
_atom_site_fract_x
_atom_site_fract_y
_atom_site_fract_z
Si Si1 0.135936 0.345070 0.871303
Si Si2 0.334477 0.842374 0.818130
Si Si3 0.375966 0.755162 0.450426
Si Si4 0.698776 0.150632 0.883011
Si Si5 0.995887 0.741459 0.374436
Si Si6 0.029627 0.374581 0.513639
Si Si7 0.337005 0.039130 0.568919
O O1 0.184692 0.655606 0.859514
O O2 0.301883 0.275301 0.737610
O O3 0.291688 0.151948 0.825759
O O4 0.809036 0.290266 0.056469
O O5 0.655262 0.766239 0.646025
O O6 0.241435 0.460036 0.515386
O O7 0.166501 0.955888 0.533608
O O8 0.361546 0.877270 0.508389
O O9 0.789779 0.213165 0.782014
O O10 0.000478 0.110714 0.749914
O O11 0.500293 0.387263 0.008111
O O12 0.117336 0.839595 0.359049
O O13 0.074957 0.676612 0.470772
O O14 0.523752 0.315385 0.470760
#
# Coordination Sequence:
#
# PCOD9114607 Si02
#       7
#     2   2   2   2   2   2   2
#     4  10  18  34  59  81 109 144 195 249 279 345
#     4  10  20  34  54  83 112 146 192 242 296 337
#     4  11  19  37  64  88 119 160 208 260 299 380
#     4  11  23  43  69  94 125 174 220 267 323 394
#     4  11  22  39  62  91 119 162 228 249 298 385
#     4  12  23  37  57  85 126 163 199 251 301 357
#     4  11  23  40  63  98 130 161 210 272 332 378
#
# _framework density 20.614695000000001
#
# number of rings (size 3 to 8) (size 9 to 14) (size 15 to 20)
#    0.000    1.143    2.857    6.000    0.000    0.000 
#    0.000    4.286    0.000    0.000    0.000    0.000 
#    0.000    0.000    0.000    0.000    0.000    0.000 
#
# Total GULP energy -78014.801510 kJ/mol
# GULP energy per Si atom -5572.485822 kJ/mol
# Density = 2.056778 g / cm^3
# Si number density = 20.614695 Si / 1000 Ang^3
#
#
#
# Elastic Constant Matrix: (Units=GPa)
#
#
# Indices 1 2 3 4 5 6 
#
# 1 60.9826 13.1661 18.3845 0.0000 3.2063 0.0000
# 2 13.1661 103.1355 16.2904 0.0000 -4.6956 0.0000
# 3 18.3845 16.2904 102.1964 0.0005 10.3681 0.0007
# 4 0.0000 0.0000 0.0005 20.3408 -0.0001 -13.7717
# 5 3.2063 -4.6956 10.3681 -0.0001 23.9732 -0.0002
# 6 0.0000 0.0000 0.0007 -13.7717 -0.0002 13.2531
#
#
#
# Elastic Compliance Matrix: (Units=1/GPa)
#
#
# Indices 1 2 3 4 5 6 
#
# 1 0.017712 -0.001902 -0.002725 0.000000 -0.001563 0.000000
# 2 -0.001902 0.010328 -0.001606 0.000001 0.002972 0.000001
# 3 -0.002725 -0.001606 0.011009 -0.000003 -0.004711 -0.000003
# 4 0.000000 0.000001 -0.000003 0.165830 0.000004 0.172319
# 5 -0.001563 0.002972 -0.004711 0.000004 0.044542 0.000005
# 6 0.000000 0.000001 -0.000003 0.172319 0.000005 0.254516
#
#
# Mechanical properties :
#
#
# Convention : Reuss Voigt Hill
#
# Bulk Modulus (GPa) = 37.61535 40.22184 38.91859
# Shear Modulus (GPa) = 9.51903 26.07832 17.79868
#
# Velocity S-wave (km/s) = 2.15119 3.56059 2.94155
# Velocity P-wave (km/s) = 4.94537 6.03799 5.51879
#
# Compressibility (1/GPa) = 0.02658489
#
# Stress axis : x y z
#
# Youngs Moduli (GPa) = 56.45794 96.82721 90.83370
#
# Poissons Ratio (x) = 0.18416 0.24748
# Poissons Ratio (y) = 0.10738 0.14584
# Poissons Ratio (z) = 0.15382 0.15546
#
# Static dielectric constant tensor:
#      x y z
#    x 2.063950 0.000000 0.059440 
#    y 0.000000 1.753320 0.000000 
#    z 0.059440 0.000000 1.780840 
# 
# From -- ./inp_files/16388.got.cif
#   From: 2010.05.17/outbox.cif.g08.bks.cpg/sg4_9_cif.got.tgz:16388.got - 2010.06.03 18:43:04.
