data_PCOD9114216
_publ_section_title
;
Structure prediction by ZEFSAII (Michael W. Deem and Ramdas Pophale) SiO2 
 PCOD9114216
Probable space group: P 2
;
_chemical_formula_sum "Si O2"
_cell_formula_units_Z 16
_cell_length_a 8.333317
_cell_length_b 17.788824
_cell_length_c 8.828630
_cell_angle_alpha 90.000000
_cell_angle_beta 147.155951
_cell_angle_gamma 90.000000
_cell_volume 709.809042
_symmetry_space_group_name_H-M "P 2"
_symmetry_group_IT_number 3
_symmetry_cell_setting 'monoclinic'
loop_
_space_group_symop_operation_xyz
x,y,z
-x,y,-z
loop_
_atom_site_type_symbol
_atom_site_label
_atom_site_fract_x
_atom_site_fract_y
_atom_site_fract_z
Si Si1 0.928427 0.702000 0.263111
Si Si2 0.505390 0.764596 0.671442
Si Si3 0.284373 0.931221 0.128253
Si Si4 0.801464 0.296236 0.491547
Si Si5 0.070007 0.003412 0.381623
Si Si6 0.176837 0.544256 0.792479
Si Si7 0.793717 0.397724 0.984606
Si Si8 0.821360 0.148706 0.707571
O O1 0.156168 0.769258 0.415537
O O2 0.000000 0.692813 0.500000
O O3 0.989659 0.615119 0.264483
O O4 0.651269 0.724340 0.934433
O O5 0.500000 0.725840 0.500000
O O6 0.652823 0.845702 0.776988
O O7 0.160697 0.941861 0.861970
O O8 0.000000 0.959101 0.000000
O O9 0.595153 0.974949 0.383656
O O10 0.504229 0.347248 0.255556
O O11 0.760338 0.218546 0.548327
O O12 0.000000 0.280923 0.500000
O O13 0.010625 0.348269 0.752709
O O14 0.016272 0.081398 0.250196
O O15 0.000000 0.016419 0.500000
O O16 0.000000 0.519181 0.500000
O O17 0.500000 0.575263 0.000000
O O18 0.244227 0.477359 0.961608
O O19 0.000000 0.407688 0.000000
O O20 0.500000 0.119870 0.500000
O O21 0.000000 0.171696 0.000000
#
# Coordination Sequence:
#
# PCOD9114216 Si02
#       8
#     2   2   2   2   2   2   2   2
#     4  11  24  43  67  96 134 179 228 284 350 420
#     4  12  25  42  67  98 135 177 229 287 348 417
#     4  12  25  45  69  97 137 185 229 282 351 420
#     4  12  25  44  68  98 136 177 222 276 336 405
#     4  12  26  44  69 103 136 176 233 291 346 412
#     4  11  23  44  68  95 133 179 228 282 346 417
#     4  12  25  42  68 101 134 174 224 279 338 405
#     4  12  25  44  70  98 135 181 226 281 344 412
#
# _framework density 22.541274000000001
#
# number of rings (size 3 to 8) (size 9 to 14) (size 15 to 20)
#    0.000    0.250    0.000   12.000    0.000    4.000 
#    0.000    3.750    0.000    0.000    0.000    0.000 
#    0.000    0.000    0.000    0.000    0.000    0.000 
#
# Total GULP energy -89195.094036 kJ/mol
# GULP energy per Si atom -5574.693377 kJ/mol
# Density = 2.248997 g / cm^3
# Si number density = 22.541274 Si / 1000 Ang^3
#
#
#
# Elastic Constant Matrix: (Units=GPa)
#
#
# Indices 1 2 3 4 5 6 
#
# 1 89.2868 44.8027 48.1888 0.0000 -15.3725 0.0000
# 2 44.8027 109.0123 44.9384 0.0000 -9.9215 0.0000
# 3 48.1888 44.9384 176.3917 0.0000 2.3609 0.0000
# 4 0.0000 0.0000 0.0000 34.5109 0.0000 0.1037
# 5 -15.3725 -9.9215 2.3609 0.0000 40.9931 0.0000
# 6 0.0000 0.0000 0.0000 0.1037 0.0000 27.0050
#
#
#
# Elastic Compliance Matrix: (Units=1/GPa)
#
#
# Indices 1 2 3 4 5 6 
#
# 1 0.016300 -0.004882 -0.003278 0.000000 0.005120 0.000000
# 2 -0.004882 0.012004 -0.001740 0.000000 0.001175 0.000000
# 3 -0.003278 -0.001740 0.007036 0.000000 -0.002056 0.000000
# 4 0.000000 0.000000 0.000000 0.028977 0.000000 -0.000111
# 5 0.005120 0.001175 -0.002056 0.000000 0.026717 0.000000
# 6 0.000000 0.000000 0.000000 -0.000111 0.000000 0.037031
#
#
# Mechanical properties :
#
#
# Convention : Reuss Voigt Hill
#
# Bulk Modulus (GPa) = 64.35157 72.28342 68.31749
# Shear Modulus (GPa) = 32.67041 36.28586 34.47814
#
# Velocity S-wave (km/s) = 3.81118 4.01652 3.91520
# Velocity P-wave (km/s) = 6.92655 7.32439 7.12825
#
# Compressibility (1/GPa) = 0.01553964
#
# Stress axis : x y z
#
# Youngs Moduli (GPa) = 61.34942 83.30573 142.13560
#
# Poissons Ratio (x) = 0.40669 0.46590
# Poissons Ratio (y) = 0.29950 0.24735
# Poissons Ratio (z) = 0.20109 0.14497
#
# Static dielectric constant tensor:
#      x y z
#    x 1.892860 0.000000 -0.029350 
#    y 0.000000 1.812060 0.000000 
#    z -0.029350 0.000000 1.833630 
# 
# From -- ./inp_files/6308.got.cif
#   From: 2010.05.17/outbox.cif.g08.bks.cpg/sg3_4_cif.got.tgz:6308.got - 2010.06.03 18:33:08.
