data_PCOD9114875
_publ_section_title
;
Structure prediction by ZEFSAII (Michael W. Deem and Ramdas Pophale) SiO2 
 PCOD9114875
Probable space group: P 21
;
_chemical_formula_sum "Si O2"
_cell_formula_units_Z 14
_cell_length_a 10.716388
_cell_length_b 5.106651
_cell_length_c 12.237812
_cell_angle_alpha 90.000000
_cell_angle_beta 111.960031
_cell_angle_gamma 90.000000
_cell_volume 621.121448
_symmetry_space_group_name_H-M "P 21"
_symmetry_group_IT_number 4
_symmetry_cell_setting 'monoclinic'
loop_
_space_group_symop_operation_xyz
x,y,z
-x,1/2+y,-z
loop_
_atom_site_type_symbol
_atom_site_label
_atom_site_fract_x
_atom_site_fract_y
_atom_site_fract_z
Si Si1 0.894037 0.697210 0.565259
Si Si2 0.191467 0.223890 0.847427
Si Si3 0.889983 0.179930 0.710374
Si Si4 0.591704 0.347404 0.180989
Si Si5 0.096613 0.830166 0.047489
Si Si6 0.344532 0.599058 0.023442
Si Si7 0.808144 0.058859 0.353647
O O1 0.876844 0.413996 0.616815
O O2 0.053295 0.720863 0.583207
O O3 0.847341 0.912694 0.639034
O O4 0.817635 0.801553 0.432391
O O5 0.174379 0.482205 0.766910
O O6 0.043778 0.112773 0.795549
O O7 0.294081 0.048545 0.816591
O O8 0.257144 0.339094 0.976168
O O9 0.840072 0.275597 0.811534
O O10 0.456661 0.516684 0.147841
O O11 0.661257 0.192954 0.303839
O O12 0.578361 0.169919 0.065424
O O13 0.228788 0.808323 0.013969
O O14 0.991818 0.595877 0.980708
#
# Coordination Sequence:
#
# PCOD9114875 Si02
#       7
#     2   2   2   2   2   2   2
#     4  11  22  37  60  91 128 165 213 275 328 375
#     4  10  19  36  55  87 130 165 205 260 323 388
#     4  11  22  38  59  91 130 167 215 270 318 383
#     4  11  21  37  60  95 134 171 212 268 335 402
#     4  12  25  41  66  94 134 184 223 266 319 395
#     4  11  23  37  61  93 136 176 214 267 327 398
#     4  10  22  34  59  91 126 166 210 268 334 391
#
# _framework density 22.539874999999999
#
# number of rings (size 3 to 8) (size 9 to 14) (size 15 to 20)
#    0.000    1.143    4.286    3.429    4.000    0.000 
#    0.000    0.000    0.000    0.000    3.714    0.000 
#    0.000    0.000    0.000    0.000    0.000    0.000 
#
# Total GULP energy -78022.599200 kJ/mol
# GULP energy per Si atom -5573.042800 kJ/mol
# Density = 2.248857 g / cm^3
# Si number density = 22.539875 Si / 1000 Ang^3
#
#
#
# Elastic Constant Matrix: (Units=GPa)
#
#
# Indices 1 2 3 4 5 6 
#
# 1 52.4213 8.3576 16.5230 0.0000 10.7538 0.0000
# 2 8.3576 103.9638 14.5952 0.0000 9.2277 0.0000
# 3 16.5230 14.5952 68.1884 0.0000 6.3618 0.0000
# 4 0.0000 0.0000 0.0000 42.7103 0.0000 5.6327
# 5 10.7538 9.2277 6.3618 0.0000 37.6408 0.0000
# 6 0.0000 0.0000 0.0000 5.6327 0.0000 13.5628
#
#
#
# Elastic Compliance Matrix: (Units=1/GPa)
#
#
# Indices 1 2 3 4 5 6 
#
# 1 0.021718 -0.000627 -0.004637 0.000000 -0.005267 0.000000
# 2 -0.000627 0.010102 -0.001825 0.000000 -0.001989 0.000000
# 3 -0.004637 -0.001825 0.016271 0.000000 -0.000978 0.000000
# 4 0.000000 0.000000 0.000000 0.024770 0.000000 -0.010287
# 5 -0.005267 -0.001989 -0.000978 0.000000 0.028725 0.000000
# 6 0.000000 0.000000 0.000000 -0.010287 0.000000 0.078003
#
#
# Mechanical properties :
#
#
# Convention : Reuss Voigt Hill
#
# Bulk Modulus (GPa) = 29.48739 33.72501 31.60620
# Shear Modulus (GPa) = 24.38180 31.12263 27.75221
#
# Velocity S-wave (km/s) = 3.29252 3.71992 3.51272
# Velocity P-wave (km/s) = 5.25023 5.78319 5.52314
#
# Compressibility (1/GPa) = 0.03391280
#
# Stress axis : x y z
#
# Youngs Moduli (GPa) = 46.04410 98.99167 61.46043
#
# Poissons Ratio (x) = 0.06211 0.28499
# Poissons Ratio (y) = 0.02889 0.11214
# Poissons Ratio (z) = 0.21350 0.18062
#
# Static dielectric constant tensor:
#      x y z
#    x 1.891320 0.000000 -0.040190 
#    y 0.000000 1.963010 0.000000 
#    z -0.040190 0.000000 1.983190 
# 
# From -- ./inp_files/11777.got.cif
#   From: 2010.05.17/outbox.cif.g08.bks.cpg/sg4_6_cif.got.tgz:11777.got - 2010.06.03 18:43:04.
