data_PCOD9114354
_publ_section_title
;
Structure prediction by ZEFSAII (Michael W. Deem and Ramdas Pophale) SiO2 
 PCOD9114354
Probable space group: P 2
;
_chemical_formula_sum "Si O2"
_cell_formula_units_Z 9
_cell_length_a 9.162190
_cell_length_b 7.422037
_cell_length_c 7.222210
_cell_angle_alpha 90.000000
_cell_angle_beta 123.077041
_cell_angle_gamma 90.000000
_cell_volume 411.532498
_symmetry_space_group_name_H-M "P 2"
_symmetry_group_IT_number 3
_symmetry_cell_setting 'monoclinic'
loop_
_space_group_symop_operation_xyz
x,y,z
-x,y,-z
loop_
_atom_site_type_symbol
_atom_site_label
_atom_site_fract_x
_atom_site_fract_y
_atom_site_fract_z
Si Si1 0.356085 0.757170 0.747467
Si Si2 0.812309 0.319257 0.886894
Si Si3 0.199580 0.374654 0.702951
Si Si4 0.500000 0.549205 0.500000
Si Si5 0.678536 0.099017 0.502399
O O1 0.241320 0.588728 0.740319
O O2 0.449920 0.671040 0.636715
O O3 0.272610 0.933984 0.597962
O O4 0.500000 0.807673 0.000000
O O5 0.500000 0.075233 0.500000
O O6 0.662502 0.435624 0.688066
O O7 0.817102 0.143222 0.759545
O O8 0.773218 0.293766 0.074560
O O9 0.000000 0.350765 0.500000
O O10 0.320674 0.268540 0.640196
O O11 0.000000 0.411567 0.000000
#
# Coordination Sequence:
#
# PCOD9114354 Si02
#       5
#     2   2   2   1   2
#     4  12  26  43  72 108 146 192 246 303 374 441
#     4  12  24  47  77 106 147 198 247 311 371 442
#     4  12  26  49  76 107 145 197 253 308 373 448
#     4  12  22  44  74 106 142 196 248 300 368 446
#     4  12  27  43  72 110 148 191 251 299 374 445
#
# _framework density 21.869478000000001
#
# number of rings (size 3 to 8) (size 9 to 14) (size 15 to 20)
#    0.000    0.000    8.889    0.000    3.111    0.889 
#    0.000    1.111    0.000    0.000    0.000    0.000 
#    0.000    0.000    0.000    0.000    0.000    0.000 
#
# Total GULP energy -50239.187161 kJ/mol
# GULP energy per Si atom -5582.131907 kJ/mol
# Density = 2.181970 g / cm^3
# Si number density = 21.869478 Si / 1000 Ang^3
#
#
#
# Elastic Constant Matrix: (Units=GPa)
#
#
# Indices 1 2 3 4 5 6 
#
# 1 68.6168 3.9979 38.0981 0.0000 4.1016 0.0000
# 2 3.9979 107.8815 47.4930 0.0000 3.6960 0.0000
# 3 38.0981 47.4930 205.1565 0.0000 -15.9050 0.0000
# 4 0.0000 0.0000 0.0000 21.7107 0.0000 0.1727
# 5 4.1016 3.6960 -15.9050 0.0000 44.1037 0.0000
# 6 0.0000 0.0000 0.0000 0.1727 0.0000 4.7413
#
#
#
# Elastic Compliance Matrix: (Units=1/GPa)
#
#
# Indices 1 2 3 4 5 6 
#
# 1 0.016667 0.001052 -0.003565 0.000000 -0.002924 0.000000
# 2 0.001052 0.010525 -0.002786 0.000000 -0.001984 0.000000
# 3 -0.003565 -0.002786 0.006404 0.000000 0.002875 0.000000
# 4 0.000000 0.000000 0.000000 0.046074 0.000000 -0.001678
# 5 -0.002924 -0.001984 0.002875 0.000000 0.024149 0.000000
# 6 0.000000 0.000000 0.000000 -0.001678 0.000000 0.210972
#
#
# Mechanical properties :
#
#
# Convention : Reuss Voigt Hill
#
# Bulk Modulus (GPa) = 43.48227 62.31478 52.89853
# Shear Modulus (GPa) = 15.01259 33.58218 24.29739
#
# Velocity S-wave (km/s) = 2.62289 3.92289 3.33681
# Velocity P-wave (km/s) = 5.39430 7.00532 6.25192
#
# Compressibility (1/GPa) = 0.02299788
#
# Stress axis : x y z
#
# Youngs Moduli (GPa) = 59.99981 95.01398 156.14910
#
# Poissons Ratio (x) = -0.09996 0.55672
# Poissons Ratio (y) = -0.06312 0.43498
# Poissons Ratio (z) = 0.21392 0.26468
#
# Static dielectric constant tensor:
#      x y z
#    x 1.850230 0.000000 -0.006930 
#    y 0.000000 1.930940 0.000000 
#    z -0.006930 0.000000 1.767830 
# 
# From -- ./inp_files/1884.got.cif
#   From: 2010.05.17/outbox.cif.g08.bks.cpg/sg3_1_cif.got.tgz:1884.got - 2010.06.03 18:33:08.
