data_PCOD9114688
_publ_section_title
;
Structure prediction by ZEFSAII (Michael W. Deem and Ramdas Pophale) SiO2 
 PCOD9114688
Probable space group: P 21
;
_chemical_formula_sum "Si O2"
_cell_formula_units_Z 16
_cell_length_a 23.264129
_cell_length_b 5.141992
_cell_length_c 8.547723
_cell_angle_alpha 90.000000
_cell_angle_beta 141.779260
_cell_angle_gamma 90.000000
_cell_volume 632.621154
_symmetry_space_group_name_H-M "P 21"
_symmetry_group_IT_number 4
_symmetry_cell_setting 'monoclinic'
loop_
_space_group_symop_operation_xyz
x,y,z
-x,1/2+y,-z
loop_
_atom_site_type_symbol
_atom_site_label
_atom_site_fract_x
_atom_site_fract_y
_atom_site_fract_z
Si Si1 0.681794 0.976050 0.577297
Si Si2 0.803229 0.736256 0.325672
Si Si3 0.556328 0.220796 0.062126
Si Si4 0.873384 0.092179 0.694198
Si Si5 0.493864 0.317204 0.593003
Si Si6 0.786505 0.586888 0.606735
Si Si7 0.847828 0.003015 0.132225
Si Si8 0.035702 0.840507 0.373492
O O1 0.716164 0.698733 0.581999
O O2 0.860233 0.824634 0.753738
O O3 0.597051 0.925757 0.512211
O O4 0.766117 0.107670 0.849761
O O5 0.747012 0.586630 0.341094
O O6 0.906564 0.601548 0.548947
O O7 0.802246 0.024648 0.399292
O O8 0.792741 0.789645 0.121346
O O9 0.560028 0.244751 0.882228
O O10 0.485906 0.985431 0.956543
O O11 0.648095 0.141264 0.354750
O O12 0.843600 0.325413 0.738966
O O13 0.960197 0.168680 0.774993
O O14 0.474872 0.056189 0.451513
O O15 0.901745 0.207675 0.357243
O O16 0.933875 0.879233 0.223228
#
# Coordination Sequence:
#
# PCOD9114688 Si02
#       8
#     2   2   2   2   2   2   2   2
#     4  11  26  45  74 115 149 194 255 314 382 470
#     4   8  18  37  62  90 137 197 246 295 362 419
#     4  10  23  49  79 108 156 192 232 306 398 459
#     4   8  18  36  64  86 133 191 239 290 357 414
#     4  11  25  51  83 117 146 195 247 310 396 475
#     4   9  19  39  62  97 134 178 241 297 366 419
#     4  11  21  39  66 110 145 202 259 312 363 433
#     4  10  18  38  66  97 150 201 253 306 366 419
#
# _framework density 25.291596999999999
#
# number of rings (size 3 to 8) (size 9 to 14) (size 15 to 20)
#    0.750    1.500    1.250    1.500    0.000    4.000 
#    9.000    3.750    2.750    0.000    0.000    0.000 
#    0.000    0.000    0.000    0.000    0.000    0.000 
#
# Total GULP energy -89179.016075 kJ/mol
# GULP energy per Si atom -5573.688505 kJ/mol
# Density = 2.523403 g / cm^3
# Si number density = 25.291597 Si / 1000 Ang^3
#
#
#
# Elastic Constant Matrix: (Units=GPa)
#
#
# Indices 1 2 3 4 5 6 
#
# 1 131.9630 25.5958 38.1060 0.0000 -20.6117 0.0000
# 2 25.5958 126.3865 22.4712 0.0000 -8.5074 0.0000
# 3 38.1060 22.4712 149.7667 0.0000 -10.0123 0.0000
# 4 0.0000 0.0000 0.0000 11.6411 0.0000 -3.2761
# 5 -20.6117 -8.5074 -10.0123 0.0000 29.7677 0.0000
# 6 0.0000 0.0000 0.0000 -3.2761 0.0000 49.7326
#
#
#
# Elastic Compliance Matrix: (Units=1/GPa)
#
#
# Indices 1 2 3 4 5 6 
#
# 1 0.009169 -0.001174 -0.001795 0.000000 0.005409 0.000000
# 2 -0.001174 0.008392 -0.000874 0.000000 0.001292 0.000000
# 3 -0.001795 -0.000874 0.007330 0.000000 0.000973 0.000000
# 4 0.000000 0.000000 0.000000 0.087525 0.000000 0.005766
# 5 0.005409 0.001292 0.000973 0.000000 0.038035 0.000000
# 6 0.000000 0.000000 0.000000 0.005766 0.000000 0.020487
#
#
# Mechanical properties :
#
#
# Convention : Reuss Voigt Hill
#
# Bulk Modulus (GPa) = 58.12200 64.49582 61.30891
# Shear Modulus (GPa) = 27.12090 39.69116 33.40603
#
# Velocity S-wave (km/s) = 3.27820 3.96579 3.63827
# Velocity P-wave (km/s) = 6.11223 6.82101 6.47633
#
# Compressibility (1/GPa) = 0.01720519
#
# Stress axis : x y z
#
# Youngs Moduli (GPa) = 109.06545 119.15682 136.42572
#
# Poissons Ratio (x) = 0.13984 0.24491
# Poissons Ratio (y) = 0.12800 0.11927
# Poissons Ratio (z) = 0.19579 0.10417
#
# Static dielectric constant tensor:
#      x y z
#    x 2.052920 0.000000 -0.042620 
#    y 0.000000 2.097280 0.000000 
#    z -0.042620 0.000000 2.062160 
# 
# From -- ./inp_files/9055.got.cif
#   From: 2010.05.17/outbox.cif.g08.bks.cpg/sg4_5_cif.got.tgz:9055.got - 2010.06.03 18:43:04.
