data_PCOD9114168
_publ_section_title
;
Structure prediction by ZEFSAII (Michael W. Deem and Ramdas Pophale) SiO2 
 PCOD9114168
Probable space group: P 2
;
_chemical_formula_sum "Si O2"
_cell_formula_units_Z 13
_cell_length_a 12.087547
_cell_length_b 10.143529
_cell_length_c 9.295793
_cell_angle_alpha 90.000000
_cell_angle_beta 38.566989
_cell_angle_gamma 90.000000
_cell_volume 710.560152
_symmetry_space_group_name_H-M "P 2"
_symmetry_group_IT_number 3
_symmetry_cell_setting 'monoclinic'
loop_
_space_group_symop_operation_xyz
x,y,z
-x,y,-z
loop_
_atom_site_type_symbol
_atom_site_label
_atom_site_fract_x
_atom_site_fract_y
_atom_site_fract_z
Si Si1 0.849428 0.253640 0.275312
Si Si2 0.969657 0.021835 0.360569
Si Si3 0.500000 0.697021 0.500000
Si Si4 0.349947 0.919097 0.866992
Si Si5 0.853695 0.746187 0.524605
Si Si6 0.500000 0.133028 0.500000
Si Si7 0.500000 0.796385 0.000000
Si Si8 0.846683 0.556485 0.275690
O O1 0.898805 0.148578 0.348516
O O2 0.664667 0.216457 0.388680
O O3 0.838325 0.405177 0.334838
O O4 0.000000 0.243148 0.000000
O O5 0.000000 0.049351 0.500000
O O6 0.836871 0.897365 0.488630
O O7 0.146752 0.962556 0.104229
O O8 0.396790 0.792475 0.718865
O O9 0.655601 0.609432 0.413762
O O10 0.438829 0.039786 0.692994
O O11 0.427828 0.884670 0.943347
O O12 0.904218 0.651879 0.345225
O O13 0.000000 0.745907 0.500000
O O14 0.663275 0.709130 0.780395
O O15 0.000000 0.564165 0.000000
#
# Coordination Sequence:
#
# PCOD9114168 Si02
#       8
#     2   2   1   2   2   1   1   2
#     4  11  24  43  62  89 130 165 212 254 308 377
#     4  11  22  40  65  95 125 159 205 264 307 369
#     4  11  23  42  64  98 126 158 216 262 306 374
#     4  11  22  37  67  97 121 160 206 263 316 355
#     4  11  23  39  64  93 125 160 205 257 314 368
#     4  11  23  40  64  92 122 166 204 262 314 368
#     4  12  20  40  60  96 126 156 200 258 316 366
#     4  11  25  41  65  90 125 172 206 257 309 373
#
# _framework density 18.295425999999999
#
# number of rings (size 3 to 8) (size 9 to 14) (size 15 to 20)
#    0.000    0.923    6.154    2.308    2.154    1.231 
#    0.000    0.000    3.385    0.000    0.000    0.000 
#    0.000    0.000    0.000    0.000    0.000    0.000 
#
# Total GULP energy -72574.666512 kJ/mol
# GULP energy per Si atom -5582.666655 kJ/mol
# Density = 1.825379 g / cm^3
# Si number density = 18.295426 Si / 1000 Ang^3
#
#
#
# Elastic Constant Matrix: (Units=GPa)
#
#
# Indices 1 2 3 4 5 6 
#
# 1 84.6474 65.4378 26.3185 0.0000 3.8621 0.0000
# 2 65.4378 142.0007 34.0599 0.0000 14.5785 0.0000
# 3 26.3185 34.0599 93.3491 0.0000 -6.9129 0.0000
# 4 0.0000 0.0000 0.0000 24.3091 0.0000 7.8149
# 5 3.8621 14.5785 -6.9129 0.0000 39.5809 0.0000
# 6 0.0000 0.0000 0.0000 7.8149 0.0000 7.8595
#
#
#
# Elastic Compliance Matrix: (Units=1/GPa)
#
#
# Indices 1 2 3 4 5 6 
#
# 1 0.018832 -0.008220 -0.002251 0.000000 0.000797 0.000000
# 2 -0.008220 0.011779 -0.002271 0.000000 -0.003933 0.000000
# 3 -0.002251 -0.002271 0.012415 0.000000 0.003225 0.000000
# 4 0.000000 0.000000 0.000000 0.060465 0.000000 -0.060123
# 5 0.000797 -0.003933 0.003225 0.000000 0.027199 0.000000
# 6 0.000000 0.000000 0.000000 -0.060123 0.000000 0.187017
#
#
# Mechanical properties :
#
#
# Convention : Reuss Voigt Hill
#
# Bulk Modulus (GPa) = 57.01206 63.51439 60.26322
# Shear Modulus (GPa) = 14.32505 27.29529 20.81017
#
# Velocity S-wave (km/s) = 2.80122 3.86673 3.37627
# Velocity P-wave (km/s) = 6.45694 7.39776 6.94330
#
# Compressibility (1/GPa) = 0.01754015
#
# Stress axis : x y z
#
# Youngs Moduli (GPa) = 53.10109 84.89755 80.54960
#
# Poissons Ratio (x) = 0.69787 0.18133
# Poissons Ratio (y) = 0.43650 0.18296
# Poissons Ratio (z) = 0.11954 0.19284
#
# Static dielectric constant tensor:
#      x y z
#    x 1.618360 0.000000 -0.017010 
#    y 0.000000 1.602870 0.000000 
#    z -0.017010 0.000000 1.677120 
# 
# From -- ./inp_files/5376.got.cif
#   From: 2010.05.17/outbox.cif.g08.bks.cpg/sg3_3_cif.got.tgz:5376.got - 2010.06.03 18:33:08.
