data_PCOD9114922
_publ_section_title
;
Structure prediction by ZEFSAII (Michael W. Deem and Ramdas Pophale) SiO2 
 PCOD9114922
Probable space group: P 21
;
_chemical_formula_sum "Si O2"
_cell_formula_units_Z 14
_cell_length_a 8.907472
_cell_length_b 7.894376
_cell_length_c 8.832596
_cell_angle_alpha 90.000000
_cell_angle_beta 60.683439
_cell_angle_gamma 90.000000
_cell_volume 541.553237
_symmetry_space_group_name_H-M "P 21"
_symmetry_group_IT_number 4
_symmetry_cell_setting 'monoclinic'
loop_
_space_group_symop_operation_xyz
x,y,z
-x,1/2+y,-z
loop_
_atom_site_type_symbol
_atom_site_label
_atom_site_fract_x
_atom_site_fract_y
_atom_site_fract_z
Si Si1 0.153651 0.327510 0.625401
Si Si2 0.035788 0.775034 0.776352
Si Si3 0.594622 0.098705 0.435809
Si Si4 0.401629 0.594868 0.218686
Si Si5 0.527025 0.239170 0.142259
Si Si6 0.972180 0.042850 0.573585
Si Si7 0.111513 0.941793 0.023596
O O1 0.338726 0.403621 0.578460
O O2 0.056494 0.477755 0.580622
O O3 0.133957 0.152923 0.546110
O O4 0.033138 0.323406 0.829659
O O5 0.909433 0.630721 0.902664
O O6 0.230153 0.706724 0.666252
O O7 0.977409 0.863845 0.654784
O O8 0.053633 0.934280 0.879632
O O9 0.527963 0.133766 0.644213
O O10 0.519388 0.126861 0.301385
O O11 0.391669 0.390844 0.219936
O O12 0.201563 0.649726 0.307517
O O13 0.485682 0.652067 0.017512
O O14 0.706110 0.348101 0.052218
#
# Coordination Sequence:
#
# PCOD9114922 Si02
#       7
#     2   2   2   2   2   2   2
#     4  10  19  36  65  93 133 166 211 287 345 389
#     4  10  21  36  65  98 131 166 218 282 352 393
#     4   9  23  46  65  96 133 177 232 278 332 403
#     4  11  25  44  66  96 137 182 228 277 327 408
#     4  11  25  45  67  96 137 184 230 272 332 401
#     4  11  21  38  62 101 132 171 218 278 347 408
#     4  10  20  37  60  92 131 166 217 276 329 402
#
# _framework density 25.851568
#
# number of rings (size 3 to 8) (size 9 to 14) (size 15 to 20)
#    0.000    1.714    1.429    3.429    6.000    1.143 
#    0.000   10.000    0.000    0.000    0.000    0.000 
#    0.000    0.000    0.000    0.000    0.000    0.000 
#
# Total GULP energy -78037.727733 kJ/mol
# GULP energy per Si atom -5574.123409 kJ/mol
# Density = 2.579273 g / cm^3
# Si number density = 25.851568 Si / 1000 Ang^3
#
#
#
# Elastic Constant Matrix: (Units=GPa)
#
#
# Indices 1 2 3 4 5 6 
#
# 1 52.1710 20.1745 56.8748 0.0000 12.3288 0.0000
# 2 20.1745 122.6293 56.9071 0.0000 25.8530 0.0000
# 3 56.8748 56.9071 160.2426 0.0000 35.5009 0.0000
# 4 0.0000 0.0000 0.0000 55.2025 0.0000 22.7553
# 5 12.3288 25.8530 35.5009 0.0000 27.3970 0.0000
# 6 0.0000 0.0000 0.0000 22.7553 0.0000 32.1117
#
#
#
# Elastic Compliance Matrix: (Units=1/GPa)
#
#
# Indices 1 2 3 4 5 6 
#
# 1 0.031269 -0.000054 -0.011184 0.000000 0.000471 0.000000
# 2 -0.000054 0.010702 -0.002174 0.000000 -0.007259 0.000000
# 3 -0.011184 -0.002174 0.013203 0.000000 -0.010024 0.000000
# 4 0.000000 0.000000 0.000000 0.025590 0.000000 -0.018134
# 5 0.000471 -0.007259 -0.010024 0.000000 0.056127 0.000000
# 6 0.000000 0.000000 0.000000 -0.018134 0.000000 0.043992
#
#
# Mechanical properties :
#
#
# Convention : Reuss Voigt Hill
#
# Bulk Modulus (GPa) = 35.27048 66.99507 51.13278
# Shear Modulus (GPa) = 23.02494 36.34801 29.68647
#
# Velocity S-wave (km/s) = 2.98763 3.75377 3.39240
# Velocity P-wave (km/s) = 5.05711 6.69024 5.93016
#
# Compressibility (1/GPa) = 0.02835232
#
# Stress axis : x y z
#
# Youngs Moduli (GPa) = 31.98039 93.43667 75.74250
#
# Poissons Ratio (x) = 0.00502 0.84708
# Poissons Ratio (y) = 0.00172 0.16463
# Poissons Ratio (z) = 0.35766 0.20309
#
# Static dielectric constant tensor:
#      x y z
#    x 2.002040 0.000000 -0.027020 
#    y 0.000000 2.049940 0.000000 
#    z -0.027020 0.000000 2.080990 
# 
# From -- ./inp_files/5540.got.cif
#   From: 2010.05.17/outbox.cif.g08.bks.cpg/sg4_3_cif.got.tgz:5540.got - 2010.06.03 18:43:04.
