data_PCOD9114132
_publ_section_title
;
Structure prediction by ZEFSAII (Michael W. Deem and Ramdas Pophale) SiO2 
 PCOD9114132
Probable space group: P 2
;
_chemical_formula_sum "Si O2"
_cell_formula_units_Z 10
_cell_length_a 12.657097
_cell_length_b 8.066074
_cell_length_c 11.974652
_cell_angle_alpha 90.000000
_cell_angle_beta 157.080837
_cell_angle_gamma 90.000000
_cell_volume 476.091990
_symmetry_space_group_name_H-M "P 2"
_symmetry_group_IT_number 3
_symmetry_cell_setting 'monoclinic'
loop_
_space_group_symop_operation_xyz
x,y,z
-x,y,-z
loop_
_atom_site_type_symbol
_atom_site_label
_atom_site_fract_x
_atom_site_fract_y
_atom_site_fract_z
Si Si1 0.006400 0.015450 0.643036
Si Si2 0.504392 0.223761 0.806207
Si Si3 0.041384 0.684474 0.269519
Si Si4 0.572991 0.504966 0.700104
Si Si5 0.259552 0.511062 0.821771
O O1 0.802504 0.165031 0.476709
O O2 0.000000 0.984025 0.500000
O O3 0.921685 0.869140 0.646530
O O4 0.304410 0.070946 0.973272
O O5 0.582196 0.322629 0.768198
O O6 0.572731 0.362216 0.963255
O O7 0.328332 0.600798 0.524032
O O8 0.882516 0.606586 0.218093
O O9 0.838912 0.621666 0.973981
O O10 0.500000 0.485967 0.500000
O O11 0.000000 0.455263 0.500000
O O12 0.500000 0.618525 0.000000
#
# Coordination Sequence:
#
# PCOD9114132 Si02
#       5
#     2   2   2   2   2
#     4  12  24  39  60  95 136 163 188 246 317 381
#     4  11  23  38  61  90 123 162 207 249 305 372
#     4  11  24  40  63  92 124 163 210 253 308 374
#     4  11  24  46  68  87 117 165 221 272 302 342
#     4  11  20  35  60  90 122 165 210 250 297 369
#
# _framework density 21.004345000000001
#
# number of rings (size 3 to 8) (size 9 to 14) (size 15 to 20)
#    0.000    0.800    0.000   10.800    0.000    1.600 
#    0.000    6.000    0.000    0.000    0.000    0.000 
#    0.000    0.000    0.000    0.000    0.000    0.000 
#
# Total GULP energy -55754.579418 kJ/mol
# GULP energy per Si atom -5575.457942 kJ/mol
# Density = 2.095654 g / cm^3
# Si number density = 21.004345 Si / 1000 Ang^3
#
#
#
# Elastic Constant Matrix: (Units=GPa)
#
#
# Indices 1 2 3 4 5 6 
#
# 1 87.7990 30.7815 16.9759 0.0000 -16.5014 0.0000
# 2 30.7815 46.0393 9.9062 0.0000 -16.6147 0.0000
# 3 16.9759 9.9062 101.3974 0.0000 -2.3355 0.0000
# 4 0.0000 0.0000 0.0000 38.8432 0.0000 32.7516
# 5 -16.5014 -16.6147 -2.3355 0.0000 45.9049 0.0000
# 6 0.0000 0.0000 0.0000 32.7516 0.0000 62.0376
#
#
#
# Elastic Compliance Matrix: (Units=1/GPa)
#
#
# Indices 1 2 3 4 5 6 
#
# 1 0.015296 -0.009114 -0.001622 0.000000 0.002117 0.000000
# 2 -0.009114 0.030931 -0.001315 0.000000 0.007852 0.000000
# 3 -0.001622 -0.001315 0.010250 0.000000 -0.000537 0.000000
# 4 0.000000 0.000000 0.000000 0.046398 0.000000 -0.024495
# 5 0.002117 0.007852 -0.000537 0.000000 0.025360 0.000000
# 6 0.000000 0.000000 0.000000 -0.024495 0.000000 0.029051
#
#
# Mechanical properties :
#
#
# Convention : Reuss Voigt Hill
#
# Bulk Modulus (GPa) = 30.88781 38.95141 34.91961
# Shear Modulus (GPa) = 26.01737 41.19527 33.60632
#
# Velocity S-wave (km/s) = 3.52329 4.43343 4.00430
# Velocity P-wave (km/s) = 5.59364 6.69267 6.16768
#
# Compressibility (1/GPa) = 0.03237523
#
# Stress axis : x y z
#
# Youngs Moduli (GPa) = 65.37464 32.33033 97.56286
#
# Poissons Ratio (x) = 0.29466 0.15822
# Poissons Ratio (y) = 0.59582 0.12831
# Poissons Ratio (z) = 0.10602 0.04252
#
# Static dielectric constant tensor:
#      x y z
#    x 1.833400 0.000000 0.001490 
#    y 0.000000 1.841220 0.000000 
#    z 0.001490 0.000000 1.888080 
# 
# From -- ./inp_files/11363.got.cif
#   From: 2010.05.17/outbox.cif.g08.bks.cpg/sg3_6_cif.got.tgz:11363.got - 2010.06.03 18:33:08.
