data_PCOD9114649
_publ_section_title
;
Structure prediction by ZEFSAII (Michael W. Deem and Ramdas Pophale) SiO2 
 PCOD9114649
Probable space group: P 21
;
_chemical_formula_sum "Si O2"
_cell_formula_units_Z 12
_cell_length_a 12.137200
_cell_length_b 7.908330
_cell_length_c 5.365808
_cell_angle_alpha 90.000000
_cell_angle_beta 87.868648
_cell_angle_gamma 90.000000
_cell_volume 514.680683
_symmetry_space_group_name_H-M "P 21"
_symmetry_group_IT_number 4
_symmetry_cell_setting 'monoclinic'
loop_
_space_group_symop_operation_xyz
x,y,z
-x,1/2+y,-z
loop_
_atom_site_type_symbol
_atom_site_label
_atom_site_fract_x
_atom_site_fract_y
_atom_site_fract_z
Si Si1 0.565765 0.135410 0.357083
Si Si2 0.559103 0.411257 0.960957
Si Si3 0.739864 0.307922 0.588965
Si Si4 0.345100 0.134696 0.699231
Si Si5 0.112752 0.238611 0.732905
Si Si6 0.937472 0.518189 0.758410
O O1 0.693034 0.152925 0.429784
O O2 0.465355 0.140253 0.563358
O O3 0.543770 0.971790 0.189632
O O4 0.535899 0.303636 0.203909
O O5 0.646683 0.301906 0.806662
O O6 0.626136 0.581401 0.022501
O O7 0.713231 0.470996 0.421919
O O8 0.853197 0.360398 0.708576
O O9 0.244568 0.262648 0.694944
O O10 0.070208 0.142688 0.482698
O O11 0.090447 0.120954 0.983378
O O12 0.052313 0.418205 0.768759
#
# Coordination Sequence:
#
# PCOD9114649 Si02
#       6
#     2   2   2   2   2   2
#     4  10  20  34  60  90 120 164 214 252 312 392
#     4  10  18  36  58  84 122 164 208 250 310 382
#     4   9  19  36  61  86 121 170 208 249 323 386
#     4   9  19  36  61  86 121 170 208 249 323 386
#     4  11  23  44  72  97 130 173 222 272 330 388
#     4  11  23  44  72  97 130 173 222 272 330 388
#
# _framework density 23.315428000000001
#
# number of rings (size 3 to 8) (size 9 to 14) (size 15 to 20)
#    0.000    2.000    1.667    2.000    0.000    0.000 
#    0.000    8.333    3.667    0.000    0.000    0.000 
#    0.000    0.000    0.000    0.000    0.000    0.000 
#
# Total GULP energy -66807.466636 kJ/mol
# GULP energy per Si atom -5567.288886 kJ/mol
# Density = 2.326236 g / cm^3
# Si number density = 23.315428 Si / 1000 Ang^3
#
#
#
# Elastic Constant Matrix: (Units=GPa)
#
#
# Indices 1 2 3 4 5 6 
#
# 1 55.4062 7.6951 3.8258 0.0000 4.1510 0.0000
# 2 7.6951 56.3210 23.0198 0.0000 -6.5837 0.0000
# 3 3.8258 23.0198 93.3068 0.0000 1.6188 0.0000
# 4 0.0000 0.0000 0.0000 38.7488 0.0000 7.6737
# 5 4.1510 -6.5837 1.6188 0.0000 15.5606 0.0000
# 6 0.0000 0.0000 0.0000 7.6737 0.0000 46.6139
#
#
#
# Elastic Compliance Matrix: (Units=1/GPa)
#
#
# Indices 1 2 3 4 5 6 
#
# 1 0.019003 -0.003435 0.000182 0.000000 -0.006542 0.000000
# 2 -0.003435 0.021673 -0.005391 0.000000 0.010647 0.000000
# 3 0.000182 -0.005391 0.012102 0.000000 -0.003588 0.000000
# 4 0.000000 0.000000 0.000000 0.026677 0.000000 -0.004392
# 5 -0.006542 0.010647 -0.003588 0.000000 0.070888 0.000000
# 6 0.000000 0.000000 0.000000 -0.004392 0.000000 0.022176
#
#
# Mechanical properties :
#
#
# Convention : Reuss Voigt Hill
#
# Bulk Modulus (GPa) = 28.17744 30.45724 29.31734
# Shear Modulus (GPa) = 24.79702 31.55087 28.17394
#
# Velocity S-wave (km/s) = 3.26474 3.68260 3.47995
# Velocity P-wave (km/s) = 5.13059 5.58333 5.36174
#
# Compressibility (1/GPa) = 0.03548938
#
# Stress axis : x y z
#
# Youngs Moduli (GPa) = 52.62269 46.14107 82.63036
#
# Poissons Ratio (x) = 0.15851 -0.01503
# Poissons Ratio (y) = 0.18078 0.44544
# Poissons Ratio (z) = -0.00957 0.24873
#
# Static dielectric constant tensor:
#      x y z
#    x 1.916060 0.000000 0.055720 
#    y 0.000000 1.969920 0.000000 
#    z 0.055720 0.000000 2.065410 
# 
# From -- ./inp_files/2353.got.cif
#   From: 2010.05.17/outbox.cif.g08.bks.cpg/sg4_2_cif.got.tgz:2353.got - 2010.06.03 18:43:04.
