data_PCOD9114540
_publ_section_title
;
Structure prediction by ZEFSAII (Michael W. Deem and Ramdas Pophale) SiO2 
 PCOD9114540
Probable space group: P 21
;
_chemical_formula_sum "Si O2"
_cell_formula_units_Z 14
_cell_length_a 12.799412
_cell_length_b 5.048555
_cell_length_c 17.906962
_cell_angle_alpha 90.000000
_cell_angle_beta 141.692969
_cell_angle_gamma 90.000000
_cell_volume 717.271170
_symmetry_space_group_name_H-M "P 21"
_symmetry_group_IT_number 4
_symmetry_cell_setting 'monoclinic'
loop_
_space_group_symop_operation_xyz
x,y,z
-x,1/2+y,-z
loop_
_atom_site_type_symbol
_atom_site_label
_atom_site_fract_x
_atom_site_fract_y
_atom_site_fract_z
Si Si1 0.615903 0.021620 0.903384
Si Si2 0.998275 0.336355 0.546613
Si Si3 0.340800 0.007446 0.984301
Si Si4 0.389751 0.698879 0.425871
Si Si5 0.314609 0.253155 0.818409
Si Si6 0.311090 0.589736 0.538269
Si Si7 0.540982 0.089512 0.693481
O O1 0.714208 0.232365 0.010176
O O2 0.421027 0.069094 0.820648
O O3 0.625028 0.090803 0.821714
O O4 0.667932 0.731082 0.957450
O O5 0.156600 0.377351 0.689356
O O6 0.948596 0.618681 0.485233
O O7 0.845580 0.190442 0.502505
O O8 0.540929 0.964343 0.077826
O O9 0.260905 0.097212 0.862260
O O10 0.549743 0.500269 0.528417
O O11 0.270995 0.613090 0.427322
O O12 0.343072 0.653644 0.313551
O O13 0.389975 0.306196 0.603277
O O14 0.460134 0.800756 0.637211
#
# Coordination Sequence:
#
# PCOD9114540 Si02
#       7
#     2   2   2   2   2   2   2
#     4  10  18  29  48  73  92 118 165 213 259 269
#     4  12  26  34  50  76 108 146 163 199 252 316
#     4  10  20  32  51  68  91 135 166 221 233 283
#     4   8  16  29  49  67  93 129 167 203 247 295
#     4  10  21  35  50  68 102 130 179 198 251 292
#     4  10  19  34  45  72 101 138 167 193 251 311
#     4  10  18  31  51  72 101 126 163 219 251 292
#
# _framework density 19.518419000000002
#
# number of rings (size 3 to 8) (size 9 to 14) (size 15 to 20)
#    0.857    1.143    1.429    3.429    4.000    0.000 
#    0.000    0.000    0.000    0.000    0.000    2.000 
#    0.000    0.000    0.000    0.000    0.000    0.000 
#
# Total GULP energy -78007.605981 kJ/mol
# GULP energy per Si atom -5571.971856 kJ/mol
# Density = 1.947399 g / cm^3
# Si number density = 19.518419 Si / 1000 Ang^3
#
#
#
# Elastic Constant Matrix: (Units=GPa)
#
#
# Indices 1 2 3 4 5 6 
#
# 1 61.7875 0.9823 6.0305 0.0000 -29.3006 0.0000
# 2 0.9823 79.9944 -1.3369 0.0000 -5.2390 0.0000
# 3 6.0305 -1.3369 44.0752 0.0000 -21.2042 0.0000
# 4 0.0000 0.0000 0.0000 13.0489 0.0000 -7.2250
# 5 -29.3006 -5.2390 -21.2042 0.0000 28.1457 0.0000
# 6 0.0000 0.0000 0.0000 -7.2250 0.0000 22.8452
#
#
#
# Elastic Compliance Matrix: (Units=1/GPa)
#
#
# Indices 1 2 3 4 5 6 
#
# 1 0.046716 0.004484 0.027515 0.000000 0.070197 0.000000
# 2 0.004484 0.013247 0.005051 0.000000 0.010938 0.000000
# 3 0.027515 0.005051 0.052246 0.000000 0.068945 0.000000
# 4 0.000000 0.000000 0.000000 0.092902 0.000000 0.029381
# 5 0.070197 0.010938 0.068945 0.000000 0.162584 0.000000
# 6 0.000000 0.000000 0.000000 0.029381 0.000000 0.053065
#
#
# Mechanical properties :
#
#
# Convention : Reuss Voigt Hill
#
# Bulk Modulus (GPa) = 5.36747 21.91211 13.63979
# Shear Modulus (GPa) = 12.23200 24.82003 18.52602
#
# Velocity S-wave (km/s) = 2.50609 3.56985 3.08418
# Velocity P-wave (km/s) = 3.33616 5.31437 4.43692
#
# Compressibility (1/GPa) = 0.18630747
#
# Stress axis : x y z
#
# Youngs Moduli (GPa) = 21.40584 75.49108 19.14031
#
# Poissons Ratio (x) = -0.33847 -0.52665
# Poissons Ratio (y) = -0.09597 -0.09667
# Poissons Ratio (z) = -0.58899 -0.38128
#
# Static dielectric constant tensor:
#      x y z
#    x 1.746580 0.000000 -0.036080 
#    y 0.000000 1.680870 0.000000 
#    z -0.036080 0.000000 1.658190 
# 
# From -- ./inp_files/15082.got.cif
#   From: 2010.05.17/outbox.cif.g08.bks.cpg/sg4_8_cif.got.tgz:15082.got - 2010.06.03 18:43:04.
