data_PCOD9114809
_publ_section_title
;
Structure prediction by ZEFSAII (Michael W. Deem and Ramdas Pophale) SiO2 
 PCOD9114809
Probable space group: P 21
;
_chemical_formula_sum "Si O2"
_cell_formula_units_Z 14
_cell_length_a 10.545458
_cell_length_b 9.939512
_cell_length_c 6.577686
_cell_angle_alpha 90.000000
_cell_angle_beta 51.250235
_cell_angle_gamma 90.000000
_cell_volume 537.694205
_symmetry_space_group_name_H-M "P 21"
_symmetry_group_IT_number 4
_symmetry_cell_setting 'monoclinic'
loop_
_space_group_symop_operation_xyz
x,y,z
-x,1/2+y,-z
loop_
_atom_site_type_symbol
_atom_site_label
_atom_site_fract_x
_atom_site_fract_y
_atom_site_fract_z
Si Si1 0.063985 0.554460 0.082334
Si Si2 0.204704 0.655024 0.544349
Si Si3 0.244605 0.195599 0.476327
Si Si4 0.346743 0.482373 0.029674
Si Si5 0.935230 0.313280 0.661641
Si Si6 0.498072 0.645156 0.499685
Si Si7 0.639013 0.503563 0.973362
O O1 0.103582 0.565862 0.806105
O O2 0.175026 0.445599 0.088695
O O3 0.122520 0.696475 0.124261
O O4 0.872998 0.573155 0.323965
O O5 0.091669 0.757567 0.538115
O O6 0.351024 0.716746 0.530695
O O7 0.289074 0.573058 0.278106
O O8 0.365402 0.236535 0.533541
O O9 0.124656 0.313722 0.527985
O O10 0.332795 0.136606 0.191031
O O11 0.429861 0.558021 0.754910
O O12 0.504126 0.414576 0.985079
O O13 0.814500 0.435097 0.810683
O O14 0.578201 0.547306 0.253991
#
# Coordination Sequence:
#
# PCOD9114809 Si02
#       7
#     2   2   2   2   2   2   2
#     4   8  17  31  54  78 106 140 177 219 271 320
#     4   9  16  33  59  73 101 139 178 221 269 318
#     4   9  20  33  54  82 113 141 183 225 271 328
#     4   8  16  32  52  79  98 132 182 216 258 331
#     4   9  20  33  55  82 108 142 192 218 269 331
#     4   9  18  32  55  80 103 141 176 222 276 320
#     4  10  19  34  57  78 111 147 182 225 272 320
#
# _framework density 26.037102000000001
#
# number of rings (size 3 to 8) (size 9 to 14) (size 15 to 20)
#    0.857    2.286    0.000    0.000    2.000    2.286 
#    0.000    0.000   22.000    0.000    0.000    0.000 
#    0.000    0.000    0.000    0.000    0.000    0.000 
#
# Total GULP energy -78074.857111 kJ/mol
# GULP energy per Si atom -5576.775508 kJ/mol
# Density = 2.597784 g / cm^3
# Si number density = 26.037102 Si / 1000 Ang^3
#
#
#
# Elastic Constant Matrix: (Units=GPa)
#
#
# Indices 1 2 3 4 5 6 
#
# 1 184.4917 39.1704 48.8538 0.0000 15.9678 0.0000
# 2 39.1704 54.9224 36.4142 0.0000 2.1917 0.0000
# 3 48.8538 36.4142 186.3590 0.0000 21.2692 0.0000
# 4 0.0000 0.0000 0.0000 31.2241 0.0000 -9.3851
# 5 15.9678 2.1917 21.2692 0.0000 35.6114 0.0000
# 6 0.0000 0.0000 0.0000 -9.3851 0.0000 32.1541
#
#
#
# Elastic Compliance Matrix: (Units=1/GPa)
#
#
# Indices 1 2 3 4 5 6 
#
# 1 0.006700 -0.004248 -0.000658 0.000000 -0.002350 0.000000
# 2 -0.004248 0.023662 -0.003822 0.000000 0.002731 0.000000
# 3 -0.000658 -0.003822 0.006680 0.000000 -0.003459 0.000000
# 4 0.000000 0.000000 0.000000 0.035106 0.000000 0.010247
# 5 -0.002350 0.002731 -0.003459 0.000000 0.031033 0.000000
# 6 0.000000 0.000000 0.000000 0.010247 0.000000 0.034091
#
#
# Mechanical properties :
#
#
# Convention : Reuss Voigt Hill
#
# Bulk Modulus (GPa) = 51.05622 74.96109 63.00865
# Shear Modulus (GPa) = 31.00649 39.88691 35.44670
#
# Velocity S-wave (km/s) = 3.45462 3.91823 3.69371
# Velocity P-wave (km/s) = 5.96357 7.02301 6.51486
#
# Compressibility (1/GPa) = 0.01958625
#
# Stress axis : x y z
#
# Youngs Moduli (GPa) = 149.25605 42.26168 149.69927
#
# Poissons Ratio (x) = 0.17954 0.09852
# Poissons Ratio (y) = 0.63408 0.57208
# Poissons Ratio (z) = 0.09823 0.16151
#
# Static dielectric constant tensor:
#      x y z
#    x 2.170070 0.000000 -0.090210 
#    y 0.000000 2.072780 0.000000 
#    z -0.090210 0.000000 2.000310 
# 
# From -- ./inp_files/1636.got.cif
#   From: 2010.05.17/outbox.cif.g08.bks.cpg/sg4_1_cif.got.tgz:1636.got - 2010.06.03 18:43:04.
