data_PCOD9114352
_publ_section_title
;
Structure prediction by ZEFSAII (Michael W. Deem and Ramdas Pophale) SiO2 
 PCOD9114352
Probable space group: P 2
;
_chemical_formula_sum "Si O2"
_cell_formula_units_Z 16
_cell_length_a 22.123962
_cell_length_b 5.028383
_cell_length_c 11.579571
_cell_angle_alpha 90.000000
_cell_angle_beta 146.429861
_cell_angle_gamma 90.000000
_cell_volume 712.320397
_symmetry_space_group_name_H-M "P 2"
_symmetry_group_IT_number 3
_symmetry_cell_setting 'monoclinic'
loop_
_space_group_symop_operation_xyz
x,y,z
-x,y,-z
loop_
_atom_site_type_symbol
_atom_site_label
_atom_site_fract_x
_atom_site_fract_y
_atom_site_fract_z
Si Si1 0.179980 0.109740 0.533221
Si Si2 0.373874 0.996124 0.010136
Si Si3 0.930269 0.971808 0.131503
Si Si4 0.745190 0.611604 0.482586
Si Si5 0.611063 0.599034 0.604506
Si Si6 0.899912 0.469624 0.929485
Si Si7 0.288789 0.091511 0.129499
Si Si8 0.516972 0.491869 0.204154
O O1 0.197044 0.407003 0.513511
O O2 0.221603 0.908500 0.499485
O O3 0.054397 0.043463 0.359510
O O4 0.260208 0.054884 0.766700
O O5 0.353688 0.038381 0.114424
O O6 0.419747 0.706028 0.054464
O O7 0.464290 0.203413 0.108442
O O8 0.920133 0.676258 0.064971
O O9 0.839416 0.026235 0.083940
O O10 0.897633 0.173901 0.976042
O O11 0.794661 0.545336 0.686938
O O12 0.615135 0.561911 0.273606
O O13 0.500000 0.601792 0.500000
O O14 0.663743 0.889117 0.699053
O O15 0.574680 0.513208 0.420581
O O16 0.690159 0.387293 0.791824
O O17 0.000000 0.492830 0.000000
#
# Coordination Sequence:
#
# PCOD9114352 Si02
#       8
#     2   2   2   2   2   2   2   2
#     4  12  26  44  64  91 129 173 217 259 306 371
#     4  12  26  44  64  91 129 173 217 259 306 371
#     4  12  24  42  68  97 129 166 208 262 321 377
#     4  12  25  42  67  96 127 166 211 263 321 378
#     4  12  22  43  68  96 131 164 202 266 326 377
#     4  12  22  43  68  96 131 164 202 266 326 377
#     4  12  24  42  68  97 129 166 208 262 321 377
#     4  12  25  42  67  96 127 166 211 263 321 378
#
# _framework density 22.461804999999998
#
# number of rings (size 3 to 8) (size 9 to 14) (size 15 to 20)
#    0.000    0.000    5.000    6.000    0.000    3.500 
#    0.000    0.000    0.000    6.000    0.000    0.000 
#    0.000    0.000    0.000    0.000    0.000    0.000 
#
# Total GULP energy -89663.634920 kJ/mol
# GULP energy per Si atom -5603.977183 kJ/mol
# Density = 2.241068 g / cm^3
# Si number density = 22.461805 Si / 1000 Ang^3
#
#
#
# Elastic Constant Matrix: (Units=GPa)
#
#
# Indices 1 2 3 4 5 6 
#
# 1 64.2983 0.5577 14.1863 0.0000 34.8040 0.0000
# 2 0.5577 62.6739 -9.9997 0.0000 -2.5333 0.0000
# 3 14.1863 -9.9997 82.6240 0.0000 3.4334 0.0000
# 4 0.0000 0.0000 0.0000 28.1795 0.0000 4.7872
# 5 34.8040 -2.5333 3.4334 0.0000 44.4056 0.0000
# 6 0.0000 0.0000 0.0000 4.7872 0.0000 22.9217
#
#
#
# Elastic Compliance Matrix: (Units=1/GPa)
#
#
# Indices 1 2 3 4 5 6 
#
# 1 0.028437 -0.001813 -0.004185 0.000000 -0.022068 0.000000
# 2 -0.001813 0.016412 0.002207 0.000000 0.002186 0.000000
# 3 -0.004185 0.002207 0.012989 0.000000 0.002402 0.000000
# 4 0.000000 0.000000 0.000000 0.036792 0.000000 -0.007684
# 5 -0.022068 0.002186 0.002402 0.000000 0.039755 0.000000
# 6 0.000000 0.000000 0.000000 -0.007684 0.000000 0.045232
#
#
# Mechanical properties :
#
#
# Convention : Reuss Voigt Hill
#
# Bulk Modulus (GPa) = 19.89821 24.34275 22.12048
# Shear Modulus (GPa) = 24.51583 32.75814 28.63699
#
# Velocity S-wave (km/s) = 3.30729 3.82303 3.57447
# Velocity P-wave (km/s) = 4.84377 5.50894 5.18703
#
# Compressibility (1/GPa) = 0.05025578
#
# Stress axis : x y z
#
# Youngs Moduli (GPa) = 35.16605 60.93028 76.98924
#
# Poissons Ratio (x) = 0.11045 0.32219
# Poissons Ratio (y) = 0.06375 -0.16989
# Poissons Ratio (z) = 0.14717 -0.13445
#
# Static dielectric constant tensor:
#      x y z
#    x 1.866200 0.000000 0.008620 
#    y 0.000000 1.760650 0.000000 
#    z 0.008620 0.000000 1.840060 
# 
# From -- ./inp_files/12717.got.cif
#   From: 2010.05.17/outbox.cif.g08.bks.cpg/sg3_7_cif.got.tgz:12717.got - 2010.06.03 18:33:08.
