data_PCOD9114078
_publ_section_title
;
Structure prediction by ZEFSAII (Michael W. Deem and Ramdas Pophale) SiO2 
 PCOD9114078
Probable space group: P 2
;
_chemical_formula_sum "Si O2"
_cell_formula_units_Z 13
_cell_length_a 13.204890
_cell_length_b 5.547152
_cell_length_c 12.287153
_cell_angle_alpha 90.000000
_cell_angle_beta 143.661083
_cell_angle_gamma 90.000000
_cell_volume 533.321121
_symmetry_space_group_name_H-M "P 2"
_symmetry_group_IT_number 3
_symmetry_cell_setting 'monoclinic'
loop_
_space_group_symop_operation_xyz
x,y,z
-x,y,-z
loop_
_atom_site_type_symbol
_atom_site_label
_atom_site_fract_x
_atom_site_fract_y
_atom_site_fract_z
Si Si1 0.500000 0.271410 0.500000
Si Si2 0.723574 0.667310 0.358543
Si Si3 0.021539 0.381948 0.680691
Si Si4 0.802363 0.583506 0.667979
Si Si5 0.342399 0.606675 0.032009
Si Si6 0.000000 0.007856 0.500000
Si Si7 0.685041 0.103759 0.857239
Si Si8 0.000000 0.941259 0.000000
O O1 0.660866 0.440417 0.612191
O O2 0.539192 0.112554 0.639112
O O3 0.857039 0.446901 0.463751
O O4 0.717820 0.698308 0.485693
O O5 0.534599 0.622148 0.153468
O O6 0.832291 0.877905 0.401311
O O7 0.940571 0.405286 0.730335
O O8 0.072898 0.133727 0.673401
O O9 0.177956 0.568600 0.812832
O O10 0.898922 0.772685 0.826919
O O11 0.334812 0.354013 0.093782
O O12 0.320922 0.855204 0.080320
O O13 0.861182 0.095052 0.943674
#
# Coordination Sequence:
#
# PCOD9114078 Si02
#       8
#     1   2   2   2   2   1   2   1
#     4  12  26  40  80 110 172 220 274 316 402 490
#     4  10  26  50  79 115 156 212 262 354 400 494
#     4  10  26  50  79 115 156 212 262 354 400 494
#     4  10  25  47  74 117 165 217 264 333 394 486
#     4  12  27  52  79 113 165 204 266 336 414 476
#     4  12  26  50  94 110 156 214 288 344 440 474
#     4  12  28  45  72 119 156 221 263 322 384 492
#     4  12  26  40  80 110 172 220 274 316 402 490
#
# _framework density 24.375561000000001
#
# number of rings (size 3 to 8) (size 9 to 14) (size 15 to 20)
#    0.923    0.000    3.077    1.385   12.923    1.231 
#    0.000    4.615    0.000    0.000    0.000    0.000 
#    0.000    0.000    0.000    0.000    0.000    0.000 
#
# Total GULP energy -72648.692223 kJ/mol
# GULP energy per Si atom -5588.360940 kJ/mol
# Density = 2.432008 g / cm^3
# Si number density = 24.375561 Si / 1000 Ang^3
#
#
#
# Elastic Constant Matrix: (Units=GPa)
#
#
# Indices 1 2 3 4 5 6 
#
# 1 104.5787 64.4772 65.0232 0.0000 15.3082 0.0000
# 2 64.4772 132.0691 37.9386 0.0000 -4.1599 0.0000
# 3 65.0232 37.9386 107.2369 0.0000 17.6934 0.0000
# 4 0.0000 0.0000 0.0000 -26.6992 0.0000 -48.8165
# 5 15.3082 -4.1599 17.6934 0.0000 53.1399 0.0000
# 6 0.0000 0.0000 0.0000 -48.8165 0.0000 -18.9050
#
#
#
# Elastic Compliance Matrix: (Units=1/GPa)
#
#
# Indices 1 2 3 4 5 6 
#
# 1 0.020291 -0.007390 -0.009131 0.000000 -0.003384 0.000000
# 2 -0.007390 0.011276 -0.000006 0.000000 0.003013 0.000000
# 3 -0.009131 -0.000006 0.015268 0.000000 -0.002454 0.000000
# 4 0.000000 0.000000 0.000000 0.010065 0.000000 -0.025990
# 5 -0.003384 0.003013 -0.002454 0.000000 0.020846 0.000000
# 6 0.000000 0.000000 0.000000 -0.025990 0.000000 0.014215
#
#
# Mechanical properties :
#
#
# Convention : Reuss Voigt Hill
#
# Bulk Modulus (GPa) = 72.55311 75.41805 73.98558
# Shear Modulus (GPa) = 38.57816 13.27017 25.92417
#
# Velocity S-wave (km/s) = 3.98258 2.33578 3.26472
# Velocity P-wave (km/s) = 7.13983 6.18722 6.68053
#
# Compressibility (1/GPa) = 0.01378301
#
# Stress axis : x y z
#
# Youngs Moduli (GPa) = 49.28384 88.68334 65.49476
#
# Poissons Ratio (x) = 0.65535 0.59801
# Poissons Ratio (y) = 0.36419 0.00037
# Poissons Ratio (z) = 0.44999 0.00051
#
# Static dielectric constant tensor:
#      x y z
#    x 2.031090 0.000000 -0.262080 
#    y 0.000000 2.004780 0.000000 
#    z -0.262080 0.000000 2.400750 
# 
# From -- ./inp_files/13868.got.cif
#   From: 2010.05.17/outbox.cif.g08.bks.cpg/sg3_7_cif.got.tgz:13868.got - 2010.06.03 18:33:08.
