data_PCOD9114133
_publ_section_title
;
Structure prediction by ZEFSAII (Michael W. Deem and Ramdas Pophale) SiO2 
 PCOD9114133
Probable space group: P 2
;
_chemical_formula_sum "Si O2"
_cell_formula_units_Z 13
_cell_length_a 11.465633
_cell_length_b 9.559323
_cell_length_c 8.710959
_cell_angle_alpha 90.000000
_cell_angle_beta 138.418562
_cell_angle_gamma 90.000000
_cell_volume 633.654371
_symmetry_space_group_name_H-M "P 2"
_symmetry_group_IT_number 3
_symmetry_cell_setting 'monoclinic'
loop_
_space_group_symop_operation_xyz
x,y,z
-x,y,-z
loop_
_atom_site_type_symbol
_atom_site_label
_atom_site_fract_x
_atom_site_fract_y
_atom_site_fract_z
Si Si1 0.198022 0.210460 0.645405
Si Si2 0.813568 0.293653 0.896119
Si Si3 0.609967 0.557421 0.766486
Si Si4 0.812651 0.834566 0.879269
Si Si5 0.708779 0.053660 0.996399
Si Si6 0.325230 0.083543 0.473373
Si Si7 0.500000 0.443748 0.000000
O O1 0.198915 0.148597 0.475944
O O2 0.334051 0.340310 0.800685
O O3 0.000000 0.245029 0.500000
O O4 0.280373 0.075968 0.814507
O O5 0.766942 0.447862 0.901078
O O6 0.793593 0.198480 0.024626
O O7 0.680295 0.212695 0.651407
O O8 0.000000 0.286627 0.000000
O O9 0.500000 0.527413 0.500000
O O10 0.683120 0.712231 0.805484
O O11 0.533466 0.527369 0.866889
O O12 0.826079 0.931537 0.042630
O O13 0.738432 0.944595 0.678921
O O14 0.000000 0.783587 0.000000
O O15 0.513010 0.049524 0.734389
#
# Coordination Sequence:
#
# PCOD9114133 Si02
#       7
#     2   2   2   2   2   2   1
#     4  12  22  40  68 105 140 174 230 299 351 406
#     4  11  20  35  64  97 128 173 224 281 339 405
#     4  12  25  46  68  95 140 188 233 283 353 420
#     4  11  24  44  66  98 135 181 236 282 349 428
#     4  11  20  39  64  98 133 172 225 286 346 409
#     4  11  21  38  68  98 131 177 226 284 347 413
#     4  12  26  48  70 108 142 186 236 292 352 426
#
# _framework density 20.515917000000002
#
# number of rings (size 3 to 8) (size 9 to 14) (size 15 to 20)
#    0.000    0.615    3.077    8.769    0.000    0.000 
#    8.308    0.000    0.000    0.000    0.000    0.000 
#    0.000    0.000    0.000    0.000    0.000    0.000 
#
# Total GULP energy -72385.409410 kJ/mol
# GULP energy per Si atom -5568.108416 kJ/mol
# Density = 2.046922 g / cm^3
# Si number density = 20.515917 Si / 1000 Ang^3
#
#
#
# Elastic Constant Matrix: (Units=GPa)
#
#
# Indices 1 2 3 4 5 6 
#
# 1 143.4198 45.4376 61.0888 0.0000 2.8919 0.0000
# 2 45.4376 108.8216 25.0628 0.0000 -3.2142 0.0000
# 3 61.0888 25.0628 83.9563 0.0000 -8.7210 0.0000
# 4 0.0000 0.0000 0.0000 -3.6467 0.0000 -1.3266
# 5 2.8919 -3.2142 -8.7210 0.0000 41.8136 0.0000
# 6 0.0000 0.0000 0.0000 -1.3266 0.0000 41.2140
#
#
#
# Elastic Compliance Matrix: (Units=1/GPa)
#
#
# Indices 1 2 3 4 5 6 
#
# 1 0.011172 -0.003014 -0.007496 0.000000 -0.002568 0.000000
# 2 -0.003014 0.010682 -0.000908 0.000000 0.000840 0.000000
# 3 -0.007496 -0.000908 0.018075 0.000000 0.004218 0.000000
# 4 0.000000 0.000000 0.000000 -0.271046 0.000000 -0.008724
# 5 -0.002568 0.000840 0.004218 0.000000 0.025038 0.000000
# 6 0.000000 0.000000 0.000000 -0.008724 0.000000 0.023983
#
#
# Mechanical properties :
#
#
# Convention : Reuss Voigt Hill
#
# Bulk Modulus (GPa) = 58.50850 66.59732 62.55291
# Shear Modulus (GPa) = -32.56007 29.51675 -1.52166
#
# Velocity S-wave (km/s) = -3.98812 3.79717 -0.86215
# Velocity P-wave (km/s) = 2.71546 7.19419 5.43738
#
# Compressibility (1/GPa) = 0.01709153
#
# Stress axis : x y z
#
# Youngs Moduli (GPa) = 89.50783 93.61599 55.32610
#
# Poissons Ratio (x) = 0.28218 0.41473
# Poissons Ratio (y) = 0.26980 0.05025
# Poissons Ratio (z) = 0.67096 0.08503
#
# Static dielectric constant tensor:
#      x y z
#    x 1.982690 0.000000 -0.180140 
#    y 0.000000 1.707190 0.000000 
#    z -0.180140 0.000000 1.943140 
# 
# From -- ./inp_files/7304.got.cif
#   From: 2010.05.17/outbox.cif.g08.bks.cpg/sg3_4_cif.got.tgz:7304.got - 2010.06.03 18:33:08.
