data_PCOD9114025
_publ_section_title
;
Structure prediction by ZEFSAII (Michael W. Deem and Ramdas Pophale) SiO2 
 PCOD9114025
Probable space group: P 2
;
_chemical_formula_sum "Si O2"
_cell_formula_units_Z 13
_cell_length_a 14.138417
_cell_length_b 6.481068
_cell_length_c 7.583241
_cell_angle_alpha 90.000000
_cell_angle_beta 122.906921
_cell_angle_gamma 90.000000
_cell_volume 583.379260
_symmetry_space_group_name_H-M "P 2"
_symmetry_group_IT_number 3
_symmetry_cell_setting 'monoclinic'
loop_
_space_group_symop_operation_xyz
x,y,z
-x,y,-z
loop_
_atom_site_type_symbol
_atom_site_label
_atom_site_fract_x
_atom_site_fract_y
_atom_site_fract_z
Si Si1 0.862687 0.725370 0.521455
Si Si2 0.000000 0.098005 0.500000
Si Si3 0.956852 0.412080 0.141361
Si Si4 0.404763 0.909999 0.201664
Si Si5 0.754072 0.611827 0.066606
Si Si6 0.529769 0.342556 0.829509
Si Si7 0.379799 0.698618 0.557268
O O1 0.829542 0.593895 0.315654
O O2 0.745081 0.738980 0.504329
O O3 0.957406 0.597123 0.720284
O O4 0.910619 0.942393 0.500796
O O5 0.956748 0.241629 0.295882
O O6 0.833993 0.517911 0.998315
O O7 0.000000 0.322285 0.000000
O O8 0.387447 0.784848 0.366573
O O9 0.523047 0.827237 0.242408
O O10 0.426597 0.150031 0.238253
O O11 0.290670 0.847168 0.987064
O O12 0.637843 0.489823 0.958061
O O13 0.426199 0.466401 0.634507
O O14 0.500000 0.279657 0.000000
#
# Coordination Sequence:
#
# PCOD9114025 Si02
#       7
#     2   1   2   2   2   2   2
#     4  12  24  46  76  95 148 185 231 294 354 413
#     4  12  26  46  70 112 134 190 238 298 346 426
#     4  12  27  48  72 105 142 188 237 292 356 419
#     4  10  25  40  69 105 138 177 234 289 343 421
#     4  11  23  44  69 102 142 178 232 294 346 412
#     4  11  24  41  75 100 136 185 232 281 349 423
#     4  10  24  46  65 102 142 184 227 287 354 408
#
# _framework density 22.28396
#
# number of rings (size 3 to 8) (size 9 to 14) (size 15 to 20)
#    0.000    0.923    4.615    0.923    4.308    8.000 
#    0.000    0.000    0.000    0.000    0.000    0.000 
#    0.000    0.000    0.000    0.000    0.000    0.000 
#
# Total GULP energy -72572.924087 kJ/mol
# GULP energy per Si atom -5582.532622 kJ/mol
# Density = 2.223324 g / cm^3
# Si number density = 22.283960 Si / 1000 Ang^3
#
#
#
# Elastic Constant Matrix: (Units=GPa)
#
#
# Indices 1 2 3 4 5 6 
#
# 1 142.5728 48.5905 32.5103 0.0000 14.3070 0.0000
# 2 48.5905 120.2758 34.0081 0.0000 0.6391 0.0000
# 3 32.5103 34.0081 71.3872 0.0000 1.2129 0.0000
# 4 0.0000 0.0000 0.0000 19.5247 0.0000 0.9813
# 5 14.3070 0.6391 1.2129 0.0000 43.3692 0.0000
# 6 0.0000 0.0000 0.0000 0.9813 0.0000 22.2079
#
#
#
# Elastic Compliance Matrix: (Units=1/GPa)
#
#
# Indices 1 2 3 4 5 6 
#
# 1 0.008858 -0.002816 -0.002645 0.000000 -0.002807 0.000000
# 2 -0.002816 0.010504 -0.003736 0.000000 0.000879 0.000000
# 3 -0.002645 -0.003736 0.016985 0.000000 0.000453 0.000000
# 4 0.000000 0.000000 0.000000 0.051331 0.000000 -0.002268
# 5 -0.002807 0.000879 0.000453 0.000000 0.023958 0.000000
# 6 0.000000 0.000000 0.000000 -0.002268 0.000000 0.045129
#
#
# Mechanical properties :
#
#
# Convention : Reuss Voigt Hill
#
# Bulk Modulus (GPa) = 55.70290 62.71707 59.20998
# Shear Modulus (GPa) = 27.60225 31.62880 29.61553
#
# Velocity S-wave (km/s) = 3.52328 3.77152 3.64951
# Velocity P-wave (km/s) = 6.45000 6.86814 6.66235
#
# Compressibility (1/GPa) = 0.01795239
#
# Stress axis : x y z
#
# Youngs Moduli (GPa) = 112.88627 95.20516 58.87561
#
# Poissons Ratio (x) = 0.26809 0.15573
# Poissons Ratio (y) = 0.31788 0.21998
# Poissons Ratio (z) = 0.29859 0.35572
#
# Static dielectric constant tensor:
#      x y z
#    x 1.893670 0.000000 -0.060990 
#    y 0.000000 1.850200 0.000000 
#    z -0.060990 0.000000 1.921740 
# 
# From -- ./inp_files/8386.got.cif
#   From: 2010.05.17/outbox.cif.g08.bks.cpg/sg3_5_cif.got.tgz:8386.got - 2010.06.03 18:33:08.
