data_PCOD9114894
_publ_section_title
;
Structure prediction by ZEFSAII (Michael W. Deem and Ramdas Pophale) SiO2 
 PCOD9114894
Probable space group: P 21
;
_chemical_formula_sum "Si O2"
_cell_formula_units_Z 14
_cell_length_a 14.273267
_cell_length_b 6.850277
_cell_length_c 5.543936
_cell_angle_alpha 90.000000
_cell_angle_beta 70.823205
_cell_angle_gamma 90.000000
_cell_volume 511.983606
_symmetry_space_group_name_H-M "P 21"
_symmetry_group_IT_number 4
_symmetry_cell_setting 'monoclinic'
loop_
_space_group_symop_operation_xyz
x,y,z
-x,1/2+y,-z
loop_
_atom_site_type_symbol
_atom_site_label
_atom_site_fract_x
_atom_site_fract_y
_atom_site_fract_z
Si Si1 0.353913 0.250000 0.360420
Si Si2 0.413291 0.815917 0.823745
Si Si3 0.302193 0.211103 0.905170
Si Si4 0.064220 0.534777 0.160643
Si Si5 0.309853 0.794505 0.411436
Si Si6 0.888866 0.056033 0.377935
Si Si7 0.095164 0.995655 0.042355
O O1 0.471798 0.264521 0.257653
O O2 0.317013 0.329679 0.646996
O O3 0.312268 0.029436 0.403581
O O4 0.313161 0.328789 0.142877
O O5 0.370434 0.744729 0.603423
O O6 0.391854 0.050015 0.837400
O O7 0.360162 0.742393 0.113259
O O8 0.203094 0.079854 0.985955
O O9 0.106166 0.452526 0.370530
O O10 0.948218 0.511600 0.194207
O O11 0.116546 0.449949 0.876155
O O12 0.088810 0.768471 0.129193
O O13 0.200064 0.708117 0.531308
O O14 0.006846 0.112074 0.255650
#
# Coordination Sequence:
#
# PCOD9114894 Si02
#       7
#     2   2   2   2   2   2   2
#     4  10  20  35  62  83 117 150 210 252 302 357
#     4  10  20  35  61  88 113 152 208 252 302 361
#     4  10  21  36  63  88 115 161 199 246 321 357
#     4  10  22  36  62  90 131 163 211 250 305 361
#     4  10  19  36  59  89 113 159 194 248 314 358
#     4  10  22  36  65  92 127 161 214 244 314 380
#     4  10  24  38  68  92 132 166 212 250 314 380
#
# _framework density 27.344622999999999
#
# number of rings (size 3 to 8) (size 9 to 14) (size 15 to 20)
#    0.857    1.143    0.000    5.143    4.000    0.000 
#    0.000    0.000   18.857    0.000    0.000    0.000 
#    0.000    0.000    0.000    0.000    0.000    0.000 
#
# Total GULP energy -78305.435069 kJ/mol
# GULP energy per Si atom -5593.245362 kJ/mol
# Density = 2.728239 g / cm^3
# Si number density = 27.344623 Si / 1000 Ang^3
#
#
#
# Elastic Constant Matrix: (Units=GPa)
#
#
# Indices 1 2 3 4 5 6 
#
# 1 147.9861 22.4302 99.0410 0.0000 -11.7344 0.0000
# 2 22.4302 98.8138 1.0233 0.0000 -6.8467 0.0000
# 3 99.0410 1.0233 252.3928 0.0000 35.1630 0.0000
# 4 0.0000 0.0000 0.0000 -21.5478 0.0000 -27.6085
# 5 -11.7344 -6.8467 35.1630 0.0000 65.3023 0.0000
# 6 0.0000 0.0000 0.0000 -27.6085 0.0000 31.5923
#
#
#
# Elastic Compliance Matrix: (Units=1/GPa)
#
#
# Indices 1 2 3 4 5 6 
#
# 1 0.010569 -0.002057 -0.004728 0.000000 0.004230 0.000000
# 2 -0.002057 0.010604 0.000714 0.000000 0.000357 0.000000
# 3 -0.004728 0.000714 0.006403 0.000000 -0.004222 0.000000
# 4 0.000000 0.000000 0.000000 -0.021894 0.000000 -0.019133
# 5 0.004230 0.000357 -0.004222 0.000000 0.018385 0.000000
# 6 0.000000 0.000000 0.000000 -0.019133 0.000000 0.014933
#
#
# Mechanical properties :
#
#
# Convention : Reuss Voigt Hill
#
# Bulk Modulus (GPa) = 64.79058 82.68686 73.73872
# Shear Modulus (GPa) = 88.83138 40.18258 64.50698
#
# Velocity S-wave (km/s) = 5.70582 3.83755 4.86226
# Velocity P-wave (km/s) = 8.19476 7.06683 7.65161
#
# Compressibility (1/GPa) = 0.01543434
#
# Stress axis : x y z
#
# Youngs Moduli (GPa) = 94.61638 94.30086 156.18016
#
# Poissons Ratio (x) = 0.19398 0.73846
# Poissons Ratio (y) = 0.19463 -0.11158
# Poissons Ratio (z) = 0.44737 -0.06737
#
# Static dielectric constant tensor:
#      x y z
#    x 2.056600 0.000000 0.045700 
#    y 0.000000 2.119760 0.000000 
#    z 0.045700 0.000000 2.240130 
# 
# From -- ./inp_files/2693.got.cif
#   From: 2010.05.17/outbox.cif.g08.bks.cpg/sg4_2_cif.got.tgz:2693.got - 2010.06.03 18:43:04.
