data_PCOD9114829
_publ_section_title
;
Structure prediction by ZEFSAII (Michael W. Deem and Ramdas Pophale) SiO2 
 PCOD9114829
Probable space group: P 21
;
_chemical_formula_sum "Si O2"
_cell_formula_units_Z 16
_cell_length_a 13.741534
_cell_length_b 4.922734
_cell_length_c 19.968417
_cell_angle_alpha 90.000000
_cell_angle_beta 139.703384
_cell_angle_gamma 90.000000
_cell_volume 873.611062
_symmetry_space_group_name_H-M "P 21"
_symmetry_group_IT_number 4
_symmetry_cell_setting 'monoclinic'
loop_
_space_group_symop_operation_xyz
x,y,z
-x,1/2+y,-z
loop_
_atom_site_type_symbol
_atom_site_label
_atom_site_fract_x
_atom_site_fract_y
_atom_site_fract_z
Si Si1 0.420900 0.840260 0.040316
Si Si2 0.465018 0.695743 0.570967
Si Si3 0.710960 0.521737 0.889589
Si Si4 0.667608 0.004086 0.782232
Si Si5 0.308804 0.184146 0.435495
Si Si6 0.000742 0.045787 0.212412
Si Si7 0.303567 0.342173 0.901835
Si Si8 0.016075 0.525890 0.124030
O O1 0.377615 0.917145 0.092265
O O2 0.377059 0.535488 0.997284
O O3 0.327697 0.038806 0.941558
O O4 0.595172 0.880906 0.110859
O O5 0.537086 0.860170 0.670433
O O6 0.331968 0.884422 0.475137
O O7 0.595439 0.702235 0.582948
O O8 0.389724 0.397194 0.528432
O O9 0.668087 0.827538 0.849505
O O10 0.671979 0.319196 0.807192
O O11 0.888523 0.543468 0.000012
O O12 0.823268 0.957673 0.823842
O O13 0.135478 0.188514 0.323981
O O14 0.038424 0.792080 0.182528
O O15 0.868408 0.934554 0.190090
O O16 0.954015 0.283187 0.137306
#
# Coordination Sequence:
#
# PCOD9114829 Si02
#       8
#     2   2   2   2   2   2   2   2
#     4  10  20  35  55  78 110 145 187 227 269 326
#     4  10  21  37  51  78 102 146 186 233 271 327
#     4  12  22  37  52  79 112 159 190 220 259 332
#     4  12  24  36  54  74 115 157 193 219 266 325
#     4  10  21  34  57  75 106 138 184 235 288 320
#     4  12  20  35  58  83 111 147 177 232 289 337
#     4  10  19  35  56  80 109 143 179 232 284 325
#     4  12  23  35  51  81 117 151 190 216 260 344
#
# _framework density 18.314786000000002
#
# number of rings (size 3 to 8) (size 9 to 14) (size 15 to 20)
#    0.000    1.000    3.750    4.500    3.500    0.000 
#    0.000    0.000    0.000    0.000    0.000    3.500 
#    0.000    0.000    0.000    0.000    0.000    0.000 
#
# Total GULP energy -89186.926618 kJ/mol
# GULP energy per Si atom -5574.182914 kJ/mol
# Density = 1.827310 g / cm^3
# Si number density = 18.314786 Si / 1000 Ang^3
#
#
#
# Elastic Constant Matrix: (Units=GPa)
#
#
# Indices 1 2 3 4 5 6 
#
# 1 61.2293 2.3278 10.0851 0.0000 7.0746 0.0000
# 2 2.3278 68.3297 0.8551 0.0000 -2.0264 0.0000
# 3 10.0851 0.8551 65.7268 0.0000 7.7186 0.0000
# 4 0.0000 0.0000 0.0000 27.7837 0.0000 -3.6058
# 5 7.0746 -2.0264 7.7186 0.0000 12.6230 0.0000
# 6 0.0000 0.0000 0.0000 -3.6058 0.0000 24.2145
#
#
#
# Elastic Compliance Matrix: (Units=1/GPa)
#
#
# Indices 1 2 3 4 5 6 
#
# 1 0.017679 -0.000850 -0.001640 0.000000 -0.009042 0.000000
# 2 -0.000850 0.014761 -0.000426 0.000000 0.003107 0.000000
# 3 -0.001640 -0.000426 0.016561 0.000000 -0.009276 0.000000
# 4 0.000000 0.000000 0.000000 0.036702 0.000000 0.005465
# 5 -0.009042 0.003107 -0.009276 0.000000 0.090459 0.000000
# 6 0.000000 0.000000 0.000000 0.005465 0.000000 0.042111
#
#
# Mechanical properties :
#
#
# Convention : Reuss Voigt Hill
#
# Bulk Modulus (GPa) = 23.16470 24.64688 23.90579
# Shear Modulus (GPa) = 20.96475 25.05875 23.01175
#
# Velocity S-wave (km/s) = 3.38700 3.70297 3.54850
# Velocity P-wave (km/s) = 5.28878 5.63642 5.46536
#
# Compressibility (1/GPa) = 0.04316913
#
# Stress axis : x y z
#
# Youngs Moduli (GPa) = 56.56367 67.74442 60.38297
#
# Poissons Ratio (x) = 0.05758 0.09902
# Poissons Ratio (y) = 0.04807 0.02575
# Poissons Ratio (z) = 0.09275 0.02889
#
# Static dielectric constant tensor:
#      x y z
#    x 1.638730 0.000000 0.006570 
#    y 0.000000 1.641970 0.000000 
#    z 0.006570 0.000000 1.657790 
# 
# From -- ./inp_files/12390.got.cif
#   From: 2010.05.17/outbox.cif.g08.bks.cpg/sg4_7_cif.got.tgz:12390.got - 2010.06.03 18:43:04.
