data_PCOD9114927
_publ_section_title
;
Structure prediction by ZEFSAII (Michael W. Deem and Ramdas Pophale) SiO2 
 PCOD9114927
Probable space group: P 21
;
_chemical_formula_sum "Si O2"
_cell_formula_units_Z 16
_cell_length_a 7.714812
_cell_length_b 9.690651
_cell_length_c 8.913557
_cell_angle_alpha 90.000000
_cell_angle_beta 104.232157
_cell_angle_gamma 90.000000
_cell_volume 645.938140
_symmetry_space_group_name_H-M "P 21"
_symmetry_group_IT_number 4
_symmetry_cell_setting 'monoclinic'
loop_
_space_group_symop_operation_xyz
x,y,z
-x,1/2+y,-z
loop_
_atom_site_type_symbol
_atom_site_label
_atom_site_fract_x
_atom_site_fract_y
_atom_site_fract_z
Si Si1 0.762427 0.383300 0.348803
Si Si2 0.424752 0.272906 0.448221
Si Si3 0.774124 0.013387 0.728536
Si Si4 0.286649 0.042449 0.212870
Si Si5 0.341310 0.806434 0.999984
Si Si6 0.018092 0.171026 0.942971
Si Si7 0.082212 0.800755 0.345842
Si Si8 0.418558 0.143431 0.764872
O O1 0.604802 0.346360 0.431817
O O2 0.711005 0.310208 0.183907
O O3 0.933730 0.338969 0.482986
O O4 0.748170 0.543387 0.300332
O O5 0.265985 0.376326 0.369336
O O6 0.424631 0.246022 0.624892
O O7 0.407890 0.129965 0.352240
O O8 0.810186 0.153652 0.640506
O O9 0.591366 0.041903 0.780221
O O10 0.948912 0.019108 0.871846
O O11 0.173631 0.934173 0.288462
O O12 0.366643 0.951724 0.092934
O O13 0.157984 0.150935 0.101978
O O14 0.167426 0.738002 0.040827
O O15 0.521992 0.722343 0.073350
O O16 0.072436 0.261377 0.808229
#
# Coordination Sequence:
#
# PCOD9114927 Si02
#       8
#     2   2   2   2   2   2   2   2
#     4  11  21  37  59  85 125 152 187 247 310 350
#     4  11  20  31  62  87 110 153 202 230 287 363
#     4   8  18  32  54  82 108 144 194 239 272 333
#     4  11  20  35  62  84 110 158 201 241 283 345
#     4  10  23  38  57  86 125 151 188 257 303 331
#     4   8  19  37  58  80 112 148 207 231 281 347
#     4   9  18  37  58  81 114 157 189 240 286 349
#     4  10  19  37  54  87 116 155 200 233 288 370
#
# _framework density 24.770173
#
# number of rings (size 3 to 8) (size 9 to 14) (size 15 to 20)
#    0.750    1.500    3.750    0.000    7.000    0.000 
#    0.000    1.250    0.000    0.000    0.000    0.000 
#    0.000    0.000    0.000    0.000    0.000    0.000 
#
# Total GULP energy -89232.592184 kJ/mol
# GULP energy per Si atom -5577.037012 kJ/mol
# Density = 2.471380 g / cm^3
# Si number density = 24.770173 Si / 1000 Ang^3
#
#
#
# Elastic Constant Matrix: (Units=GPa)
#
#
# Indices 1 2 3 4 5 6 
#
# 1 47.4775 18.4793 8.1633 0.0000 -3.4812 0.0000
# 2 18.4793 84.4171 36.2832 0.0000 -2.0709 0.0000
# 3 8.1633 36.2832 189.1743 0.0000 -7.0006 0.0000
# 4 0.0000 0.0000 0.0000 47.0786 0.0000 4.6153
# 5 -3.4812 -2.0709 -7.0006 0.0000 18.6167 0.0000
# 6 0.0000 0.0000 0.0000 4.6153 0.0000 23.6201
#
#
#
# Elastic Compliance Matrix: (Units=1/GPa)
#
#
# Indices 1 2 3 4 5 6 
#
# 1 0.023291 -0.005050 0.000105 0.000000 0.003833 0.000000
# 2 -0.005050 0.014010 -0.002481 0.000000 -0.000319 0.000000
# 3 0.000105 -0.002481 0.005829 0.000000 0.001936 0.000000
# 4 0.000000 0.000000 0.000000 0.021656 0.000000 -0.004232
# 5 0.003833 -0.000319 0.001936 0.000000 0.055125 0.000000
# 6 0.000000 0.000000 0.000000 -0.004232 0.000000 0.043164
#
#
# Mechanical properties :
#
#
# Convention : Reuss Voigt Hill
#
# Bulk Modulus (GPa) = 35.36166 49.65785 42.50975
# Shear Modulus (GPa) = 26.68782 35.07261 30.88021
#
# Velocity S-wave (km/s) = 3.28596 3.76695 3.53465
# Velocity P-wave (km/s) = 5.35758 6.24587 5.81870
#
# Compressibility (1/GPa) = 0.02827922
#
# Stress axis : x y z
#
# Youngs Moduli (GPa) = 42.93491 71.37823 171.55434
#
# Poissons Ratio (x) = 0.36044 -0.01807
# Poissons Ratio (y) = 0.21681 0.42562
# Poissons Ratio (z) = -0.00452 0.17709
#
# Static dielectric constant tensor:
#      x y z
#    x 2.021430 0.000000 0.005850 
#    y 0.000000 1.991990 0.000000 
#    z 0.005850 0.000000 2.042550 
# 
# From -- ./inp_files/8364.got.cif
#   From: 2010.05.17/outbox.cif.g08.bks.cpg/sg4_5_cif.got.tgz:8364.got - 2010.06.03 18:43:04.
