data_PCOD9114138
_publ_section_title
;
Structure prediction by ZEFSAII (Michael W. Deem and Ramdas Pophale) SiO2 
 PCOD9114138
Probable space group: P 2
;
_chemical_formula_sum "Si O2"
_cell_formula_units_Z 13
_cell_length_a 8.505921
_cell_length_b 13.342757
_cell_length_c 8.291524
_cell_angle_alpha 90.000000
_cell_angle_beta 42.686430
_cell_angle_gamma 90.000000
_cell_volume 638.001572
_symmetry_space_group_name_H-M "P 2"
_symmetry_group_IT_number 3
_symmetry_cell_setting 'monoclinic'
loop_
_space_group_symop_operation_xyz
x,y,z
-x,y,-z
loop_
_atom_site_type_symbol
_atom_site_label
_atom_site_fract_x
_atom_site_fract_y
_atom_site_fract_z
Si Si1 0.038934 0.872880 0.281455
Si Si2 0.808080 0.078541 0.512927
Si Si3 0.500000 0.542499 0.500000
Si Si4 0.500000 0.963462 0.000000
Si Si5 0.500000 0.204657 0.500000
Si Si6 0.939903 0.660283 0.230045
Si Si7 0.250446 0.371865 0.888609
Si Si8 0.216677 0.496453 0.208334
O O1 0.310564 0.893156 0.058402
O O2 0.000000 0.850830 0.500000
O O3 0.946235 0.777965 0.257689
O O4 0.921254 0.980592 0.343161
O O5 0.692565 0.144114 0.458845
O O6 0.000000 0.119651 0.500000
O O7 0.614008 0.033051 0.778373
O O8 0.689218 0.610778 0.445229
O O9 0.383554 0.468071 0.715821
O O10 0.383529 0.275099 0.724202
O O11 0.124449 0.597830 0.193297
O O12 0.000000 0.642138 0.000000
O O13 0.211184 0.395361 0.104483
O O14 0.000000 0.369625 0.000000
O O15 0.000000 0.481190 0.500000
O O16 0.500000 0.510765 0.000000
#
# Coordination Sequence:
#
# PCOD9114138 Si02
#       8
#     2   2   1   1   1   2   2   2
#     4   9  21  38  62  99 137 176 229 285 351 429
#     4   9  21  46  67  99 136 180 232 300 359 438
#     4  11  20  43  64  82 148 179 236 299 350 416
#     4   8  18  40  68  88 148 166 224 294 354 426
#     4  11  26  43  76  96 140 183 240 303 380 430
#     4  12  24  38  67 100 136 192 234 289 354 441
#     4  11  24  47  65  98 132 181 236 301 362 432
#     4  12  26  45  73 103 148 194 239 299 367 436
#
# _framework density 20.376128000000001
#
# number of rings (size 3 to 8) (size 9 to 14) (size 15 to 20)
#    0.000    1.846    3.077    1.385    3.231    6.769 
#    4.154    0.000    0.000    0.000    0.000    0.000 
#    0.000    0.000    0.000    0.000    0.000    0.000 
#
# Total GULP energy -72392.056952 kJ/mol
# GULP energy per Si atom -5568.619766 kJ/mol
# Density = 2.032975 g / cm^3
# Si number density = 20.376128 Si / 1000 Ang^3
#
#
#
# Elastic Constant Matrix: (Units=GPa)
#
#
# Indices 1 2 3 4 5 6 
#
# 1 113.0501 69.3160 44.5230 0.0000 -27.2088 0.0000
# 2 69.3160 116.8457 42.7528 0.0000 -12.5956 0.0000
# 3 44.5230 42.7528 105.7652 0.0000 -16.9940 0.0000
# 4 0.0000 0.0000 0.0000 6.1469 0.0000 6.8823
# 5 -27.2088 -12.5956 -16.9940 0.0000 37.4420 0.0000
# 6 0.0000 0.0000 0.0000 6.8823 0.0000 29.5261
#
#
#
# Elastic Compliance Matrix: (Units=1/GPa)
#
#
# Indices 1 2 3 4 5 6 
#
# 1 0.016850 -0.008203 -0.002430 0.000000 0.008382 0.000000
# 2 -0.008203 0.014133 -0.002647 0.000000 -0.002408 0.000000
# 3 -0.002430 -0.002647 0.011996 0.000000 0.002788 0.000000
# 4 0.000000 0.000000 0.000000 0.220134 0.000000 -0.051312
# 5 0.008382 -0.002408 0.002788 0.000000 0.033255 0.000000
# 6 0.000000 0.000000 0.000000 -0.051312 0.000000 0.045829
#
#
# Mechanical properties :
#
#
# Convention : Reuss Voigt Hill
#
# Bulk Modulus (GPa) = 60.90637 72.09384 66.50010
# Shear Modulus (GPa) = 13.36079 26.56095 19.96087
#
# Velocity S-wave (km/s) = 2.56346 3.61436 3.13328
# Velocity P-wave (km/s) = 6.22235 7.27162 6.76735
#
# Compressibility (1/GPa) = 0.01641864
#
# Stress axis : x y z
#
# Youngs Moduli (GPa) = 59.34801 70.75456 83.36163
#
# Poissons Ratio (x) = 0.58039 0.20261
# Poissons Ratio (y) = 0.48682 0.22064
# Poissons Ratio (z) = 0.14424 0.18728
#
# Static dielectric constant tensor:
#      x y z
#    x 1.782310 0.000000 0.004540 
#    y 0.000000 1.711050 0.000000 
#    z 0.004540 0.000000 1.768090 
# 
# From -- ./inp_files/1254.got.cif
#   From: 2010.05.17/outbox.cif.g08.bks.cpg/sg3_1_cif.got.tgz:1254.got - 2010.06.03 18:33:08.
