data_PCOD9114727
_publ_section_title
;
Structure prediction by ZEFSAII (Michael W. Deem and Ramdas Pophale) SiO2 
 PCOD9114727
Probable space group: P 21
;
_chemical_formula_sum "Si O2"
_cell_formula_units_Z 14
_cell_length_a 20.945274
_cell_length_b 5.236395
_cell_length_c 6.770631
_cell_angle_alpha 90.000000
_cell_angle_beta 54.257873
_cell_angle_gamma 90.000000
_cell_volume 602.724244
_symmetry_space_group_name_H-M "P 21"
_symmetry_group_IT_number 4
_symmetry_cell_setting 'monoclinic'
loop_
_space_group_symop_operation_xyz
x,y,z
-x,1/2+y,-z
loop_
_atom_site_type_symbol
_atom_site_label
_atom_site_fract_x
_atom_site_fract_y
_atom_site_fract_z
Si Si1 0.980330 0.986900 0.793779
Si Si2 0.590797 0.880536 0.942124
Si Si3 0.808928 0.790545 0.144283
Si Si4 0.741638 0.293506 0.263521
Si Si5 0.422050 0.880610 0.308537
Si Si6 0.241120 0.472308 0.383081
Si Si7 0.066441 0.491865 0.581100
O O1 0.042202 0.761428 0.717003
O O2 0.018771 0.259725 0.767249
O O3 0.961824 0.993517 0.593112
O O4 0.895439 0.900694 0.027846
O O5 0.583238 0.110352 0.796414
O O6 0.677072 0.927741 0.874304
O O7 0.589158 0.613470 0.825805
O O8 0.512556 0.897607 0.217070
O O9 0.761406 0.020956 0.130217
O O10 0.766651 0.756865 0.432441
O O11 0.800486 0.509063 0.073191
O O12 0.651323 0.380580 0.409428
O O13 0.755538 0.215257 0.471222
O O14 0.159728 0.462243 0.416875
#
# Coordination Sequence:
#
# PCOD9114727 Si02
#       7
#     2   2   2   2   2   2   2
#     4  10  22  38  49  71  88 133 162 194 244 287
#     4   9  16  24  43  65  97 122 149 182 232 277
#     4  10  19  31  50  68  99 116 163 187 240 285
#     4   9  17  29  46  73  97 124 147 194 230 283
#     4   9  14  26  40  65  99 124 146 180 228 282
#     4   9  20  30  50  73  97 118 157 199 241 267
#     4  10  22  36  54  65  97 121 166 204 233 285
#
# _framework density 23.227868000000001
#
# number of rings (size 3 to 8) (size 9 to 14) (size 15 to 20)
#    0.857    1.714    1.429    0.857    2.000    1.143 
#    0.000    0.000    0.000    0.000    0.000    2.000 
#    0.000    0.000    0.000    0.000    0.000    0.000 
#
# Total GULP energy -77980.498452 kJ/mol
# GULP energy per Si atom -5570.035604 kJ/mol
# Density = 2.317500 g / cm^3
# Si number density = 23.227868 Si / 1000 Ang^3
#
#
#
# Elastic Constant Matrix: (Units=GPa)
#
#
# Indices 1 2 3 4 5 6 
#
# 1 67.4091 -3.2190 39.5458 0.0000 -24.7911 0.0000
# 2 -3.2190 98.0287 -12.3045 0.0000 14.4585 0.0000
# 3 39.5458 -12.3045 62.2812 0.0000 -22.3471 0.0000
# 4 0.0000 0.0000 0.0000 18.0487 0.0000 -20.0153
# 5 -24.7911 14.4585 -22.3471 0.0000 34.4603 0.0000
# 6 0.0000 0.0000 0.0000 -20.0153 0.0000 10.1376
#
#
#
# Elastic Compliance Matrix: (Units=1/GPa)
#
#
# Indices 1 2 3 4 5 6 
#
# 1 0.026854 -0.002522 -0.013342 0.000000 0.011725 0.000000
# 2 -0.002522 0.011132 0.001921 0.000000 -0.005240 0.000000
# 3 -0.013342 0.001921 0.027595 0.000000 0.007491 0.000000
# 4 0.000000 0.000000 0.000000 -0.046579 0.000000 -0.091964
# 5 0.011725 -0.005240 0.007491 0.000000 0.044510 0.000000
# 6 0.000000 0.000000 0.000000 -0.091964 0.000000 -0.082928
#
#
# Mechanical properties :
#
#
# Convention : Reuss Voigt Hill
#
# Bulk Modulus (GPa) = 26.52964 30.64037 28.58500
# Shear Modulus (GPa) = 237.69935 26.10909 131.90422
#
# Velocity S-wave (km/s) = 10.12699 3.35631 7.54389
# Velocity P-wave (km/s) = 12.17322 5.31410 9.39220
#
# Compressibility (1/GPa) = 0.03769369
#
# Stress axis : x y z
#
# Youngs Moduli (GPa) = 37.23882 89.82971 36.23828
#
# Poissons Ratio (x) = 0.22657 0.48350
# Poissons Ratio (y) = 0.09393 -0.06961
# Poissons Ratio (z) = 0.49685 -0.17255
#
# Static dielectric constant tensor:
#      x y z
#    x 1.878990 0.000000 -0.010440 
#    y 0.000000 1.923590 0.000000 
#    z -0.010440 0.000000 1.954480 
# 
# From -- ./inp_files/10087.got.cif
#   From: 2010.05.17/outbox.cif.g08.bks.cpg/sg4_6_cif.got.tgz:10087.got - 2010.06.03 18:43:04.
