data_PCOD9114885
_publ_section_title
;
Structure prediction by ZEFSAII (Michael W. Deem and Ramdas Pophale) SiO2 
 PCOD9114885
Probable space group: P 21
;
_chemical_formula_sum "Si O2"
_cell_formula_units_Z 16
_cell_length_a 13.247065
_cell_length_b 5.027482
_cell_length_c 12.377516
_cell_angle_alpha 90.000000
_cell_angle_beta 135.355775
_cell_angle_gamma 90.000000
_cell_volume 579.262144
_symmetry_space_group_name_H-M "P 21"
_symmetry_group_IT_number 4
_symmetry_cell_setting 'monoclinic'
loop_
_space_group_symop_operation_xyz
x,y,z
-x,1/2+y,-z
loop_
_atom_site_type_symbol
_atom_site_label
_atom_site_fract_x
_atom_site_fract_y
_atom_site_fract_z
Si Si1 0.053702 0.680610 0.103357
Si Si2 0.555339 0.678559 0.484700
Si Si3 0.193639 0.057588 0.454742
Si Si4 0.053702 0.680610 0.603357
Si Si5 0.193639 0.057588 0.954742
Si Si6 0.555339 0.678559 0.984700
Si Si7 0.696882 0.057238 0.339049
Si Si8 0.696882 0.057238 0.839049
O O1 0.220122 0.627185 0.209443
O O2 0.976131 0.607182 0.156289
O O3 0.981343 0.477902 0.961437
O O4 0.495693 0.475296 0.528644
O O5 0.723925 0.635231 0.591431
O O6 0.469502 0.590158 0.311871
O O7 0.023869 0.107181 0.343711
O O8 0.260326 0.264785 0.592091
O O9 0.240475 0.764121 0.526361
O O10 0.981343 0.477902 0.461436
O O11 0.220122 0.627185 0.709443
O O12 0.276075 0.135231 0.908569
O O13 0.260326 0.264785 0.092091
O O14 0.240475 0.764121 0.026361
O O15 0.469502 0.590158 0.811871
O O16 0.495693 0.475296 0.028644
#
# Coordination Sequence:
#
# PCOD9114885 Si02
#       8
#     2   2   2   2   2   2   2   2
#     4   8  16  30  54  80  98 122 172 222 252 292
#     4  12  24  36  50  78 112 140 170 212 258 306
#     4  10  19  36  58  78 100 136 177 214 254 306
#     4   8  16  30  54  80  98 122 172 222 252 292
#     4  10  19  36  58  78 100 136 177 214 254 306
#     4  12  24  36  50  78 112 140 170 212 258 306
#     4  10  19  36  58  78 100 136 177 214 254 306
#     4  10  19  36  58  78 100 136 177 214 254 306
#
# _framework density 27.621343
#
# number of rings (size 3 to 8) (size 9 to 14) (size 15 to 20)
#    0.000    2.000    0.000    4.500    0.000    0.000 
#    0.000    2.500    0.000    0.000    0.000    0.000 
#    0.000    0.000    0.000    0.000    0.000    0.000 
#
# Total GULP energy -89625.670204 kJ/mol
# GULP energy per Si atom -5601.604388 kJ/mol
# Density = 2.755848 g / cm^3
# Si number density = 27.621343 Si / 1000 Ang^3
#
#
#
# Elastic Constant Matrix: (Units=GPa)
#
#
# Indices 1 2 3 4 5 6 
#
# 1 213.3262 13.2100 -0.6819 0.0000 9.4710 0.0000
# 2 13.2100 110.2675 29.5547 0.0000 -5.4346 0.0000
# 3 -0.6819 29.5547 60.3865 0.0000 0.9957 0.0000
# 4 0.0000 0.0000 0.0000 43.0738 0.0000 -14.0302
# 5 9.4710 -5.4346 0.9957 0.0000 20.8520 0.0000
# 6 0.0000 0.0000 0.0000 -14.0302 0.0000 44.6383
#
#
#
# Elastic Compliance Matrix: (Units=1/GPa)
#
#
# Indices 1 2 3 4 5 6 
#
# 1 0.004850 -0.000837 0.000505 0.000000 -0.002445 0.000000
# 2 -0.000837 0.010769 -0.005337 0.000000 0.003442 0.000000
# 3 0.000505 -0.005337 0.019220 0.000000 -0.002538 0.000000
# 4 0.000000 0.000000 0.000000 0.025864 0.000000 0.008129
# 5 -0.002445 0.003442 -0.002538 0.000000 0.050086 0.000000
# 6 0.000000 0.000000 0.000000 0.008129 0.000000 0.024957
#
#
# Mechanical properties :
#
#
# Convention : Reuss Voigt Hill
#
# Bulk Modulus (GPa) = 42.55270 52.01619 47.28445
# Shear Modulus (GPa) = 32.27540 44.50598 38.39069
#
# Velocity S-wave (km/s) = 3.42203 4.01844 3.73217
# Velocity P-wave (km/s) = 5.57252 6.35636 5.97730
#
# Compressibility (1/GPa) = 0.02350027
#
# Stress axis : x y z
#
# Youngs Moduli (GPa) = 206.20140 92.85781 52.03035
#
# Poissons Ratio (x) = 0.07770 -0.02625
# Poissons Ratio (y) = 0.17253 0.27768
# Poissons Ratio (z) = -0.10405 0.49557
#
# Static dielectric constant tensor:
#      x y z
#    x 2.248220 0.000000 -0.058010 
#    y 0.000000 2.043720 0.000000 
#    z -0.058010 0.000000 2.030470 
# 
# From -- ./inp_files/683.got.cif
#   From: 2010.05.17/outbox.cif.g08.bks.cpg/sg4_1_cif.got.tgz:683.got - 2010.06.03 18:43:04.
