data_PCOD9114044
_publ_section_title
;
Structure prediction by ZEFSAII (Michael W. Deem and Ramdas Pophale) SiO2 
 PCOD9114044
Probable space group: P 2
;
_chemical_formula_sum "Si O2"
_cell_formula_units_Z 9
_cell_length_a 13.344197
_cell_length_b 5.200336
_cell_length_c 6.588799
_cell_angle_alpha 90.000000
_cell_angle_beta 128.547926
_cell_angle_gamma 90.000000
_cell_volume 357.589922
_symmetry_space_group_name_H-M "P 2"
_symmetry_group_IT_number 3
_symmetry_cell_setting 'monoclinic'
loop_
_space_group_symop_operation_xyz
x,y,z
-x,y,-z
loop_
_atom_site_type_symbol
_atom_site_label
_atom_site_fract_x
_atom_site_fract_y
_atom_site_fract_z
Si Si1 0.855354 0.615620 0.564526
Si Si2 0.387047 0.525303 0.009991
Si Si3 0.011559 0.111403 0.775484
Si Si4 0.263180 0.867293 0.191496
Si Si5 0.500000 0.162880 0.500000
O O1 0.083603 0.889260 0.426854
O O2 0.738112 0.499898 0.289271
O O3 0.965146 0.399737 0.679808
O O4 0.657847 0.731568 0.883697
O O5 0.439956 0.309694 0.230511
O O6 0.195091 0.675809 0.268315
O O7 0.500000 0.600193 0.000000
O O8 0.160144 0.044369 0.945384
O O9 0.000000 0.081447 0.000000
O O10 0.376160 0.022828 0.442576
#
# Coordination Sequence:
#
# PCOD9114044 Si02
#       5
#     2   2   2   2   1
#     4  11  26  50  81 118 158 206 267 327 403 477
#     4  12  29  49  78 117 165 212 278 332 398 482
#     4  10  24  47  83 114 158 205 257 331 403 470
#     4  11  27  52  80 116 164 214 269 333 408 487
#     4  12  28  48  82 112 170 216 272 328 412 464
#
# _framework density 25.168496000000001
#
# number of rings (size 3 to 8) (size 9 to 14) (size 15 to 20)
#    0.000    0.889    0.000    5.333   18.667    1.778 
#    0.000    0.000    0.000    0.000    0.000    0.000 
#    0.000    0.000    0.000    0.000    0.000    0.000 
#
# Total GULP energy -50282.305785 kJ/mol
# GULP energy per Si atom -5586.922865 kJ/mol
# Density = 2.511121 g / cm^3
# Si number density = 25.168496 Si / 1000 Ang^3
#
#
#
# Elastic Constant Matrix: (Units=GPa)
#
#
# Indices 1 2 3 4 5 6 
#
# 1 124.9708 65.2603 48.0828 0.0000 13.8699 0.0000
# 2 65.2603 136.0839 43.7896 0.0000 16.8035 0.0000
# 3 48.0828 43.7896 147.4313 0.0000 15.1790 0.0000
# 4 0.0000 0.0000 0.0000 134.8209 0.0000 -100.2250
# 5 13.8699 16.8035 15.1790 0.0000 57.6860 0.0000
# 6 0.0000 0.0000 0.0000 -100.2250 0.0000 171.0650
#
#
#
# Elastic Compliance Matrix: (Units=1/GPa)
#
#
# Indices 1 2 3 4 5 6 
#
# 1 0.011376 -0.004633 -0.002252 0.000000 -0.000793 0.000000
# 2 -0.004633 0.010193 -0.001363 0.000000 -0.001497 0.000000
# 3 -0.002252 -0.001363 0.008043 0.000000 -0.001178 0.000000
# 4 0.000000 0.000000 0.000000 0.013141 0.000000 0.007699
# 5 -0.000793 -0.001497 -0.001178 0.000000 0.018272 0.000000
# 6 0.000000 0.000000 0.000000 0.007699 0.000000 0.010356
#
#
# Mechanical properties :
#
#
# Convention : Reuss Voigt Hill
#
# Bulk Modulus (GPa) = 76.23619 80.30573 78.27096
# Shear Modulus (GPa) = 54.20116 89.47125 71.83620
#
# Velocity S-wave (km/s) = 4.64565 5.96876 5.34828
# Velocity P-wave (km/s) = 7.68974 8.91504 8.32497
#
# Compressibility (1/GPa) = 0.01311713
#
# Stress axis : x y z
#
# Youngs Moduli (GPa) = 87.90689 98.10351 124.32517
#
# Poissons Ratio (x) = 0.45447 0.28003
# Poissons Ratio (y) = 0.40724 0.16941
# Poissons Ratio (z) = 0.19800 0.13368
#
# Static dielectric constant tensor:
#      x y z
#    x 1.992600 0.000000 -0.071010 
#    y 0.000000 2.073460 0.000000 
#    z -0.071010 0.000000 1.180340 
# 
# From -- ./inp_files/1862.got.cif
#   From: 2010.05.17/outbox.cif.g08.bks.cpg/sg3_1_cif.got.tgz:1862.got - 2010.06.03 18:33:08.
