data_PCOD9114307
_publ_section_title
;
Structure prediction by ZEFSAII (Michael W. Deem and Ramdas Pophale) SiO2 
 PCOD9114307
Probable space group: P 2
;
_chemical_formula_sum "Si O2"
_cell_formula_units_Z 14
_cell_length_a 11.876477
_cell_length_b 9.389710
_cell_length_c 5.344200
_cell_angle_alpha 90.000000
_cell_angle_beta 79.298719
_cell_angle_gamma 90.000000
_cell_volume 585.602733
_symmetry_space_group_name_H-M "P 2"
_symmetry_group_IT_number 3
_symmetry_cell_setting 'monoclinic'
loop_
_space_group_symop_operation_xyz
x,y,z
-x,y,-z
loop_
_atom_site_type_symbol
_atom_site_label
_atom_site_fract_x
_atom_site_fract_y
_atom_site_fract_z
Si Si1 0.077359 0.521640 0.718423
Si Si2 0.637341 0.051998 0.465811
Si Si3 0.212339 0.277910 0.871362
Si Si4 0.778696 0.773498 0.514894
Si Si5 0.378671 0.303324 0.182248
Si Si6 0.000000 0.097537 0.000000
Si Si7 0.000000 0.925967 0.500000
Si Si8 0.430104 0.593889 0.288883
O O1 0.155765 0.379653 0.689122
O O2 0.159495 0.659857 0.691923
O O3 0.000000 0.525492 0.500000
O O4 0.000000 0.517723 0.000000
O O5 0.500000 0.033522 0.500000
O O6 0.694749 0.160482 0.247251
O O7 0.656681 0.149092 0.703925
O O8 0.706985 0.905850 0.434120
O O9 0.106421 0.194598 0.032920
O O10 0.281977 0.367696 0.042963
O O11 0.684265 0.684429 0.702186
O O12 0.886996 0.837246 0.618395
O O13 0.399363 0.430002 0.369755
O O14 0.500000 0.284585 0.000000
O O15 0.032598 0.011491 0.737110
O O16 0.500000 0.651219 0.500000
O O17 0.500000 0.595432 0.000000
#
# Coordination Sequence:
#
# PCOD9114307 Si02
#       8
#     2   2   2   2   2   1   1   2
#     4  12  31  51  78 119 158 205 264 318 394 465
#     4  12  25  49  76 113 155 204 260 315 385 463
#     4  12  27  47  82 110 156 195 261 325 383 458
#     4  12  28  49  78 109 163 202 260 317 392 463
#     4  11  25  46  76 112 151 201 256 321 379 454
#     4  12  28  50  76 112 148 202 256 314 398 444
#     4  12  28  50  76 112 152 204 252 326 384 460
#     4  11  28  50  77 114 155 205 257 315 392 463
#
# _framework density 23.90699
#
# number of rings (size 3 to 8) (size 9 to 14) (size 15 to 20)
#    0.000    0.286    4.286    2.571   12.000    1.714 
#    7.714    0.000    0.000    0.000    0.000    0.000 
#    0.000    0.000    0.000    0.000    0.000    0.000 
#
# Total GULP energy -78273.505456 kJ/mol
# GULP energy per Si atom -5590.964675 kJ/mol
# Density = 2.385258 g / cm^3
# Si number density = 23.906990 Si / 1000 Ang^3
#
#
#
# Elastic Constant Matrix: (Units=GPa)
#
#
# Indices 1 2 3 4 5 6 
#
# 1 181.7787 58.6267 47.0153 0.0000 -6.0806 0.0000
# 2 58.6267 132.7432 23.2276 0.0000 -1.4215 0.0000
# 3 47.0153 23.2276 101.2408 0.0000 -1.9842 0.0000
# 4 0.0000 0.0000 0.0000 -5.5612 0.0000 -32.9114
# 5 -6.0806 -1.4215 -1.9842 0.0000 39.7331 0.0000
# 6 0.0000 0.0000 0.0000 -32.9114 0.0000 6.2675
#
#
#
# Elastic Compliance Matrix: (Units=1/GPa)
#
#
# Indices 1 2 3 4 5 6 
#
# 1 0.007072 -0.002649 -0.002660 0.000000 0.000855 0.000000
# 2 -0.002649 0.008842 -0.000801 0.000000 -0.000129 0.000000
# 3 -0.002660 -0.000801 0.011299 0.000000 0.000129 0.000000
# 4 0.000000 0.000000 0.000000 -0.005606 0.000000 -0.029437
# 5 0.000855 -0.000129 0.000129 0.000000 0.025301 0.000000
# 6 0.000000 0.000000 0.000000 -0.029437 0.000000 0.004974
#
#
# Mechanical properties :
#
#
# Convention : Reuss Voigt Hill
#
# Bulk Modulus (GPa) = 66.69459 74.83354 70.76407
# Shear Modulus (GPa) = 72.36030 27.21409 49.78720
#
# Velocity S-wave (km/s) = 5.50755 3.37758 4.56843
# Velocity P-wave (km/s) = 8.27057 6.82500 7.58231
#
# Compressibility (1/GPa) = 0.01499372
#
# Stress axis : x y z
#
# Youngs Moduli (GPa) = 141.40309 113.09663 88.50436
#
# Poissons Ratio (x) = 0.29957 0.23539
# Poissons Ratio (y) = 0.37455 0.07090
# Poissons Ratio (z) = 0.37609 0.09060
#
# Static dielectric constant tensor:
#      x y z
#    x 1.930120 0.000000 0.063590 
#    y 0.000000 1.907740 0.000000 
#    z 0.063590 0.000000 2.114470 
# 
# From -- ./inp_files/2221.got.cif
#   From: 2010.05.17/outbox.cif.g08.bks.cpg/sg3_2_cif.got.tgz:2221.got - 2010.06.03 18:33:08.
