data_PCOD9114382
_publ_section_title
;
Structure prediction by ZEFSAII (Michael W. Deem and Ramdas Pophale) SiO2 
 PCOD9114382
Probable space group: P 2
;
_chemical_formula_sum "Si O2"
_cell_formula_units_Z 9
_cell_length_a 18.390398
_cell_length_b 5.339258
_cell_length_c 12.276758
_cell_angle_alpha 90.000000
_cell_angle_beta 18.630551
_cell_angle_gamma 90.000000
_cell_volume 385.104426
_symmetry_space_group_name_H-M "P 2"
_symmetry_group_IT_number 3
_symmetry_cell_setting 'monoclinic'
loop_
_space_group_symop_operation_xyz
x,y,z
-x,y,-z
loop_
_atom_site_type_symbol
_atom_site_label
_atom_site_fract_x
_atom_site_fract_y
_atom_site_fract_z
Si Si1 0.988636 0.990390 0.849404
Si Si2 0.412681 0.248263 0.314629
Si Si3 0.173450 0.926878 0.345837
Si Si4 0.701668 0.492091 0.300911
Si Si5 0.500000 0.554415 0.000000
O O1 0.042638 0.983827 0.643641
O O2 0.860374 0.736383 0.066016
O O3 0.223101 0.029422 0.584643
O O4 0.838817 0.237192 0.081607
O O5 0.395369 0.431895 0.441124
O O6 0.348168 0.389063 0.294578
O O7 0.665445 0.143185 0.933729
O O8 0.349954 0.718482 0.133587
O O9 0.000000 0.842928 0.500000
O O10 0.500000 0.522127 0.500000
#
# Coordination Sequence:
#
# PCOD9114382 Si02
#       5
#     2   2   2   2   1
#     4  12  26  51  76 119 153 214 259 328 400 473
#     4  12  27  50  77 113 159 210 263 332 394 480
#     4  12  27  47  80 113 159 206 270 326 393 471
#     4  12  30  50  80 115 161 206 270 322 405 471
#     4  12  24  48  76 114 154 206 266 322 394 464
#
# _framework density 23.370283000000001
#
# number of rings (size 3 to 8) (size 9 to 14) (size 15 to 20)
#    0.000    0.000    4.444    4.000    6.222    4.444 
#    0.000    0.000    0.000    0.000    0.000    0.000 
#    0.000    0.000    0.000    0.000    0.000    0.000 
#
# Total GULP energy -50412.631296 kJ/mol
# GULP energy per Si atom -5601.403477 kJ/mol
# Density = 2.331709 g / cm^3
# Si number density = 23.370283 Si / 1000 Ang^3
#
#
#
# Elastic Constant Matrix: (Units=GPa)
#
#
# Indices 1 2 3 4 5 6 
#
# 1 181.1338 58.4297 72.1798 0.0000 6.7971 0.0000
# 2 58.4297 158.8643 74.4235 0.0000 18.5005 0.0000
# 3 72.1798 74.4235 118.8259 0.0000 25.8967 0.0000
# 4 0.0000 0.0000 0.0000 98.9459 0.0000 -15.9403
# 5 6.7971 18.5005 25.8967 0.0000 45.0602 0.0000
# 6 0.0000 0.0000 0.0000 -15.9403 0.0000 43.0542
#
#
#
# Elastic Compliance Matrix: (Units=1/GPa)
#
#
# Indices 1 2 3 4 5 6 
#
# 1 0.007486 -0.000917 -0.004354 0.000000 0.001750 0.000000
# 2 -0.000917 0.009031 -0.004940 0.000000 -0.000731 0.000000
# 3 -0.004354 -0.004940 0.015513 0.000000 -0.006230 0.000000
# 4 0.000000 0.000000 0.000000 0.010748 0.000000 0.003979
# 5 0.001750 -0.000731 -0.006230 0.000000 0.025809 0.000000
# 6 0.000000 0.000000 0.000000 0.003979 0.000000 0.024700
#
#
# Mechanical properties :
#
#
# Convention : Reuss Voigt Hill
#
# Bulk Modulus (GPa) = 86.15703 96.54334 91.35018
# Shear Modulus (GPa) = 42.52459 54.33144 48.42802
#
# Velocity S-wave (km/s) = 4.27031 4.82686 4.55709
# Velocity P-wave (km/s) = 7.82688 8.51262 8.17694
#
# Compressibility (1/GPa) = 0.01160671
#
# Stress axis : x y z
#
# Youngs Moduli (GPa) = 133.58047 110.72362 64.46389
#
# Poissons Ratio (x) = 0.10157 0.28069
# Poissons Ratio (y) = 0.12254 0.31847
# Poissons Ratio (z) = 0.58164 0.54700
#
# Static dielectric constant tensor:
#      x y z
#    x 1.838860 0.000000 0.030110 
#    y 0.000000 1.922890 0.000000 
#    z 0.030110 0.000000 1.879690 
# 
# From -- ./inp_files/4744.got.cif
#   From: 2010.05.17/outbox.cif.g08.bks.cpg/sg3_3_cif.got.tgz:4744.got - 2010.06.03 18:33:08.
