data_PCOD9114992
_publ_section_title
;
Structure prediction by ZEFSAII (Michael W. Deem and Ramdas Pophale) SiO2 
 PCOD9114992
Probable space group: P 21
;
_chemical_formula_sum "Si O2"
_cell_formula_units_Z 16
_cell_length_a 8.882578
_cell_length_b 10.580354
_cell_length_c 8.953445
_cell_angle_alpha 90.000000
_cell_angle_beta 62.055804
_cell_angle_gamma 90.000000
_cell_volume 743.342506
_symmetry_space_group_name_H-M "P 21"
_symmetry_group_IT_number 4
_symmetry_cell_setting 'monoclinic'
loop_
_space_group_symop_operation_xyz
x,y,z
-x,1/2+y,-z
loop_
_atom_site_type_symbol
_atom_site_label
_atom_site_fract_x
_atom_site_fract_y
_atom_site_fract_z
Si Si1 0.387141 0.277700 0.010687
Si Si2 0.925437 0.728553 0.343783
Si Si3 0.720762 0.657965 0.205307
Si Si4 0.810544 0.012273 0.391993
Si Si5 0.521063 0.937224 0.755960
Si Si6 0.587031 0.223185 0.428975
Si Si7 0.814143 0.592479 0.686965
Si Si8 0.724599 0.304651 0.676972
O O1 0.418527 0.392903 0.109101
O O2 0.311050 0.168546 0.148821
O O3 0.265267 0.270195 0.922306
O O4 0.564893 0.254497 0.844500
O O5 0.896264 0.642394 0.212395
O O6 0.825109 0.670194 0.529402
O O7 0.112512 0.742933 0.322329
O O8 0.858515 0.868377 0.331651
O O9 0.637513 0.534357 0.169425
O O10 0.584962 0.689811 0.400107
O O11 0.692598 0.096639 0.337359
O O12 0.992729 0.077185 0.340049
O O13 0.684446 0.997811 0.594759
O O14 0.456554 0.819065 0.683615
O O15 0.701119 0.282164 0.510959
O O16 0.743275 0.453896 0.690151
#
# Coordination Sequence:
#
# PCOD9114992 Si02
#       8
#     2   2   2   2   2   2   2   2
#     4  11  23  43  63  96 135 174 215 277 343 395
#     4  11  20  43  66  97 134 173 222 281 319 396
#     4  10  22  38  64  94 134 171 218 272 334 399
#     4  10  21  37  65 102 126 164 231 273 316 391
#     4  11  21  40  68  96 132 175 229 272 329 402
#     4  10  19  38  64  97 126 171 223 269 318 394
#     4  11  21  40  70  92 130 176 224 274 331 393
#     4  10  23  39  66  98 135 170 218 278 338 394
#
# _framework density 21.524397
#
# number of rings (size 3 to 8) (size 9 to 14) (size 15 to 20)
#    0.000    1.500    3.750    1.500    0.000    1.000 
#    4.500    0.000    5.500    0.000    0.000    0.000 
#    0.000    0.000    0.000    0.000    0.000    0.000 
#
# Total GULP energy -89236.777672 kJ/mol
# GULP energy per Si atom -5577.298605 kJ/mol
# Density = 2.147541 g / cm^3
# Si number density = 21.524397 Si / 1000 Ang^3
#
#
#
# Elastic Constant Matrix: (Units=GPa)
#
#
# Indices 1 2 3 4 5 6 
#
# 1 73.8250 27.4192 21.1167 0.0000 10.1043 0.0000
# 2 27.4192 67.2813 17.2423 0.0000 -4.8830 0.0000
# 3 21.1167 17.2423 60.1564 0.0000 8.3752 0.0000
# 4 0.0000 0.0000 0.0000 26.8057 0.0000 -4.2660
# 5 10.1043 -4.8830 8.3752 0.0000 21.6886 0.0000
# 6 0.0000 0.0000 0.0000 -4.2660 0.0000 38.8119
#
#
#
# Elastic Compliance Matrix: (Units=1/GPa)
#
#
# Indices 1 2 3 4 5 6 
#
# 1 0.018401 -0.007363 -0.003091 0.000000 -0.009037 0.000000
# 2 -0.007363 0.019681 -0.004387 0.000000 0.009555 0.000000
# 3 -0.003091 -0.004387 0.019977 0.000000 -0.007262 0.000000
# 4 0.000000 0.000000 0.000000 0.037970 0.000000 0.004173
# 5 -0.009037 0.009555 -0.007262 0.000000 0.055273 0.000000
# 6 0.000000 0.000000 0.000000 0.004173 0.000000 0.026224
#
#
# Mechanical properties :
#
#
# Convention : Reuss Voigt Hill
#
# Bulk Modulus (GPa) = 35.23848 36.97988 36.10918
# Shear Modulus (GPa) = 23.07700 26.49353 24.78526
#
# Velocity S-wave (km/s) = 3.27790 3.51217 3.39705
# Velocity P-wave (km/s) = 5.54374 5.80214 5.67441
#
# Compressibility (1/GPa) = 0.02837807
#
# Stress axis : x y z
#
# Youngs Moduli (GPa) = 54.34452 50.80974 50.05829
#
# Poissons Ratio (x) = 0.37410 0.15472
# Poissons Ratio (y) = 0.40013 0.21960
# Poissons Ratio (z) = 0.16797 0.22290
#
# Static dielectric constant tensor:
#      x y z
#    x 1.840550 0.000000 0.011720 
#    y 0.000000 1.841940 0.000000 
#    z 0.011720 0.000000 1.760780 
# 
# From -- ./inp_files/6220.got.cif
#   From: 2010.05.17/outbox.cif.g08.bks.cpg/sg4_4_cif.got.tgz:6220.got - 2010.06.03 18:43:04.
