data_PCOD9114868
_publ_section_title
;
Structure prediction by ZEFSAII (Michael W. Deem and Ramdas Pophale) SiO2 
 PCOD9114868
Probable space group: P 21
;
_chemical_formula_sum "Si O2"
_cell_formula_units_Z 16
_cell_length_a 17.268171
_cell_length_b 7.120305
_cell_length_c 11.352710
_cell_angle_alpha 90.000000
_cell_angle_beta 149.200198
_cell_angle_gamma 90.000000
_cell_volume 714.740321
_symmetry_space_group_name_H-M "P 21"
_symmetry_group_IT_number 4
_symmetry_cell_setting 'monoclinic'
loop_
_space_group_symop_operation_xyz
x,y,z
-x,1/2+y,-z
loop_
_atom_site_type_symbol
_atom_site_label
_atom_site_fract_x
_atom_site_fract_y
_atom_site_fract_z
Si Si1 0.870955 0.483910 0.249919
Si Si2 0.337351 0.962954 0.212218
Si Si3 0.221971 0.393562 0.096806
Si Si4 0.473840 0.972158 0.627136
Si Si5 0.937201 0.301695 0.581877
Si Si6 0.350657 0.383307 0.504109
Si Si7 0.339816 0.584287 0.737412
Si Si8 0.375229 0.268790 0.963801
O O1 0.931627 0.378662 0.442318
O O2 0.999585 0.591355 0.347687
O O3 0.779348 0.369909 0.031348
O O4 0.754462 0.640169 0.149575
O O5 0.372821 0.886961 0.388934
O O6 0.495441 0.967459 0.350073
O O7 0.276941 0.175590 0.152851
O O8 0.360793 0.505514 0.217371
O O9 0.224026 0.423383 0.239699
O O10 0.059508 0.410399 0.821588
O O11 0.514666 0.844131 0.790050
O O12 0.392121 0.162107 0.561931
O O13 0.767128 0.267570 0.402443
O O14 0.318835 0.469828 0.589033
O O15 0.514644 0.647002 0.974373
O O16 0.311032 0.445746 0.809238
#
# Coordination Sequence:
#
# PCOD9114868 Si02
#       8
#     2   2   2   2   2   2   2   2
#     4  11  22  42  62  90 124 162 213 252 308 365
#     4   9  18  36  62  91 118 149 208 264 299 354
#     4   9  19  40  61  91 122 159 205 259 308 369
#     4  10  19  35  66  91 117 153 208 264 302 352
#     4  11  24  40  61  91 128 167 200 255 312 377
#     4  10  20  36  63  93 122 160 204 259 315 361
#     4  12  25  40  59  91 129 166 205 254 316 371
#     4  12  23  41  60  90 124 164 213 257 304 367
#
# _framework density 22.385753999999999
#
# number of rings (size 3 to 8) (size 9 to 14) (size 15 to 20)
#    0.000    1.500    3.750    2.250    1.750    0.000 
#    0.000    5.000    0.000    0.000    0.000    0.000 
#    0.000    0.000    0.000    0.000    0.000    0.000 
#
# Total GULP energy -89348.353671 kJ/mol
# GULP energy per Si atom -5584.272104 kJ/mol
# Density = 2.233480 g / cm^3
# Si number density = 22.385754 Si / 1000 Ang^3
#
#
#
# Elastic Constant Matrix: (Units=GPa)
#
#
# Indices 1 2 3 4 5 6 
#
# 1 24.1277 -14.5892 7.7776 0.0000 -6.7034 0.0000
# 2 -14.5892 32.2466 11.7326 0.0000 -7.6191 0.0000
# 3 7.7776 11.7326 132.3640 0.0000 -32.1159 0.0000
# 4 0.0000 0.0000 0.0000 35.7058 0.0000 -3.5387
# 5 -6.7034 -7.6191 -32.1159 0.0000 43.7622 0.0000
# 6 0.0000 0.0000 0.0000 -3.5387 0.0000 31.8947
#
#
#
# Elastic Compliance Matrix: (Units=1/GPa)
#
#
# Indices 1 2 3 4 5 6 
#
# 1 0.067849 0.035324 -0.003776 0.000000 0.013772 0.000000
# 2 0.035324 0.051099 -0.003812 0.000000 0.011510 0.000000
# 3 -0.003776 -0.003812 0.009506 0.000000 0.005734 0.000000
# 4 0.000000 0.000000 0.000000 0.028318 0.000000 0.003142
# 5 0.013772 0.011510 0.005734 0.000000 0.031172 0.000000
# 6 0.000000 0.000000 0.000000 0.003142 0.000000 0.031702
#
#
# Mechanical properties :
#
#
# Convention : Reuss Voigt Hill
#
# Bulk Modulus (GPa) = 5.43698 22.06450 13.75074
# Shear Modulus (GPa) = 22.17458 34.52702 28.35080
#
# Velocity S-wave (km/s) = 3.15074 3.93156 3.56261
# Velocity P-wave (km/s) = 3.95857 5.52154 4.80404
#
# Compressibility (1/GPa) = 0.18392559
#
# Stress axis : x y z
#
# Youngs Moduli (GPa) = 14.73860 19.56977 105.19668
#
# Poissons Ratio (x) = -0.69129 0.39727
# Poissons Ratio (y) = -0.52063 0.40105
# Poissons Ratio (z) = 0.05566 0.07461
#
# Static dielectric constant tensor:
#      x y z
#    x 1.799180 0.000000 -0.015280 
#    y 0.000000 1.885880 0.000000 
#    z -0.015280 0.000000 1.867880 
# 
# From -- ./inp_files/11047.got.cif
#   From: 2010.05.17/outbox.cif.g08.bks.cpg/sg4_6_cif.got.tgz:11047.got - 2010.06.03 18:43:04.
