data_PCOD9114194
_publ_section_title
;
Structure prediction by ZEFSAII (Michael W. Deem and Ramdas Pophale) SiO2 
 PCOD9114194
Probable space group: P 2
;
_chemical_formula_sum "Si O2"
_cell_formula_units_Z 16
_cell_length_a 9.874623
_cell_length_b 16.836949
_cell_length_c 8.924814
_cell_angle_alpha 90.000000
_cell_angle_beta 29.695910
_cell_angle_gamma 90.000000
_cell_volume 735.082644
_symmetry_space_group_name_H-M "P 2"
_symmetry_group_IT_number 3
_symmetry_cell_setting 'monoclinic'
loop_
_space_group_symop_operation_xyz
x,y,z
-x,y,-z
loop_
_atom_site_type_symbol
_atom_site_label
_atom_site_fract_x
_atom_site_fract_y
_atom_site_fract_z
Si Si1 0.064172 0.767160 0.609344
Si Si2 0.455672 0.524142 0.377944
Si Si3 0.783003 0.252361 0.818536
Si Si4 0.936294 0.581232 0.731986
Si Si5 0.565590 0.021432 0.265526
Si Si6 0.954195 0.080326 0.379143
Si Si7 0.577168 0.834437 0.254394
Si Si8 0.282807 0.351897 0.818852
O O1 0.378203 0.784443 0.340272
O O2 0.000000 0.790806 0.500000
O O3 0.004097 0.673971 0.684077
O O4 0.881641 0.814521 0.906192
O O5 0.500000 0.561291 0.500000
O O6 0.576279 0.435583 0.273827
O O7 0.139194 0.530236 0.641138
O O8 0.629704 0.567063 0.082142
O O9 0.926695 0.169063 0.723671
O O10 0.000000 0.294296 0.500000
O O11 0.500000 0.240868 0.000000
O O12 0.749110 0.302134 0.000682
O O13 0.000000 0.558803 0.500000
O O14 0.500000 0.041778 0.500000
O O15 0.361755 0.072383 0.358309
O O16 0.516172 0.927726 0.293127
O O17 0.872049 0.037840 0.916960
O O18 0.000000 0.043579 0.500000
O O19 0.500000 0.814436 0.500000
O O20 0.500000 0.310137 0.500000
O O21 0.000000 0.362633 0.000000
#
# Coordination Sequence:
#
# PCOD9114194 Si02
#       8
#     2   2   2   2   2   2   2   2
#     4  11  24  41  62  90 124 160 205 256 308 368
#     4  11  23  41  63  91 124 161 205 255 307 367
#     4  11  24  43  65  94 128 164 208 260 311 371
#     4  11  24  41  62  91 124 161 206 255 307 370
#     4  11  24  41  62  91 124 161 206 255 307 370
#     4  11  23  41  63  91 124 161 205 255 307 367
#     4  11  24  41  62  90 124 160 205 256 308 368
#     4  11  24  43  65  94 128 164 208 260 311 371
#
# _framework density 21.766259000000002
#
# number of rings (size 3 to 8) (size 9 to 14) (size 15 to 20)
#    0.000    1.000    0.000    7.500    0.000   13.000 
#    0.000    0.000    0.000    0.000    0.000    0.000 
#    0.000    0.000    0.000    0.000    0.000    0.000 
#
# Total GULP energy -89522.638147 kJ/mol
# GULP energy per Si atom -5595.164884 kJ/mol
# Density = 2.171672 g / cm^3
# Si number density = 21.766259 Si / 1000 Ang^3
#
#
#
# Elastic Constant Matrix: (Units=GPa)
#
#
# Indices 1 2 3 4 5 6 
#
# 1 84.5748 24.8807 5.6045 0.0000 8.9893 0.0000
# 2 24.8807 42.5491 0.1621 0.0000 9.0430 0.0000
# 3 5.6045 0.1621 92.8186 0.0000 16.5910 0.0000
# 4 0.0000 0.0000 0.0000 24.0299 0.0000 6.0505
# 5 8.9893 9.0430 16.5910 0.0000 55.3370 0.0000
# 6 0.0000 0.0000 0.0000 6.0505 0.0000 17.1290
#
#
#
# Elastic Compliance Matrix: (Units=1/GPa)
#
#
# Indices 1 2 3 4 5 6 
#
# 1 0.014378 -0.008240 -0.000715 0.000000 -0.000775 0.000000
# 2 -0.008240 0.029114 0.001118 0.000000 -0.003754 0.000000
# 3 -0.000715 0.001118 0.011440 0.000000 -0.003496 0.000000
# 4 0.000000 0.000000 0.000000 0.045677 0.000000 -0.016135
# 5 -0.000775 -0.003754 -0.003496 0.000000 0.019859 0.000000
# 6 0.000000 0.000000 0.000000 -0.016135 0.000000 0.064080
#
#
# Mechanical properties :
#
#
# Convention : Reuss Voigt Hill
#
# Bulk Modulus (GPa) = 25.47331 31.24856 28.36094
# Shear Modulus (GPa) = 23.44023 31.91886 27.67954
#
# Velocity S-wave (km/s) = 3.28519 3.83356 3.56992
# Velocity P-wave (km/s) = 5.11062 5.82945 5.48183
#
# Compressibility (1/GPa) = 0.03925677
#
# Stress axis : x y z
#
# Youngs Moduli (GPa) = 69.55221 34.34738 87.41335
#
# Poissons Ratio (x) = 0.28302 0.06253
# Poissons Ratio (y) = 0.57311 -0.09771
# Poissons Ratio (z) = 0.04975 -0.03839
#
# Static dielectric constant tensor:
#      x y z
#    x 1.787150 0.000000 0.035890 
#    y 0.000000 1.775540 0.000000 
#    z 0.035890 0.000000 1.766240 
# 
# From -- ./inp_files/6218.got.cif
#   From: 2010.05.17/outbox.cif.g08.bks.cpg/sg3_4_cif.got.tgz:6218.got - 2010.06.03 18:33:08.
