data_PCOD9114498
_publ_section_title
;
Structure prediction by ZEFSAII (Michael W. Deem and Ramdas Pophale) SiO2 
 PCOD9114498
Probable space group: P 21
;
_chemical_formula_sum "Si O2"
_cell_formula_units_Z 14
_cell_length_a 8.869297
_cell_length_b 8.221336
_cell_length_c 12.508959
_cell_angle_alpha 90.000000
_cell_angle_beta 31.817478
_cell_angle_gamma 90.000000
_cell_volume 480.884244
_symmetry_space_group_name_H-M "P 21"
_symmetry_group_IT_number 4
_symmetry_cell_setting 'monoclinic'
loop_
_space_group_symop_operation_xyz
x,y,z
-x,1/2+y,-z
loop_
_atom_site_type_symbol
_atom_site_label
_atom_site_fract_x
_atom_site_fract_y
_atom_site_fract_z
Si Si1 0.250215 0.232230 0.747972
Si Si2 0.916061 0.594844 0.450631
Si Si3 0.202803 0.504253 0.075601
Si Si4 0.283842 0.562472 0.438063
Si Si5 0.946183 0.556055 0.863603
Si Si6 0.361454 0.819358 0.080342
Si Si7 0.402937 0.742525 0.685900
O O1 0.482486 0.206803 0.699754
O O2 0.086502 0.401561 0.840345
O O3 0.433195 0.231071 0.526766
O O4 0.022728 0.084021 0.869740
O O5 0.009155 0.474812 0.299868
O O6 0.072878 0.559394 0.465686
O O7 0.064068 0.763823 0.317129
O O8 0.575693 0.611325 0.653380
O O9 0.405375 0.660481 0.981794
O O10 0.414040 0.352954 0.961518
O O11 0.102275 0.578148 0.655391
O O12 0.499510 0.410300 0.321061
O O13 0.072803 0.705675 0.857847
O O14 0.657879 0.471097 0.991002
#
# Coordination Sequence:
#
# PCOD9114498 Si02
#       7
#     2   2   2   2   2   2   2
#     4   8  16  31  52  76 103 145 173 216 259 322
#     4   9  19  33  53  77 114 138 174 228 274 302
#     4   8  17  33  56  71 103 143 190 215 256 313
#     4  10  17  31  55  76 114 134 171 225 276 318
#     4   9  17  33  55  78 105 142 181 214 265 327
#     4   9  17  35  56  75 104 142 184 221 257 317
#     4   9  17  32  51  81 105 140 179 209 267 335
#
# _framework density 29.113036000000001
#
# number of rings (size 3 to 8) (size 9 to 14) (size 15 to 20)
#    0.857    2.286    2.857    0.000    0.000    2.286 
#    0.000    4.286    6.286    0.000    0.000    0.000 
#    0.000    0.000    0.000    0.000    0.000    0.000 
#
# Total GULP energy -78191.861142 kJ/mol
# GULP energy per Si atom -5585.132939 kJ/mol
# Density = 2.904677 g / cm^3
# Si number density = 29.113036 Si / 1000 Ang^3
#
#
#
# Elastic Constant Matrix: (Units=GPa)
#
#
# Indices 1 2 3 4 5 6 
#
# 1 188.2483 22.2299 37.9487 0.0000 -14.7508 0.0000
# 2 22.2299 46.4394 -6.7505 0.0000 11.2926 0.0000
# 3 37.9487 -6.7505 95.4022 0.0000 -6.5990 0.0000
# 4 0.0000 0.0000 0.0000 24.8904 0.0000 -24.8629
# 5 -14.7508 11.2926 -6.5990 0.0000 50.6238 0.0000
# 6 0.0000 0.0000 0.0000 -24.8629 0.0000 49.8314
#
#
#
# Elastic Compliance Matrix: (Units=1/GPa)
#
#
# Indices 1 2 3 4 5 6 
#
# 1 0.006542 -0.004129 -0.002724 0.000000 0.002472 0.000000
# 2 -0.004129 0.025528 0.002999 0.000000 -0.006507 0.000000
# 3 -0.002724 0.002999 0.011783 0.000000 0.000073 0.000000
# 4 0.000000 0.000000 0.000000 0.080094 0.000000 0.039962
# 5 0.002472 -0.006507 0.000073 0.000000 0.021935 0.000000
# 6 0.000000 0.000000 0.000000 0.039962 0.000000 0.040006
#
#
# Mechanical properties :
#
#
# Convention : Reuss Voigt Hill
#
# Bulk Modulus (GPa) = 27.66608 48.54956 38.10782
# Shear Modulus (GPa) = 24.31380 43.51325 33.91353
#
# Velocity S-wave (km/s) = 2.89303 3.87024 3.41675
# Velocity P-wave (km/s) = 4.54787 6.05674 5.35571
#
# Compressibility (1/GPa) = 0.03614535
#
# Stress axis : x y z
#
# Youngs Moduli (GPa) = 152.84730 39.17271 84.87110
#
# Poissons Ratio (x) = 0.16174 0.23115
# Poissons Ratio (y) = 0.63109 -0.25450
# Poissons Ratio (z) = 0.41629 -0.11746
#
# Static dielectric constant tensor:
#      x y z
#    x 2.215300 0.000000 0.056540 
#    y 0.000000 2.431180 0.000000 
#    z 0.056540 0.000000 2.332720 
# 
# From -- ./inp_files/7635.got.cif
#   From: 2010.05.17/outbox.cif.g08.bks.cpg/sg4_4_cif.got.tgz:7635.got - 2010.06.03 18:43:04.
