data_PCOD9114412
_publ_section_title
;
Structure prediction by ZEFSAII (Michael W. Deem and Ramdas Pophale) SiO2 
 PCOD9114412
Probable space group: P 2
;
_chemical_formula_sum "Si O2"
_cell_formula_units_Z 8
_cell_length_a 8.084189
_cell_length_b 5.465653
_cell_length_c 9.054614
_cell_angle_alpha 90.000000
_cell_angle_beta 52.370260
_cell_angle_gamma 90.000000
_cell_volume 316.853669
_symmetry_space_group_name_H-M "P 2"
_symmetry_group_IT_number 3
_symmetry_cell_setting 'monoclinic'
loop_
_space_group_symop_operation_xyz
x,y,z
-x,y,-z
loop_
_atom_site_type_symbol
_atom_site_label
_atom_site_fract_x
_atom_site_fract_y
_atom_site_fract_z
Si Si1 0.000000 0.077461 0.500000
Si Si2 0.270969 0.804977 0.131807
Si Si3 0.118965 0.452859 0.691920
Si Si4 0.500000 0.780019 0.500000
Si Si5 0.231611 0.084021 0.873103
O O1 0.917361 0.242200 0.409741
O O2 0.816439 0.912878 0.668152
O O3 0.092124 0.610920 0.184092
O O4 0.500000 0.688340 0.000000
O O5 0.291908 0.037882 0.008729
O O6 0.313832 0.616311 0.537779
O O7 0.191412 0.336664 0.808715
O O8 0.392724 0.941699 0.683558
O O9 0.000000 0.967864 0.000000
#
# Coordination Sequence:
#
# PCOD9114412 Si02
#       5
#     1   2   2   1   2
#     4  12  28  52  76 122 168 206 266 342 392 484
#     4  12  31  52  81 118 168 208 272 333 397 479
#     4  12  28  52  83 117 167 214 261 333 415 461
#     4  12  28  48  84 118 160 212 272 332 386 494
#     4  12  27  53  77 117 161 214 271 323 391 491
#
# _framework density 25.248249000000001
#
# number of rings (size 3 to 8) (size 9 to 14) (size 15 to 20)
#    0.000    0.000    5.000    1.500   17.500    1.000 
#    0.000    0.000    0.000    0.000    0.000    0.000 
#    0.000    0.000    0.000    0.000    0.000    0.000 
#
# Total GULP energy -44796.870867 kJ/mol
# GULP energy per Si atom -5599.608858 kJ/mol
# Density = 2.519078 g / cm^3
# Si number density = 25.248249 Si / 1000 Ang^3
#
#
#
# Elastic Constant Matrix: (Units=GPa)
#
#
# Indices 1 2 3 4 5 6 
#
# 1 116.8362 52.9841 57.4908 0.0000 -41.9825 0.0000
# 2 52.9841 114.2246 69.0192 0.0000 -13.8047 0.0000
# 3 57.4908 69.0192 213.1248 0.0000 -35.2331 0.0000
# 4 0.0000 0.0000 0.0000 55.5270 0.0000 28.5086
# 5 -41.9825 -13.8047 -35.2331 0.0000 65.0895 0.0000
# 6 0.0000 0.0000 0.0000 28.5086 0.0000 76.2644
#
#
#
# Elastic Compliance Matrix: (Units=1/GPa)
#
#
# Indices 1 2 3 4 5 6 
#
# 1 0.013962 -0.005028 -0.000906 0.000000 0.007448 0.000000
# 2 -0.005028 0.012707 -0.003129 0.000000 -0.002242 0.000000
# 3 -0.000906 -0.003129 0.006308 0.000000 0.002166 0.000000
# 4 0.000000 0.000000 0.000000 0.022287 0.000000 -0.008331
# 5 0.007448 -0.002242 0.002166 0.000000 0.020865 0.000000
# 6 0.000000 0.000000 0.000000 -0.008331 0.000000 0.016226
#
#
# Mechanical properties :
#
#
# Convention : Reuss Voigt Hill
#
# Bulk Modulus (GPa) = 67.34720 89.24154 78.29437
# Shear Modulus (GPa) = 43.31542 57.02227 50.16885
#
# Velocity S-wave (km/s) = 4.14645 4.75749 4.46244
# Velocity P-wave (km/s) = 7.04670 8.09942 7.59133
#
# Compressibility (1/GPa) = 0.01484843
#
# Stress axis : x y z
#
# Youngs Moduli (GPa) = 71.62473 78.69649 158.52492
#
# Poissons Ratio (x) = 0.39571 0.14370
# Poissons Ratio (y) = 0.36016 0.49608
# Poissons Ratio (z) = 0.06493 0.24627
#
# Static dielectric constant tensor:
#      x y z
#    x 2.036770 0.000000 0.035440 
#    y 0.000000 2.008120 0.000000 
#    z 0.035440 0.000000 1.938040 
# 
# From -- ./inp_files/4809.got.cif
#   From: 2010.05.17/outbox.cif.g08.bks.cpg/sg3_3_cif.got.tgz:4809.got - 2010.06.03 18:33:08.
