data_PCOD9114103
_publ_section_title
;
Structure prediction by ZEFSAII (Michael W. Deem and Ramdas Pophale) SiO2 
 PCOD9114103
Probable space group: P 2
;
_chemical_formula_sum "Si O2"
_cell_formula_units_Z 8
_cell_length_a 9.127250
_cell_length_b 5.212547
_cell_length_c 8.494628
_cell_angle_alpha 90.000000
_cell_angle_beta 52.080360
_cell_angle_gamma 90.000000
_cell_volume 318.817129
_symmetry_space_group_name_H-M "P 2"
_symmetry_group_IT_number 3
_symmetry_cell_setting 'monoclinic'
loop_
_space_group_symop_operation_xyz
x,y,z
-x,y,-z
loop_
_atom_site_type_symbol
_atom_site_label
_atom_site_fract_x
_atom_site_fract_y
_atom_site_fract_z
Si Si1 0.525381 0.099620 0.148986
Si Si2 0.311986 0.744521 0.686186
Si Si3 0.857921 0.120852 0.461228
Si Si4 0.894432 0.366485 0.943047
O O1 0.599202 0.940538 0.247666
O O2 0.330460 0.214747 0.332461
O O3 0.500000 0.952091 0.000000
O O4 0.695848 0.288038 0.004718
O O5 0.500000 0.601052 0.500000
O O6 0.206960 0.897390 0.616715
O O7 0.175501 0.574833 0.881960
O O8 0.000000 0.021616 0.500000
O O9 0.965611 0.345356 0.296173
O O10 0.000000 0.179401 0.000000
#
# Coordination Sequence:
#
# PCOD9114103 Si02
#       4
#     2   2   2   2
#     4  11  24  47  74 105 149 189 241 302 360 430
#     4  10  26  47  75 106 149 190 244 300 363 431
#     4  11  24  49  78 105 145 195 241 299 364 433
#     4  12  26  42  74 105 147 189 243 296 365 424
#
# _framework density 25.092756000000001
#
# number of rings (size 3 to 8) (size 9 to 14) (size 15 to 20)
#    0.000    1.000    5.000    0.000    7.000    1.000 
#    0.000    3.750    0.000    0.000    0.000    0.000 
#    0.000    0.000    0.000    0.000    0.000    0.000 
#
# Total GULP energy -44580.645607 kJ/mol
# GULP energy per Si atom -5572.580701 kJ/mol
# Density = 2.503564 g / cm^3
# Si number density = 25.092756 Si / 1000 Ang^3
#
#
#
# Elastic Constant Matrix: (Units=GPa)
#
#
# Indices 1 2 3 4 5 6 
#
# 1 204.3957 35.4739 92.2654 0.0000 11.7258 0.0000
# 2 35.4739 43.8693 51.5519 0.0000 -0.9646 0.0000
# 3 92.2654 51.5519 236.5981 0.0000 -49.4707 0.0000
# 4 0.0000 0.0000 0.0000 25.7021 0.0000 -4.5562
# 5 11.7258 -0.9646 -49.4707 0.0000 69.2115 0.0000
# 6 0.0000 0.0000 0.0000 -4.5562 0.0000 1.0812
#
#
#
# Elastic Compliance Matrix: (Units=1/GPa)
#
#
# Indices 1 2 3 4 5 6 
#
# 1 0.006724 -0.002212 -0.002804 0.000000 -0.003174 0.000000
# 2 -0.002212 0.032985 -0.007231 0.000000 -0.004334 0.000000
# 3 -0.002804 -0.007231 0.008199 0.000000 0.006235 0.000000
# 4 0.000000 0.000000 0.000000 0.153812 0.000000 0.648194
# 5 -0.003174 -0.004334 0.006235 0.000000 0.019382 0.000000
# 6 0.000000 0.000000 0.000000 0.648194 0.000000 3.656542
#
#
# Mechanical properties :
#
#
# Convention : Reuss Voigt Hill
#
# Bulk Modulus (GPa) = 42.70712 93.71618 68.21165
# Shear Modulus (GPa) = 1.27879 39.57042 20.42461
#
# Velocity S-wave (km/s) = 0.71465 3.97541 2.85610
# Velocity P-wave (km/s) = 4.21161 7.64858 6.17408
#
# Compressibility (1/GPa) = 0.02341530
#
# Stress axis : x y z
#
# Youngs Moduli (GPa) = 148.71633 30.31640 121.96452
#
# Poissons Ratio (x) = 0.06707 0.34198
# Poissons Ratio (y) = 0.32900 0.88188
# Poissons Ratio (z) = 0.41698 0.21921
#
# Static dielectric constant tensor:
#      x y z
#    x 2.263040 0.000000 -0.072750 
#    y 0.000000 2.140830 0.000000 
#    z -0.072750 0.000000 2.082450 
# 
# From -- ./inp_files/4789.got.cif
#   From: 2010.05.17/outbox.cif.g08.bks.cpg/sg3_3_cif.got.tgz:4789.got - 2010.06.03 18:33:08.
