data_PCOD9114230
_publ_section_title
;
Structure prediction by ZEFSAII (Michael W. Deem and Ramdas Pophale) SiO2 
 PCOD9114230
Probable space group: P 2
;
_chemical_formula_sum "Si O2"
_cell_formula_units_Z 14
_cell_length_a 10.645841
_cell_length_b 9.027126
_cell_length_c 8.139687
_cell_angle_alpha 90.000000
_cell_angle_beta 136.924163
_cell_angle_gamma 90.000000
_cell_volume 534.239669
_symmetry_space_group_name_H-M "P 2"
_symmetry_group_IT_number 3
_symmetry_cell_setting 'monoclinic'
loop_
_space_group_symop_operation_xyz
x,y,z
-x,y,-z
loop_
_atom_site_type_symbol
_atom_site_label
_atom_site_fract_x
_atom_site_fract_y
_atom_site_fract_z
Si Si1 0.541756 0.090720 0.229429
Si Si2 0.838149 0.525811 0.707157
Si Si3 0.281668 0.299943 0.136962
Si Si4 0.543922 0.794983 0.723168
Si Si5 0.558615 0.506271 0.228019
Si Si6 0.968130 0.837171 0.152418
Si Si7 0.043178 0.153800 0.355661
O O1 0.391720 0.145441 0.219833
O O2 0.740561 0.147887 0.470357
O O3 0.540034 0.913301 0.234693
O O4 0.500000 0.133516 0.000000
O O5 0.714282 0.405084 0.699907
O O6 0.770019 0.464333 0.462350
O O7 0.894058 0.698133 0.703166
O O8 0.000000 0.521903 0.000000
O O9 0.400249 0.389503 0.114245
O O10 0.077454 0.256023 0.881092
O O11 0.500000 0.850453 0.500000
O O12 0.457276 0.632958 0.650033
O O13 0.759973 0.778013 0.960847
O O14 0.500000 0.573487 0.000000
O O15 0.984730 0.980051 0.282864
O O16 0.000000 0.900272 0.000000
O O17 0.000000 0.198287 0.500000
#
# Coordination Sequence:
#
# PCOD9114230 Si02
#       7
#     2   2   2   2   2   2   2
#     4  12  25  50  78 116 162 209 279 340 410 490
#     4  11  26  49  79 112 161 214 272 336 402 492
#     4  12  27  49  74 116 159 214 261 334 411 493
#     4  12  24  47  78 114 159 211 275 341 402 487
#     4  12  27  48  76 113 161 216 274 335 409 483
#     4  11  23  47  73 115 154 206 276 335 396 480
#     4  12  26  48  80 118 164 212 268 342 415 487
#
# _framework density 26.205465
#
# number of rings (size 3 to 8) (size 9 to 14) (size 15 to 20)
#    0.000    0.286    2.857    7.286    2.000    2.857 
#    2.571    1.429    0.000    0.000    0.000    0.000 
#    0.000    0.000    0.000    0.000    0.000    0.000 
#
# Total GULP energy -78047.625435 kJ/mol
# GULP energy per Si atom -5574.830388 kJ/mol
# Density = 2.614582 g / cm^3
# Si number density = 26.205465 Si / 1000 Ang^3
#
#
#
# Elastic Constant Matrix: (Units=GPa)
#
#
# Indices 1 2 3 4 5 6 
#
# 1 47.8201 23.9398 35.1293 0.0000 0.6808 0.0000
# 2 23.9398 147.0280 36.4960 0.0000 -5.3660 0.0000
# 3 35.1293 36.4960 160.3571 0.0000 22.9139 0.0000
# 4 0.0000 0.0000 0.0000 44.7650 0.0000 19.5420
# 5 0.6808 -5.3660 22.9139 0.0000 48.0440 0.0000
# 6 0.0000 0.0000 0.0000 19.5420 0.0000 63.0404
#
#
#
# Elastic Compliance Matrix: (Units=1/GPa)
#
#
# Indices 1 2 3 4 5 6 
#
# 1 0.026267 -0.002877 -0.005366 0.000000 0.001866 0.000000
# 2 -0.002877 0.007656 -0.001331 0.000000 0.001531 0.000000
# 3 -0.005366 -0.001331 0.008290 0.000000 -0.004026 0.000000
# 4 0.000000 0.000000 0.000000 0.025835 0.000000 -0.008009
# 5 0.001866 0.001531 -0.004026 0.000000 0.022879 0.000000
# 6 0.000000 0.000000 0.000000 -0.008009 0.000000 0.018345
#
#
# Mechanical properties :
#
#
# Convention : Reuss Voigt Hill
#
# Bulk Modulus (GPa) = 43.35509 60.70394 52.02952
# Shear Modulus (GPa) = 36.73509 48.47923 42.60716
#
# Velocity S-wave (km/s) = 3.74814 4.30579 4.03660
# Velocity P-wave (km/s) = 5.94236 6.92349 6.45160
#
# Compressibility (1/GPa) = 0.02306534
#
# Stress axis : x y z
#
# Youngs Moduli (GPa) = 38.06990 130.61507 120.62835
#
# Poissons Ratio (x) = 0.37576 0.64732
# Poissons Ratio (y) = 0.10952 0.16055
# Poissons Ratio (z) = 0.20429 0.17384
#
# Static dielectric constant tensor:
#      x y z
#    x 1.961590 0.000000 0.044100 
#    y 0.000000 2.120760 0.000000 
#    z 0.044100 0.000000 2.021770 
# 
# From -- ./inp_files/7587.got.cif
#   From: 2010.05.17/outbox.cif.g08.bks.cpg/sg3_4_cif.got.tgz:7587.got - 2010.06.03 18:33:08.
