data_PCOD9114028
_publ_section_title
;
Structure prediction by ZEFSAII (Michael W. Deem and Ramdas Pophale) SiO2 
 PCOD9114028
Probable space group: P 2
;
_chemical_formula_sum "Si O2"
_cell_formula_units_Z 14
_cell_length_a 20.490159
_cell_length_b 4.933857
_cell_length_c 5.469991
_cell_angle_alpha 90.000000
_cell_angle_beta 73.380178
_cell_angle_gamma 90.000000
_cell_volume 529.889602
_symmetry_space_group_name_H-M "P 2"
_symmetry_group_IT_number 3
_symmetry_cell_setting 'monoclinic'
loop_
_space_group_symop_operation_xyz
x,y,z
-x,y,-z
loop_
_atom_site_type_symbol
_atom_site_label
_atom_site_fract_x
_atom_site_fract_y
_atom_site_fract_z
Si Si1 0.431274 0.352110 0.504017
Si Si2 0.711797 0.550482 0.190735
Si Si3 0.715008 0.040589 0.907432
Si Si4 0.142795 0.854030 0.465465
Si Si5 0.431630 0.019259 0.011485
Si Si6 0.854481 0.367783 0.256589
Si Si7 0.000000 0.386569 0.000000
Si Si8 0.000000 0.056849 0.500000
O O1 0.500000 0.515374 0.500000
O O2 0.358566 0.493369 0.598422
O O3 0.437817 0.237325 0.224540
O O4 0.431022 0.131951 0.731765
O O5 0.783180 0.441540 0.214170
O O6 0.717635 0.871620 0.156438
O O7 0.705333 0.360031 0.955103
O O8 0.786775 0.965623 0.715647
O O9 0.645686 0.918207 0.867218
O O10 0.149511 0.532935 0.486057
O O11 0.137272 0.047591 0.713335
O O12 0.071006 0.898765 0.410641
O O13 0.500000 0.848114 0.000000
O O14 0.923094 0.502159 0.070543
O O15 0.996172 0.227981 0.258102
#
# Coordination Sequence:
#
# PCOD9114028 Si02
#       8
#     2   2   2   2   2   2   1   1
#     4   9  19  39  66  96 131 172 219 272 330 392
#     4  11  23  41  65  97 134 176 223 274 332 394
#     4  11  23  41  65  97 134 176 223 274 332 394
#     4  11  24  42  67  99 135 177 223 274 332 394
#     4   9  19  39  66  96 131 172 219 272 330 392
#     4  11  24  42  67  99 135 177 223 274 332 394
#     4  10  24  46  72 102 136 176 222 274 332 394
#     4  10  24  46  72 102 136 176 222 274 332 394
#
# _framework density 26.420597000000001
#
# number of rings (size 3 to 8) (size 9 to 14) (size 15 to 20)
#    0.000    1.714    0.000    3.429    0.000   10.286 
#    0.000   12.857    0.000    0.000    0.000    0.000 
#    0.000    0.000    0.000    0.000    0.000    0.000 
#
# Total GULP energy -78090.866230 kJ/mol
# GULP energy per Si atom -5577.919016 kJ/mol
# Density = 2.636046 g / cm^3
# Si number density = 26.420597 Si / 1000 Ang^3
#
#
#
# Elastic Constant Matrix: (Units=GPa)
#
#
# Indices 1 2 3 4 5 6 
#
# 1 264.5558 28.8594 30.9533 0.0000 -34.2806 0.0000
# 2 28.8594 89.6207 29.4198 0.0000 2.6043 0.0000
# 3 30.9533 29.4198 112.1063 0.0000 -7.4794 0.0000
# 4 0.0000 0.0000 0.0000 9.4276 0.0000 96.6190
# 5 -34.2806 2.6043 -7.4794 0.0000 56.4315 0.0000
# 6 0.0000 0.0000 0.0000 96.6190 0.0000 -272.2425
#
#
#
# Elastic Compliance Matrix: (Units=1/GPa)
#
#
# Indices 1 2 3 4 5 6 
#
# 1 0.004334 -0.001242 -0.000697 0.000000 0.002597 0.000000
# 2 -0.001242 0.012622 -0.003086 0.000000 -0.001746 0.000000
# 3 -0.000697 -0.003086 0.009992 0.000000 0.001043 0.000000
# 4 0.000000 0.000000 0.000000 0.022874 0.000000 0.008118
# 5 0.002597 -0.001746 0.001043 0.000000 0.019517 0.000000
# 6 0.000000 0.000000 0.000000 0.008118 0.000000 -0.000792
#
#
# Mechanical properties :
#
#
# Convention : Reuss Voigt Hill
#
# Bulk Modulus (GPa) = 59.18200 71.63863 65.41032
# Shear Modulus (GPa) = 59.36169 -16.14000 21.61084
#
# Velocity S-wave (km/s) = 4.74518 -2.47429 2.86309
# Velocity P-wave (km/s) = 7.24368 4.36013 5.97836
#
# Compressibility (1/GPa) = 0.01689703
#
# Stress axis : x y z
#
# Youngs Moduli (GPa) = 230.75690 79.22774 100.07960
#
# Poissons Ratio (x) = 0.09841 0.06978
# Poissons Ratio (y) = 0.28662 0.30883
# Poissons Ratio (z) = 0.16090 0.24449
#
# Static dielectric constant tensor:
#      x y z
#    x 2.192960 0.000000 -0.043750 
#    y 0.000000 2.050880 0.000000 
#    z -0.043750 0.000000 2.152320 
# 
# From -- ./inp_files/3842.got.cif
#   From: 2010.05.17/outbox.cif.g08.bks.cpg/sg3_2_cif.got.tgz:3842.got - 2010.06.03 18:33:08.
