data_PCOD9114017
_publ_section_title
;
Structure prediction by ZEFSAII (Michael W. Deem and Ramdas Pophale) SiO2 
 PCOD9114017
Probable space group: P 2
;
_chemical_formula_sum "Si O2"
_cell_formula_units_Z 14
_cell_length_a 9.741767
_cell_length_b 5.934165
_cell_length_c 18.824129
_cell_angle_alpha 90.000000
_cell_angle_beta 141.858993
_cell_angle_gamma 90.000000
_cell_volume 672.076612
_symmetry_space_group_name_H-M "P 2"
_symmetry_group_IT_number 3
_symmetry_cell_setting 'monoclinic'
loop_
_space_group_symop_operation_xyz
x,y,z
-x,y,-z
loop_
_atom_site_type_symbol
_atom_site_label
_atom_site_fract_x
_atom_site_fract_y
_atom_site_fract_z
Si Si1 0.599759 0.232170 0.460276
Si Si2 0.722654 0.736491 0.541404
Si Si3 0.617511 0.677850 0.865086
Si Si4 0.500000 0.069904 0.000000
Si Si5 0.000000 0.036696 0.000000
Si Si6 0.798271 0.450531 0.081185
Si Si7 0.222872 0.732135 0.792615
Si Si8 0.766459 0.357351 0.798764
O O1 0.500000 0.229775 0.500000
O O2 0.718303 0.482525 0.504018
O O3 0.413285 0.241354 0.323593
O O4 0.709956 0.982346 0.496602
O O5 0.500000 0.734077 0.500000
O O6 0.960710 0.754783 0.676581
O O7 0.778843 0.888771 0.918827
O O8 0.356402 0.710056 0.773157
O O9 0.662112 0.511938 0.817479
O O10 0.704959 0.585125 0.976174
O O11 0.678995 0.211433 0.028865
O O12 0.652823 0.932634 0.116246
O O13 0.935847 0.192425 0.907996
O O14 0.737034 0.530075 0.135480
O O15 0.062872 0.483372 0.183605
#
# Coordination Sequence:
#
# PCOD9114017 Si02
#       8
#     2   2   2   1   1   2   2   2
#     4  10  24  46  71 107 133 187 257 306 353 413
#     4  10  24  45  71 104 137 187 249 306 357 416
#     4  12  24  44  62 107 150 184 229 288 380 440
#     4  12  24  36  70 108 142 186 238 298 376 418
#     4  12  24  42  72 104 146 192 236 282 380 448
#     4  12  22  42  64 105 146 183 234 290 366 439
#     4  12  26  42  72 104 148 184 238 308 361 437
#     4  12  26  42  75 100 144 191 238 301 359 448
#
# _framework density 20.830959
#
# number of rings (size 3 to 8) (size 9 to 14) (size 15 to 20)
#    0.000    0.571    5.714    2.571    8.000    0.000 
#    0.000    0.714    0.000    0.000    0.000    0.000 
#    0.000    0.000    0.000    0.000    0.000    0.000 
#
# Total GULP energy -77986.512963 kJ/mol
# GULP energy per Si atom -5570.465212 kJ/mol
# Density = 2.078355 g / cm^3
# Si number density = 20.830959 Si / 1000 Ang^3
#
#
#
# Elastic Constant Matrix: (Units=GPa)
#
#
# Indices 1 2 3 4 5 6 
#
# 1 108.6970 14.3319 26.1068 0.0000 20.5886 0.0000
# 2 14.3319 89.0176 31.5860 0.0000 2.5960 0.0000
# 3 26.1068 31.5860 128.6125 0.0000 11.3718 0.0000
# 4 0.0000 0.0000 0.0000 29.2633 0.0000 1.6360
# 5 20.5886 2.5960 11.3718 0.0000 30.7655 0.0000
# 6 0.0000 0.0000 0.0000 1.6360 0.0000 22.6330
#
#
#
# Elastic Compliance Matrix: (Units=1/GPa)
#
#
# Indices 1 2 3 4 5 6 
#
# 1 0.010944 -0.001083 -0.001361 0.000000 -0.006730 0.000000
# 2 -0.001083 0.012413 -0.002895 0.000000 0.000747 0.000000
# 3 -0.001361 -0.002895 0.008953 0.000000 -0.002154 0.000000
# 4 0.000000 0.000000 0.000000 0.034311 0.000000 -0.002480
# 5 -0.006730 0.000747 -0.002154 0.000000 0.037741 0.000000
# 6 0.000000 0.000000 0.000000 -0.002480 0.000000 0.044362
#
#
# Mechanical properties :
#
#
# Convention : Reuss Voigt Hill
#
# Bulk Modulus (GPa) = 46.22414 52.26407 49.24411
# Shear Modulus (GPa) = 30.00965 33.48585 31.74775
#
# Velocity S-wave (km/s) = 3.79968 4.01372 3.90816
# Velocity P-wave (km/s) = 6.44115 6.82818 6.63748
#
# Compressibility (1/GPa) = 0.02163372
#
# Stress axis : x y z
#
# Youngs Moduli (GPa) = 91.37318 80.55748 111.69540
#
# Poissons Ratio (x) = 0.08724 0.15196
# Poissons Ratio (y) = 0.09896 0.32335
# Poissons Ratio (z) = 0.12432 0.23320
#
# Static dielectric constant tensor:
#      x y z
#    x 1.983720 0.000000 0.018020 
#    y 0.000000 1.856610 0.000000 
#    z 0.018020 0.000000 1.712170 
# 
# From -- ./inp_files/8833.got.cif
#   From: 2010.05.17/outbox.cif.g08.bks.cpg/sg3_5_cif.got.tgz:8833.got - 2010.06.03 18:33:08.
