data_PCOD9114080
_publ_section_title
;
Structure prediction by ZEFSAII (Michael W. Deem and Ramdas Pophale) SiO2 
 PCOD9114080
Probable space group: P 2
;
_chemical_formula_sum "Si O2"
_cell_formula_units_Z 8
_cell_length_a 9.506021
_cell_length_b 5.112160
_cell_length_c 13.681378
_cell_angle_alpha 90.000000
_cell_angle_beta 27.207380
_cell_angle_gamma 90.000000
_cell_volume 303.984283
_symmetry_space_group_name_H-M "P 2"
_symmetry_group_IT_number 3
_symmetry_cell_setting 'monoclinic'
loop_
_space_group_symop_operation_xyz
x,y,z
-x,y,-z
loop_
_atom_site_type_symbol
_atom_site_label
_atom_site_fract_x
_atom_site_fract_y
_atom_site_fract_z
Si Si1 0.653890 0.472690 0.061470
Si Si2 0.612256 0.962309 0.674398
Si Si3 0.843465 0.081442 0.804438
Si Si4 0.220250 0.766307 0.735926
O O1 0.424642 0.705767 0.234960
O O2 0.498809 0.214164 0.198817
O O3 0.779076 0.383203 0.876409
O O4 0.026072 0.953047 0.782768
O O5 0.374926 0.910779 0.731135
O O6 0.937295 0.027813 0.422847
O O7 0.500000 0.971781 0.000000
O O8 0.974741 0.547986 0.913383
O O9 0.500000 0.650853 0.500000
#
# Coordination Sequence:
#
# PCOD9114080 Si02
#       4
#     2   2   2   2
#     4  12  26  49  76 116 147 202 252 316 382 456
#     4  11  28  48  81 112 150 196 264 317 381 449
#     4  11  28  53  74 113 161 203 247 317 387 465
#     4  10  25  47  79 109 148 196 253 321 384 441
#
# _framework density 26.317150000000002
#
# number of rings (size 3 to 8) (size 9 to 14) (size 15 to 20)
#    0.000    1.000    2.500    0.750   14.000    3.000 
#    4.500    0.000    0.000    0.000    0.000    0.000 
#    0.000    0.000    0.000    0.000    0.000    0.000 
#
# Total GULP energy -44760.825933 kJ/mol
# GULP energy per Si atom -5595.103242 kJ/mol
# Density = 2.625725 g / cm^3
# Si number density = 26.317150 Si / 1000 Ang^3
#
#
#
# Elastic Constant Matrix: (Units=GPa)
#
#
# Indices 1 2 3 4 5 6 
#
# 1 88.5271 41.7904 52.7746 0.0000 -6.4887 0.0000
# 2 41.7904 185.7300 101.4898 0.0000 25.1728 0.0000
# 3 52.7746 101.4898 260.3108 0.0000 8.6880 0.0000
# 4 0.0000 0.0000 0.0000 46.1653 0.0000 10.8397
# 5 -6.4887 25.1728 8.6880 0.0000 58.6438 0.0000
# 6 0.0000 0.0000 0.0000 10.8397 0.0000 37.0389
#
#
#
# Elastic Compliance Matrix: (Units=1/GPa)
#
#
# Indices 1 2 3 4 5 6 
#
# 1 0.013815 -0.002432 -0.001948 0.000000 0.002861 0.000000
# 2 -0.002432 0.007673 -0.002391 0.000000 -0.003208 0.000000
# 3 -0.001948 -0.002391 0.005167 0.000000 0.000045 0.000000
# 4 0.000000 0.000000 0.000000 0.023260 0.000000 -0.006807
# 5 0.002861 -0.003208 0.000045 0.000000 0.018739 0.000000
# 6 0.000000 0.000000 0.000000 -0.006807 0.000000 0.028991
#
#
# Mechanical properties :
#
#
# Convention : Reuss Voigt Hill
#
# Bulk Modulus (GPa) = 76.26225 102.96418 89.61321
# Shear Modulus (GPa) = 43.26820 50.93715 47.10267
#
# Velocity S-wave (km/s) = 4.05916 4.40422 4.23520
# Velocity P-wave (km/s) = 7.14213 8.06673 7.61847
#
# Compressibility (1/GPa) = 0.01311265
#
# Stress axis : x y z
#
# Youngs Moduli (GPa) = 72.38515 130.32863 193.52070
#
# Poissons Ratio (x) = 0.31691 0.37703
# Poissons Ratio (y) = 0.17601 0.46279
# Poissons Ratio (z) = 0.14102 0.31167
#
# Static dielectric constant tensor:
#      x y z
#    x 2.139570 0.000000 0.051410 
#    y 0.000000 2.069620 0.000000 
#    z 0.051410 0.000000 2.061170 
# 
# From -- ./inp_files/15103.got.cif
#   From: 2010.05.17/outbox.cif.g08.bks.cpg/sg3_8_cif.got.tgz:15103.got - 2010.06.03 18:33:08.
