data_PCOD9114627
_publ_section_title
;
Structure prediction by ZEFSAII (Michael W. Deem and Ramdas Pophale) SiO2 
 PCOD9114627
Probable space group: P 21
;
_chemical_formula_sum "Si O2"
_cell_formula_units_Z 16
_cell_length_a 18.564121
_cell_length_b 4.973267
_cell_length_c 11.102545
_cell_angle_alpha 90.000000
_cell_angle_beta 36.774720
_cell_angle_gamma 90.000000
_cell_volume 613.657971
_symmetry_space_group_name_H-M "P 21"
_symmetry_group_IT_number 4
_symmetry_cell_setting 'monoclinic'
loop_
_space_group_symop_operation_xyz
x,y,z
-x,1/2+y,-z
loop_
_atom_site_type_symbol
_atom_site_label
_atom_site_fract_x
_atom_site_fract_y
_atom_site_fract_z
Si Si1 0.170720 0.220940 0.903909
Si Si2 0.925394 0.010827 0.254535
Si Si3 0.767771 0.502604 0.505573
Si Si4 0.221367 0.702880 0.982561
Si Si5 0.746996 0.290322 0.801358
Si Si6 0.951408 0.920922 0.495847
Si Si7 0.508736 0.632298 0.906839
Si Si8 0.582250 0.902349 0.388449
O O1 0.136758 0.461775 0.045354
O O2 0.299434 0.346127 0.685062
O O3 0.220823 0.940559 0.887907
O O4 0.040770 0.124634 0.028105
O O5 0.820046 0.228422 0.383838
O O6 0.976873 0.981910 0.322281
O O7 0.854428 0.732193 0.339288
O O8 0.774448 0.454427 0.642432
O O9 0.627912 0.565472 0.672854
O O10 0.346903 0.539613 0.817805
O O11 0.203740 0.852307 0.132294
O O12 0.811014 0.001677 0.694754
O O13 0.604887 0.266001 0.003682
O O14 0.016041 0.130915 0.498711
O O15 0.462550 0.357964 0.030674
O O16 0.488293 0.132492 0.552116
#
# Coordination Sequence:
#
# PCOD9114627 Si02
#       8
#     2   2   2   2   2   2   2   2
#     4  10  20  32  51  74 105 136 165 207 251 312
#     4  11  20  33  46  68  97 133 172 207 245 286
#     4  10  21  33  49  67  96 136 177 220 240 287
#     4  10  20  31  51  77 102 135 169 207 253 303
#     4  10  21  34  49  70  99 137 179 212 250 282
#     4  11  20  29  42  62  96 130 167 196 230 281
#     4  10  20  35  50  66  91 134 182 220 258 281
#     4  10  18  35  52  74 104 137 161 205 259 312
#
# _framework density 26.073153000000001
#
# number of rings (size 3 to 8) (size 9 to 14) (size 15 to 20)
#    0.750    1.000    1.250    6.000    0.000    5.000 
#    0.000    0.000    0.000    0.000    0.000    0.000 
#    0.000    4.000    0.750    0.000    0.000    0.000 
#
# Total GULP energy -89220.171210 kJ/mol
# GULP energy per Si atom -5576.260701 kJ/mol
# Density = 2.601381 g / cm^3
# Si number density = 26.073153 Si / 1000 Ang^3
#
#
#
# Elastic Constant Matrix: (Units=GPa)
#
#
# Indices 1 2 3 4 5 6 
#
# 1 44.8715 16.7150 33.3667 0.0000 -2.8810 0.0000
# 2 16.7150 151.5540 28.6578 0.0000 -1.7198 0.0000
# 3 33.3667 28.6578 126.0978 0.0000 -17.0592 0.0000
# 4 0.0000 0.0000 0.0000 48.7043 0.0000 -12.7573
# 5 -2.8810 -1.7198 -17.0592 0.0000 25.6183 0.0000
# 6 0.0000 0.0000 0.0000 -12.7573 0.0000 15.3186
#
#
#
# Elastic Compliance Matrix: (Units=1/GPa)
#
#
# Indices 1 2 3 4 5 6 
#
# 1 0.028272 -0.001753 -0.007329 0.000000 -0.001818 0.000000
# 2 -0.001753 0.007013 -0.001201 0.000000 -0.000526 0.000000
# 3 -0.007329 -0.001201 0.011012 0.000000 0.006428 0.000000
# 4 0.000000 0.000000 0.000000 0.026260 0.000000 0.021870
# 5 -0.001818 -0.000526 0.006428 0.000000 0.043075 0.000000
# 6 0.000000 0.000000 0.000000 0.021870 0.000000 0.083493
#
#
# Mechanical properties :
#
#
# Convention : Reuss Voigt Hill
#
# Bulk Modulus (GPa) = 38.86305 53.33358 46.09831
# Shear Modulus (GPa) = 21.90408 34.18051 28.04229
#
# Velocity S-wave (km/s) = 2.90159 3.62463 3.28308
# Velocity P-wave (km/s) = 5.11502 6.16579 5.66482
#
# Compressibility (1/GPa) = 0.02573139
#
# Stress axis : x y z
#
# Youngs Moduli (GPa) = 35.37109 142.59660 90.80852
#
# Poissons Ratio (x) = 0.24996 0.66550
# Poissons Ratio (y) = 0.06200 0.10907
# Poissons Ratio (z) = 0.25922 0.17127
#
# Static dielectric constant tensor:
#      x y z
#    x 2.206410 0.000000 0.014840 
#    y 0.000000 2.011400 0.000000 
#    z 0.014840 0.000000 2.160650 
# 
# From -- ./inp_files/12855.got.cif
#   From: 2010.05.17/outbox.cif.g08.bks.cpg/sg4_7_cif.got.tgz:12855.got - 2010.06.03 18:43:04.
