data_PCOD9114099
_publ_section_title
;
Structure prediction by ZEFSAII (Michael W. Deem and Ramdas Pophale) SiO2 
 PCOD9114099
Probable space group: P 2
;
_chemical_formula_sum "Si O2"
_cell_formula_units_Z 11
_cell_length_a 8.793183
_cell_length_b 5.917944
_cell_length_c 9.328467
_cell_angle_alpha 90.000000
_cell_angle_beta 70.583169
_cell_angle_gamma 90.000000
_cell_volume 457.821853
_symmetry_space_group_name_H-M "P 2"
_symmetry_group_IT_number 3
_symmetry_cell_setting 'monoclinic'
loop_
_space_group_symop_operation_xyz
x,y,z
-x,y,-z
loop_
_atom_site_type_symbol
_atom_site_label
_atom_site_fract_x
_atom_site_fract_y
_atom_site_fract_z
Si Si1 0.500000 0.792171 0.500000
Si Si2 0.786910 0.153451 0.409132
Si Si3 0.608515 0.449541 0.235579
Si Si4 0.066260 0.811475 0.323605
Si Si5 0.137296 0.455812 0.065537
Si Si6 0.302796 0.171792 0.255443
O O1 0.512559 0.632442 0.357905
O O2 0.653130 0.955754 0.453296
O O3 0.727833 0.329538 0.311231
O O4 0.782430 0.256790 0.570174
O O5 0.952992 0.027860 0.326484
O O6 0.485510 0.258241 0.215249
O O7 0.719404 0.555957 0.077992
O O8 0.058489 0.631767 0.200437
O O9 0.000000 0.734225 0.500000
O O10 0.248152 0.909995 0.271640
O O11 0.228743 0.277645 0.136370
O O12 0.000000 0.369105 0.000000
#
# Coordination Sequence:
#
# PCOD9114099 Si02
#       6
#     1   2   2   2   2   2
#     4  12  22  42  80 106 146 186 260 282 370 438
#     4  11  23  47  76 108 142 195 242 302 359 438
#     4  12  25  46  76 109 150 188 237 308 365 435
#     4  10  26  46  74 103 143 194 245 295 357 437
#     4  12  28  47  68 107 144 195 242 300 362 426
#     4  11  24  47  70 104 146 190 239 300 360 422
#
# _framework density 24.026812
#
# number of rings (size 3 to 8) (size 9 to 14) (size 15 to 20)
#    0.000    0.727    3.636    2.727    5.091    7.273 
#    3.273    0.000    0.000    0.000    0.000    0.000 
#    0.000    0.000    0.000    0.000    0.000    0.000 
#
# Total GULP energy -61546.051358 kJ/mol
# GULP energy per Si atom -5595.095578 kJ/mol
# Density = 2.397213 g / cm^3
# Si number density = 24.026812 Si / 1000 Ang^3
#
#
#
# Elastic Constant Matrix: (Units=GPa)
#
#
# Indices 1 2 3 4 5 6 
#
# 1 105.2416 20.9866 44.6292 0.0000 13.3297 0.0000
# 2 20.9866 47.5562 45.3231 0.0000 2.6102 0.0000
# 3 44.6292 45.3231 153.6212 0.0000 9.6789 0.0000
# 4 0.0000 0.0000 0.0000 -5.6223 0.0000 26.3752
# 5 13.3297 2.6102 9.6789 0.0000 50.8089 0.0000
# 6 0.0000 0.0000 0.0000 26.3752 0.0000 27.0999
#
#
#
# Elastic Compliance Matrix: (Units=1/GPa)
#
#
# Indices 1 2 3 4 5 6 
#
# 1 0.011330 -0.002609 -0.002372 0.000000 -0.002387 0.000000
# 2 -0.002609 0.029855 -0.008094 0.000000 0.000693 0.000000
# 3 -0.002372 -0.008094 0.009637 0.000000 -0.000798 0.000000
# 4 0.000000 0.000000 0.000000 -0.031957 0.000000 0.031102
# 5 -0.002387 0.000693 -0.000798 0.000000 0.020424 0.000000
# 6 0.000000 0.000000 0.000000 0.031102 0.000000 0.006630
#
#
# Mechanical properties :
#
#
# Convention : Reuss Voigt Hill
#
# Bulk Modulus (GPa) = 40.52977 58.69964 49.61471
# Shear Modulus (GPa) = 62.27311 27.48932 44.88122
#
# Velocity S-wave (km/s) = 5.09651 3.38614 4.32668
# Velocity P-wave (km/s) = 7.17898 6.30649 6.75683
#
# Compressibility (1/GPa) = 0.02467322
#
# Stress axis : x y z
#
# Youngs Moduli (GPa) = 88.26013 33.49550 103.77031
#
# Poissons Ratio (x) = 0.08738 0.24609
# Poissons Ratio (y) = 0.23026 0.83990
# Poissons Ratio (z) = 0.20931 0.27111
#
# Static dielectric constant tensor:
#      x y z
#    x 1.988420 0.000000 -0.033240 
#    y 0.000000 1.913410 0.000000 
#    z -0.033240 0.000000 1.937260 
# 
# From -- ./inp_files/4840.got.cif
#   From: 2010.05.17/outbox.cif.g08.bks.cpg/sg3_3_cif.got.tgz:4840.got - 2010.06.03 18:33:08.
