data_PCOD9114171
_publ_section_title
;
Structure prediction by ZEFSAII (Michael W. Deem and Ramdas Pophale) SiO2 
 PCOD9114171
Probable space group: P 2
;
_chemical_formula_sum "Si O2"
_cell_formula_units_Z 10
_cell_length_a 7.388770
_cell_length_b 11.540725
_cell_length_c 6.701171
_cell_angle_alpha 90.000000
_cell_angle_beta 40.239282
_cell_angle_gamma 90.000000
_cell_volume 369.127003
_symmetry_space_group_name_H-M "P 2"
_symmetry_group_IT_number 3
_symmetry_cell_setting 'monoclinic'
loop_
_space_group_symop_operation_xyz
x,y,z
-x,y,-z
loop_
_atom_site_type_symbol
_atom_site_label
_atom_site_fract_x
_atom_site_fract_y
_atom_site_fract_z
Si Si1 0.794451 0.026810 0.854874
Si Si2 0.697253 0.439398 0.664666
Si Si3 0.588121 0.797564 0.160874
Si Si4 0.086274 0.660428 0.663812
Si Si5 0.281502 0.246911 0.841206
O O1 0.000000 0.995411 0.500000
O O2 0.738360 0.920979 0.053267
O O3 0.500000 0.052848 0.000000
O O4 0.859959 0.146248 0.908612
O O5 0.773272 0.535366 0.435465
O O6 0.495913 0.336151 0.764027
O O7 0.000000 0.400572 0.500000
O O8 0.500000 0.497708 0.000000
O O9 0.801583 0.692050 0.012129
O O10 0.500000 0.799637 0.000000
O O11 0.301286 0.766453 0.509620
O O12 0.000000 0.659797 0.500000
O O13 0.500000 0.190526 0.500000
O O14 0.000000 0.310295 0.000000
#
# Coordination Sequence:
#
# PCOD9114171 Si02
#       5
#     2   2   2   2   2
#     4  11  22  39  65  93 122 161 213 261 304 371
#     4  11  22  39  65  93 122 161 213 261 304 371
#     4   9  16  29  54  91 125 150 190 256 318 361
#     4   9  16  29  54  91 125 150 190 256 318 361
#     4  12  27  44  61  88 132 174 210 260 321 374
#
# _framework density 27.090948000000001
#
# number of rings (size 3 to 8) (size 9 to 14) (size 15 to 20)
#    0.000    1.600    0.000    9.000    0.000    1.600 
#    0.000    0.000    0.000    4.800    0.000    0.000 
#    0.000    0.000    0.000    0.000    0.000    0.000 
#
# Total GULP energy -55972.014163 kJ/mol
# GULP energy per Si atom -5597.201416 kJ/mol
# Density = 2.702929 g / cm^3
# Si number density = 27.090948 Si / 1000 Ang^3
#
#
#
# Elastic Constant Matrix: (Units=GPa)
#
#
# Indices 1 2 3 4 5 6 
#
# 1 87.8054 35.3472 28.4717 0.0000 -34.8789 0.0000
# 2 35.3472 175.2721 51.2149 0.0000 -10.4101 0.0000
# 3 28.4717 51.2149 169.8545 0.0000 -18.2863 0.0000
# 4 0.0000 0.0000 0.0000 47.6401 0.0000 0.0840
# 5 -34.8789 -10.4101 -18.2863 0.0000 56.3065 0.0000
# 6 0.0000 0.0000 0.0000 0.0840 0.0000 25.4477
#
#
#
# Elastic Compliance Matrix: (Units=1/GPa)
#
#
# Indices 1 2 3 4 5 6 
#
# 1 0.016441 -0.002465 -0.001000 0.000000 0.009404 0.000000
# 2 -0.002465 0.006644 -0.001681 0.000000 -0.000844 0.000000
# 3 -0.001000 -0.001681 0.006696 0.000000 0.001244 0.000000
# 4 0.000000 0.000000 0.000000 0.020991 0.000000 -0.000069
# 5 0.009404 -0.000844 0.001244 0.000000 0.023833 0.000000
# 6 0.000000 0.000000 0.000000 -0.000069 0.000000 0.039296
#
#
# Mechanical properties :
#
#
# Convention : Reuss Voigt Hill
#
# Bulk Modulus (GPa) = 51.31328 73.66661 62.48995
# Shear Modulus (GPa) = 38.25890 47.07208 42.66549
#
# Velocity S-wave (km/s) = 3.76205 4.17292 3.97280
# Velocity P-wave (km/s) = 6.15248 7.10416 6.64538
#
# Compressibility (1/GPa) = 0.01948813
#
# Stress axis : x y z
#
# Youngs Moduli (GPa) = 60.82411 150.52294 149.34643
#
# Poissons Ratio (x) = 0.37101 0.14939
# Poissons Ratio (y) = 0.14992 0.25104
# Poissons Ratio (z) = 0.06084 0.25302
#
# Static dielectric constant tensor:
#      x y z
#    x 2.357370 0.000000 0.118160 
#    y 0.000000 2.136750 0.000000 
#    z 0.118160 0.000000 2.046270 
# 
# From -- ./inp_files/5697.got.cif
#   From: 2010.05.17/outbox.cif.g08.bks.cpg/sg3_3_cif.got.tgz:5697.got - 2010.06.03 18:33:08.
