data_PCOD9114356
_publ_section_title
;
Structure prediction by ZEFSAII (Michael W. Deem and Ramdas Pophale) SiO2 
 PCOD9114356
Probable space group: P 2
;
_chemical_formula_sum "Si O2"
_cell_formula_units_Z 11
_cell_length_a 8.054620
_cell_length_b 5.215784
_cell_length_c 18.765058
_cell_angle_alpha 90.000000
_cell_angle_beta 142.814397
_cell_angle_gamma 90.000000
_cell_volume 476.472966
_symmetry_space_group_name_H-M "P 2"
_symmetry_group_IT_number 3
_symmetry_cell_setting 'monoclinic'
loop_
_space_group_symop_operation_xyz
x,y,z
-x,y,-z
loop_
_atom_site_type_symbol
_atom_site_label
_atom_site_fract_x
_atom_site_fract_y
_atom_site_fract_z
Si Si1 0.673029 0.403090 0.230826
Si Si2 0.026905 0.910213 0.352790
Si Si3 0.467369 0.688944 0.413381
Si Si4 0.307321 0.157265 0.996546
Si Si5 0.254832 0.424789 0.203061
Si Si6 0.000000 0.807335 0.000000
O O1 0.487489 0.378820 0.096381
O O2 0.489591 0.305205 0.234293
O O3 0.799523 0.686036 0.282280
O O4 0.910296 0.192174 0.308478
O O5 0.200477 0.857585 0.340150
O O6 0.256755 0.858596 0.492426
O O7 0.500000 0.535004 0.500000
O O8 0.403212 0.530678 0.322812
O O9 0.500000 0.048182 0.000000
O O10 0.013972 0.261594 0.869636
O O11 0.220015 0.973107 0.031375
O O12 0.142963 0.639454 0.109806
#
# Coordination Sequence:
#
# PCOD9114356 Si02
#       6
#     2   2   2   2   2   1
#     4  12  22  45  71 111 146 193 253 311 383 455
#     4   9  24  45  73 104 144 191 258 306 373 456
#     4   8  23  49  73 106 145 203 263 311 380 464
#     4  12  27  43  72 107 150 205 246 321 382 463
#     4  12  24  47  73 103 161 192 255 329 380 462
#     4  12  24  48  64 118 142 202 252 316 390 458
#
# _framework density 23.086300999999999
#
# number of rings (size 3 to 8) (size 9 to 14) (size 15 to 20)
#    1.091    0.000    3.636    2.182    2.545    4.364 
#    3.273    3.636    0.000    0.000    0.000    0.000 
#    0.000    0.000    0.000    0.000    0.000    0.000 
#
# Total GULP energy -61428.564707 kJ/mol
# GULP energy per Si atom -5584.414973 kJ/mol
# Density = 2.303376 g / cm^3
# Si number density = 23.086301 Si / 1000 Ang^3
#
#
#
# Elastic Constant Matrix: (Units=GPa)
#
#
# Indices 1 2 3 4 5 6 
#
# 1 117.1115 11.0986 20.4819 0.0000 8.4783 0.0000
# 2 11.0986 49.4646 5.3290 0.0000 0.2421 0.0000
# 3 20.4819 5.3290 82.2671 0.0000 -8.8587 0.0000
# 4 0.0000 0.0000 0.0000 -7.8408 0.0000 45.9968
# 5 8.4783 0.2421 -8.8587 0.0000 51.0018 0.0000
# 6 0.0000 0.0000 0.0000 45.9968 0.0000 -43.5152
#
#
#
# Elastic Compliance Matrix: (Units=1/GPa)
#
#
# Indices 1 2 3 4 5 6 
#
# 1 0.009272 -0.001812 -0.002401 0.000000 -0.001950 0.000000
# 2 -0.001812 0.020718 -0.000886 0.000000 0.000049 0.000000
# 3 -0.002401 -0.000886 0.013099 0.000000 0.002679 0.000000
# 4 0.000000 0.000000 0.000000 0.024522 0.000000 0.025921
# 5 -0.001950 0.000049 0.002679 0.000000 0.020396 0.000000
# 6 0.000000 0.000000 0.000000 0.025921 0.000000 0.004419
#
#
# Mechanical properties :
#
#
# Convention : Reuss Voigt Hill
#
# Bulk Modulus (GPa) = 30.40286 35.85136 33.12711
# Shear Modulus (GPa) = 44.01899 14.05808 29.03853
#
# Velocity S-wave (km/s) = 4.37133 2.47034 3.55043
# Velocity P-wave (km/s) = 6.21899 4.86824 5.58460
#
# Compressibility (1/GPa) = 0.03289165
#
# Stress axis : x y z
#
# Youngs Moduli (GPa) = 107.85563 48.26668 76.34130
#
# Poissons Ratio (x) = 0.08746 0.18329
# Poissons Ratio (y) = 0.19545 0.06761
# Poissons Ratio (z) = 0.25895 0.04275
#
# Static dielectric constant tensor:
#      x y z
#    x 2.025860 0.000000 0.125660 
#    y 0.000000 1.901040 0.000000 
#    z 0.125660 0.000000 2.103770 
# 
# From -- ./inp_files/15697.got.cif
#   From: 2010.05.17/outbox.cif.g08.bks.cpg/sg3_8_cif.got.tgz:15697.got - 2010.06.03 18:33:08.
