data_PCOD9114757
_publ_section_title
;
Structure prediction by ZEFSAII (Michael W. Deem and Ramdas Pophale) SiO2 
 PCOD9114757
Probable space group: P 21
;
_chemical_formula_sum "Si O2"
_cell_formula_units_Z 16
_cell_length_a 10.265463
_cell_length_b 6.971434
_cell_length_c 21.143163
_cell_angle_alpha 90.000000
_cell_angle_beta 25.946737
_cell_angle_gamma 90.000000
_cell_volume 662.039408
_symmetry_space_group_name_H-M "P 21"
_symmetry_group_IT_number 4
_symmetry_cell_setting 'monoclinic'
loop_
_space_group_symop_operation_xyz
x,y,z
-x,1/2+y,-z
loop_
_atom_site_type_symbol
_atom_site_label
_atom_site_fract_x
_atom_site_fract_y
_atom_site_fract_z
Si Si1 0.628833 0.565940 0.540210
Si Si2 0.781609 0.199454 0.683748
Si Si3 0.652461 0.343973 0.106787
Si Si4 0.766577 0.238854 0.388307
Si Si5 0.218304 0.505937 0.029621
Si Si6 0.307332 0.457571 0.849488
Si Si7 0.725263 0.708422 0.304232
Si Si8 0.797636 0.401106 0.813069
O O1 0.796573 0.442636 0.410408
O O2 0.428399 0.719146 0.590326
O O3 0.405403 0.407390 0.667060
O O4 0.878243 0.641471 0.478270
O O5 0.584357 0.010257 0.782196
O O6 0.598019 0.326326 0.713694
O O7 0.817847 0.318950 0.733140
O O8 0.623046 0.183123 0.174907
O O9 0.632266 0.211609 0.053381
O O10 0.990939 0.419687 0.956070
O O11 0.554538 0.136881 0.533323
O O12 0.052503 0.110521 0.252411
O O13 0.880879 0.550715 0.194007
O O14 0.226822 0.401507 0.958581
O O15 0.443292 0.408656 0.980341
O O16 0.995013 0.776312 0.232069
#
# Coordination Sequence:
#
# PCOD9114757 Si02
#       8
#     2   2   2   2   2   2   2   2
#     4   9  17  29  54  73 109 155 192 222 260 337
#     4  11  17  32  56  85 105 142 198 224 267 340
#     4  10  19  34  57  84 105 139 182 249 285 330
#     4   9  17  32  50  73 113 153 193 221 256 322
#     4   9  20  34  52  84 114 144 183 235 285 337
#     4   9  20  33  56  84 109 135 189 238 291 334
#     4   9  19  33  50  79 125 151 177 235 277 324
#     4  10  19  33  51  82 114 155 196 214 269 348
#
# _framework density 24.167746000000001
#
# number of rings (size 3 to 8) (size 9 to 14) (size 15 to 20)
#    1.500    1.000    2.500    0.750    0.000    1.000 
#    2.250    0.000    8.250    0.000   26.000    0.000 
#    0.000    0.000    0.000    0.000    0.000    0.000 
#
# Total GULP energy -89109.665940 kJ/mol
# GULP energy per Si atom -5569.354121 kJ/mol
# Density = 2.411274 g / cm^3
# Si number density = 24.167746 Si / 1000 Ang^3
#
#
#
# Elastic Constant Matrix: (Units=GPa)
#
#
# Indices 1 2 3 4 5 6 
#
# 1 50.2165 13.8027 20.1392 0.0000 -30.9001 0.0000
# 2 13.8027 78.1061 15.0899 0.0000 -13.9836 0.0000
# 3 20.1392 15.0899 90.0453 0.0000 -26.4220 0.0000
# 4 0.0000 0.0000 0.0000 28.8330 0.0000 -11.5115
# 5 -30.9001 -13.9836 -26.4220 0.0000 37.6521 0.0000
# 6 0.0000 0.0000 0.0000 -11.5115 0.0000 18.3209
#
#
#
# Elastic Compliance Matrix: (Units=1/GPa)
#
#
# Indices 1 2 3 4 5 6 
#
# 1 0.040417 -0.001360 0.000974 0.000000 0.033347 0.000000
# 2 -0.001360 0.013834 -0.001050 0.000000 0.003285 0.000000
# 3 0.000974 -0.001050 0.014084 0.000000 0.010292 0.000000
# 4 0.000000 0.000000 0.000000 0.046296 0.000000 0.029089
# 5 0.033347 0.003285 0.010292 0.000000 0.062368 0.000000
# 6 0.000000 0.000000 0.000000 0.029089 0.000000 0.072860
#
#
# Mechanical properties :
#
#
# Convention : Reuss Voigt Hill
#
# Bulk Modulus (GPa) = 15.27620 35.15904 25.21762
# Shear Modulus (GPa) = 18.21134 28.25028 23.23081
#
# Velocity S-wave (km/s) = 2.74804 3.42266 3.10374
# Velocity P-wave (km/s) = 4.05014 5.49536 4.82714
#
# Compressibility (1/GPa) = 0.06546133
#
# Stress axis : x y z
#
# Youngs Moduli (GPa) = 24.74198 72.28331 71.00350
#
# Poissons Ratio (x) = 0.09832 -0.06912
# Poissons Ratio (y) = 0.03365 0.07458
# Poissons Ratio (z) = -0.02409 0.07593
#
# Static dielectric constant tensor:
#      x y z
#    x 1.988820 0.000000 0.056200 
#    y 0.000000 1.951410 0.000000 
#    z 0.056200 0.000000 1.967910 
# 
# From -- ./inp_files/16376.got.cif
#   From: 2010.05.17/outbox.cif.g08.bks.cpg/sg4_9_cif.got.tgz:16376.got - 2010.06.03 18:43:04.
