data_PCOD9114329
_publ_section_title
;
Structure prediction by ZEFSAII (Michael W. Deem and Ramdas Pophale) SiO2 
 PCOD9114329
Probable space group: P 2
;
_chemical_formula_sum "Si O2"
_cell_formula_units_Z 14
_cell_length_a 9.567309
_cell_length_b 4.926134
_cell_length_c 18.394889
_cell_angle_alpha 90.000000
_cell_angle_beta 143.457186
_cell_angle_gamma 90.000000
_cell_volume 516.201210
_symmetry_space_group_name_H-M "P 2"
_symmetry_group_IT_number 3
_symmetry_cell_setting 'monoclinic'
loop_
_space_group_symop_operation_xyz
x,y,z
-x,y,-z
loop_
_atom_site_type_symbol
_atom_site_label
_atom_site_fract_x
_atom_site_fract_y
_atom_site_fract_z
Si Si1 0.173545 0.966480 0.928985
Si Si2 0.150883 0.540701 0.671791
Si Si3 0.413618 0.430498 0.034013
Si Si4 0.518724 0.561110 0.716248
Si Si5 0.730299 0.072993 0.881061
Si Si6 0.166655 0.043819 0.428631
Si Si7 0.667229 0.913104 0.663938
O O1 0.208289 0.657268 0.967635
O O2 0.896297 0.996071 0.804665
O O3 0.281251 0.193298 0.920793
O O4 0.320901 0.139034 0.054389
O O5 0.369547 0.504274 0.818445
O O6 0.261925 0.482640 0.638251
O O7 0.020326 0.829271 0.618439
O O8 0.958643 0.329049 0.618972
O O9 0.500000 0.618644 0.000000
O O10 0.568555 0.845088 0.779639
O O11 0.588423 0.620846 0.662504
O O12 0.694826 0.347853 0.824264
O O13 0.000000 0.989501 0.000000
O O14 0.420557 0.063908 0.572948
O O15 0.241885 0.938273 0.380004
#
# Coordination Sequence:
#
# PCOD9114329 Si02
#       7
#     2   2   2   2   2   2   2
#     4  12  23  42  70 106 148 189 251 312 387 454
#     4  12  24  49  74 107 153 200 248 325 380 461
#     4  12  24  40  70 108 150 198 245 309 394 468
#     4  12  26  44  76 109 150 192 256 308 394 451
#     4  12  23  42  68 108 151 191 235 317 385 462
#     4  11  28  51  77 105 155 201 266 313 377 450
#     4  11  28  50  77 112 147 209 259 320 373 465
#
# _framework density 27.121206000000001
#
# number of rings (size 3 to 8) (size 9 to 14) (size 15 to 20)
#    0.000    0.286    4.286    4.286    2.000    6.286 
#    0.000    1.429    0.000    0.000    0.000    0.000 
#    0.000    0.000    0.000    0.000    0.000    0.000 
#
# Total GULP energy -78088.709420 kJ/mol
# GULP energy per Si atom -5577.764959 kJ/mol
# Density = 2.705948 g / cm^3
# Si number density = 27.121206 Si / 1000 Ang^3
#
#
#
# Elastic Constant Matrix: (Units=GPa)
#
#
# Indices 1 2 3 4 5 6 
#
# 1 46.1641 -30.1586 16.1412 0.0000 3.4545 0.0000
# 2 -30.1586 130.1510 36.9226 0.0000 2.1713 0.0000
# 3 16.1412 36.9226 168.5887 0.0000 35.0660 0.0000
# 4 0.0000 0.0000 0.0000 149.2672 0.0000 -322.6244
# 5 3.4545 2.1713 35.0660 0.0000 48.1997 0.0000
# 6 0.0000 0.0000 0.0000 -322.6244 0.0000 1040.2788
#
#
#
# Elastic Compliance Matrix: (Units=1/GPa)
#
#
# Indices 1 2 3 4 5 6 
#
# 1 0.028354 0.007871 -0.004645 0.000000 0.000993 0.000000
# 2 0.007871 0.010428 -0.003326 0.000000 0.001386 0.000000
# 3 -0.004645 -0.003326 0.008253 0.000000 -0.005522 0.000000
# 4 0.000000 0.000000 0.000000 0.020321 0.000000 0.006302
# 5 0.000993 0.001386 -0.005522 0.000000 0.024630 0.000000
# 6 0.000000 0.000000 0.000000 0.006302 0.000000 0.002916
#
#
# Mechanical properties :
#
#
# Convention : Reuss Voigt Hill
#
# Bulk Modulus (GPa) = 21.35091 43.41269 32.38180
# Shear Modulus (GPa) = 45.16201 269.01571 157.08886
#
# Velocity S-wave (km/s) = 4.08510 9.97023 7.61884
# Velocity P-wave (km/s) = 5.49001 12.18944 9.45311
#
# Compressibility (1/GPa) = 0.04683640
#
# Stress axis : x y z
#
# Youngs Moduli (GPa) = 35.26828 95.89864 121.16605
#
# Poissons Ratio (x) = -0.75486 0.56283
# Poissons Ratio (y) = -0.27761 0.40295
# Poissons Ratio (z) = 0.16382 0.31892
#
# Static dielectric constant tensor:
#      x y z
#    x -10.265420 0.000000 -5.201890 
#    y 0.000000 2.174240 0.000000 
#    z -5.201890 0.000000 0.108310 
# 
# From -- ./inp_files/15680.got.cif
#   From: 2010.05.17/outbox.cif.g08.bks.cpg/sg3_8_cif.got.tgz:15680.got - 2010.06.03 18:33:08.
