data_PCOD9114651
_publ_section_title
;
Structure prediction by ZEFSAII (Michael W. Deem and Ramdas Pophale) SiO2 
 PCOD9114651
Probable space group: P 21
;
_chemical_formula_sum "Si O2"
_cell_formula_units_Z 16
_cell_length_a 8.634640
_cell_length_b 11.447902
_cell_length_c 8.728340
_cell_angle_alpha 90.000000
_cell_angle_beta 51.538776
_cell_angle_gamma 90.000000
_cell_volume 675.584681
_symmetry_space_group_name_H-M "P 21"
_symmetry_group_IT_number 4
_symmetry_cell_setting 'monoclinic'
loop_
_space_group_symop_operation_xyz
x,y,z
-x,1/2+y,-z
loop_
_atom_site_type_symbol
_atom_site_label
_atom_site_fract_x
_atom_site_fract_y
_atom_site_fract_z
Si Si1 0.636388 0.052400 0.171424
Si Si2 0.953060 0.712483 0.261972
Si Si3 0.214829 0.458367 0.657656
Si Si4 0.058107 0.558675 0.473424
Si Si5 0.788263 0.285299 0.178284
Si Si6 0.327801 0.145406 0.118093
Si Si7 0.127044 0.374634 0.188287
Si Si8 0.197206 0.034856 0.899580
O O1 0.668507 0.166419 0.262743
O O2 0.493650 0.100977 0.129929
O O3 0.609279 0.960482 0.326444
O O4 0.788249 0.977426 0.971190
O O5 0.820189 0.825531 0.374286
O O6 0.057838 0.660218 0.346825
O O7 0.843574 0.615260 0.224067
O O8 0.117230 0.759677 0.045738
O O9 0.223351 0.537113 0.500434
O O10 0.016142 0.502391 0.881429
O O11 0.865200 0.588127 0.688056
O O12 0.038002 0.439630 0.389114
O O13 0.703511 0.414261 0.214102
O O14 0.963697 0.300645 0.194668
O O15 0.297300 0.284377 0.130870
O O16 0.329452 0.099745 0.943665
#
# Coordination Sequence:
#
# PCOD9114651 Si02
#       8
#     2   2   2   2   2   2   2   2
#     4  12  23  41  65  96 138 172 220 277 336 380
#     4  11  17  37  67  91 114 167 227 266 301 392
#     4  10  20  35  61  92 127 169 211 268 318 397
#     4  11  22  41  65  97 128 170 223 263 335 399
#     4  11  18  36  69  91 117 168 236 257 306 395
#     4  11  26  40  61 102 142 161 214 294 335 380
#     4  12  22  44  71  94 128 184 228 268 319 412
#     4  10  18  36  61  91 120 169 221 259 310 393
#
# _framework density 23.68319
#
# number of rings (size 3 to 8) (size 9 to 14) (size 15 to 20)
#    0.000    1.000    7.500    1.500    1.750    0.000 
#    0.000    3.750    0.000    0.000    0.000    0.000 
#    0.000    0.000    0.000    0.000    0.000    0.000 
#
# Total GULP energy -89163.641579 kJ/mol
# GULP energy per Si atom -5572.727599 kJ/mol
# Density = 2.362929 g / cm^3
# Si number density = 23.683190 Si / 1000 Ang^3
#
#
#
# Elastic Constant Matrix: (Units=GPa)
#
#
# Indices 1 2 3 4 5 6 
#
# 1 93.3755 33.8410 18.7025 0.0000 47.7235 0.0000
# 2 33.8410 127.0701 18.6405 0.0000 19.1173 0.0000
# 3 18.7025 18.6405 61.6732 0.0000 29.6072 0.0000
# 4 0.0000 0.0000 0.0000 32.0857 0.0000 20.0485
# 5 47.7235 19.1173 29.6072 0.0000 37.3919 0.0000
# 6 0.0000 0.0000 0.0000 20.0485 0.0000 35.5333
#
#
#
# Elastic Compliance Matrix: (Units=1/GPa)
#
#
# Indices 1 2 3 4 5 6 
#
# 1 0.045731 -0.004375 0.023231 0.000000 -0.074524 0.000000
# 2 -0.004375 0.008967 -0.003006 0.000000 0.003379 0.000000
# 3 0.023231 -0.003006 0.038030 0.000000 -0.058225 0.000000
# 4 0.000000 0.000000 0.000000 0.048137 0.000000 -0.027160
# 5 -0.074524 0.003379 -0.058225 0.000000 0.166235 0.000000
# 6 0.000000 0.000000 0.000000 -0.027160 0.000000 0.043467
#
#
# Mechanical properties :
#
#
# Convention : Reuss Voigt Hill
#
# Bulk Modulus (GPa) = 8.03675 47.16520 27.60097
# Shear Modulus (GPa) = 13.87567 35.06448 24.47008
#
# Velocity S-wave (km/s) = 2.42314 3.85198 3.21787
# Velocity P-wave (km/s) = 3.35106 6.30413 5.04835
#
# Compressibility (1/GPa) = 0.12442848
#
# Stress axis : x y z
#
# Youngs Moduli (GPa) = 21.86721 111.51565 26.29483
#
# Poissons Ratio (x) = 0.48786 -0.61085
# Poissons Ratio (y) = 0.09567 0.07904
# Poissons Ratio (z) = -0.50799 0.33519
#
# Static dielectric constant tensor:
#      x y z
#    x 2.026610 0.000000 -0.063850 
#    y 0.000000 2.023800 0.000000 
#    z -0.063850 0.000000 1.956320 
# 
# From -- ./inp_files/6050.got.cif
#   From: 2010.05.17/outbox.cif.g08.bks.cpg/sg4_4_cif.got.tgz:6050.got - 2010.06.03 18:43:04.
