data_PCOD9114514
_publ_section_title
;
Structure prediction by ZEFSAII (Michael W. Deem and Ramdas Pophale) SiO2 
 PCOD9114514
Probable space group: P 21
;
_chemical_formula_sum "Si O2"
_cell_formula_units_Z 14
_cell_length_a 7.240328
_cell_length_b 7.727052
_cell_length_c 13.685062
_cell_angle_alpha 90.000000
_cell_angle_beta 39.388337
_cell_angle_gamma 90.000000
_cell_volume 485.848174
_symmetry_space_group_name_H-M "P 21"
_symmetry_group_IT_number 4
_symmetry_cell_setting 'monoclinic'
loop_
_space_group_symop_operation_xyz
x,y,z
-x,1/2+y,-z
loop_
_atom_site_type_symbol
_atom_site_label
_atom_site_fract_x
_atom_site_fract_y
_atom_site_fract_z
Si Si1 0.069744 0.020210 0.509274
Si Si2 0.076967 0.011722 0.280703
Si Si3 0.349149 0.647441 0.149800
Si Si4 0.837672 0.556982 0.252335
Si Si5 0.543463 0.155512 0.197832
Si Si6 0.840472 0.774587 0.057695
Si Si7 0.489847 0.365384 0.528809
O O1 0.260035 0.877206 0.490071
O O2 0.807191 0.081339 0.685260
O O3 0.989191 0.972961 0.430767
O O4 0.317498 0.160088 0.378962
O O5 0.248314 0.844703 0.172413
O O6 0.318264 0.161957 0.197424
O O7 0.770235 0.007871 0.352007
O O8 0.689588 0.667467 0.031470
O O9 0.179143 0.541871 0.136309
O O10 0.789567 0.656003 0.172765
O O11 0.667027 0.391262 0.356933
O O12 0.696457 0.691979 0.387530
O O13 0.689306 0.961444 0.134704
O O14 0.811495 0.284963 0.092130
#
# Coordination Sequence:
#
# PCOD9114514 Si02
#       7
#     2   2   2   2   2   2   2
#     4   9  17  34  53  82 103 142 176 230 263 327
#     4   8  17  32  51  78 102 146 170 224 264 323
#     4   9  18  33  57  77 106 139 186 216 287 306
#     4  10  20  34  57  81 111 139 179 228 272 323
#     4   9  21  38  57  75 115 147 186 213 281 315
#     4  11  20  43  52  81 113 152 173 237 257 333
#     4  10  17  34  57  80 108 139 174 226 282 305
#
# _framework density 28.815584999999999
#
# number of rings (size 3 to 8) (size 9 to 14) (size 15 to 20)
#    0.857    1.714    1.429    0.857    0.000    0.000 
#   12.857    1.429    0.000    0.000    0.000    0.000 
#    0.000    0.000    0.000    0.000    0.000    0.000 
#
# Total GULP energy -78231.426359 kJ/mol
# GULP energy per Si atom -5587.959026 kJ/mol
# Density = 2.875000 g / cm^3
# Si number density = 28.815585 Si / 1000 Ang^3
#
#
#
# Elastic Constant Matrix: (Units=GPa)
#
#
# Indices 1 2 3 4 5 6 
#
# 1 111.8886 18.6098 21.9733 0.0000 -22.8295 0.0000
# 2 18.6098 94.7930 33.0737 0.0000 -7.9159 0.0000
# 3 21.9733 33.0737 125.4271 0.0000 -21.7071 0.0000
# 4 0.0000 0.0000 0.0000 58.6065 0.0000 -7.6494
# 5 -22.8295 -7.9159 -21.7071 0.0000 59.9050 0.0000
# 6 0.0000 0.0000 0.0000 -7.6494 0.0000 25.1390
#
#
#
# Elastic Compliance Matrix: (Units=1/GPa)
#
#
# Indices 1 2 3 4 5 6 
#
# 1 0.010010 -0.001406 -0.000806 0.000000 0.003337 0.000000
# 2 -0.001406 0.011827 -0.002875 0.000000 -0.000015 0.000000
# 3 -0.000806 -0.002875 0.009339 0.000000 0.002697 0.000000
# 4 0.000000 0.000000 0.000000 0.017769 0.000000 0.005407
# 5 0.003337 -0.000015 0.002697 0.000000 0.018940 0.000000
# 6 0.000000 0.000000 0.000000 0.005407 0.000000 0.041424
#
#
# Mechanical properties :
#
#
# Convention : Reuss Voigt Hill
#
# Bulk Modulus (GPa) = 47.60941 53.26915 50.43928
# Shear Modulus (GPa) = 39.53116 45.96024 42.74570
#
# Velocity S-wave (km/s) = 3.70789 3.99805 3.85570
# Velocity P-wave (km/s) = 5.90671 6.31181 6.11262
#
# Compressibility (1/GPa) = 0.02100425
#
# Stress axis : x y z
#
# Youngs Moduli (GPa) = 99.89658 84.55158 107.08076
#
# Poissons Ratio (x) = 0.11884 0.08625
# Poissons Ratio (y) = 0.14040 0.30785
# Poissons Ratio (z) = 0.08047 0.24308
#
# Static dielectric constant tensor:
#      x y z
#    x 2.256920 0.000000 0.036660 
#    y 0.000000 2.251210 0.000000 
#    z 0.036660 0.000000 2.238620 
# 
# From -- ./inp_files/5970.got.cif
#   From: 2010.05.17/outbox.cif.g08.bks.cpg/sg4_3_cif.got.tgz:5970.got - 2010.06.03 18:43:04.
