data_PCOD9114987
_publ_section_title
;
Structure prediction by ZEFSAII (Michael W. Deem and Ramdas Pophale) SiO2 
 PCOD9114987
Probable space group: P 21
;
_chemical_formula_sum "Si O2"
_cell_formula_units_Z 16
_cell_length_a 12.424913
_cell_length_b 14.792421
_cell_length_c 9.272344
_cell_angle_alpha 90.000000
_cell_angle_beta 150.248545
_cell_angle_gamma 90.000000
_cell_volume 845.692834
_symmetry_space_group_name_H-M "P 21"
_symmetry_group_IT_number 4
_symmetry_cell_setting 'monoclinic'
loop_
_space_group_symop_operation_xyz
x,y,z
-x,1/2+y,-z
loop_
_atom_site_type_symbol
_atom_site_label
_atom_site_fract_x
_atom_site_fract_y
_atom_site_fract_z
Si Si1 0.958302 0.995570 0.162770
Si Si2 0.451831 0.735334 0.629882
Si Si3 0.428247 0.559633 0.451600
Si Si4 0.276861 0.578677 0.582339
Si Si5 0.770339 0.407537 0.770922
Si Si6 0.354075 0.994567 0.813408
Si Si7 0.951881 0.431198 0.291418
Si Si8 0.289238 0.367233 0.899732
O O1 0.834930 0.927695 0.126739
O O2 0.051398 0.940047 0.136008
O O3 0.164064 0.032879 0.490824
O O4 0.780658 0.064536 0.894497
O O5 0.523657 0.657873 0.600822
O O6 0.278535 0.681861 0.529803
O O7 0.347222 0.819044 0.426037
O O8 0.644231 0.772716 0.953075
O O9 0.346989 0.527550 0.515715
O O10 0.598147 0.489246 0.586917
O O11 0.064414 0.529168 0.392538
O O12 0.467853 0.564210 0.920091
O O13 0.869895 0.393730 0.044842
O O14 0.238524 0.948493 0.816098
O O15 0.488830 0.918834 0.883794
O O16 0.134609 0.369872 0.580586
#
# Coordination Sequence:
#
# PCOD9114987 Si02
#       8
#     2   2   2   2   2   2   2   2
#     4  11  20  37  65  90 118 166 207 252 307 367
#     4  10  21  40  60  90 133 160 202 260 300 367
#     4  10  21  38  59  89 126 163 202 250 308 361
#     4   9  20  38  58  87 122 161 200 246 303 366
#     4  12  20  40  65  91 125 166 203 256 313 357
#     4  10  19  38  64  83 116 163 201 249 310 359
#     4  10  20  36  65  87 117 163 207 245 309 367
#     4  10  21  39  62  89 121 160 206 252 306 364
#
# _framework density 18.9194
#
# number of rings (size 3 to 8) (size 9 to 14) (size 15 to 20)
#    0.750    1.000    5.000    0.000    0.000    0.000 
#    9.000    0.000    8.250    0.000    0.000    0.000 
#    0.000    0.000    0.000    0.000    0.000    0.000 
#
# Total GULP energy -89159.174559 kJ/mol
# GULP energy per Si atom -5572.448410 kJ/mol
# Density = 1.887634 g / cm^3
# Si number density = 18.919400 Si / 1000 Ang^3
#
#
#
# Elastic Constant Matrix: (Units=GPa)
#
#
# Indices 1 2 3 4 5 6 
#
# 1 101.3714 24.0931 26.7706 0.0000 0.8834 0.0000
# 2 24.0931 93.9819 34.7281 0.0000 -4.8246 0.0000
# 3 26.7706 34.7281 114.5008 0.0000 -25.8443 0.0000
# 4 0.0000 0.0000 0.0000 9.6006 0.0000 -13.1890
# 5 0.8834 -4.8246 -25.8443 0.0000 36.7423 0.0000
# 6 0.0000 0.0000 0.0000 -13.1890 0.0000 22.6337
#
#
#
# Elastic Compliance Matrix: (Units=1/GPa)
#
#
# Indices 1 2 3 4 5 6 
#
# 1 0.011020 -0.002027 -0.002474 0.000000 -0.002272 0.000000
# 2 -0.002027 0.012399 -0.003457 0.000000 -0.000755 0.000000
# 3 -0.002474 -0.003457 0.012210 0.000000 0.008194 0.000000
# 4 0.000000 0.000000 0.000000 0.522158 0.000000 0.304270
# 5 -0.002272 -0.000755 0.008194 0.000000 0.032936 0.000000
# 6 0.000000 0.000000 0.000000 0.304270 0.000000 0.221486
#
#
# Mechanical properties :
#
#
# Convention : Reuss Voigt Hill
#
# Bulk Modulus (GPa) = 50.73179 53.44864 52.09021
# Shear Modulus (GPa) = 5.99021 28.74615 17.36818
#
# Velocity S-wave (km/s) = 1.78131 3.90218 3.03315
# Velocity P-wave (km/s) = 5.57706 6.97242 6.31341
#
# Compressibility (1/GPa) = 0.01971150
#
# Stress axis : x y z
#
# Youngs Moduli (GPa) = 90.74595 80.65357 81.89991
#
# Poissons Ratio (x) = 0.16351 0.20264
# Poissons Ratio (y) = 0.18397 0.28312
# Poissons Ratio (z) = 0.22453 0.27881
#
# Static dielectric constant tensor:
#      x y z
#    x 1.661710 0.000000 -0.010210 
#    y 0.000000 1.634420 0.000000 
#    z -0.010210 0.000000 1.701490 
# 
# From -- ./inp_files/8534.got.cif
#   From: 2010.05.17/outbox.cif.g08.bks.cpg/sg4_5_cif.got.tgz:8534.got - 2010.06.03 18:43:04.
