data_PCOD9114074
_publ_section_title
;
Structure prediction by ZEFSAII (Michael W. Deem and Ramdas Pophale) SiO2 
 PCOD9114074
Probable space group: P 2
;
_chemical_formula_sum "Si O2"
_cell_formula_units_Z 12
_cell_length_a 12.178486
_cell_length_b 6.677681
_cell_length_c 12.586610
_cell_angle_alpha 90.000000
_cell_angle_beta 146.837561
_cell_angle_gamma 90.000000
_cell_volume 559.920833
_symmetry_space_group_name_H-M "P 2"
_symmetry_group_IT_number 3
_symmetry_cell_setting 'monoclinic'
loop_
_space_group_symop_operation_xyz
x,y,z
-x,y,-z
loop_
_atom_site_type_symbol
_atom_site_label
_atom_site_fract_x
_atom_site_fract_y
_atom_site_fract_z
Si Si1 0.446623 0.018600 0.186143
Si Si2 0.738761 0.114655 0.612061
Si Si3 0.230525 0.780758 0.176874
Si Si4 0.123720 0.115681 0.776898
Si Si5 0.500000 0.471121 0.500000
Si Si6 0.303687 0.770816 0.775745
Si Si7 0.000000 0.432209 0.500000
O O1 0.562264 0.097053 0.382071
O O2 0.612031 0.906130 0.250617
O O3 0.277023 0.875711 0.099995
O O4 0.326087 0.160865 0.007968
O O5 0.685624 0.329712 0.617978
O O6 0.943640 0.096181 0.713958
O O7 0.740964 0.947614 0.706503
O O8 0.401801 0.615195 0.333020
O O9 0.000000 0.710482 0.000000
O O10 0.058833 0.290006 0.644692
O O11 0.172345 0.914951 0.747322
O O12 0.500000 0.704810 0.000000
O O13 0.184473 0.583504 0.633675
#
# Coordination Sequence:
#
# PCOD9114074 Si02
#       7
#     2   2   2   2   1   2   1
#     4  11  22  47  71  94 138 186 221 276 342 408
#     4  12  24  45  71 100 141 177 229 281 342 406
#     4  12  25  46  70 100 141 181 225 281 347 404
#     4  11  26  44  71 100 137 183 224 287 344 405
#     4  12  26  42  68 108 136 180 226 290 336 404
#     4  10  25  46  68  99 140 180 229 283 344 403
#     4  12  24  44  68 108 132 172 236 288 340 402
#
# _framework density 21.431602000000002
#
# number of rings (size 3 to 8) (size 9 to 14) (size 15 to 20)
#    0.000    0.667    5.000    2.500    2.333    6.667 
#    3.000    0.000    0.000    0.000    0.000    0.000 
#    0.000    0.000    0.000    0.000    0.000    0.000 
#
# Total GULP energy -67030.443949 kJ/mol
# GULP energy per Si atom -5585.870329 kJ/mol
# Density = 2.138282 g / cm^3
# Si number density = 21.431602 Si / 1000 Ang^3
#
#
#
# Elastic Constant Matrix: (Units=GPa)
#
#
# Indices 1 2 3 4 5 6 
#
# 1 128.0020 38.8739 20.3177 0.0000 8.5748 0.0000
# 2 38.8739 76.7280 53.1147 0.0000 7.6684 0.0000
# 3 20.3177 53.1147 108.0051 0.0000 -1.5857 0.0000
# 4 0.0000 0.0000 0.0000 24.8594 0.0000 -0.9151
# 5 8.5748 7.6684 -1.5857 0.0000 35.8323 0.0000
# 6 0.0000 0.0000 0.0000 -0.9151 0.0000 10.3007
#
#
#
# Elastic Compliance Matrix: (Units=1/GPa)
#
#
# Indices 1 2 3 4 5 6 
#
# 1 0.009327 -0.005139 0.000757 0.000000 -0.001099 0.000000
# 2 -0.005139 0.023402 -0.010604 0.000000 -0.004248 0.000000
# 3 0.000757 -0.010604 0.014371 0.000000 0.002724 0.000000
# 4 0.000000 0.000000 0.000000 0.040358 0.000000 0.003585
# 5 -0.001099 -0.004248 0.002724 0.000000 0.029200 0.000000
# 6 0.000000 0.000000 0.000000 0.003585 0.000000 0.097400
#
#
# Mechanical properties :
#
#
# Convention : Reuss Voigt Hill
#
# Bulk Modulus (GPa) = 58.38892 59.70528 59.04710
# Shear Modulus (GPa) = 20.02074 27.56040 23.79057
#
# Velocity S-wave (km/s) = 3.05973 3.58993 3.33539
# Velocity P-wave (km/s) = 6.30762 6.71584 6.51493
#
# Compressibility (1/GPa) = 0.01712654
#
# Stress axis : x y z
#
# Youngs Moduli (GPa) = 107.21936 42.73092 69.58248
#
# Poissons Ratio (x) = 0.21961 -0.05266
# Poissons Ratio (y) = 0.55105 0.73787
# Poissons Ratio (z) = -0.08115 0.45313
#
# Static dielectric constant tensor:
#      x y z
#    x 1.760370 0.000000 0.010700 
#    y 0.000000 1.761990 0.000000 
#    z 0.010700 0.000000 1.811320 
# 
# From -- ./inp_files/13860.got.cif
#   From: 2010.05.17/outbox.cif.g08.bks.cpg/sg3_7_cif.got.tgz:13860.got - 2010.06.03 18:33:08.
