data_PCOD9114919
_publ_section_title
;
Structure prediction by ZEFSAII (Michael W. Deem and Ramdas Pophale) SiO2 
 PCOD9114919
Probable space group: P 21
;
_chemical_formula_sum "Si O2"
_cell_formula_units_Z 14
_cell_length_a 8.959275
_cell_length_b 10.609237
_cell_length_c 14.455640
_cell_angle_alpha 90.000000
_cell_angle_beta 155.931379
_cell_angle_gamma 90.000000
_cell_volume 560.368885
_symmetry_space_group_name_H-M "P 21"
_symmetry_group_IT_number 4
_symmetry_cell_setting 'monoclinic'
loop_
_space_group_symop_operation_xyz
x,y,z
-x,1/2+y,-z
loop_
_atom_site_type_symbol
_atom_site_label
_atom_site_fract_x
_atom_site_fract_y
_atom_site_fract_z
Si Si1 0.221856 0.631190 0.987141
Si Si2 0.177932 0.625561 0.161221
Si Si3 0.059720 0.633150 0.685250
Si Si4 0.239831 0.495080 0.369516
Si Si5 0.737658 0.869141 0.257596
Si Si6 0.781606 0.400534 0.286064
Si Si7 0.167355 0.779774 0.320284
O O1 0.014361 0.620488 0.967082
O O2 0.440525 0.764086 0.115454
O O3 0.470765 0.504708 0.124786
O O4 0.039643 0.635461 0.784304
O O5 0.087341 0.509007 0.177791
O O6 0.050613 0.746235 0.148739
O O7 0.630556 0.629271 0.409681
O O8 0.305291 0.514976 0.794589
O O9 0.274001 0.755611 0.772788
O O10 0.320939 0.642025 0.435442
O O11 0.558511 0.394674 0.537949
O O12 0.001119 0.449771 0.320207
O O13 0.996151 0.885714 0.493044
O O14 0.913061 0.815578 0.261893
#
# Coordination Sequence:
#
# PCOD9114919 Si02
#       7
#     2   2   2   2   2   2   2
#     4  12  23  41  63  91 127 160 206 260 306 370
#     4  10  21  40  63  86 123 159 204 250 314 356
#     4  12  24  37  64  93 126 161 208 254 310 362
#     4  10  19  36  65  86 116 162 201 251 307 363
#     4  12  21  41  66  93 122 167 207 253 311 367
#     4  12  21  41  66  93 122 167 207 253 311 367
#     4  10  19  36  65  86 116 162 201 251 307 363
#
# _framework density 24.983543999999998
#
# number of rings (size 3 to 8) (size 9 to 14) (size 15 to 20)
#    0.857    0.000    7.143    0.857    0.000    0.000 
#    0.000    1.429   12.571    0.000    0.000    0.000 
#    0.000    0.000    0.000    0.000    0.000    0.000 
#
# Total GULP energy -78172.716061 kJ/mol
# GULP energy per Si atom -5583.765433 kJ/mol
# Density = 2.492668 g / cm^3
# Si number density = 24.983544 Si / 1000 Ang^3
#
#
#
# Elastic Constant Matrix: (Units=GPa)
#
#
# Indices 1 2 3 4 5 6 
#
# 1 103.0614 2.0307 31.5875 0.0000 -25.8504 0.0000
# 2 2.0307 145.6128 26.1775 0.0000 4.6911 0.0000
# 3 31.5875 26.1775 94.5941 0.0000 -35.6412 0.0000
# 4 0.0000 0.0000 0.0000 18.3365 0.0000 -19.2711
# 5 -25.8504 4.6911 -35.6412 0.0000 54.2990 0.0000
# 6 0.0000 0.0000 0.0000 -19.2711 0.0000 27.7737
#
#
#
# Elastic Compliance Matrix: (Units=1/GPa)
#
#
# Indices 1 2 3 4 5 6 
#
# 1 0.011399 0.000149 -0.002402 0.000000 0.003837 0.000000
# 2 0.000149 0.007510 -0.003117 0.000000 -0.002624 0.000000
# 3 -0.002402 -0.003117 0.015819 0.000000 0.009509 0.000000
# 4 0.000000 0.000000 0.000000 0.201407 0.000000 0.139749
# 5 0.003837 -0.002624 0.009509 0.000000 0.026712 0.000000
# 6 0.000000 0.000000 0.000000 0.139749 0.000000 0.132971
#
#
# Mechanical properties :
#
#
# Convention : Reuss Voigt Hill
#
# Bulk Modulus (GPa) = 41.68555 51.42886 46.55721
# Shear Modulus (GPa) = 12.06118 38.98003 25.52060
#
# Velocity S-wave (km/s) = 2.19957 3.95426 3.19955
# Velocity P-wave (km/s) = 4.81376 6.44034 5.68552
#
# Compressibility (1/GPa) = 0.02398913
#
# Stress axis : x y z
#
# Youngs Moduli (GPa) = 87.72999 133.15099 63.21567
#
# Poissons Ratio (x) = -0.01987 0.15183
# Poissons Ratio (y) = -0.01309 0.19702
# Poissons Ratio (z) = 0.21071 0.41499
#
# Static dielectric constant tensor:
#      x y z
#    x 1.969900 0.000000 0.119720 
#    y 0.000000 1.971960 0.000000 
#    z 0.119720 0.000000 2.172980 
# 
# From -- ./inp_files/11382.got.cif
#   From: 2010.05.17/outbox.cif.g08.bks.cpg/sg4_6_cif.got.tgz:11382.got - 2010.06.03 18:43:04.
