data_PCOD9114190
_publ_section_title
;
Structure prediction by ZEFSAII (Michael W. Deem and Ramdas Pophale) SiO2 
 PCOD9114190
Probable space group: P 2
;
_chemical_formula_sum "Si O2"
_cell_formula_units_Z 12
_cell_length_a 22.856778
_cell_length_b 4.881917
_cell_length_c 5.190893
_cell_angle_alpha 90.000000
_cell_angle_beta 47.665961
_cell_angle_gamma 90.000000
_cell_volume 428.181331
_symmetry_space_group_name_H-M "P 2"
_symmetry_group_IT_number 3
_symmetry_cell_setting 'monoclinic'
loop_
_space_group_symop_operation_xyz
x,y,z
-x,y,-z
loop_
_atom_site_type_symbol
_atom_site_label
_atom_site_fract_x
_atom_site_fract_y
_atom_site_fract_z
Si Si1 0.917443 0.278400 0.684977
Si Si2 0.412980 0.845318 0.850013
Si Si3 0.244609 0.649366 0.192243
Si Si4 0.917677 0.655412 0.184022
Si Si5 0.414758 0.333762 0.140091
Si Si6 0.244270 0.298845 0.703494
O O1 0.917685 0.411628 0.401052
O O2 0.000000 0.127236 0.500000
O O3 0.918368 0.519775 0.900680
O O4 0.834461 0.129768 0.994971
O O5 0.500000 0.757790 0.500000
O O6 0.330749 0.779469 0.957963
O O7 0.406163 0.657898 0.129221
O O8 0.415791 0.171062 0.868633
O O9 0.164936 0.807052 0.513839
O O10 0.245122 0.405981 0.407566
O O11 0.234745 0.545529 0.933820
O O12 0.000000 0.806010 0.000000
O O13 0.334171 0.209254 0.496495
O O14 0.500000 0.267413 0.000000
#
# Coordination Sequence:
#
# PCOD9114190 Si02
#       6
#     2   2   2   2   2   2
#     4   8  13  23  43  74 110 148 190 236 287 344
#     4  11  23  40  62  91 123 162 204 253 306 364
#     4   9  18  33  54  83 118 156 198 245 297 354
#     4   8  13  23  43  74 110 148 190 236 287 344
#     4  11  23  40  62  91 123 162 204 253 306 364
#     4   9  18  33  54  83 118 156 198 245 297 354
#
# _framework density 28.025507999999999
#
# number of rings (size 3 to 8) (size 9 to 14) (size 15 to 20)
#    0.000    2.667    0.000    2.000    0.000    2.667 
#    0.000    0.000    0.000    0.000    0.000   46.667 
#    0.000    0.000    0.000    0.000    0.000    0.000 
#
# Total GULP energy -67017.705304 kJ/mol
# GULP energy per Si atom -5584.808775 kJ/mol
# Density = 2.796172 g / cm^3
# Si number density = 28.025508 Si / 1000 Ang^3
#
#
#
# Elastic Constant Matrix: (Units=GPa)
#
#
# Indices 1 2 3 4 5 6 
#
# 1 170.7791 30.6155 76.2474 0.0000 -39.2728 0.0000
# 2 30.6155 84.1308 36.1070 0.0000 3.8830 0.0000
# 3 76.2474 36.1070 172.7118 0.0000 -55.3563 0.0000
# 4 0.0000 0.0000 0.0000 -3.6152 0.0000 58.1221
# 5 -39.2728 3.8830 -55.3563 0.0000 105.7501 0.0000
# 6 0.0000 0.0000 0.0000 58.1221 0.0000 -22.4520
#
#
#
# Elastic Compliance Matrix: (Units=1/GPa)
#
#
# Indices 1 2 3 4 5 6 
#
# 1 0.007658 -0.001792 -0.002492 0.000000 0.001606 0.000000
# 2 -0.001792 0.013957 -0.003009 0.000000 -0.002753 0.000000
# 3 -0.002492 -0.003009 0.008721 0.000000 0.003750 0.000000
# 4 0.000000 0.000000 0.000000 0.006810 0.000000 0.017629
# 5 0.001606 -0.002753 0.003750 0.000000 0.012117 0.000000
# 6 0.000000 0.000000 0.000000 0.017629 0.000000 0.001097
#
#
# Mechanical properties :
#
#
# Convention : Reuss Voigt Hill
#
# Bulk Modulus (GPa) = 63.48775 79.28461 71.38618
# Shear Modulus (GPa) = 71.22992 34.91337 53.07164
#
# Velocity S-wave (km/s) = 5.04691 3.53338 4.35638
# Velocity P-wave (km/s) = 7.52758 6.70805 7.12960
#
# Compressibility (1/GPa) = 0.01575107
#
# Stress axis : x y z
#
# Youngs Moduli (GPa) = 130.57495 71.64968 114.66310
#
# Poissons Ratio (x) = 0.12837 0.28572
# Poissons Ratio (y) = 0.23394 0.34505
# Poissons Ratio (z) = 0.32537 0.21561
#
# Static dielectric constant tensor:
#      x y z
#    x 2.223600 0.000000 -0.082610 
#    y 0.000000 2.090350 0.000000 
#    z -0.082610 0.000000 2.257050 
# 
# From -- ./inp_files/543.got.cif
#   From: 2010.05.17/outbox.cif.g08.bks.cpg/sg3_1_cif.got.tgz:543.got - 2010.06.03 18:33:08.
