data_PCOD9114879
_publ_section_title
;
Structure prediction by ZEFSAII (Michael W. Deem and Ramdas Pophale) SiO2 
 PCOD9114879
Probable space group: P 21
;
_chemical_formula_sum "Si O2"
_cell_formula_units_Z 16
_cell_length_a 16.940179
_cell_length_b 5.191801
_cell_length_c 10.094460
_cell_angle_alpha 90.000000
_cell_angle_beta 68.859970
_cell_angle_gamma 90.000000
_cell_volume 828.060248
_symmetry_space_group_name_H-M "P 21"
_symmetry_group_IT_number 4
_symmetry_cell_setting 'monoclinic'
loop_
_space_group_symop_operation_xyz
x,y,z
-x,1/2+y,-z
loop_
_atom_site_type_symbol
_atom_site_label
_atom_site_fract_x
_atom_site_fract_y
_atom_site_fract_z
Si Si1 0.710770 0.889450 0.533429
Si Si2 0.527945 0.939704 0.154460
Si Si3 0.809399 0.388948 0.402049
Si Si4 0.884952 0.464125 0.077697
Si Si5 0.991628 0.493725 0.419826
Si Si6 0.073554 0.464976 0.095123
Si Si7 0.414422 0.439827 0.167381
Si Si8 0.553303 0.990675 0.436508
O O1 0.744510 0.600934 0.496172
O O2 0.673488 0.938870 0.701936
O O3 0.633230 0.936670 0.480018
O O4 0.780742 0.100702 0.453360
O O5 0.470890 0.683142 0.178534
O O6 0.571844 0.957281 0.269760
O O7 0.465158 0.182849 0.177985
O O8 0.588687 0.944656 0.989916
O O9 0.820571 0.431148 0.237817
O O10 0.899694 0.442971 0.413601
O O11 0.978657 0.464063 0.088747
O O12 0.878590 0.724765 0.998406
O O13 0.883039 0.225273 0.979624
O O14 0.994644 0.781192 0.475322
O O15 0.059002 0.455072 0.260751
O O16 0.483008 0.775381 0.514940
#
# Coordination Sequence:
#
# PCOD9114879 Si02
#       8
#     2   2   2   2   2   2   2   2
#     4  12  22  37  59  89 123 157 190 241 306 352
#     4  10  19  36  56  87 112 146 208 248 276 338
#     4  11  24  38  60  88 118 151 191 236 299 364
#     4   9  17  33  54  83 108 141 183 233 278 333
#     4  11  22  39  63  89 114 152 198 242 282 343
#     4   9  17  31  58  83 108 138 188 236 275 320
#     4  10  20  34  60  83 113 157 195 240 290 342
#     4  12  21  36  60  90 116 152 203 250 284 336
#
# _framework density 19.322268000000001
#
# number of rings (size 3 to 8) (size 9 to 14) (size 15 to 20)
#    0.000    1.500    2.500    3.750    0.000    4.000 
#    0.000    0.000   16.500    0.000    0.000    0.000 
#    0.000    0.000    0.000    0.000    0.000    0.000 
#
# Total GULP energy -89392.874654 kJ/mol
# GULP energy per Si atom -5587.054666 kJ/mol
# Density = 1.927829 g / cm^3
# Si number density = 19.322268 Si / 1000 Ang^3
#
#
#
# Elastic Constant Matrix: (Units=GPa)
#
#
# Indices 1 2 3 4 5 6 
#
# 1 27.7809 -36.7792 -26.5656 0.0000 15.2118 0.0000
# 2 -36.7792 191.3788 130.2689 0.0000 -66.6179 0.0000
# 3 -26.5656 130.2689 288.9790 0.0000 -76.4751 0.0000
# 4 0.0000 0.0000 0.0000 47.9553 0.0000 -3.4818
# 5 15.2118 -66.6179 -76.4751 0.0000 52.7363 0.0000
# 6 0.0000 0.0000 0.0000 -3.4818 0.0000 25.2296
#
#
#
# Elastic Compliance Matrix: (Units=1/GPa)
#
#
# Indices 1 2 3 4 5 6 
#
# 1 0.048756 0.008078 -0.000293 0.000000 -0.004285 0.000000
# 2 0.008078 0.011253 -0.001923 0.000000 0.009097 0.000000
# 3 -0.000293 -0.001923 0.005972 0.000000 0.006315 0.000000
# 4 0.000000 0.000000 0.000000 0.021064 0.000000 0.002907
# 5 -0.004285 0.009097 0.006315 0.000000 0.040847 0.000000
# 6 0.000000 0.000000 0.000000 0.002907 0.000000 0.040037
#
#
# Mechanical properties :
#
#
# Convention : Reuss Voigt Hill
#
# Bulk Modulus (GPa) = 12.86916 71.33189 42.10052
# Shear Modulus (GPa) = 27.45645 54.59854 41.02749
#
# Velocity S-wave (km/s) = 3.77367 5.32148 4.61296
# Velocity P-wave (km/s) = 5.06579 8.64607 7.08579
#
# Compressibility (1/GPa) = 0.07770514
#
# Stress axis : x y z
#
# Youngs Moduli (GPa) = 20.51015 88.86501 167.46110
#
# Poissons Ratio (x) = -0.71787 0.04912
# Poissons Ratio (y) = -0.16569 0.32200
# Poissons Ratio (z) = 0.00602 0.17087
#
# Static dielectric constant tensor:
#      x y z
#    x 1.650370 0.000000 -0.002270 
#    y 0.000000 1.646650 0.000000 
#    z -0.002270 0.000000 1.689790 
# 
# From -- ./inp_files/9020.got.cif
#   From: 2010.05.17/outbox.cif.g08.bks.cpg/sg4_5_cif.got.tgz:9020.got - 2010.06.03 18:43:04.
