data_PCOD9114637
_publ_section_title
;
Structure prediction by ZEFSAII (Michael W. Deem and Ramdas Pophale) SiO2 
 PCOD9114637
Probable space group: P 21
;
_chemical_formula_sum "Si O2"
_cell_formula_units_Z 16
_cell_length_a 10.317803
_cell_length_b 7.299770
_cell_length_c 7.836018
_cell_angle_alpha 90.000000
_cell_angle_beta 68.049230
_cell_angle_gamma 90.000000
_cell_volume 547.404385
_symmetry_space_group_name_H-M "P 21"
_symmetry_group_IT_number 4
_symmetry_cell_setting 'monoclinic'
loop_
_space_group_symop_operation_xyz
x,y,z
-x,1/2+y,-z
loop_
_atom_site_type_symbol
_atom_site_label
_atom_site_fract_x
_atom_site_fract_y
_atom_site_fract_z
Si Si1 0.883972 0.457970 0.308805
Si Si2 0.360608 0.422083 0.614569
Si Si3 0.791765 0.568593 0.886734
Si Si4 0.452066 0.988046 0.173357
Si Si5 0.304254 0.608710 0.167292
Si Si6 0.392047 0.000211 0.707202
Si Si7 0.951903 0.253447 0.596882
Si Si8 0.871844 0.948418 0.032716
O O1 0.721965 0.410671 0.366078
O O2 0.961406 0.322535 0.399875
O O3 0.917497 0.653857 0.380341
O O4 0.963685 0.464466 0.086845
O O5 0.462619 0.528881 0.697577
O O6 0.446098 0.448498 0.398265
O O7 0.378389 0.213576 0.666913
O O8 0.202961 0.469394 0.748645
O O9 0.679377 0.619945 0.793481
O O10 0.895913 0.425301 0.740927
O O11 0.836911 0.752818 0.961641
O O12 0.683752 0.473686 0.074655
O O13 0.383087 0.788262 0.198609
O O14 0.569392 0.993200 0.969583
O O15 0.173021 0.600650 0.358553
O O16 0.203091 0.600421 0.047370
#
# Coordination Sequence:
#
# PCOD9114637 Si02
#       8
#     2   2   2   2   2   2   2   2
#     4  11  23  42  68  93 127 167 212 263 317 379
#     4  10  23  42  61  90 129 163 209 259 317 376
#     4  10  21  38  62  93 127 162 210 261 318 379
#     4  10  18  35  60  88 123 166 208 256 309 376
#     4   9  17  30  56  86 119 156 206 255 304 358
#     4  11  24  42  64  94 129 166 207 264 319 373
#     4  10  22  40  61  95 126 166 216 261 313 384
#     4   9  20  39  62  91 124 162 206 261 315 375
#
# _framework density 29.228849
#
# number of rings (size 3 to 8) (size 9 to 14) (size 15 to 20)
#    0.000    2.000    0.000    4.500    0.000    7.000 
#    0.000   17.500    0.000    0.000    0.000    0.000 
#    0.000    0.000    0.000    0.000    0.000    0.000 
#
# Total GULP energy -89364.819829 kJ/mol
# GULP energy per Si atom -5585.301239 kJ/mol
# Density = 2.916232 g / cm^3
# Si number density = 29.228849 Si / 1000 Ang^3
#
#
#
# Elastic Constant Matrix: (Units=GPa)
#
#
# Indices 1 2 3 4 5 6 
#
# 1 118.3609 5.7564 30.0503 0.0000 -21.1694 0.0000
# 2 5.7564 68.3166 16.2603 0.0000 -1.2509 0.0000
# 3 30.0503 16.2603 207.3675 0.0000 -34.4493 0.0000
# 4 0.0000 0.0000 0.0000 50.0048 0.0000 -2.3626
# 5 -21.1694 -1.2509 -34.4493 0.0000 44.7002 0.0000
# 6 0.0000 0.0000 0.0000 -2.3626 0.0000 42.1756
#
#
#
# Elastic Compliance Matrix: (Units=1/GPa)
#
#
# Indices 1 2 3 4 5 6 
#
# 1 0.009341 -0.000558 -0.000662 0.000000 0.003898 0.000000
# 2 -0.000558 0.014961 -0.001223 0.000000 -0.000788 0.000000
# 3 -0.000662 -0.001223 0.005684 0.000000 0.004033 0.000000
# 4 0.000000 0.000000 0.000000 0.020051 0.000000 0.001123
# 5 0.003898 -0.000788 0.004033 0.000000 0.027303 0.000000
# 6 0.000000 0.000000 0.000000 0.001123 0.000000 0.023773
#
#
# Mechanical properties :
#
#
# Convention : Reuss Voigt Hill
#
# Bulk Modulus (GPa) = 39.84154 55.35322 47.59738
# Shear Modulus (GPa) = 43.71842 50.17467 46.94654
#
# Velocity S-wave (km/s) = 3.87166 4.14770 4.01205
# Velocity P-wave (km/s) = 5.80059 6.47432 6.14669
#
# Compressibility (1/GPa) = 0.02509943
#
# Stress axis : x y z
#
# Youngs Moduli (GPa) = 107.05291 66.83839 175.92587
#
# Poissons Ratio (x) = 0.03730 0.11653
# Poissons Ratio (y) = 0.05974 0.21520
# Poissons Ratio (z) = 0.07091 0.08176
#
# Static dielectric constant tensor:
#      x y z
#    x 2.344370 0.000000 0.048030 
#    y 0.000000 2.386590 0.000000 
#    z 0.048030 0.000000 2.303110 
# 
# From -- ./inp_files/7662.got.cif
#   From: 2010.05.17/outbox.cif.g08.bks.cpg/sg4_4_cif.got.tgz:7662.got - 2010.06.03 18:43:04.
