data_PCOD9114392
_publ_section_title
;
Structure prediction by ZEFSAII (Michael W. Deem and Ramdas Pophale) SiO2 
 PCOD9114392
Probable space group: P 2
;
_chemical_formula_sum "Si O2"
_cell_formula_units_Z 8
_cell_length_a 9.027712
_cell_length_b 7.345498
_cell_length_c 5.356091
_cell_angle_alpha 90.000000
_cell_angle_beta 125.977385
_cell_angle_gamma 90.000000
_cell_volume 287.427967
_symmetry_space_group_name_H-M "P 2"
_symmetry_group_IT_number 3
_symmetry_cell_setting 'monoclinic'
loop_
_space_group_symop_operation_xyz
x,y,z
-x,y,-z
loop_
_atom_site_type_symbol
_atom_site_label
_atom_site_fract_x
_atom_site_fract_y
_atom_site_fract_z
Si Si1 0.289625 0.464130 0.200274
Si Si2 0.482156 0.980339 0.218136
Si Si3 0.893423 0.082694 0.134717
Si Si4 0.791390 0.678969 0.385163
O O1 0.500000 0.454897 0.500000
O O2 0.810017 0.555441 0.656521
O O3 0.193080 0.272873 0.040466
O O4 0.285753 0.567475 0.929121
O O5 0.500000 0.064945 0.500000
O O6 0.500000 0.112408 0.000000
O O7 0.635659 0.826072 0.334115
O O8 0.268775 0.936610 0.995592
O O9 0.000000 0.109839 0.500000
O O10 0.000000 0.013743 0.000000
O O11 0.000000 0.729245 0.500000
#
# Coordination Sequence:
#
# PCOD9114392 Si02
#       4
#     2   2   2   2
#     4  12  25  47  77 113 156 199 256 324 389 458
#     4  12  27  49  72 110 156 203 257 311 382 460
#     4  12  27  49  79 113 154 205 259 317 386 463
#     4  12  26  47  78 114 155 203 256 318 390 463
#
# _framework density 27.833062000000002
#
# number of rings (size 3 to 8) (size 9 to 14) (size 15 to 20)
#    0.000    0.000    0.000   11.250    0.000    5.000 
#    0.000    2.500    0.000    0.000    0.000    0.000 
#    0.000    0.000    0.000    0.000    0.000    0.000 
#
# Total GULP energy -44715.155054 kJ/mol
# GULP energy per Si atom -5589.394382 kJ/mol
# Density = 2.776971 g / cm^3
# Si number density = 27.833062 Si / 1000 Ang^3
#
#
#
# Elastic Constant Matrix: (Units=GPa)
#
#
# Indices 1 2 3 4 5 6 
#
# 1 232.3010 59.4702 106.3306 0.0000 -24.1089 0.0000
# 2 59.4702 119.1904 46.3608 0.0000 -2.7301 0.0000
# 3 106.3306 46.3608 279.0654 0.0000 -25.9497 0.0000
# 4 0.0000 0.0000 0.0000 39.0056 0.0000 34.9995
# 5 -24.1089 -2.7301 -25.9497 0.0000 84.6486 0.0000
# 6 0.0000 0.0000 0.0000 34.9995 0.0000 43.8367
#
#
#
# Elastic Compliance Matrix: (Units=1/GPa)
#
#
# Indices 1 2 3 4 5 6 
#
# 1 0.005766 -0.002177 -0.001739 0.000000 0.001039 0.000000
# 2 -0.002177 0.009794 -0.000850 0.000000 -0.000565 0.000000
# 3 -0.001739 -0.000850 0.004466 0.000000 0.000846 0.000000
# 4 0.000000 0.000000 0.000000 0.090401 0.000000 -0.072177
# 5 0.001039 -0.000565 0.000846 0.000000 0.012351 0.000000
# 6 0.000000 0.000000 0.000000 -0.072177 0.000000 0.080438
#
#
# Mechanical properties :
#
#
# Convention : Reuss Voigt Hill
#
# Bulk Modulus (GPa) = 95.29073 117.20889 106.24981
# Shear Modulus (GPa) = 23.12201 61.39120 42.25661
#
# Velocity S-wave (km/s) = 2.88538 4.70158 3.90066
# Velocity P-wave (km/s) = 6.73880 8.46616 7.65138
#
# Compressibility (1/GPa) = 0.01049420
#
# Stress axis : x y z
#
# Youngs Moduli (GPa) = 173.44093 102.10593 223.92455
#
# Poissons Ratio (x) = 0.22226 0.38932
# Poissons Ratio (y) = 0.37753 0.19037
# Poissons Ratio (z) = 0.30155 0.08681
#
# Static dielectric constant tensor:
#      x y z
#    x 1.986150 0.000000 -0.098650 
#    y 0.000000 2.228270 0.000000 
#    z -0.098650 0.000000 2.460670 
# 
# From -- ./inp_files/966.got.cif
#   From: 2010.05.17/outbox.cif.g08.bks.cpg/sg3_1_cif.got.tgz:966.got - 2010.06.03 18:33:08.
