data_PCOD9114007
_publ_section_title
;
Structure prediction by ZEFSAII (Michael W. Deem and Ramdas Pophale) SiO2 
 PCOD9114007
Probable space group: P 2
;
_chemical_formula_sum "Si O2"
_cell_formula_units_Z 12
_cell_length_a 6.215822
_cell_length_b 4.852009
_cell_length_c 17.227279
_cell_angle_alpha 90.000000
_cell_angle_beta 68.781429
_cell_angle_gamma 90.000000
_cell_volume 484.338509
_symmetry_space_group_name_H-M "P 2"
_symmetry_group_IT_number 3
_symmetry_cell_setting 'monoclinic'
loop_
_space_group_symop_operation_xyz
x,y,z
-x,y,-z
loop_
_atom_site_type_symbol
_atom_site_label
_atom_site_fract_x
_atom_site_fract_y
_atom_site_fract_z
Si Si1 0.940675 0.968960 0.709639
Si Si2 0.703373 0.399535 0.924909
Si Si3 0.000000 0.208136 0.500000
Si Si4 0.609966 0.445973 0.768351
Si Si5 0.000000 0.020792 0.000000
Si Si6 0.854693 0.758271 0.168993
Si Si7 0.233701 0.738216 0.532349
O O1 0.084439 0.982938 0.772320
O O2 0.126082 0.890334 0.620486
O O3 0.763940 0.718526 0.743239
O O4 0.774014 0.219810 0.706733
O O5 0.594570 0.314520 0.856935
O O6 0.911202 0.590432 0.872377
O O7 0.500000 0.538953 0.000000
O O8 0.826272 0.184661 0.966111
O O9 0.109407 0.442207 0.541567
O O10 0.197761 0.968161 0.468306
O O11 0.356152 0.558319 0.779806
O O12 0.833007 0.868897 0.083862
O O13 0.500000 0.679278 0.500000
#
# Coordination Sequence:
#
# PCOD9114007 Si02
#       7
#     2   2   1   2   1   2   2
#     4  11  26  46  70 109 147 193 246 305 370 442
#     4  11  24  41  65  98 139 190 256 315 366 430
#     4  10  24  44  74 116 144 188 244 290 370 454
#     4  11  25  45  69 100 149 192 249 307 366 439
#     4  12  22  40  68 100 138 200 260 300 380 436
#     4  11  26  44  69 102 144 203 253 301 382 430
#     4  11  24  47  79 113 153 194 245 306 373 452
#
# _framework density 24.776060000000001
#
# number of rings (size 3 to 8) (size 9 to 14) (size 15 to 20)
#    0.000    1.000    1.667    4.000    4.667    4.667 
#    0.000    1.667    0.000    0.000    0.000    0.000 
#    0.000    0.000    0.000    0.000    0.000    0.000 
#
# Total GULP energy -66878.288322 kJ/mol
# GULP energy per Si atom -5573.190693 kJ/mol
# Density = 2.471967 g / cm^3
# Si number density = 24.776060 Si / 1000 Ang^3
#
#
#
# Elastic Constant Matrix: (Units=GPa)
#
#
# Indices 1 2 3 4 5 6 
#
# 1 84.7607 43.3150 71.3716 0.0000 -18.5280 0.0000
# 2 43.3150 144.2803 17.4989 0.0000 -7.9652 0.0000
# 3 71.3716 17.4989 91.8285 0.0000 -30.5096 0.0000
# 4 0.0000 0.0000 0.0000 34.9183 0.0000 -8.4766
# 5 -18.5280 -7.9652 -30.5096 0.0000 35.5019 0.0000
# 6 0.0000 0.0000 0.0000 -8.4766 0.0000 15.6761
#
#
#
# Elastic Compliance Matrix: (Units=1/GPa)
#
#
# Indices 1 2 3 4 5 6 
#
# 1 0.045936 -0.009840 -0.037225 0.000000 -0.010224 0.000000
# 2 -0.009840 0.009212 0.006821 0.000000 0.002793 0.000000
# 3 -0.037225 0.006821 0.045594 0.000000 0.021286 0.000000
# 4 0.000000 0.000000 0.000000 0.032966 0.000000 0.017826
# 5 -0.010224 0.002793 0.021286 0.000000 0.041751 0.000000
# 6 0.000000 0.000000 0.000000 0.017826 0.000000 0.073430
#
#
# Mechanical properties :
#
#
# Convention : Reuss Voigt Hill
#
# Bulk Modulus (GPa) = 49.37349 65.02673 57.20011
# Shear Modulus (GPa) = 14.87522 29.79819 22.33670
#
# Velocity S-wave (km/s) = 2.45294 3.47176 3.00583
# Velocity P-wave (km/s) = 5.29091 6.50950 5.93158
#
# Compressibility (1/GPa) = 0.02025378
#
# Stress axis : x y z
#
# Youngs Moduli (GPa) = 21.76929 108.55254 21.93253
#
# Poissons Ratio (x) = 1.06820 0.81643
# Poissons Ratio (y) = 0.21422 -0.14959
# Poissons Ratio (z) = 0.81036 -0.74040
#
# Static dielectric constant tensor:
#      x y z
#    x 2.177790 0.000000 0.173040 
#    y 0.000000 1.988380 0.000000 
#    z 0.173040 0.000000 2.129410 
# 
# From -- ./inp_files/15524.got.cif
#   From: 2010.05.17/outbox.cif.g08.bks.cpg/sg3_8_cif.got.tgz:15524.got - 2010.06.03 18:33:08.
