data_PCOD9114258
_publ_section_title
;
Structure prediction by ZEFSAII (Michael W. Deem and Ramdas Pophale) SiO2 
 PCOD9114258
Probable space group: P 2
;
_chemical_formula_sum "Si O2"
_cell_formula_units_Z 13
_cell_length_a 17.497619
_cell_length_b 5.257931
_cell_length_c 5.937103
_cell_angle_alpha 90.000000
_cell_angle_beta 79.692643
_cell_angle_gamma 90.000000
_cell_volume 537.406160
_symmetry_space_group_name_H-M "P 2"
_symmetry_group_IT_number 3
_symmetry_cell_setting 'monoclinic'
loop_
_space_group_symop_operation_xyz
x,y,z
-x,y,-z
loop_
_atom_site_type_symbol
_atom_site_label
_atom_site_fract_x
_atom_site_fract_y
_atom_site_fract_z
Si Si1 0.697707 0.448950 0.643561
Si Si2 0.415982 0.632683 0.655039
Si Si3 0.842124 0.720795 0.605119
Si Si4 0.638126 0.122685 0.064997
Si Si5 0.000000 0.418041 0.500000
Si Si6 0.207702 0.106479 0.746146
Si Si7 0.067477 0.062641 0.093584
O O1 0.644263 0.636628 0.524234
O O2 0.764250 0.592443 0.750229
O O3 0.753504 0.303050 0.443029
O O4 0.647685 0.244019 0.810924
O O5 0.500000 0.648962 0.500000
O O6 0.400466 0.357363 0.776723
O O7 0.404185 0.859469 0.843553
O O8 0.919159 0.562968 0.504744
O O9 0.814105 0.865155 0.395401
O O10 0.877160 0.905042 0.773834
O O11 0.725369 0.071174 0.105512
O O12 0.019236 0.249369 0.274415
O O13 0.128449 0.198302 0.899062
O O14 0.000000 0.908086 0.000000
#
# Coordination Sequence:
#
# PCOD9114258 Si02
#       7
#     2   2   2   2   1   2   2
#     4  11  26  47  77 111 152 202 264 317 392 480
#     4  11  26  50  79 120 161 207 259 324 394 480
#     4  12  24  44  71 101 142 195 261 322 389 478
#     4  11  25  46  81 113 157 207 257 322 396 465
#     4  12  26  44  64 102 140 194 254 320 396 470
#     4  11  24  45  70 104 144 194 255 321 389 468
#     4  12  26  44  66  97 143 195 252 326 396 460
#
# _framework density 24.190270000000002
#
# number of rings (size 3 to 8) (size 9 to 14) (size 15 to 20)
#    0.000    0.615    1.538    6.462    4.308    3.692 
#    0.000    4.615    0.000    0.000    0.000    0.000 
#    0.000    0.000    0.000    0.000    0.000    0.000 
#
# Total GULP energy -72710.335523 kJ/mol
# GULP energy per Si atom -5593.102733 kJ/mol
# Density = 2.413521 g / cm^3
# Si number density = 24.190270 Si / 1000 Ang^3
#
#
#
# Elastic Constant Matrix: (Units=GPa)
#
#
# Indices 1 2 3 4 5 6 
#
# 1 119.1058 41.0570 39.0940 0.0000 -42.9281 0.0000
# 2 41.0570 107.6947 35.3855 0.0000 -16.2913 0.0000
# 3 39.0940 35.3855 100.4835 0.0000 -33.8532 0.0000
# 4 0.0000 0.0000 0.0000 90.9362 0.0000 13.9751
# 5 -42.9281 -16.2913 -33.8532 0.0000 36.0695 0.0000
# 6 0.0000 0.0000 0.0000 13.9751 0.0000 42.8724
#
#
#
# Elastic Compliance Matrix: (Units=1/GPa)
#
#
# Indices 1 2 3 4 5 6 
#
# 1 0.015908 -0.003708 0.001361 0.000000 0.018536 0.000000
# 2 -0.003708 0.011451 -0.003414 0.000000 -0.002445 0.000000
# 3 0.001361 -0.003414 0.015576 0.000000 0.014697 0.000000
# 4 0.000000 0.000000 0.000000 0.011577 0.000000 -0.003774
# 5 0.018536 -0.002445 0.014697 0.000000 0.062474 0.000000
# 6 0.000000 0.000000 0.000000 -0.003774 0.000000 0.024555
#
#
# Mechanical properties :
#
#
# Convention : Reuss Voigt Hill
#
# Bulk Modulus (GPa) = 31.83258 62.03964 46.93611
# Shear Modulus (GPa) = 30.57502 48.09214 39.33358
#
# Velocity S-wave (km/s) = 3.55905 4.46362 4.03675
# Velocity P-wave (km/s) = 5.48424 7.22962 6.41656
#
# Compressibility (1/GPa) = 0.03141436
#
# Stress axis : x y z
#
# Youngs Moduli (GPa) = 62.86208 87.32963 64.20202
#
# Poissons Ratio (x) = 0.32382 -0.08741
# Poissons Ratio (y) = 0.23309 0.21915
# Poissons Ratio (z) = -0.08558 0.29810
#
# Static dielectric constant tensor:
#      x y z
#    x 1.937580 0.000000 0.081430 
#    y 0.000000 2.017080 0.000000 
#    z 0.081430 0.000000 1.970470 
# 
# From -- ./inp_files/3438.got.cif
#   From: 2010.05.17/outbox.cif.g08.bks.cpg/sg3_2_cif.got.tgz:3438.got - 2010.06.03 18:33:08.
