data_PCOD9114741
_publ_section_title
;
Structure prediction by ZEFSAII (Michael W. Deem and Ramdas Pophale) SiO2 
 PCOD9114741
Probable space group: P 21
;
_chemical_formula_sum "Si O2"
_cell_formula_units_Z 14
_cell_length_a 9.844905
_cell_length_b 5.751028
_cell_length_c 19.035747
_cell_angle_alpha 90.000000
_cell_angle_beta 36.722325
_cell_angle_gamma 90.000000
_cell_volume 644.440363
_symmetry_space_group_name_H-M "P 21"
_symmetry_group_IT_number 4
_symmetry_cell_setting 'monoclinic'
loop_
_space_group_symop_operation_xyz
x,y,z
-x,1/2+y,-z
loop_
_atom_site_type_symbol
_atom_site_label
_atom_site_fract_x
_atom_site_fract_y
_atom_site_fract_z
Si Si1 0.250541 0.634440 0.164926
Si Si2 0.453401 0.986530 0.678511
Si Si3 0.463078 0.970866 0.377946
Si Si4 0.680360 0.869769 0.997817
Si Si5 0.787770 0.407643 0.373436
Si Si6 0.986180 0.562864 0.043447
Si Si7 0.037869 0.520529 0.789926
O O1 0.454047 0.754776 0.122034
O O2 0.122209 0.820695 0.170103
O O3 0.032907 0.518673 0.290649
O O4 0.367833 0.458306 0.061263
O O5 0.576952 0.734255 0.632875
O O6 0.336765 0.988727 0.647755
O O7 0.605744 0.218807 0.624654
O O8 0.245629 0.004637 0.818846
O O9 0.373564 0.956641 0.494879
O O10 0.737212 0.953708 0.262191
O O11 0.791021 0.066845 0.999147
O O12 0.885391 0.690634 0.899590
O O13 0.862077 0.148705 0.320771
O O14 0.971034 0.822982 0.018150
#
# Coordination Sequence:
#
# PCOD9114741 Si02
#       7
#     2   2   2   2   2   2   2
#     4  11  20  34  58  84 127 156 193 244 324 374
#     4  11  20  36  55  82 121 154 195 249 296 354
#     4  11  20  33  58  85 128 150 189 244 311 380
#     4  11  22  37  58  88 119 169 199 249 309 377
#     4  10  21  31  53  90 121 153 189 236 318 378
#     4  12  26  41  62  87 125 169 215 254 290 352
#     4  10  19  32  52  80 123 153 188 234 304 371
#
# _framework density 21.724276
#
# number of rings (size 3 to 8) (size 9 to 14) (size 15 to 20)
#    0.000    1.143    7.143    2.571    4.000    0.000 
#    0.000    0.000    0.000    0.000    0.000    4.000 
#    0.000    0.000    0.000    0.000    0.000    0.000 
#
# Total GULP energy -77986.838063 kJ/mol
# GULP energy per Si atom -5570.488433 kJ/mol
# Density = 2.167483 g / cm^3
# Si number density = 21.724276 Si / 1000 Ang^3
#
#
#
# Elastic Constant Matrix: (Units=GPa)
#
#
# Indices 1 2 3 4 5 6 
#
# 1 17.0261 3.6660 12.8153 0.0000 -3.7436 0.0000
# 2 3.6660 141.5912 36.8841 0.0000 8.2423 0.0000
# 3 12.8153 36.8841 91.6617 0.0000 4.3933 0.0000
# 4 0.0000 0.0000 0.0000 8.4704 0.0000 19.4500
# 5 -3.7436 8.2423 4.3933 0.0000 24.1311 0.0000
# 6 0.0000 0.0000 0.0000 19.4500 0.0000 15.3047
#
#
#
# Elastic Compliance Matrix: (Units=1/GPa)
#
#
# Indices 1 2 3 4 5 6 
#
# 1 0.069254 0.000172 -0.010354 0.000000 0.012570 0.000000
# 2 0.000172 0.008001 -0.003141 0.000000 -0.002134 0.000000
# 3 -0.010354 -0.003141 0.013767 0.000000 -0.003040 0.000000
# 4 0.000000 0.000000 0.000000 -0.061547 0.000000 0.078217
# 5 0.012570 -0.002134 -0.003040 0.000000 0.044673 0.000000
# 6 0.000000 0.000000 0.000000 0.078217 0.000000 -0.034063
#
#
# Mechanical properties :
#
#
# Convention : Reuss Voigt Hill
#
# Bulk Modulus (GPa) = 15.53394 39.66773 27.60084
# Shear Modulus (GPa) = 56.69692 22.70881 39.70286
#
# Velocity S-wave (km/s) = 5.11420 3.23665 4.27966
# Velocity P-wave (km/s) = 6.48378 5.68042 6.09535
#
# Compressibility (1/GPa) = 0.06437516
#
# Stress axis : x y z
#
# Youngs Moduli (GPa) = 14.43970 124.99015 72.63730
#
# Poissons Ratio (x) = -0.02156 0.75211
# Poissons Ratio (y) = -0.00249 0.22817
# Poissons Ratio (z) = 0.14951 0.39262
#
# Static dielectric constant tensor:
#      x y z
#    x 1.799830 0.000000 0.023690 
#    y 0.000000 1.944860 0.000000 
#    z 0.023690 0.000000 1.773090 
# 
# From -- ./inp_files/11466.got.cif
#   From: 2010.05.17/outbox.cif.g08.bks.cpg/sg4_6_cif.got.tgz:11466.got - 2010.06.03 18:43:04.
