data_PCOD9114601
_publ_section_title
;
Structure prediction by ZEFSAII (Michael W. Deem and Ramdas Pophale) SiO2 
 PCOD9114601
Probable space group: P 21
;
_chemical_formula_sum "Si O2"
_cell_formula_units_Z 12
_cell_length_a 5.107124
_cell_length_b 16.093710
_cell_length_c 4.861258
_cell_angle_alpha 90.000000
_cell_angle_beta 94.365815
_cell_angle_gamma 90.000000
_cell_volume 398.399919
_symmetry_space_group_name_H-M "P 21"
_symmetry_group_IT_number 4
_symmetry_cell_setting 'monoclinic'
loop_
_space_group_symop_operation_xyz
x,y,z
-x,1/2+y,-z
loop_
_atom_site_type_symbol
_atom_site_label
_atom_site_fract_x
_atom_site_fract_y
_atom_site_fract_z
Si Si1 0.194206 0.342630 0.034384
Si Si2 0.110480 0.186812 0.258296
Si Si3 0.772158 0.451047 0.452514
Si Si4 0.088246 0.595918 0.250440
Si Si5 0.557448 0.998560 0.072249
Si Si6 0.509602 0.294827 0.549521
O O1 0.994003 0.268204 0.088865
O O2 0.190541 0.434958 0.913852
O O3 0.311822 0.352608 0.350593
O O4 0.400756 0.297022 0.848241
O O5 0.400039 0.209941 0.399992
O O6 0.940077 0.165026 0.514130
O O7 0.106350 0.119412 0.016777
O O8 0.008961 0.514458 0.415896
O O9 0.766644 0.354453 0.553482
O O10 0.574704 0.499693 0.642492
O O11 0.346668 0.577923 0.091912
O O12 0.346581 0.951158 0.865081
#
# Coordination Sequence:
#
# PCOD9114601 Si02
#       6
#     2   2   2   2   2   2
#     4   8  15  32  56  75 106 157 180 213 285 336
#     4  10  18  34  56  88 112 150 182 232 292 328
#     4  10  21  38  60  83 115 149 190 232 277 337
#     4  12  22  34  64  88 110 146 194 234 284 326
#     4  10  21  38  60  83 115 149 190 232 277 337
#     4   8  15  32  56  75 106 157 180 213 285 336
#
# _framework density 30.120488999999999
#
# number of rings (size 3 to 8) (size 9 to 14) (size 15 to 20)
#    1.000    1.333    1.667    2.000    0.000    0.000 
#    0.000    0.000   11.000    0.000    0.000    0.000 
#    0.000    0.000    0.000    0.000    0.000    0.000 
#
# Total GULP energy -66886.146603 kJ/mol
# GULP energy per Si atom -5573.845550 kJ/mol
# Density = 3.005193 g / cm^3
# Si number density = 30.120489 Si / 1000 Ang^3
#
#
#
# Elastic Constant Matrix: (Units=GPa)
#
#
# Indices 1 2 3 4 5 6 
#
# 1 61.5591 23.8928 53.1522 0.0000 -23.8812 0.0000
# 2 23.8928 72.7812 33.3010 0.0000 12.1845 0.0000
# 3 53.1522 33.3010 225.1721 0.0000 -10.3073 0.0000
# 4 0.0000 0.0000 0.0000 92.9733 0.0000 12.7802
# 5 -23.8812 12.1845 -10.3073 0.0000 43.6317 0.0000
# 6 0.0000 0.0000 0.0000 12.7802 0.0000 29.1094
#
#
#
# Elastic Compliance Matrix: (Units=1/GPa)
#
#
# Indices 1 2 3 4 5 6 
#
# 1 0.033183 -0.011938 -0.005139 0.000000 0.020282 0.000000
# 2 -0.011938 0.020042 -0.000709 0.000000 -0.012298 0.000000
# 3 -0.005139 -0.000709 0.005701 0.000000 -0.001268 0.000000
# 4 0.000000 0.000000 0.000000 0.011447 0.000000 -0.005026
# 5 0.020282 -0.012298 -0.001268 0.000000 0.037155 0.000000
# 6 0.000000 0.000000 0.000000 -0.005026 0.000000 0.036560
#
#
# Mechanical properties :
#
#
# Convention : Reuss Voigt Hill
#
# Bulk Modulus (GPa) = 42.81783 64.46718 53.64251
# Shear Modulus (GPa) = 26.67459 49.75396 38.21427
#
# Velocity S-wave (km/s) = 2.97913 4.06868 3.56576
# Velocity P-wave (km/s) = 5.10685 6.59710 5.89923
#
# Compressibility (1/GPa) = 0.02335476
#
# Stress axis : x y z
#
# Youngs Moduli (GPa) = 30.13555 49.89506 175.40877
#
# Poissons Ratio (x) = 0.59563 0.90144
# Poissons Ratio (y) = 0.35975 0.12438
# Poissons Ratio (z) = 0.15487 0.03538
#
# Static dielectric constant tensor:
#      x y z
#    x 2.533490 0.000000 0.010070 
#    y 0.000000 2.688980 0.000000 
#    z 0.010070 0.000000 2.125700 
# 
# From -- ./inp_files/1660.got.cif
#   From: 2010.05.17/outbox.cif.g08.bks.cpg/sg4_1_cif.got.tgz:1660.got - 2010.06.03 18:43:04.
