data_PCOD9114016
_publ_section_title
;
Structure prediction by ZEFSAII (Michael W. Deem and Ramdas Pophale) SiO2 
 PCOD9114016
Probable space group: P 2
;
_chemical_formula_sum "Si O2"
_cell_formula_units_Z 12
_cell_length_a 9.668940
_cell_length_b 9.067277
_cell_length_c 8.424666
_cell_angle_alpha 90.000000
_cell_angle_beta 134.373872
_cell_angle_gamma 90.000000
_cell_volume 527.944076
_symmetry_space_group_name_H-M "P 2"
_symmetry_group_IT_number 3
_symmetry_cell_setting 'monoclinic'
loop_
_space_group_symop_operation_xyz
x,y,z
-x,y,-z
loop_
_atom_site_type_symbol
_atom_site_label
_atom_site_fract_x
_atom_site_fract_y
_atom_site_fract_z
Si Si1 0.779126 0.906200 0.026211
Si Si2 0.734364 0.670100 0.706386
Si Si3 0.782102 0.397388 0.961396
Si Si4 0.076941 0.643311 0.725354
Si Si5 0.508907 0.131004 0.323379
Si Si6 0.956945 0.169831 0.653470
O O1 0.785224 0.797722 0.876897
O O2 0.586419 0.002424 0.856986
O O3 0.804755 0.794822 0.192239
O O4 0.948362 0.025503 0.188308
O O5 0.500000 0.678217 0.500000
O O6 0.886082 0.679159 0.681480
O O7 0.782094 0.506170 0.811032
O O8 0.774585 0.523107 0.088754
O O9 0.962167 0.300274 0.169231
O O10 0.613497 0.279193 0.804763
O O11 0.000000 0.586189 0.500000
O O12 0.500000 0.085740 0.500000
O O13 0.729369 0.160920 0.471482
O O14 0.000000 0.183607 0.500000
#
# Coordination Sequence:
#
# PCOD9114016 Si02
#       6
#     2   2   2   2   2   2
#     4  10  24  45  71 101 137 181 228 277 341 408
#     4  11  25  45  73 100 136 183 236 280 336 414
#     4  10  24  45  71 101 137 181 228 277 341 408
#     4  11  25  47  71  99 140 181 227 292 343 396
#     4  11  26  41  74 103 135 179 234 276 339 415
#     4  11  26  47  70 103 144 178 225 287 346 400
#
# _framework density 22.729679000000001
#
# number of rings (size 3 to 8) (size 9 to 14) (size 15 to 20)
#    0.000    1.333    0.000    4.000   14.000    4.000 
#    6.000    1.667    0.000    0.000    0.000    0.000 
#    0.000    0.000    0.000    0.000    0.000    0.000 
#
# Total GULP energy -66979.228332 kJ/mol
# GULP energy per Si atom -5581.602361 kJ/mol
# Density = 2.267795 g / cm^3
# Si number density = 22.729679 Si / 1000 Ang^3
#
#
#
# Elastic Constant Matrix: (Units=GPa)
#
#
# Indices 1 2 3 4 5 6 
#
# 1 65.0643 -4.7038 45.4113 0.0000 20.4341 0.0000
# 2 -4.7038 144.0396 35.3454 0.0000 20.0709 0.0000
# 3 45.4113 35.3454 134.0693 0.0000 33.0930 0.0000
# 4 0.0000 0.0000 0.0000 38.3490 0.0000 10.0812
# 5 20.4341 20.0709 33.0930 0.0000 44.0666 0.0000
# 6 0.0000 0.0000 0.0000 10.0812 0.0000 10.0588
#
#
#
# Elastic Compliance Matrix: (Units=1/GPa)
#
#
# Indices 1 2 3 4 5 6 
#
# 1 0.022530 0.003366 -0.006827 0.000000 -0.006854 0.000000
# 2 0.003366 0.008129 -0.002435 0.000000 -0.003434 0.000000
# 3 -0.006827 -0.002435 0.011487 0.000000 -0.004352 0.000000
# 4 0.000000 0.000000 0.000000 0.035404 0.000000 -0.035483
# 5 -0.006854 -0.003434 -0.004352 0.000000 0.030703 0.000000
# 6 0.000000 0.000000 0.000000 -0.035483 0.000000 0.134977
#
#
# Mechanical properties :
#
#
# Convention : Reuss Voigt Hill
#
# Bulk Modulus (GPa) = 32.94524 55.03098 43.98811
# Shear Modulus (GPa) = 18.85785 36.30289 27.58037
#
# Velocity S-wave (km/s) = 2.88350 4.00078 3.48718
# Velocity P-wave (km/s) = 5.06083 6.75317 5.96730
#
# Compressibility (1/GPa) = 0.03035340
#
# Stress axis : x y z
#
# Youngs Moduli (GPa) = 44.38516 123.02229 87.05140
#
# Poissons Ratio (x) = -0.41409 0.59429
# Poissons Ratio (y) = -0.14940 0.21201
# Poissons Ratio (z) = 0.30301 0.29961
#
# Static dielectric constant tensor:
#      x y z
#    x 1.765230 0.000000 -0.000380 
#    y 0.000000 1.864580 0.000000 
#    z -0.000380 0.000000 1.831950 
# 
# From -- ./inp_files/7547.got.cif
#   From: 2010.05.17/outbox.cif.g08.bks.cpg/sg3_4_cif.got.tgz:7547.got - 2010.06.03 18:33:08.
