data_PCOD9114456
_publ_section_title
;
Structure prediction by ZEFSAII (Michael W. Deem and Ramdas Pophale) SiO2 
 PCOD9114456
Probable space group: P 21
;
_chemical_formula_sum "Si O2"
_cell_formula_units_Z 16
_cell_length_a 11.693301
_cell_length_b 14.371115
_cell_length_c 5.429594
_cell_angle_alpha 90.000000
_cell_angle_beta 62.358653
_cell_angle_gamma 90.000000
_cell_volume 808.284893
_symmetry_space_group_name_H-M "P 21"
_symmetry_group_IT_number 4
_symmetry_cell_setting 'monoclinic'
loop_
_space_group_symop_operation_xyz
x,y,z
-x,1/2+y,-z
loop_
_atom_site_type_symbol
_atom_site_label
_atom_site_fract_x
_atom_site_fract_y
_atom_site_fract_z
Si Si1 0.750662 0.252880 0.749120
Si Si2 0.800331 0.138468 0.199507
Si Si3 0.170615 0.959713 0.328186
Si Si4 0.535824 0.714172 0.965886
Si Si5 0.656088 0.672530 0.345718
Si Si6 0.524430 0.493118 0.976881
Si Si7 0.444574 0.505481 0.556618
Si Si8 0.913312 0.557998 0.087988
O O1 0.780554 0.197585 0.468571
O O2 0.828119 0.348713 0.672182
O O3 0.596516 0.270991 0.902551
O O4 0.780138 0.197639 0.970594
O O5 0.689811 0.059605 0.309949
O O6 0.943412 0.097771 0.055969
O O7 0.109392 0.999840 0.638962
O O8 0.321414 0.989271 0.177662
O O9 0.109782 0.999464 0.138583
O O10 0.617481 0.724339 0.133410
O O11 0.489683 0.604225 0.012037
O O12 0.617911 0.724183 0.635204
O O13 0.563424 0.580443 0.438315
O O14 0.802633 0.637593 0.198591
O O15 0.465629 0.451500 0.283258
O O16 0.465005 0.451682 0.788984
#
# Coordination Sequence:
#
# PCOD9114456 Si02
#       8
#     2   2   2   2   2   2   2   2
#     4  12  23  38  60  92 123 154 197 262 306 348
#     4  12  23  38  60  93 112 166 209 240 290 374
#     4  12  23  38  60  92 123 154 197 262 306 348
#     4  10  16  32  59  84 114 144 192 237 283 346
#     4  10  16  32  59  83 114 136 199 239 269 337
#     4  10  16  32  59  84 114 144 192 237 283 346
#     4  10  16  32  59  83 114 136 199 239 269 337
#     4  12  23  38  60  93 112 166 209 240 290 374
#
# _framework density 19.795002
#
# number of rings (size 3 to 8) (size 9 to 14) (size 15 to 20)
#    0.000    1.000   10.000    1.500    0.000    0.000 
#    0.000    0.000    0.000    9.000    0.000    0.000 
#    0.000    0.000    0.000    0.000    0.000    0.000 
#
# Total GULP energy -89371.300884 kJ/mol
# GULP energy per Si atom -5585.706305 kJ/mol
# Density = 1.974995 g / cm^3
# Si number density = 19.795002 Si / 1000 Ang^3
#
#
#
# Elastic Constant Matrix: (Units=GPa)
#
#
# Indices 1 2 3 4 5 6 
#
# 1 137.4683 41.0499 119.0549 0.0000 5.6386 0.0000
# 2 41.0499 46.6999 44.5792 0.0000 2.0739 0.0000
# 3 119.0549 44.5792 176.0935 0.0000 40.7319 0.0000
# 4 0.0000 0.0000 0.0000 13.5839 0.0000 -2.1332
# 5 5.6386 2.0739 40.7319 0.0000 61.3576 0.0000
# 6 0.0000 0.0000 0.0000 -2.1332 0.0000 15.2716
#
#
#
# Elastic Compliance Matrix: (Units=1/GPa)
#
#
# Indices 1 2 3 4 5 6 
#
# 1 0.021682 -0.004728 -0.015404 0.000000 0.008393 0.000000
# 2 -0.004728 0.030350 -0.005139 0.000000 0.002820 0.000000
# 3 -0.015404 -0.005139 0.020115 0.000000 -0.011764 0.000000
# 4 0.000000 0.000000 0.000000 0.075267 0.000000 0.010514
# 5 0.008393 0.002820 -0.011764 0.000000 0.023241 0.000000
# 6 0.000000 0.000000 0.000000 0.010514 0.000000 0.066950
#
#
# Mechanical properties :
#
#
# Convention : Reuss Voigt Hill
#
# Bulk Modulus (GPa) = 46.28341 85.51444 65.89892
# Shear Modulus (GPa) = 16.92916 28.41446 22.67181
#
# Velocity S-wave (km/s) = 2.92759 3.79283 3.38794
# Velocity P-wave (km/s) = 5.90422 7.90408 6.97619
#
# Compressibility (1/GPa) = 0.02160601
#
# Stress axis : x y z
#
# Youngs Moduli (GPa) = 46.12055 32.94934 49.71348
#
# Poissons Ratio (x) = 0.15577 0.76577
# Poissons Ratio (y) = 0.21804 0.25549
# Poissons Ratio (z) = 0.71043 0.16934
#
# Static dielectric constant tensor:
#      x y z
#    x 1.684120 0.000000 0.063470 
#    y 0.000000 1.720330 0.000000 
#    z 0.063470 0.000000 1.729060 
# 
# From -- ./inp_files/3210.got.cif
#   From: 2010.05.17/outbox.cif.g08.bks.cpg/sg4_2_cif.got.tgz:3210.got - 2010.06.03 18:43:04.
