data_PCOD9114929
_publ_section_title
;
Structure prediction by ZEFSAII (Michael W. Deem and Ramdas Pophale) SiO2 
 PCOD9114929
Probable space group: P 21
;
_chemical_formula_sum "Si O2"
_cell_formula_units_Z 16
_cell_length_a 19.967772
_cell_length_b 5.159087
_cell_length_c 24.041643
_cell_angle_alpha 90.000000
_cell_angle_beta 20.860927
_cell_angle_gamma 90.000000
_cell_volume 881.941126
_symmetry_space_group_name_H-M "P 21"
_symmetry_group_IT_number 4
_symmetry_cell_setting 'monoclinic'
loop_
_space_group_symop_operation_xyz
x,y,z
-x,1/2+y,-z
loop_
_atom_site_type_symbol
_atom_site_label
_atom_site_fract_x
_atom_site_fract_y
_atom_site_fract_z
Si Si1 0.851469 0.574890 0.816096
Si Si2 0.954840 0.576414 0.381481
Si Si3 0.673396 0.558162 0.500672
Si Si4 0.872348 0.056990 0.297733
Si Si5 0.471056 0.458862 0.060115
Si Si6 0.955265 0.938540 0.568341
Si Si7 0.770530 0.989176 0.144527
Si Si8 0.025677 0.989260 0.055386
O O1 0.956459 0.359781 0.696612
O O2 0.943923 0.547469 0.804939
O O3 0.631914 0.517757 0.980617
O O4 0.902572 0.858923 0.753426
O O5 0.770678 0.555688 0.486050
O O6 0.929825 0.512320 0.465303
O O7 0.764932 0.322665 0.395041
O O8 0.451146 0.528368 0.678162
O O9 0.737813 0.822782 0.421206
O O10 0.934325 0.029680 0.186247
O O11 0.263363 0.462907 0.246044
O O12 0.491554 0.683636 0.998029
O O13 0.003178 0.149763 0.484435
O O14 0.866475 0.998851 0.131030
O O15 0.867410 0.217164 0.033842
O O16 0.827977 0.717226 0.072591
#
# Coordination Sequence:
#
# PCOD9114929 Si02
#       8
#     2   2   2   2   2   2   2   2
#     4  10  19  37  59  82 104 145 191 227 271 329
#     4  10  20  38  58  77 114 147 178 229 283 327
#     4  10  21  37  60  84 108 150 189 224 274 334
#     4  10  21  36  59  85 113 140 188 240 268 310
#     4  12  21  38  63  79 104 152 191 222 270 342
#     4  12  24  38  55  84 116 140 182 238 280 320
#     4  10  21  38  58  82 117 154 183 212 283 341
#     4  10  21  38  58  83 118 150 178 232 273 321
#
# _framework density 18.141798999999999
#
# number of rings (size 3 to 8) (size 9 to 14) (size 15 to 20)
#    0.000    1.500    2.500    3.000    0.000    1.000 
#    4.500    0.000    0.000    0.000    0.000    0.000 
#    0.000    0.000    0.000    0.000    0.000    0.000 
#
# Total GULP energy -89390.444311 kJ/mol
# GULP energy per Si atom -5586.902769 kJ/mol
# Density = 1.810051 g / cm^3
# Si number density = 18.141799 Si / 1000 Ang^3
#
#
#
# Elastic Constant Matrix: (Units=GPa)
#
#
# Indices 1 2 3 4 5 6 
#
# 1 41.8748 -19.6652 16.8132 0.0000 5.1399 0.0000
# 2 -19.6652 51.6384 -23.8810 0.0000 -2.3547 0.0000
# 3 16.8132 -23.8810 59.1154 0.0000 -12.8737 0.0000
# 4 0.0000 0.0000 0.0000 17.5921 0.0000 1.7968
# 5 5.1399 -2.3547 -12.8737 0.0000 25.3011 0.0000
# 6 0.0000 0.0000 0.0000 1.7968 0.0000 19.8424
#
#
#
# Elastic Compliance Matrix: (Units=1/GPa)
#
#
# Indices 1 2 3 4 5 6 
#
# 1 0.032096 0.008068 -0.008014 0.000000 -0.009847 0.000000
# 2 0.008068 0.027374 0.010078 0.000000 0.006037 0.000000
# 3 -0.008014 0.010078 0.026794 0.000000 0.016199 0.000000
# 4 0.000000 0.000000 0.000000 0.057374 0.000000 -0.005196
# 5 -0.009847 0.006037 0.016199 0.000000 0.050329 0.000000
# 6 0.000000 0.000000 0.000000 -0.005196 0.000000 0.050868
#
#
# Mechanical properties :
#
#
# Convention : Reuss Voigt Hill
#
# Bulk Modulus (GPa) = 9.38710 11.01808 10.20259
# Shear Modulus (GPa) = 19.22488 24.50456 21.86472
#
# Velocity S-wave (km/s) = 3.25884 3.67921 3.47538
# Velocity P-wave (km/s) = 4.39836 4.91276 4.66266
#
# Compressibility (1/GPa) = 0.10652913
#
# Stress axis : x y z
#
# Youngs Moduli (GPa) = 31.15679 36.53101 37.32115
#
# Poissons Ratio (x) = -0.29472 0.29908
# Poissons Ratio (y) = -0.25137 -0.37614
# Poissons Ratio (z) = 0.24968 -0.36817
#
# Static dielectric constant tensor:
#      x y z
#    x 1.625900 0.000000 -0.016850 
#    y 0.000000 1.615920 0.000000 
#    z -0.016850 0.000000 1.571800 
# 
# From -- ./inp_files/15356.got.cif
#   From: 2010.05.17/outbox.cif.g08.bks.cpg/sg4_8_cif.got.tgz:15356.got - 2010.06.03 18:43:04.
