data_PCOD9114128
_publ_section_title
;
Structure prediction by ZEFSAII (Michael W. Deem and Ramdas Pophale) SiO2 
 PCOD9114128
Probable space group: P 2
;
_chemical_formula_sum "Si O2"
_cell_formula_units_Z 16
_cell_length_a 9.789713
_cell_length_b 7.770755
_cell_length_c 9.261370
_cell_angle_alpha 90.000000
_cell_angle_beta 81.436962
_cell_angle_gamma 90.000000
_cell_volume 696.690662
_symmetry_space_group_name_H-M "P 2"
_symmetry_group_IT_number 3
_symmetry_cell_setting 'monoclinic'
loop_
_space_group_symop_operation_xyz
x,y,z
-x,y,-z
loop_
_atom_site_type_symbol
_atom_site_label
_atom_site_fract_x
_atom_site_fract_y
_atom_site_fract_z
Si Si1 0.320667 0.882590 0.880581
Si Si2 0.237946 0.565852 0.318643
Si Si3 0.967891 0.255324 0.653737
Si Si4 0.777472 0.256156 0.184615
Si Si5 0.714359 0.086772 0.825960
Si Si6 0.585486 0.871383 0.633011
Si Si7 0.484640 0.390732 0.153689
Si Si8 0.155157 0.576567 0.000658
O O1 0.467099 0.855581 0.777575
O O2 0.246768 0.698779 0.885503
O O3 0.240772 0.049772 0.827337
O O4 0.313418 0.940286 0.050744
O O5 0.122471 0.424886 0.377429
O O6 0.284810 0.738285 0.392235
O O7 0.388002 0.479291 0.284451
O O8 0.195725 0.603032 0.159768
O O9 0.870915 0.147019 0.777943
O O10 0.000000 0.158917 0.500000
O O11 0.112382 0.295683 0.708488
O O12 0.620696 0.325404 0.211397
O O13 0.833377 0.376010 0.044586
O O14 0.612980 0.238048 0.890103
O O15 0.660943 0.043032 0.674205
O O16 0.500000 0.875847 0.500000
O O17 0.500000 0.496969 0.000000
O O18 0.000000 0.632857 0.000000
#
# Coordination Sequence:
#
# PCOD9114128 Si02
#       8
#     2   2   2   2   2   2   2   2
#     4  12  26  43  78 107 146 191 253 317 375 429
#     4  11  24  44  71 102 146 193 246 309 372 450
#     4  11  28  48  71 102 154 206 246 304 382 458
#     4  12  24  42  72 108 146 187 253 305 370 452
#     4  11  23  44  73 105 140 189 248 308 370 442
#     4  12  27  46  71 110 150 192 250 312 384 455
#     4  11  19  37  71 105 131 178 243 313 363 426
#     4  12  25  41  69 112 144 190 250 315 374 440
#
# _framework density 22.965717000000001
#
# number of rings (size 3 to 8) (size 9 to 14) (size 15 to 20)
#    0.000    0.500    6.250    1.875    3.500    2.000 
#    0.000    3.125    0.000    0.000    0.000    0.000 
#    0.000    0.000    0.000    0.000    0.000    0.000 
#
# Total GULP energy -89192.488994 kJ/mol
# GULP energy per Si atom -5574.530562 kJ/mol
# Density = 2.291345 g / cm^3
# Si number density = 22.965717 Si / 1000 Ang^3
#
#
#
# Elastic Constant Matrix: (Units=GPa)
#
#
# Indices 1 2 3 4 5 6 
#
# 1 146.2474 10.4511 47.2731 0.0000 16.5128 0.0000
# 2 10.4511 55.6830 13.5229 0.0000 -0.3402 0.0000
# 3 47.2731 13.5229 84.4922 0.0000 19.1169 0.0000
# 4 0.0000 0.0000 0.0000 11.9882 0.0000 4.4895
# 5 16.5128 -0.3402 19.1169 0.0000 45.6380 0.0000
# 6 0.0000 0.0000 0.0000 4.4895 0.0000 12.0493
#
#
#
# Elastic Compliance Matrix: (Units=1/GPa)
#
#
# Indices 1 2 3 4 5 6 
#
# 1 0.008420 -0.000532 -0.004348 0.000000 -0.001229 0.000000
# 2 -0.000532 0.018817 -0.003081 0.000000 0.001623 0.000000
# 3 -0.004348 -0.003081 0.015919 0.000000 -0.005118 0.000000
# 4 0.000000 0.000000 0.000000 0.096942 0.000000 -0.036120
# 5 -0.001229 0.001623 -0.005118 0.000000 0.024512 0.000000
# 6 0.000000 0.000000 0.000000 -0.036120 0.000000 0.096451
#
#
# Mechanical properties :
#
#
# Convention : Reuss Voigt Hill
#
# Bulk Modulus (GPa) = 36.71876 47.65742 42.18809
# Shear Modulus (GPa) = 17.47882 28.28013 22.87947
#
# Velocity S-wave (km/s) = 2.76177 3.51295 3.15976
# Velocity P-wave (km/s) = 5.11791 6.10336 5.63223
#
# Compressibility (1/GPa) = 0.02723403
#
# Stress axis : x y z
#
# Youngs Moduli (GPa) = 118.76661 53.14379 62.81780
#
# Poissons Ratio (x) = 0.02827 0.27311
# Poissons Ratio (y) = 0.06318 0.19356
# Poissons Ratio (z) = 0.51635 0.16375
#
# Static dielectric constant tensor:
#      x y z
#    x 1.892620 0.000000 -0.042370 
#    y 0.000000 1.961360 0.000000 
#    z -0.042370 0.000000 1.919570 
# 
# From -- ./inp_files/5598.got.cif
#   From: 2010.05.17/outbox.cif.g08.bks.cpg/sg3_3_cif.got.tgz:5598.got - 2010.06.03 18:33:08.
