data_PCOD9114931
_publ_section_title
;
Structure prediction by ZEFSAII (Michael W. Deem and Ramdas Pophale) SiO2 
 PCOD9114931
Probable space group: P 21
;
_chemical_formula_sum "Si O2"
_cell_formula_units_Z 16
_cell_length_a 26.841730
_cell_length_b 5.314274
_cell_length_c 11.205980
_cell_angle_alpha 90.000000
_cell_angle_beta 148.373074
_cell_angle_gamma 90.000000
_cell_volume 838.215086
_symmetry_space_group_name_H-M "P 21"
_symmetry_group_IT_number 4
_symmetry_cell_setting 'monoclinic'
loop_
_space_group_symop_operation_xyz
x,y,z
-x,1/2+y,-z
loop_
_atom_site_type_symbol
_atom_site_label
_atom_site_fract_x
_atom_site_fract_y
_atom_site_fract_z
Si Si1 0.799267 0.774170 0.394179
Si Si2 0.107808 0.501779 0.629672
Si Si3 0.048619 0.883761 0.303460
Si Si4 0.806033 0.442586 0.770301
Si Si5 0.392789 0.810863 0.703597
Si Si6 0.881498 0.936731 0.799977
Si Si7 0.394129 0.308891 0.867825
Si Si8 0.076147 0.753797 0.785973
O O1 0.817406 0.841031 0.293351
O O2 0.848745 0.504202 0.512524
O O3 0.862009 0.931466 0.619028
O O4 0.691434 0.807392 0.213032
O O5 0.067745 0.678388 0.442698
O O6 0.142381 0.625810 0.821853
O O7 0.012806 0.353248 0.471443
O O8 0.978220 0.077079 0.230206
O O9 0.987111 0.852617 0.057473
O O10 0.696475 0.364836 0.562982
O O11 0.818561 0.709025 0.729119
O O12 0.849061 0.207665 0.782818
O O13 0.864294 0.447003 0.012638
O O14 0.381917 0.547094 0.753060
O O15 0.388665 0.043555 0.787772
O O16 0.498219 0.821665 0.863525
#
# Coordination Sequence:
#
# PCOD9114931 Si02
#       8
#     2   2   2   2   2   2   2   2
#     4  11  24  34  54  84 117 154 184 240 298 361
#     4  11  21  37  53  78 110 158 199 240 283 336
#     4  10  23  34  53  76 110 154 186 235 284 333
#     4  11  20  37  61  85 110 153 191 247 282 342
#     4  10  19  37  59  86 114 151 188 237 299 355
#     4  11  23  36  54  85 123 146 188 231 295 358
#     4  10  21  36  58  85 120 148 186 237 297 373
#     4  10  21  37  56  77 110 150 210 237 276 338
#
# _framework density 19.088180999999999
#
# number of rings (size 3 to 8) (size 9 to 14) (size 15 to 20)
#    0.000    1.500    5.000    0.000    5.250    0.000 
#    0.000    0.000    0.000    0.000    3.250    0.000 
#    0.000    0.000    0.000    0.000    0.000    0.000 
#
# Total GULP energy -89182.099836 kJ/mol
# GULP energy per Si atom -5573.881240 kJ/mol
# Density = 1.904474 g / cm^3
# Si number density = 19.088181 Si / 1000 Ang^3
#
#
#
# Elastic Constant Matrix: (Units=GPa)
#
#
# Indices 1 2 3 4 5 6 
#
# 1 76.7349 16.4824 39.2191 0.0000 5.7110 0.0000
# 2 16.4824 70.1945 -1.6255 0.0000 3.8770 0.0000
# 3 39.2191 -1.6255 65.9404 0.0000 27.3585 0.0000
# 4 0.0000 0.0000 0.0000 22.8466 0.0000 -0.5206
# 5 5.7110 3.8770 27.3585 0.0000 34.4353 0.0000
# 6 0.0000 0.0000 0.0000 -0.5206 0.0000 29.1059
#
#
#
# Elastic Compliance Matrix: (Units=1/GPa)
#
#
# Indices 1 2 3 4 5 6 
#
# 1 0.023219 -0.006548 -0.018914 0.000000 0.011913 0.000000
# 2 -0.006548 0.016286 0.006871 0.000000 -0.006207 0.000000
# 3 -0.018914 0.006871 0.038193 0.000000 -0.027981 0.000000
# 4 0.000000 0.000000 0.000000 0.043788 0.000000 0.000783
# 5 0.011913 -0.006207 -0.027981 0.000000 0.049994 0.000000
# 6 0.000000 0.000000 0.000000 0.000783 0.000000 0.034371
#
#
# Mechanical properties :
#
#
# Convention : Reuss Voigt Hill
#
# Bulk Modulus (GPa) = 24.68175 35.66908 30.17542
# Shear Modulus (GPa) = 19.49037 27.86381 23.67709
#
# Velocity S-wave (km/s) = 3.19888 3.82480 3.52576
# Velocity P-wave (km/s) = 5.15774 6.18324 5.69363
#
# Compressibility (1/GPa) = 0.04051577
#
# Stress axis : x y z
#
# Youngs Moduli (GPa) = 43.06895 61.40403 26.18271
#
# Poissons Ratio (x) = 0.40207 0.49522
# Poissons Ratio (y) = 0.28201 -0.17990
# Poissons Ratio (z) = 0.81460 -0.42191
#
# Static dielectric constant tensor:
#      x y z
#    x 1.697660 0.000000 0.000270 
#    y 0.000000 1.812860 0.000000 
#    z 0.000270 0.000000 1.687860 
# 
# From -- ./inp_files/12756.got.cif
#   From: 2010.05.17/outbox.cif.g08.bks.cpg/sg4_7_cif.got.tgz:12756.got - 2010.06.03 18:43:04.
