data_PCOD9114289
_publ_section_title
;
Structure prediction by ZEFSAII (Michael W. Deem and Ramdas Pophale) SiO2 
 PCOD9114289
Probable space group: P 2
;
_chemical_formula_sum "Si O2"
_cell_formula_units_Z 11
_cell_length_a 14.758505
_cell_length_b 6.308558
_cell_length_c 14.827504
_cell_angle_alpha 90.000000
_cell_angle_beta 159.981685
_cell_angle_gamma 90.000000
_cell_volume 472.577925
_symmetry_space_group_name_H-M "P 2"
_symmetry_group_IT_number 3
_symmetry_cell_setting 'monoclinic'
loop_
_space_group_symop_operation_xyz
x,y,z
-x,y,-z
loop_
_atom_site_type_symbol
_atom_site_label
_atom_site_fract_x
_atom_site_fract_y
_atom_site_fract_z
Si Si1 0.606353 0.481660 0.945930
Si Si2 0.207980 0.845260 0.621479
Si Si3 0.500000 0.200751 0.000000
Si Si4 0.604829 0.392441 0.433160
Si Si5 0.073812 0.137725 0.967552
Si Si6 0.955517 0.762213 0.729111
O O1 0.446087 0.680585 0.833875
O O2 0.421859 0.365228 0.699940
O O3 0.672212 0.337295 0.091790
O O4 0.850585 0.571857 0.118405
O O5 0.102667 0.872646 0.421429
O O6 0.000000 0.757583 0.500000
O O7 0.315687 0.056546 0.766602
O O8 0.695406 0.641227 0.525737
O O9 0.830423 0.260585 0.693708
O O10 0.327456 0.294109 0.208023
O O11 0.096555 0.925760 0.928025
O O12 0.000000 0.077549 0.000000
#
# Coordination Sequence:
#
# PCOD9114289 Si02
#       6
#     2   2   1   2   2   2
#     4  11  25  46  71 106 152 202 253 311 383 454
#     4  11  25  41  69 107 149 201 258 308 376 461
#     4  12  24  40  68 104 152 198 252 316 372 450
#     4  11  26  49  79 112 153 201 255 317 390 468
#     4  12  28  51  79 117 153 200 262 323 395 470
#     4  11  26  49  78 110 158 205 256 322 389 462
#
# _framework density 23.276586000000002
#
# number of rings (size 3 to 8) (size 9 to 14) (size 15 to 20)
#    0.000    0.727    1.818    4.364   10.182    4.364 
#    3.273    0.000    0.000    0.000    0.000    0.000 
#    0.000    0.000    0.000    0.000    0.000    0.000 
#
# Total GULP energy -61520.691680 kJ/mol
# GULP energy per Si atom -5592.790153 kJ/mol
# Density = 2.322361 g / cm^3
# Si number density = 23.276586 Si / 1000 Ang^3
#
#
#
# Elastic Constant Matrix: (Units=GPa)
#
#
# Indices 1 2 3 4 5 6 
#
# 1 123.5954 67.8032 49.5019 0.0000 -14.2373 0.0000
# 2 67.8032 59.4403 44.4424 0.0000 -16.0456 0.0000
# 3 49.5019 44.4424 125.3048 0.0000 2.4977 0.0000
# 4 0.0000 0.0000 0.0000 26.4714 0.0000 17.0106
# 5 -14.2373 -16.0456 2.4977 0.0000 36.0531 0.0000
# 6 0.0000 0.0000 0.0000 17.0106 0.0000 -20.9420
#
#
#
# Elastic Compliance Matrix: (Units=1/GPa)
#
#
# Indices 1 2 3 4 5 6 
#
# 1 0.021919 -0.026443 0.000783 0.000000 -0.003167 0.000000
# 2 -0.026443 0.059900 -0.011137 0.000000 0.016988 0.000000
# 3 0.000783 -0.011137 0.011730 0.000000 -0.005460 0.000000
# 4 0.000000 0.000000 0.000000 0.024821 0.000000 0.020161
# 5 -0.003167 0.016988 -0.005460 0.000000 0.034425 0.000000
# 6 0.000000 0.000000 0.000000 0.020161 0.000000 -0.031374
#
#
# Mechanical properties :
#
#
# Convention : Reuss Voigt Hill
#
# Bulk Modulus (GPa) = 50.11523 70.20395 60.15959
# Shear Modulus (GPa) = 24.79344 18.08938 21.44141
#
# Velocity S-wave (km/s) = 3.26723 2.79076 3.03835
# Velocity P-wave (km/s) = 5.98415 6.37265 6.18146
#
# Compressibility (1/GPa) = 0.01995402
#
# Stress axis : x y z
#
# Youngs Moduli (GPa) = 45.62276 16.69462 85.24936
#
# Poissons Ratio (x) = 0.44145 -0.06672
# Poissons Ratio (y) = 1.20639 0.94944
# Poissons Ratio (z) = -0.03570 0.18593
#
# Static dielectric constant tensor:
#      x y z
#    x 1.861890 0.000000 0.052440 
#    y 0.000000 1.911130 0.000000 
#    z 0.052440 0.000000 1.933870 
# 
# From -- ./inp_files/2734.got.cif
#   From: 2010.05.17/outbox.cif.g08.bks.cpg/sg3_2_cif.got.tgz:2734.got - 2010.06.03 18:33:08.
