data_PCOD9114444
_publ_section_title
;
Structure prediction by ZEFSAII (Michael W. Deem and Ramdas Pophale) SiO2 
 PCOD9114444
Probable space group: P 21
;
_chemical_formula_sum "Si O2"
_cell_formula_units_Z 14
_cell_length_a 16.174745
_cell_length_b 5.137551
_cell_length_c 10.561339
_cell_angle_alpha 90.000000
_cell_angle_beta 114.623853
_cell_angle_gamma 90.000000
_cell_volume 797.822763
_symmetry_space_group_name_H-M "P 21"
_symmetry_group_IT_number 4
_symmetry_cell_setting 'monoclinic'
loop_
_space_group_symop_operation_xyz
x,y,z
-x,1/2+y,-z
loop_
_atom_site_type_symbol
_atom_site_label
_atom_site_fract_x
_atom_site_fract_y
_atom_site_fract_z
Si Si1 0.380852 0.274900 0.468970
Si Si2 0.212708 0.095449 0.210489
Si Si3 0.540566 0.273751 0.365726
Si Si4 0.170635 0.370069 0.932517
Si Si5 0.015592 0.914394 0.095201
Si Si6 0.727042 0.376664 0.003956
Si Si7 0.526270 0.565300 0.944145
O O1 0.281585 0.195475 0.358826
O O2 0.448422 0.260078 0.390738
O O3 0.390922 0.563187 0.530223
O O4 0.419510 0.061960 0.592138
O O5 0.119106 0.971809 0.200003
O O6 0.186002 0.324446 0.094085
O O7 0.263159 0.901347 0.143192
O O8 0.516972 0.184350 0.210356
O O9 0.202255 0.093153 0.899755
O O10 0.064529 0.433990 0.852593
O O11 0.238272 0.595594 0.934010
O O12 0.992983 0.132497 0.974751
O O13 0.626963 0.457930 0.979626
O O14 0.472921 0.312090 0.960903
#
# Coordination Sequence:
#
# PCOD9114444 Si02
#       7
#     2   2   2   2   2   2   2
#     4  10  20  31  53  70 104 130 163 202 239 327
#     4   9  19  27  49  71 105 135 162 190 249 309
#     4  10  21  35  48  74  95 133 170 202 254 287
#     4   9  17  28  46  68 107 134 159 197 238 319
#     4  10  16  26  41  71 101 141 153 194 241 298
#     4  10  19  31  48  70  97 132 169 194 258 292
#     4  12  24  38  55  72 101 133 178 223 247 284
#
# _framework density 17.547757000000001
#
# number of rings (size 3 to 8) (size 9 to 14) (size 15 to 20)
#    0.857    1.143    2.857    1.714    2.000    1.143 
#    0.000    0.000    0.000    0.000    0.000    0.000 
#    0.000   22.857    0.000    0.000    0.000    0.000 
#
# Total GULP energy -77974.380453 kJ/mol
# GULP energy per Si atom -5569.598604 kJ/mol
# Density = 1.750782 g / cm^3
# Si number density = 17.547757 Si / 1000 Ang^3
#
#
#
# Elastic Constant Matrix: (Units=GPa)
#
#
# Indices 1 2 3 4 5 6 
#
# 1 62.5049 -11.4111 15.7626 0.0000 14.0996 0.0000
# 2 -11.4111 53.1491 -4.7534 0.0000 -11.3203 0.0000
# 3 15.7626 -4.7534 23.9411 0.0000 -0.3738 0.0000
# 4 0.0000 0.0000 0.0000 13.6816 0.0000 0.9363
# 5 14.0996 -11.3203 -0.3738 0.0000 13.7451 0.0000
# 6 0.0000 0.0000 0.0000 0.9363 0.0000 23.3355
#
#
#
# Elastic Compliance Matrix: (Units=1/GPa)
#
#
# Indices 1 2 3 4 5 6 
#
# 1 0.027143 -0.002295 -0.018798 0.000000 -0.030244 0.000000
# 2 -0.002295 0.023583 0.006536 0.000000 0.021955 0.000000
# 3 -0.018798 0.006536 0.055852 0.000000 0.026185 0.000000
# 4 0.000000 0.000000 0.000000 0.073292 0.000000 -0.002941
# 5 -0.030244 0.021955 0.026185 0.000000 0.122572 0.000000
# 6 0.000000 0.000000 0.000000 -0.002941 0.000000 0.042971
#
#
# Mechanical properties :
#
#
# Convention : Reuss Voigt Hill
#
# Bulk Modulus (GPa) = 12.90938 15.42125 14.16532
# Shear Modulus (GPa) = 12.48909 19.48556 15.98732
#
# Velocity S-wave (km/s) = 2.67070 3.33593 3.02168
# Velocity P-wave (km/s) = 4.10888 4.86262 4.50156
#
# Compressibility (1/GPa) = 0.07746305
#
# Stress axis : x y z
#
# Youngs Moduli (GPa) = 36.84232 42.40345 17.90431
#
# Poissons Ratio (x) = 0.09734 0.33657
# Poissons Ratio (y) = 0.08457 -0.11703
# Poissons Ratio (z) = 0.69258 -0.27716
#
# Static dielectric constant tensor:
#      x y z
#    x 1.630750 0.000000 -0.001820 
#    y 0.000000 1.618890 0.000000 
#    z -0.001820 0.000000 1.578940 
# 
# From -- ./inp_files/8707.got.cif
#   From: 2010.05.17/outbox.cif.g08.bks.cpg/sg4_5_cif.got.tgz:8707.got - 2010.06.03 18:43:04.
