data_PCOD9114460
_publ_section_title
;
Structure prediction by ZEFSAII (Michael W. Deem and Ramdas Pophale) SiO2 
 PCOD9114460
Probable space group: P 21
;
_chemical_formula_sum "Si O2"
_cell_formula_units_Z 16
_cell_length_a 7.033156
_cell_length_b 12.095806
_cell_length_c 9.291654
_cell_angle_alpha 90.000000
_cell_angle_beta 112.380129
_cell_angle_gamma 90.000000
_cell_volume 730.918043
_symmetry_space_group_name_H-M "P 21"
_symmetry_group_IT_number 4
_symmetry_cell_setting 'monoclinic'
loop_
_space_group_symop_operation_xyz
x,y,z
-x,1/2+y,-z
loop_
_atom_site_type_symbol
_atom_site_label
_atom_site_fract_x
_atom_site_fract_y
_atom_site_fract_z
Si Si1 0.240071 0.198430 0.604645
Si Si2 0.246164 0.650530 0.472360
Si Si3 0.534836 0.292062 0.230983
Si Si4 0.722771 0.457726 0.474937
Si Si5 0.814320 0.420236 0.081840
Si Si6 0.193304 0.816790 0.228285
Si Si7 0.764805 0.687604 0.079392
Si Si8 0.133978 0.408601 0.400678
O O1 0.242720 0.304294 0.503646
O O2 0.996053 0.177921 0.570506
O O3 0.308345 0.087403 0.545305
O O4 0.336348 0.210017 0.792002
O O5 0.355099 0.696060 0.645541
O O6 0.311095 0.718250 0.347752
O O7 0.259933 0.520635 0.456346
O O8 0.533232 0.389379 0.350749
O O9 0.354589 0.233187 0.092752
O O10 0.662112 0.354040 0.142876
O O11 0.785866 0.414184 0.648832
O O12 0.923925 0.428482 0.434961
O O13 0.763938 0.372212 0.911432
O O14 0.792979 0.554116 0.080651
O O15 0.041545 0.395227 0.213516
O O16 0.973342 0.758398 0.142045
#
# Coordination Sequence:
#
# PCOD9114460 Si02
#       8
#     2   2   2   2   2   2   2   2
#     4  10  16  33  60  84 108 151 213 237 276 350
#     4   9  17  35  58  80 114 160 191 238 291 361
#     4  10  20  37  62  83 120 154 198 244 306 344
#     4   9  17  35  58  80 114 160 191 238 291 361
#     4  11  21  37  59  92 122 153 198 259 289 353
#     4  10  20  37  62  83 120 154 198 244 306 344
#     4  11  21  37  59  92 122 153 198 259 289 353
#     4  10  16  33  60  84 108 151 213 237 276 350
#
# _framework density 21.890277999999999
#
# number of rings (size 3 to 8) (size 9 to 14) (size 15 to 20)
#    0.000    2.000   10.000    0.000    0.000    2.000 
#    0.000    0.000   16.500    0.000    0.000    0.000 
#    0.000    0.000    0.000    0.000    0.000    0.000 
#
# Total GULP energy -89259.878611 kJ/mol
# GULP energy per Si atom -5578.742413 kJ/mol
# Density = 2.184045 g / cm^3
# Si number density = 21.890278 Si / 1000 Ang^3
#
#
#
# Elastic Constant Matrix: (Units=GPa)
#
#
# Indices 1 2 3 4 5 6 
#
# 1 40.0500 32.9885 44.7231 0.0000 -6.7560 0.0000
# 2 32.9885 182.1973 92.5312 0.0000 -12.6360 0.0000
# 3 44.7231 92.5312 210.7870 0.0000 -17.0658 0.0000
# 4 0.0000 0.0000 0.0000 32.8769 0.0000 0.2138
# 5 -6.7560 -12.6360 -17.0658 0.0000 8.1139 0.0000
# 6 0.0000 0.0000 0.0000 0.2138 0.0000 26.3415
#
#
#
# Elastic Compliance Matrix: (Units=1/GPa)
#
#
# Indices 1 2 3 4 5 6 
#
# 1 0.035425 -0.002821 -0.005117 0.000000 0.014342 0.000000
# 2 -0.002821 0.007490 -0.002332 0.000000 0.004410 0.000000
# 3 -0.005117 -0.002332 0.007490 0.000000 0.007861 0.000000
# 4 0.000000 0.000000 0.000000 0.030418 0.000000 -0.000247
# 5 0.014342 0.004410 0.007861 0.000000 0.158588 0.000000
# 6 0.000000 0.000000 0.000000 -0.000247 0.000000 0.037965
#
#
# Mechanical properties :
#
#
# Convention : Reuss Voigt Hill
#
# Bulk Modulus (GPa) = 33.48373 85.94666 59.71520
# Shear Modulus (GPa) = 16.24055 30.98590 23.61322
#
# Velocity S-wave (km/s) = 2.72675 3.76641 3.28793
# Velocity P-wave (km/s) = 5.02424 7.63296 6.46162
#
# Compressibility (1/GPa) = 0.02986525
#
# Stress axis : x y z
#
# Youngs Moduli (GPa) = 28.22828 133.51879 133.51043
#
# Poissons Ratio (x) = 0.37663 0.68316
# Poissons Ratio (y) = 0.07963 0.31138
# Poissons Ratio (z) = 0.14444 0.31140
#
# Static dielectric constant tensor:
#      x y z
#    x 1.937300 0.000000 -0.001920 
#    y 0.000000 1.757190 0.000000 
#    z -0.001920 0.000000 1.781950 
# 
# From -- ./inp_files/8223.got.cif
#   From: 2010.05.17/outbox.cif.g08.bks.cpg/sg4_5_cif.got.tgz:8223.got - 2010.06.03 18:43:04.
