data_PCOD9114780
_publ_section_title
;
Structure prediction by ZEFSAII (Michael W. Deem and Ramdas Pophale) SiO2 
 PCOD9114780
Probable space group: P 21
;
_chemical_formula_sum "Si O2"
_cell_formula_units_Z 16
_cell_length_a 8.103623
_cell_length_b 13.020218
_cell_length_c 8.779651
_cell_angle_alpha 90.000000
_cell_angle_beta 128.863946
_cell_angle_gamma 90.000000
_cell_volume 721.290835
_symmetry_space_group_name_H-M "P 21"
_symmetry_group_IT_number 4
_symmetry_cell_setting 'monoclinic'
loop_
_space_group_symop_operation_xyz
x,y,z
-x,1/2+y,-z
loop_
_atom_site_type_symbol
_atom_site_label
_atom_site_fract_x
_atom_site_fract_y
_atom_site_fract_z
Si Si1 0.996703 0.821400 0.295994
Si Si2 0.128648 0.024203 0.262773
Si Si3 0.974032 0.140843 0.906844
Si Si4 0.371351 0.845959 0.736577
Si Si5 0.557291 0.730883 0.127298
Si Si6 0.333538 0.025754 0.918196
Si Si7 0.576782 0.995239 0.636215
Si Si8 0.547242 0.406880 0.738762
O O1 0.977974 0.944424 0.262048
O O2 0.021061 0.755333 0.155769
O O3 0.210678 0.804607 0.517566
O O4 0.795683 0.775410 0.266442
O O5 0.340846 0.045778 0.482697
O O6 0.227907 0.948159 0.191648
O O7 0.037601 0.120635 0.119817
O O8 0.150267 0.085278 0.901676
O O9 0.757339 0.078530 0.758468
O O10 0.555064 0.909150 0.754738
O O11 0.253468 0.931345 0.771161
O O12 0.462066 0.764901 0.908326
O O13 0.555381 0.609097 0.124723
O O14 0.445837 0.790886 0.199436
O O15 0.490677 0.976034 0.133569
O O16 0.601933 0.934102 0.489581
#
# Coordination Sequence:
#
# PCOD9114780 Si02
#       8
#     2   2   2   2   2   2   2   2
#     4  10  21  33  57  83 105 141 184 223 263 323
#     4   8  18  36  50  78 113 133 176 224 268 314
#     4  10  19  33  58  78 104 146 180 212 275 320
#     4  10  21  37  55  82 110 141 183 225 263 320
#     4  10  20  36  55  78 111 143 178 221 276 319
#     4   9  20  36  54  78 110 145 177 223 272 317
#     4   9  19  34  56  78 106 143 175 224 266 311
#     4   8  18  35  53  75 107 144 173 222 267 316
#
# _framework density 22.182455000000001
#
# number of rings (size 3 to 8) (size 9 to 14) (size 15 to 20)
#    0.750    2.000    0.000    0.750    3.500    1.000 
#    0.000    0.000    2.750    0.000    0.000    0.000 
#    0.000    0.000    0.000    0.000    0.000    0.000 
#
# Total GULP energy -89173.144343 kJ/mol
# GULP energy per Si atom -5573.321521 kJ/mol
# Density = 2.213197 g / cm^3
# Si number density = 22.182455 Si / 1000 Ang^3
#
#
#
# Elastic Constant Matrix: (Units=GPa)
#
#
# Indices 1 2 3 4 5 6 
#
# 1 37.7712 0.9147 -0.0486 0.0000 -3.3875 0.0000
# 2 0.9147 53.4180 20.1755 0.0000 5.4741 0.0000
# 3 -0.0486 20.1755 79.0459 0.0000 -3.6993 0.0000
# 4 0.0000 0.0000 0.0000 15.9046 0.0000 -5.1133
# 5 -3.3875 5.4741 -3.6993 0.0000 18.0312 0.0000
# 6 0.0000 0.0000 0.0000 -5.1133 0.0000 31.3470
#
#
#
# Elastic Compliance Matrix: (Units=1/GPa)
#
#
# Indices 1 2 3 4 5 6 
#
# 1 0.027007 -0.001261 0.000599 0.000000 0.005579 0.000000
# 2 -0.001261 0.021816 -0.005947 0.000000 -0.008080 0.000000
# 3 0.000599 -0.005947 0.014397 0.000000 0.004872 0.000000
# 4 0.000000 0.000000 0.000000 0.066355 0.000000 0.010824
# 5 0.005579 -0.008080 0.004872 0.000000 0.059960 0.000000
# 6 0.000000 0.000000 0.000000 0.010824 0.000000 0.033667
#
#
# Mechanical properties :
#
#
# Convention : Reuss Voigt Hill
#
# Bulk Modulus (GPa) = 19.99861 23.59092 21.79476
# Shear Modulus (GPa) = 19.75613 23.00280 21.37946
#
# Velocity S-wave (km/s) = 2.98756 3.22371 3.10788
# Velocity P-wave (km/s) = 4.57556 4.95121 4.76709
#
# Compressibility (1/GPa) = 0.05000347
#
# Stress axis : x y z
#
# Youngs Moduli (GPa) = 37.02763 45.83778 69.45798
#
# Poissons Ratio (x) = 0.05778 -0.04164
# Poissons Ratio (y) = 0.04668 0.41308
# Poissons Ratio (z) = -0.02220 0.27261
#
# Static dielectric constant tensor:
#      x y z
#    x 1.886460 0.000000 -0.040280 
#    y 0.000000 1.814300 0.000000 
#    z -0.040280 0.000000 1.834360 
# 
# From -- ./inp_files/6684.got.cif
#   From: 2010.05.17/outbox.cif.g08.bks.cpg/sg4_4_cif.got.tgz:6684.got - 2010.06.03 18:43:04.
