data_PCOD9114027
_publ_section_title
;
Structure prediction by ZEFSAII (Michael W. Deem and Ramdas Pophale) SiO2 
 PCOD9114027
Probable space group: P 2
;
_chemical_formula_sum "Si O2"
_cell_formula_units_Z 16
_cell_length_a 5.357046
_cell_length_b 4.925126
_cell_length_c 22.832926
_cell_angle_alpha 90.000000
_cell_angle_beta 67.932048
_cell_angle_gamma 90.000000
_cell_volume 558.292373
_symmetry_space_group_name_H-M "P 2"
_symmetry_group_IT_number 3
_symmetry_cell_setting 'monoclinic'
loop_
_space_group_symop_operation_xyz
x,y,z
-x,y,-z
loop_
_atom_site_type_symbol
_atom_site_label
_atom_site_fract_x
_atom_site_fract_y
_atom_site_fract_z
Si Si1 0.335547 0.188120 0.062938
Si Si2 0.994992 0.173408 0.675680
Si Si3 0.061682 0.951940 0.195227
Si Si4 0.823965 0.525739 0.064363
Si Si5 0.229481 0.490564 0.800817
Si Si6 0.622034 0.308771 0.430980
Si Si7 0.008782 0.823449 0.567604
Si Si8 0.453806 0.529881 0.340931
O O1 0.280937 0.045707 0.129234
O O2 0.556387 0.416936 0.057727
O O3 0.051005 0.297843 0.063102
O O4 0.500000 0.017519 0.000000
O O5 0.925877 0.002430 0.736756
O O6 0.144824 0.053371 0.602215
O O7 0.750106 0.339465 0.677149
O O8 0.254383 0.372705 0.661039
O O9 0.814388 0.167380 0.200605
O O10 0.057068 0.628257 0.188591
O O11 0.729475 0.609809 0.137809
O O12 0.000000 0.688416 0.000000
O O13 0.396212 0.631860 0.734505
O O14 0.500000 0.170626 0.500000
O O15 0.359750 0.402454 0.419262
O O16 0.796869 0.567691 0.438087
O O17 0.000000 0.889027 0.500000
O O18 0.718117 0.807022 0.624948
#
# Coordination Sequence:
#
# PCOD9114027 Si02
#       8
#     2   2   2   2   2   2   2   2
#     4   9  19  41  73 109 150 198 252 312 380 457
#     4  10  25  45  70 103 143 181 250 304 373 460
#     4  11  24  46  73 107 150 191 252 304 374 459
#     4   9  19  42  74 109 152 197 251 313 380 457
#     4  11  25  45  75 106 147 198 245 304 385 448
#     4  10  24  46  70  99 147 187 241 315 385 452
#     4  10  25  44  71 105 141 186 253 307 382 461
#     4  12  25  46  74 103 143 194 246 315 384 457
#
# _framework density 28.658821
#
# number of rings (size 3 to 8) (size 9 to 14) (size 15 to 20)
#    0.750    1.000    1.250    1.500    5.250    1.000 
#    4.500   10.000    0.000    0.000    0.000    0.000 
#    0.000    0.000    0.000    0.000    0.000    0.000 
#
# Total GULP energy -89129.553697 kJ/mol
# GULP energy per Si atom -5570.597106 kJ/mol
# Density = 2.859359 g / cm^3
# Si number density = 28.658821 Si / 1000 Ang^3
#
#
#
# Elastic Constant Matrix: (Units=GPa)
#
#
# Indices 1 2 3 4 5 6 
#
# 1 133.8471 43.5282 37.9283 0.0000 5.8681 0.0000
# 2 43.5282 118.3075 48.3417 0.0000 -0.1968 0.0000
# 3 37.9283 48.3417 259.4491 0.0000 5.6420 0.0000
# 4 0.0000 0.0000 0.0000 -7.9807 0.0000 -16.8162
# 5 5.8681 -0.1968 5.6420 0.0000 45.1835 0.0000
# 6 0.0000 0.0000 0.0000 -16.8162 0.0000 38.4917
#
#
#
# Elastic Compliance Matrix: (Units=1/GPa)
#
#
# Indices 1 2 3 4 5 6 
#
# 1 0.008660 -0.002901 -0.000703 0.000000 -0.001050 0.000000
# 2 -0.002901 0.010124 -0.001475 0.000000 0.000605 0.000000
# 3 -0.000703 -0.001475 0.004242 0.000000 -0.000445 0.000000
# 4 0.000000 0.000000 0.000000 -0.065243 0.000000 -0.028503
# 5 -0.001050 0.000605 -0.000445 0.000000 0.022326 0.000000
# 6 0.000000 0.000000 0.000000 -0.028503 0.000000 0.013527
#
#
# Mechanical properties :
#
#
# Convention : Reuss Voigt Hill
#
# Bulk Modulus (GPa) = 77.71570 85.68891 81.70230
# Shear Modulus (GPa) = 618.61454 40.59260 329.60357
#
# Velocity S-wave (km/s) = 14.70794 3.76760 10.73588
# Velocity P-wave (km/s) = 17.76535 6.99221 13.49998
#
# Compressibility (1/GPa) = 0.01286741
#
# Stress axis : x y z
#
# Youngs Moduli (GPa) = 115.47774 98.77839 235.75946
#
# Poissons Ratio (x) = 0.28653 0.16565
# Poissons Ratio (y) = 0.33497 0.34784
# Poissons Ratio (z) = 0.08114 0.14574
#
# Static dielectric constant tensor:
#      x y z
#    x 2.366120 0.000000 -0.049380 
#    y 0.000000 2.535900 0.000000 
#    z -0.049380 0.000000 3.180090 
# 
# From -- ./inp_files/16177.got.cif
#   From: 2010.05.17/outbox.cif.g08.bks.cpg/sg3_9_cif.got.tgz:16177.got - 2010.06.03 18:33:08.
