data_PCOD9114856
_publ_section_title
;
Structure prediction by ZEFSAII (Michael W. Deem and Ramdas Pophale) SiO2 
 PCOD9114856
Probable space group: P 21
;
_chemical_formula_sum "Si O2"
_cell_formula_units_Z 16
_cell_length_a 13.891275
_cell_length_b 13.587069
_cell_length_c 5.186514
_cell_angle_alpha 90.000000
_cell_angle_beta 124.553509
_cell_angle_gamma 90.000000
_cell_volume 806.228461
_symmetry_space_group_name_H-M "P 21"
_symmetry_group_IT_number 4
_symmetry_cell_setting 'monoclinic'
loop_
_space_group_symop_operation_xyz
x,y,z
-x,1/2+y,-z
loop_
_atom_site_type_symbol
_atom_site_label
_atom_site_fract_x
_atom_site_fract_y
_atom_site_fract_z
Si Si1 0.897318 0.291810 0.205345
Si Si2 0.255012 0.394290 0.160372
Si Si3 0.892849 0.939076 0.571719
Si Si4 0.566644 0.781131 0.843762
Si Si5 0.368856 0.835913 0.177895
Si Si6 0.867486 0.163837 0.668128
Si Si7 0.447513 0.448041 0.802826
Si Si8 0.402891 0.650643 0.863932
O O1 0.901655 0.236391 0.486176
O O2 0.992762 0.376562 0.321205
O O3 0.767596 0.337666 0.980519
O O4 0.909992 0.210389 0.999782
O O5 0.166935 0.390095 0.266575
O O6 0.324046 0.294888 0.179002
O O7 0.360601 0.462701 0.428579
O O8 0.188858 0.434468 0.807649
O O9 0.910272 0.053425 0.673559
O O10 0.451927 0.834272 0.551307
O O11 0.512469 0.678643 0.847614
O O12 0.596504 0.846846 0.136257
O O13 0.421488 0.923800 0.085610
O O14 0.397413 0.731681 0.079836
O O15 0.725265 0.159192 0.458353
O O16 0.426813 0.537737 0.962385
#
# Coordination Sequence:
#
# PCOD9114856 Si02
#       8
#     2   2   2   2   2   2   2   2
#     4  11  24  43  64  92 129 168 208 267 310 367
#     4  11  21  39  62  95 122 162 203 260 313 363
#     4  12  24  41  69  92 128 169 214 263 310 367
#     4  10  19  36  60  90 131 156 199 263 313 364
#     4   9  21  36  60  91 129 159 204 253 317 370
#     4  11  22  40  66  96 119 163 226 251 308 384
#     4  10  20  36  63  93 126 157 207 260 314 366
#     4  10  19  35  62  95 120 164 207 261 301 379
#
# _framework density 19.845489000000001
#
# number of rings (size 3 to 8) (size 9 to 14) (size 15 to 20)
#    0.000    1.500    3.750    1.500    0.000    3.000 
#    0.000    2.500    2.750    0.000    0.000    0.000 
#    0.000    0.000    0.000    0.000    0.000    0.000 
#
# Total GULP energy -89183.958752 kJ/mol
# GULP energy per Si atom -5573.997422 kJ/mol
# Density = 1.980032 g / cm^3
# Si number density = 19.845489 Si / 1000 Ang^3
#
#
#
# Elastic Constant Matrix: (Units=GPa)
#
#
# Indices 1 2 3 4 5 6 
#
# 1 116.7563 45.7861 36.0592 0.0000 6.8731 0.0000
# 2 45.7861 76.1013 27.8291 0.0000 15.6038 0.0000
# 3 36.0592 27.8291 66.3168 0.0000 -6.4236 0.0000
# 4 0.0000 0.0000 0.0000 17.8704 0.0000 2.5356
# 5 6.8731 15.6038 -6.4236 0.0000 29.0216 0.0000
# 6 0.0000 0.0000 0.0000 2.5356 0.0000 35.2757
#
#
#
# Elastic Compliance Matrix: (Units=1/GPa)
#
#
# Indices 1 2 3 4 5 6 
#
# 1 0.012129 -0.005525 -0.004361 0.000000 -0.000867 0.000000
# 2 -0.005525 0.021517 -0.007173 0.000000 -0.011848 0.000000
# 3 -0.004361 -0.007173 0.021392 0.000000 0.009624 0.000000
# 4 0.000000 0.000000 0.000000 0.056535 0.000000 -0.004064
# 5 -0.000867 -0.011848 0.009624 0.000000 0.043163 0.000000
# 6 0.000000 0.000000 0.000000 -0.004064 0.000000 0.028640
#
#
# Mechanical properties :
#
#
# Convention : Reuss Voigt Hill
#
# Bulk Modulus (GPa) = 47.79752 53.16923 50.48338
# Shear Modulus (GPa) = 22.27499 26.40021 24.33760
#
# Velocity S-wave (km/s) = 3.35389 3.65127 3.50573
# Velocity P-wave (km/s) = 6.25581 6.68023 6.47150
#
# Compressibility (1/GPa) = 0.02092159
#
# Stress axis : x y z
#
# Youngs Moduli (GPa) = 82.44475 46.47537 46.74585
#
# Poissons Ratio (x) = 0.25679 0.20384
# Poissons Ratio (y) = 0.45552 0.33529
# Poissons Ratio (z) = 0.35951 0.33335
#
# Static dielectric constant tensor:
#      x y z
#    x 1.747950 0.000000 -0.035700 
#    y 0.000000 1.706010 0.000000 
#    z -0.035700 0.000000 1.719920 
# 
# From -- ./inp_files/2892.got.cif
#   From: 2010.05.17/outbox.cif.g08.bks.cpg/sg4_2_cif.got.tgz:2892.got - 2010.06.03 18:43:04.
