data_PCOD9114397
_publ_section_title
;
Structure prediction by ZEFSAII (Michael W. Deem and Ramdas Pophale) SiO2 
 PCOD9114397
Probable space group: P 2
;
_chemical_formula_sum "Si O2"
_cell_formula_units_Z 12
_cell_length_a 13.971070
_cell_length_b 4.974118
_cell_length_c 19.342513
_cell_angle_alpha 90.000000
_cell_angle_beta 20.629982
_cell_angle_gamma 90.000000
_cell_volume 473.598187
_symmetry_space_group_name_H-M "P 2"
_symmetry_group_IT_number 3
_symmetry_cell_setting 'monoclinic'
loop_
_space_group_symop_operation_xyz
x,y,z
-x,y,-z
loop_
_atom_site_type_symbol
_atom_site_label
_atom_site_fract_x
_atom_site_fract_y
_atom_site_fract_z
Si Si1 0.961112 0.171030 0.363777
Si Si2 0.385383 0.582952 0.309553
Si Si3 0.443728 0.840969 0.679722
Si Si4 0.253441 0.030845 0.299938
Si Si5 0.234152 0.260060 0.041713
Si Si6 0.722125 0.320487 0.291942
O O1 0.767874 0.383724 0.534104
O O2 0.103342 0.318037 0.203413
O O3 0.759032 0.941336 0.469781
O O4 0.184384 0.054702 0.265144
O O5 0.607584 0.726329 0.209044
O O6 0.215400 0.818556 0.389899
O O7 0.505980 0.416209 0.164333
O O8 0.366393 0.609840 0.677631
O O9 0.288583 0.108411 0.762814
O O10 0.000000 0.221490 0.500000
O O11 0.588126 0.991030 0.070451
O O12 0.006826 0.295731 0.138055
O O13 0.500000 0.239272 0.500000
#
# Coordination Sequence:
#
# PCOD9114397 Si02
#       6
#     2   2   2   2   2   2
#     4  12  27  56  83 124 166 224 286 355 430 514
#     4  12  27  53  81 122 168 221 282 354 429 509
#     4  12  25  50  84 117 175 220 273 352 422 497
#     4  12  27  50  83 115 171 219 280 356 428 505
#     4  12  29  53  83 123 166 222 291 342 439 503
#     4  12  27  50  83 125 171 223 284 351 418 511
#
# _framework density 25.337935000000002
#
# number of rings (size 3 to 8) (size 9 to 14) (size 15 to 20)
#    0.000    0.000    6.667    1.000    4.667    2.000 
#    6.000    0.000    0.000    0.000    0.000    0.000 
#    0.000    0.000    0.000    0.000    0.000    0.000 
#
# Total GULP energy -66884.418497 kJ/mol
# GULP energy per Si atom -5573.701541 kJ/mol
# Density = 2.528026 g / cm^3
# Si number density = 25.337935 Si / 1000 Ang^3
#
#
#
# Elastic Constant Matrix: (Units=GPa)
#
#
# Indices 1 2 3 4 5 6 
#
# 1 225.4568 99.8720 79.2844 0.0000 -33.0144 0.0000
# 2 99.8720 178.1861 53.0074 0.0000 -13.8686 0.0000
# 3 79.2844 53.0074 131.6078 0.0000 -8.8427 0.0000
# 4 0.0000 0.0000 0.0000 18.9066 0.0000 -1.4993
# 5 -33.0144 -13.8686 -8.8427 0.0000 62.7420 0.0000
# 6 0.0000 0.0000 0.0000 -1.4993 0.0000 36.6497
#
#
#
# Elastic Compliance Matrix: (Units=1/GPa)
#
#
# Indices 1 2 3 4 5 6 
#
# 1 0.007169 -0.002927 -0.002958 0.000000 0.002708 0.000000
# 2 -0.002927 0.007642 -0.001317 0.000000 -0.000037 0.000000
# 3 -0.002958 -0.001317 0.009880 0.000000 -0.000455 0.000000
# 4 0.000000 0.000000 0.000000 0.053064 0.000000 0.002171
# 5 0.002708 -0.000037 -0.000455 0.000000 0.017291 0.000000
# 6 0.000000 0.000000 0.000000 0.002171 0.000000 0.027374
#
#
# Mechanical properties :
#
#
# Convention : Reuss Voigt Hill
#
# Bulk Modulus (GPa) = 97.21219 111.06427 104.13823
# Shear Modulus (GPa) = 35.65002 43.86547 39.75774
#
# Velocity S-wave (km/s) = 3.75505 4.16530 3.96548
# Velocity P-wave (km/s) = 7.56638 8.18910 7.88389
#
# Compressibility (1/GPa) = 0.01028678
#
# Stress axis : x y z
#
# Youngs Moduli (GPa) = 139.49060 130.85961 101.21536
#
# Poissons Ratio (x) = 0.38309 0.29937
# Poissons Ratio (y) = 0.40836 0.13327
# Poissons Ratio (z) = 0.41257 0.17231
#
# Static dielectric constant tensor:
#      x y z
#    x 1.996740 0.000000 0.053950 
#    y 0.000000 1.214790 0.000000 
#    z 0.053950 0.000000 1.905490 
# 
# From -- ./inp_files/15971.got.cif
#   From: 2010.05.17/outbox.cif.g08.bks.cpg/sg3_8_cif.got.tgz:15971.got - 2010.06.03 18:33:08.
