data_PCOD9114785
_publ_section_title
;
Structure prediction by ZEFSAII (Michael W. Deem and Ramdas Pophale) SiO2 
 PCOD9114785
Probable space group: P 21
;
_chemical_formula_sum "Si O2"
_cell_formula_units_Z 16
_cell_length_a 9.373115
_cell_length_b 9.773251
_cell_length_c 7.792104
_cell_angle_alpha 90.000000
_cell_angle_beta 104.354325
_cell_angle_gamma 90.000000
_cell_volume 691.517854
_symmetry_space_group_name_H-M "P 21"
_symmetry_group_IT_number 4
_symmetry_cell_setting 'monoclinic'
loop_
_space_group_symop_operation_xyz
x,y,z
-x,1/2+y,-z
loop_
_atom_site_type_symbol
_atom_site_label
_atom_site_fract_x
_atom_site_fract_y
_atom_site_fract_z
Si Si1 0.903291 0.655720 0.118812
Si Si2 0.640746 0.835608 0.014021
Si Si3 0.413073 0.222834 0.621679
Si Si4 0.855250 0.365027 0.242331
Si Si5 0.823292 0.875930 0.621455
Si Si6 0.991957 0.405952 0.620802
Si Si7 0.515960 0.917020 0.647413
Si Si8 0.139085 0.589995 0.913586
O O1 0.829273 0.516032 0.164896
O O2 0.953643 0.764457 0.278960
O O3 0.767308 0.731288 0.984697
O O4 0.054396 0.623662 0.064394
O O5 0.512682 0.849327 0.834462
O O6 0.589396 0.784391 0.186649
O O7 0.730959 0.977881 0.054559
O O8 0.253654 0.245508 0.487226
O O9 0.443653 0.063640 0.626105
O O10 0.513407 0.314714 0.521006
O O11 0.791920 0.227922 0.144957
O O12 0.028056 0.342252 0.238811
O O13 0.858136 0.374762 0.450934
O O14 0.691296 0.947656 0.676331
O O15 0.885040 0.960184 0.478314
O O16 0.002153 0.519963 0.767908
#
# Coordination Sequence:
#
# PCOD9114785 Si02
#       8
#     2   2   2   2   2   2   2   2
#     4  11  19  33  58  92 126 164 207 243 309 389
#     4  11  23  44  63  93 136 164 201 270 321 371
#     4  10  22  43  70  89 121 169 215 277 319 368
#     4  10  19  33  59  85 124 165 199 239 311 383
#     4   8  18  38  62  84 123 157 206 264 306 366
#     4   9  19  34  55  81 126 167 195 249 317 352
#     4  10  21  42  71  90 116 170 219 265 330 366
#     4  11  19  33  58  90 126 166 202 247 307 389
#
# _framework density 23.137511
#
# number of rings (size 3 to 8) (size 9 to 14) (size 15 to 20)
#    1.500    0.500    2.500    3.750    0.000    1.000 
#    0.000    5.000   11.000    0.000    0.000    0.000 
#    0.000    0.000    0.000    0.000    0.000    0.000 
#
# Total GULP energy -89070.748756 kJ/mol
# GULP energy per Si atom -5566.921797 kJ/mol
# Density = 2.308485 g / cm^3
# Si number density = 23.137511 Si / 1000 Ang^3
#
#
#
# Elastic Constant Matrix: (Units=GPa)
#
#
# Indices 1 2 3 4 5 6 
#
# 1 39.0715 25.3589 8.7775 0.0000 -15.4143 0.0000
# 2 25.3589 142.2652 49.0900 0.0000 -4.2318 0.0000
# 3 8.7775 49.0900 89.9239 0.0000 -11.9434 0.0000
# 4 0.0000 0.0000 0.0000 27.4631 0.0000 -3.8160
# 5 -15.4143 -4.2318 -11.9434 0.0000 15.6872 0.0000
# 6 0.0000 0.0000 0.0000 -3.8160 0.0000 25.9198
#
#
#
# Elastic Compliance Matrix: (Units=1/GPa)
#
#
# Indices 1 2 3 4 5 6 
#
# 1 0.051896 -0.010316 0.007753 0.000000 0.054113 0.000000
# 2 -0.010316 0.010739 -0.006472 0.000000 -0.012167 0.000000
# 3 0.007753 -0.006472 0.016328 0.000000 0.018303 0.000000
# 4 0.000000 0.000000 0.000000 0.037173 0.000000 0.005473
# 5 0.054113 -0.012167 0.018303 0.000000 0.127571 0.000000
# 6 0.000000 0.000000 0.000000 0.005473 0.000000 0.039386
#
#
# Mechanical properties :
#
#
# Convention : Reuss Voigt Hill
#
# Bulk Modulus (GPa) = 16.42196 48.63482 32.52839
# Shear Modulus (GPa) = 15.55399 26.34963 20.95181
#
# Velocity S-wave (km/s) = 2.59557 3.37831 3.01247
# Velocity P-wave (km/s) = 4.01194 6.02353 5.11754
#
# Compressibility (1/GPa) = 0.06089406
#
# Stress axis : x y z
#
# Youngs Moduli (GPa) = 19.26912 93.11703 61.24601
#
# Poissons Ratio (x) = 0.96062 -0.47486
# Poissons Ratio (y) = 0.19879 0.39636
# Poissons Ratio (z) = -0.14940 0.60261
#
# Static dielectric constant tensor:
#      x y z
#    x 1.938970 0.000000 0.019430 
#    y 0.000000 1.873780 0.000000 
#    z 0.019430 0.000000 1.948130 
# 
# From -- ./inp_files/7700.got.cif
#   From: 2010.05.17/outbox.cif.g08.bks.cpg/sg4_4_cif.got.tgz:7700.got - 2010.06.03 18:43:04.
