data_PCOD9114828
_publ_section_title
;
Structure prediction by ZEFSAII (Michael W. Deem and Ramdas Pophale) SiO2 
 PCOD9114828
Probable space group: P 21
;
_chemical_formula_sum "Si O2"
_cell_formula_units_Z 16
_cell_length_a 5.139224
_cell_length_b 20.026829
_cell_length_c 6.601279
_cell_angle_alpha 90.000000
_cell_angle_beta 69.822355
_cell_angle_gamma 90.000000
_cell_volume 637.721679
_symmetry_space_group_name_H-M "P 21"
_symmetry_group_IT_number 4
_symmetry_cell_setting 'monoclinic'
loop_
_space_group_symop_operation_xyz
x,y,z
-x,1/2+y,-z
loop_
_atom_site_type_symbol
_atom_site_label
_atom_site_fract_x
_atom_site_fract_y
_atom_site_fract_z
Si Si1 0.272798 0.111510 0.999818
Si Si2 0.040453 0.707125 0.160029
Si Si3 0.535714 0.681313 0.708103
Si Si4 0.320591 0.464706 0.370505
Si Si5 0.775252 0.107203 0.569093
Si Si6 0.248173 0.324624 0.278931
Si Si7 0.128510 0.843449 0.013006
Si Si8 0.049059 0.980396 0.910276
O O1 0.545698 0.092422 0.806082
O O2 0.198327 0.182964 0.925309
O O3 0.057747 0.054412 0.996350
O O4 0.285927 0.122353 0.234901
O O5 0.029273 0.656480 0.351414
O O6 0.033539 0.785920 0.191099
O O7 0.310918 0.694646 0.947656
O O8 0.368582 0.652335 0.563875
O O9 0.694936 0.751399 0.642888
O O10 0.182287 0.530139 0.511229
O O11 0.229166 0.388033 0.435961
O O12 0.656594 0.469518 0.289014
O O13 0.205265 0.471020 0.171278
O O14 0.539501 0.339977 0.086541
O O15 0.003491 0.324950 0.175245
O O16 0.044300 0.919781 0.069282
#
# Coordination Sequence:
#
# PCOD9114828 Si02
#       8
#     2   2   2   2   2   2   2   2
#     4  10  19  35  55  79 110 142 184 226 275 326
#     4  10  19  35  55  79 110 142 184 226 275 326
#     4  10  21  35  54  83 110 145 183 230 276 327
#     4   9  17  32  53  77 106 145 184 220 272 330
#     4  10  21  35  54  83 110 145 183 230 276 327
#     4   9  17  32  53  77 106 145 184 220 272 330
#     4   9  17  31  54  78 105 145 185 222 270 327
#     4   9  17  31  54  78 105 145 185 222 270 327
#
# _framework density 25.089316
#
# number of rings (size 3 to 8) (size 9 to 14) (size 15 to 20)
#    0.000    2.500    2.500    0.000    0.000    1.000 
#    0.000    1.250    0.000    3.000    0.000    0.000 
#    0.000    0.000    0.000    0.000    0.000    0.000 
#
# Total GULP energy -89262.170842 kJ/mol
# GULP energy per Si atom -5578.885678 kJ/mol
# Density = 2.503221 g / cm^3
# Si number density = 25.089316 Si / 1000 Ang^3
#
#
#
# Elastic Constant Matrix: (Units=GPa)
#
#
# Indices 1 2 3 4 5 6 
#
# 1 68.4786 4.6846 16.6707 0.0000 22.0249 0.0000
# 2 4.6846 172.3031 27.9043 0.0000 -3.5986 0.0000
# 3 16.6707 27.9043 87.3425 0.0000 3.8402 0.0000
# 4 0.0000 0.0000 0.0000 39.2118 0.0000 5.2355
# 5 22.0249 -3.5986 3.8402 0.0000 32.1756 0.0000
# 6 0.0000 0.0000 0.0000 5.2355 0.0000 43.7720
#
#
#
# Elastic Compliance Matrix: (Units=1/GPa)
#
#
# Indices 1 2 3 4 5 6 
#
# 1 0.019573 -0.000309 -0.003062 0.000000 -0.013067 0.000000
# 2 -0.000309 0.006153 -0.001956 0.000000 0.001133 0.000000
# 3 -0.003062 -0.001956 0.012643 0.000000 0.000369 0.000000
# 4 0.000000 0.000000 0.000000 0.025916 0.000000 -0.003100
# 5 -0.013067 0.001133 0.000369 0.000000 0.040107 0.000000
# 6 0.000000 0.000000 0.000000 -0.003100 0.000000 0.023216
#
#
# Mechanical properties :
#
#
# Convention : Reuss Voigt Hill
#
# Bulk Modulus (GPa) = 36.08589 47.40482 41.74535
# Shear Modulus (GPa) = 33.89816 41.62285 37.76051
#
# Velocity S-wave (km/s) = 3.67972 4.07749 3.88370
# Velocity P-wave (km/s) = 5.69807 6.41118 6.06512
#
# Compressibility (1/GPa) = 0.02771166
#
# Stress axis : x y z
#
# Youngs Moduli (GPa) = 51.09202 162.53162 79.09791
#
# Poissons Ratio (x) = 0.05024 0.24223
# Poissons Ratio (y) = 0.01579 0.15475
# Poissons Ratio (z) = 0.15647 0.31799
#
# Static dielectric constant tensor:
#      x y z
#    x 2.048450 0.000000 -0.055010 
#    y 0.000000 2.090570 0.000000 
#    z -0.055010 0.000000 1.954160 
# 
# From -- ./inp_files/537.got.cif
#   From: 2010.05.17/outbox.cif.g08.bks.cpg/sg4_1_cif.got.tgz:537.got - 2010.06.03 18:43:04.
