data_PCOD9114096
_publ_section_title
;
Structure prediction by ZEFSAII (Michael W. Deem and Ramdas Pophale) SiO2 
 PCOD9114096
Probable space group: P 2
;
_chemical_formula_sum "Si O2"
_cell_formula_units_Z 10
_cell_length_a 12.494449
_cell_length_b 4.823620
_cell_length_c 15.280817
_cell_angle_alpha 90.000000
_cell_angle_beta 153.462924
_cell_angle_gamma 90.000000
_cell_volume 411.459802
_symmetry_space_group_name_H-M "P 2"
_symmetry_group_IT_number 3
_symmetry_cell_setting 'monoclinic'
loop_
_space_group_symop_operation_xyz
x,y,z
-x,y,-z
loop_
_atom_site_type_symbol
_atom_site_label
_atom_site_fract_x
_atom_site_fract_y
_atom_site_fract_z
Si Si1 0.299235 0.860840 0.962052
Si Si2 0.760161 0.513861 0.655329
Si Si3 0.043050 0.286140 0.383408
Si Si4 0.628895 0.340436 0.209371
Si Si5 0.999644 0.014544 0.899266
O O1 0.403476 0.549597 0.041117
O O2 0.530211 0.042748 0.110837
O O3 0.229311 0.932528 0.011142
O O4 0.080748 0.000869 0.745203
O O5 0.500000 0.432187 0.500000
O O6 0.842317 0.438545 0.617030
O O7 0.795267 0.836448 0.700914
O O8 0.946769 0.337547 0.849493
O O9 0.251116 0.287790 0.608563
O O10 0.830359 0.425050 0.286100
O O11 0.000000 0.938997 0.000000
#
# Coordination Sequence:
#
# PCOD9114096 Si02
#       5
#     2   2   2   2   2
#     4  11  25  44  71 103 141 184 235 294 354 417
#     4  11  25  43  69  98 136 179 223 292 343 405
#     4  10  26  46  70 108 143 180 246 285 352 437
#     4  11  26  45  74 102 142 192 226 294 361 423
#     4  11  25  43  67 100 134 177 234 280 343 422
#
# _framework density 24.303706999999999
#
# number of rings (size 3 to 8) (size 9 to 14) (size 15 to 20)
#    0.000    1.200    0.000    4.200    5.600   16.000 
#    0.000    0.000    0.000    0.000    0.000    0.000 
#    0.000    0.000    0.000    0.000    0.000    0.000 
#
# Total GULP energy -55809.497849 kJ/mol
# GULP energy per Si atom -5580.949785 kJ/mol
# Density = 2.424839 g / cm^3
# Si number density = 24.303707 Si / 1000 Ang^3
#
#
#
# Elastic Constant Matrix: (Units=GPa)
#
#
# Indices 1 2 3 4 5 6 
#
# 1 201.6849 9.9167 59.6565 0.0000 -21.0630 0.0000
# 2 9.9167 78.1778 19.2536 0.0000 -5.8502 0.0000
# 3 59.6565 19.2536 139.3290 0.0000 -37.5831 0.0000
# 4 0.0000 0.0000 0.0000 9.9990 0.0000 7.1516
# 5 -21.0630 -5.8502 -37.5831 0.0000 52.1628 0.0000
# 6 0.0000 0.0000 0.0000 7.1516 0.0000 38.2261
#
#
#
# Elastic Compliance Matrix: (Units=1/GPa)
#
#
# Indices 1 2 3 4 5 6 
#
# 1 0.005697 -0.000120 -0.002242 0.000000 0.000672 0.000000
# 2 -0.000120 0.013246 -0.001727 0.000000 0.000193 0.000000
# 3 -0.002242 -0.001727 0.010028 0.000000 0.006127 0.000000
# 4 0.000000 0.000000 0.000000 0.115459 0.000000 -0.021601
# 5 0.000672 0.000193 0.006127 0.000000 0.023878 0.000000
# 6 0.000000 0.000000 0.000000 -0.021601 0.000000 0.030201
#
#
# Mechanical properties :
#
#
# Convention : Reuss Voigt Hill
#
# Bulk Modulus (GPa) = 48.09018 66.31613 57.20315
# Shear Modulus (GPa) = 23.40608 42.10193 32.75400
#
# Velocity S-wave (km/s) = 3.10670 4.16664 3.67508
# Velocity P-wave (km/s) = 5.71829 7.10588 6.44951
#
# Compressibility (1/GPa) = 0.02079427
#
# Stress axis : x y z
#
# Youngs Moduli (GPa) = 175.52013 75.49245 99.71838
#
# Poissons Ratio (x) = 0.00909 0.22352
# Poissons Ratio (y) = 0.02113 0.17221
# Poissons Ratio (z) = 0.39343 0.13037
#
# Static dielectric constant tensor:
#      x y z
#    x 1.982150 0.000000 0.018200 
#    y 0.000000 1.919610 0.000000 
#    z 0.018200 0.000000 1.934930 
# 
# From -- ./inp_files/15398.got.cif
#   From: 2010.05.17/outbox.cif.g08.bks.cpg/sg3_8_cif.got.tgz:15398.got - 2010.06.03 18:33:08.
