data_PCOD9114170
_publ_section_title
;
Structure prediction by ZEFSAII (Michael W. Deem and Ramdas Pophale) SiO2 
 PCOD9114170
Probable space group: P 2
;
_chemical_formula_sum "Si O2"
_cell_formula_units_Z 13
_cell_length_a 10.701113
_cell_length_b 5.325453
_cell_length_c 15.661472
_cell_angle_alpha 90.000000
_cell_angle_beta 147.528513
_cell_angle_gamma 90.000000
_cell_volume 479.176128
_symmetry_space_group_name_H-M "P 2"
_symmetry_group_IT_number 3
_symmetry_cell_setting 'monoclinic'
loop_
_space_group_symop_operation_xyz
x,y,z
-x,y,-z
loop_
_atom_site_type_symbol
_atom_site_label
_atom_site_fract_x
_atom_site_fract_y
_atom_site_fract_z
Si Si1 0.000000 0.440781 0.500000
Si Si2 0.155702 0.818936 0.722199
Si Si3 0.714051 0.426052 0.069814
Si Si4 0.563603 0.063528 0.856863
Si Si5 0.799451 0.280207 0.688805
Si Si6 0.701173 0.117160 0.458640
Si Si7 0.036963 0.790417 0.122489
O O1 0.839684 0.609403 0.348586
O O2 0.844831 0.292853 0.477319
O O3 0.246001 0.690568 0.859774
O O4 0.331743 0.011224 0.778578
O O5 0.884729 0.891461 0.578672
O O6 0.656799 0.337466 0.940181
O O7 0.500000 0.321112 0.000000
O O8 0.955025 0.281811 0.224442
O O9 0.506249 0.041607 0.723902
O O10 0.771304 0.868359 0.994605
O O11 0.631659 0.248437 0.508219
O O12 0.842508 0.543334 0.764780
O O13 0.822188 0.033518 0.760784
O O14 0.000000 0.756401 0.000000
#
# Coordination Sequence:
#
# PCOD9114170 Si02
#       7
#     1   2   2   2   2   2   2
#     4  12  20  38  64  96 152 194 216 266 332 424
#     4  12  22  39  63  97 149 189 225 279 339 429
#     4  11  22  38  60  97 140 180 226 272 330 426
#     4  11  24  43  67 103 135 189 237 288 348 417
#     4  11  24  43  72 101 135 186 231 292 364 419
#     4  12  23  42  67 104 144 185 231 274 350 433
#     4  11  26  50  74  99 135 182 244 309 362 406
#
# _framework density 27.129898000000001
#
# number of rings (size 3 to 8) (size 9 to 14) (size 15 to 20)
#    0.000    0.615    4.615    4.154    0.000    4.308 
#    0.000    0.769    0.000    5.538    0.000    0.000 
#    0.000    0.000    0.000    0.000    0.000    0.000 
#
# Total GULP energy -72609.913940 kJ/mol
# GULP energy per Si atom -5585.377995 kJ/mol
# Density = 2.706815 g / cm^3
# Si number density = 27.129898 Si / 1000 Ang^3
#
#
#
# Elastic Constant Matrix: (Units=GPa)
#
#
# Indices 1 2 3 4 5 6 
#
# 1 77.1312 36.4722 41.1569 0.0000 -77.5932 0.0000
# 2 36.4722 170.5001 96.4806 0.0000 -35.1889 0.0000
# 3 41.1569 96.4806 197.1789 0.0000 -60.7577 0.0000
# 4 0.0000 0.0000 0.0000 68.5585 0.0000 -10.3457
# 5 -77.5932 -35.1889 -60.7577 0.0000 41.4489 0.0000
# 6 0.0000 0.0000 0.0000 -10.3457 0.0000 3.1593
#
#
#
# Elastic Compliance Matrix: (Units=1/GPa)
#
#
# Indices 1 2 3 4 5 6 
#
# 1 -0.008558 0.000052 -0.005767 0.000000 -0.024429 0.000000
# 2 0.000052 0.008198 -0.003370 0.000000 0.002118 0.000000
# 3 -0.005767 -0.003370 0.006777 0.000000 -0.003721 0.000000
# 4 0.000000 0.000000 0.000000 0.028836 0.000000 0.094428
# 5 -0.024429 0.002118 -0.003721 0.000000 -0.025262 0.000000
# 6 0.000000 0.000000 0.000000 0.094428 0.000000 0.625749
#
#
# Mechanical properties :
#
#
# Convention : Reuss Voigt Hill
#
# Bulk Modulus (GPa) = -85.10130 88.11442 1.50656
# Shear Modulus (GPa) = 7.69240 40.68004 24.18622
#
# Velocity S-wave (km/s) = 1.68569 3.87648 2.98903
# Velocity P-wave (km/s) = 5.25808 7.25158 3.53114
#
# Compressibility (1/GPa) = -0.01175070
#
# Stress axis : x y z
#
# Youngs Moduli (GPa) = -116.85618 121.98474 147.55246
#
# Poissons Ratio (x) = -0.00633 0.85086
# Poissons Ratio (y) = 0.00607 0.49718
# Poissons Ratio (z) = -0.67385 0.41103
#
# Static dielectric constant tensor:
#      x y z
#    x 2.212920 0.000000 0.070350 
#    y 0.000000 2.151440 0.000000 
#    z 0.070350 0.000000 2.221160 
# 
# From -- ./inp_files/6564.got.cif
#   From: 2010.05.17/outbox.cif.g08.bks.cpg/sg3_4_cif.got.tgz:6564.got - 2010.06.03 18:33:08.
