data_PCOD9114181
_publ_section_title
;
Structure prediction by ZEFSAII (Michael W. Deem and Ramdas Pophale) SiO2 
 PCOD9114181
Probable space group: P 2
;
_chemical_formula_sum "Si O2"
_cell_formula_units_Z 16
_cell_length_a 16.430312
_cell_length_b 7.307761
_cell_length_c 7.286732
_cell_angle_alpha 90.000000
_cell_angle_beta 123.984376
_cell_angle_gamma 90.000000
_cell_volume 725.465916
_symmetry_space_group_name_H-M "P 2"
_symmetry_group_IT_number 3
_symmetry_cell_setting 'monoclinic'
loop_
_space_group_symop_operation_xyz
x,y,z
-x,y,-z
loop_
_atom_site_type_symbol
_atom_site_label
_atom_site_fract_x
_atom_site_fract_y
_atom_site_fract_z
Si Si1 0.422268 0.426500 0.153080
Si Si2 0.665372 0.783082 0.930788
Si Si3 0.364568 0.326748 0.667455
Si Si4 0.889048 0.159152 0.426697
Si Si5 0.766032 0.617639 0.727790
Si Si6 0.737554 0.169072 0.901929
Si Si7 0.264254 0.929184 0.597365
Si Si8 0.108767 0.312990 0.186761
O O1 0.426864 0.644500 0.199101
O O2 0.346148 0.321774 0.186940
O O3 0.527750 0.332723 0.286380
O O4 0.379512 0.400176 0.893551
O O5 0.743325 0.665497 0.910459
O O6 0.676832 0.981869 0.853098
O O7 0.685458 0.823063 0.169321
O O8 0.298983 0.469234 0.469482
O O9 0.881230 0.304290 0.581344
O O10 0.000000 0.144094 0.500000
O O11 0.844370 0.979920 0.467014
O O12 0.813244 0.193515 0.166735
O O13 0.747594 0.800900 0.591222
O O14 0.870976 0.519364 0.852794
O O15 0.810946 0.190667 0.822091
O O16 0.676693 0.119247 0.365059
O O17 0.000000 0.249778 0.000000
#
# Coordination Sequence:
#
# PCOD9114181 Si02
#       8
#     2   2   2   2   2   2   2   2
#     4  11  22  45  72 103 137 186 235 284 356 429
#     4  11  24  41  70 101 140 181 234 289 350 419
#     4  11  24  44  75  99 141 189 234 290 358 427
#     4  11  22  43  70  97 133 185 234 285 355 426
#     4  12  25  45  69 101 143 186 236 298 356 425
#     4  11  23  46  70  97 144 185 226 292 358 415
#     4  11  24  47  69 102 140 191 233 296 359 423
#     4  12  24  43  72 101 137 188 238 296 358 422
#
# _framework density 22.054791000000002
#
# number of rings (size 3 to 8) (size 9 to 14) (size 15 to 20)
#    0.000    0.750    7.500    0.750    0.000    1.500 
#    4.500    0.000    0.000    0.000    0.000    0.000 
#    0.000    0.000    0.000    0.000    0.000    0.000 
#
# Total GULP energy -89255.271024 kJ/mol
# GULP energy per Si atom -5578.454439 kJ/mol
# Density = 2.200459 g / cm^3
# Si number density = 22.054791 Si / 1000 Ang^3
#
#
#
# Elastic Constant Matrix: (Units=GPa)
#
#
# Indices 1 2 3 4 5 6 
#
# 1 142.3425 52.2378 30.4846 0.0000 -3.3627 0.0000
# 2 52.2378 143.4936 21.4644 0.0000 -3.0801 0.0000
# 3 30.4846 21.4644 84.2395 0.0000 -14.9480 0.0000
# 4 0.0000 0.0000 0.0000 31.0053 0.0000 -10.0463
# 5 -3.3627 -3.0801 -14.9480 0.0000 24.3121 0.0000
# 6 0.0000 0.0000 0.0000 -10.0463 0.0000 27.9428
#
#
#
# Elastic Compliance Matrix: (Units=1/GPa)
#
#
# Indices 1 2 3 4 5 6 
#
# 1 0.008559 -0.002754 -0.002523 0.000000 -0.000716 0.000000
# 2 -0.002754 0.008132 -0.001078 0.000000 -0.000013 0.000000
# 3 -0.002523 -0.001078 0.014561 0.000000 0.008467 0.000000
# 4 0.000000 0.000000 0.000000 0.036505 0.000000 0.013125
# 5 -0.000716 -0.000013 0.008467 0.000000 0.046237 0.000000
# 6 0.000000 0.000000 0.000000 0.013125 0.000000 0.040506
#
#
# Mechanical properties :
#
#
# Convention : Reuss Voigt Hill
#
# Bulk Modulus (GPa) = 53.92762 64.27214 59.09988
# Shear Modulus (GPa) = 28.83646 34.37796 31.60721
#
# Velocity S-wave (km/s) = 3.61985 3.95239 3.78977
# Velocity P-wave (km/s) = 6.47887 7.07346 6.78268
#
# Compressibility (1/GPa) = 0.01854337
#
# Stress axis : x y z
#
# Youngs Moduli (GPa) = 116.83110 122.96389 68.67659
#
# Poissons Ratio (x) = 0.33864 0.17326
# Poissons Ratio (y) = 0.32175 0.07403
# Poissons Ratio (z) = 0.29474 0.13255
#
# Static dielectric constant tensor:
#      x y z
#    x 1.829470 0.000000 -0.021390 
#    y 0.000000 1.852500 0.000000 
#    z -0.021390 0.000000 1.869660 
# 
# From -- ./inp_files/3617.got.cif
#   From: 2010.05.17/outbox.cif.g08.bks.cpg/sg3_2_cif.got.tgz:3617.got - 2010.06.03 18:33:08.
