data_PCOD9114399
_publ_section_title
;
Structure prediction by ZEFSAII (Michael W. Deem and Ramdas Pophale) SiO2 
 PCOD9114399
Probable space group: P 2
;
_chemical_formula_sum "Si O2"
_cell_formula_units_Z 10
_cell_length_a 14.572541
_cell_length_b 5.473943
_cell_length_c 13.967054
_cell_angle_alpha 90.000000
_cell_angle_beta 159.608677
_cell_angle_gamma 90.000000
_cell_volume 388.200449
_symmetry_space_group_name_H-M "P 2"
_symmetry_group_IT_number 3
_symmetry_cell_setting 'monoclinic'
loop_
_space_group_symop_operation_xyz
x,y,z
-x,y,-z
loop_
_atom_site_type_symbol
_atom_site_label
_atom_site_fract_x
_atom_site_fract_y
_atom_site_fract_z
Si Si1 0.742599 0.621360 0.273187
Si Si2 0.888439 0.663222 0.086217
Si Si3 0.772282 0.337127 0.712050
Si Si4 0.376348 0.962518 0.599888
Si Si5 0.388054 0.329841 0.036068
O O1 0.000000 0.762770 0.500000
O O2 0.254050 0.396695 0.803142
O O3 0.500000 0.779632 0.000000
O O4 0.649391 0.502292 0.279866
O O5 0.062844 0.563555 0.169594
O O6 0.799995 0.439890 0.066936
O O7 0.091667 0.842510 0.338227
O O8 0.612226 0.791999 0.790944
O O9 0.500000 0.396463 0.500000
O O10 0.681375 0.171237 0.534453
O O11 0.000000 0.209886 0.000000
O O12 0.501956 0.076799 0.818649
#
# Coordination Sequence:
#
# PCOD9114399 Si02
#       5
#     2   2   2   2   2
#     4   8  20  36  72  94 136 192 216 272 340 392
#     4  12  26  43  75 105 132 183 232 277 343 413
#     4  12  27  50  71  97 142 179 221 292 347 400
#     4  12  26  43  75 105 132 183 232 277 343 413
#     4   9  23  44  69  96 150 176 225 284 335 387
#
# _framework density 25.759889999999999
#
# number of rings (size 3 to 8) (size 9 to 14) (size 15 to 20)
#    1.200    0.000    0.000    6.000    8.400    3.200 
#    0.000    8.000    0.000    0.000    0.000    0.000 
#    0.000    0.000    0.000    0.000    0.000    0.000 
#
# Total GULP energy -55812.705910 kJ/mol
# GULP energy per Si atom -5581.270591 kJ/mol
# Density = 2.570126 g / cm^3
# Si number density = 25.759890 Si / 1000 Ang^3
#
#
#
# Elastic Constant Matrix: (Units=GPa)
#
#
# Indices 1 2 3 4 5 6 
#
# 1 110.3105 13.9613 41.8349 0.0000 16.8165 0.0000
# 2 13.9613 45.4569 24.6883 0.0000 -7.5173 0.0000
# 3 41.8349 24.6883 184.3759 0.0000 35.7177 0.0000
# 4 0.0000 0.0000 0.0000 50.9899 0.0000 2.5227
# 5 16.8165 -7.5173 35.7177 0.0000 62.1521 0.0000
# 6 0.0000 0.0000 0.0000 2.5227 0.0000 27.9481
#
#
#
# Elastic Compliance Matrix: (Units=1/GPa)
#
#
# Indices 1 2 3 4 5 6 
#
# 1 0.010336 -0.002701 -0.001551 0.000000 -0.002232 0.000000
# 2 -0.002701 0.026079 -0.004087 0.000000 0.006234 0.000000
# 3 -0.001551 -0.004087 0.007131 0.000000 -0.004173 0.000000
# 4 0.000000 0.000000 0.000000 0.019700 0.000000 -0.001778
# 5 -0.002232 0.006234 -0.004173 0.000000 0.019845 0.000000
# 6 0.000000 0.000000 0.000000 -0.001778 0.000000 0.035941
#
#
# Mechanical properties :
#
#
# Convention : Reuss Voigt Hill
#
# Bulk Modulus (GPa) = 37.21910 55.67913 46.44911
# Shear Modulus (GPa) = 34.56240 45.52860 40.04550
#
# Velocity S-wave (km/s) = 3.66692 4.20863 3.94708
# Velocity P-wave (km/s) = 5.69282 6.72892 6.23244
#
# Compressibility (1/GPa) = 0.02686793
#
# Stress axis : x y z
#
# Youngs Moduli (GPa) = 96.75235 38.34523 140.22808
#
# Poissons Ratio (x) = 0.10357 0.21751
# Poissons Ratio (y) = 0.26133 0.57307
# Poissons Ratio (z) = 0.15008 0.15671
#
# Static dielectric constant tensor:
#      x y z
#    x 2.067430 0.000000 -0.056540 
#    y 0.000000 2.042240 0.000000 
#    z -0.056540 0.000000 2.267100 
# 
# From -- ./inp_files/13825.got.cif
#   From: 2010.05.17/outbox.cif.g08.bks.cpg/sg3_7_cif.got.tgz:13825.got - 2010.06.03 18:33:08.
