data_PCOD9114499
_publ_section_title
;
Structure prediction by ZEFSAII (Michael W. Deem and Ramdas Pophale) SiO2 
 PCOD9114499
Probable space group: P 21
;
_chemical_formula_sum "Si O2"
_cell_formula_units_Z 16
_cell_length_a 12.136981
_cell_length_b 8.114427
_cell_length_c 7.082315
_cell_angle_alpha 90.000000
_cell_angle_beta 69.682401
_cell_angle_gamma 90.000000
_cell_volume 654.102504
_symmetry_space_group_name_H-M "P 21"
_symmetry_group_IT_number 4
_symmetry_cell_setting 'monoclinic'
loop_
_space_group_symop_operation_xyz
x,y,z
-x,1/2+y,-z
loop_
_atom_site_type_symbol
_atom_site_label
_atom_site_fract_x
_atom_site_fract_y
_atom_site_fract_z
Si Si1 0.987994 0.334610 0.745477
Si Si2 0.464644 0.346009 0.307692
Si Si3 0.781551 0.984387 0.415837
Si Si4 0.701617 0.316379 0.317080
Si Si5 0.874504 0.574820 0.104469
Si Si6 0.490224 0.190676 0.917440
Si Si7 0.253976 0.709175 0.147231
Si Si8 0.747887 0.862247 0.015352
O O1 0.092813 0.429685 0.578275
O O2 0.044449 0.169154 0.795781
O O3 0.865885 0.293837 0.716997
O O4 0.950305 0.440282 0.950843
O O5 0.333313 0.388262 0.445401
O O6 0.560215 0.316520 0.414344
O O7 0.512106 0.509719 0.170721
O O8 0.466107 0.196545 0.157761
O O9 0.785614 0.933800 0.193598
O O10 0.758164 0.178835 0.416951
O O11 0.766525 0.491353 0.281832
O O12 0.724943 0.262416 0.084000
O O13 0.824013 0.695197 0.969334
O O14 0.624454 0.251043 0.822656
O O15 0.387577 0.305528 0.899827
O O16 0.240655 0.509977 0.141526
#
# Coordination Sequence:
#
# PCOD9114499 Si02
#       8
#     2   2   2   2   2   2   2   2
#     4  10  19  33  55  87 123 160 201 250 300 365
#     4  11  23  39  62  89 128 157 203 255 312 371
#     4  10  23  37  58  92 125 154 195 263 313 351
#     4   9  19  34  56  89 118 152 196 254 310 354
#     4  10  17  31  57  85 120 156 204 250 299 361
#     4  11  21  39  61  88 118 163 207 247 304 373
#     4   9  19  34  56  83 119 163 205 243 289 375
#     4  10  19  35  59  93 119 157 203 256 311 350
#
# _framework density 24.460998
#
# number of rings (size 3 to 8) (size 9 to 14) (size 15 to 20)
#    0.000    2.000    2.500    3.000    1.750    0.000 
#    0.000    2.500    2.750    0.000    0.000    0.000 
#    0.000    0.000    0.000    0.000    0.000    0.000 
#
# Total GULP energy -89411.822478 kJ/mol
# GULP energy per Si atom -5588.238905 kJ/mol
# Density = 2.440532 g / cm^3
# Si number density = 24.460998 Si / 1000 Ang^3
#
#
#
# Elastic Constant Matrix: (Units=GPa)
#
#
# Indices 1 2 3 4 5 6 
#
# 1 144.3540 27.2953 27.5388 0.0000 -34.5377 0.0000
# 2 27.2953 56.3371 -0.9620 0.0000 -14.7851 0.0000
# 3 27.5388 -0.9620 59.4783 0.0000 -28.0143 0.0000
# 4 0.0000 0.0000 0.0000 25.2726 0.0000 -9.5532
# 5 -34.5377 -14.7851 -28.0143 0.0000 31.2493 0.0000
# 6 0.0000 0.0000 0.0000 -9.5532 0.0000 44.5959
#
#
#
# Elastic Compliance Matrix: (Units=1/GPa)
#
#
# Indices 1 2 3 4 5 6 
#
# 1 0.009639 -0.002115 0.000085 0.000000 0.009729 0.000000
# 2 -0.002115 0.023474 0.009500 0.000000 0.017285 0.000000
# 3 0.000085 0.009500 0.033039 0.000000 0.034208 0.000000
# 4 0.000000 0.000000 0.000000 0.043055 0.000000 0.009223
# 5 0.009729 0.017285 0.034208 0.000000 0.081597 0.000000
# 6 0.000000 0.000000 0.000000 0.009223 0.000000 0.024399
#
#
# Mechanical properties :
#
#
# Convention : Reuss Voigt Hill
#
# Bulk Modulus (GPa) = 12.33175 40.87930 26.60553
# Shear Modulus (GPa) = 21.99801 33.97671 27.98736
#
# Velocity S-wave (km/s) = 3.00210 3.73099 3.38622
# Velocity P-wave (km/s) = 4.13148 5.94211 5.11751
#
# Compressibility (1/GPa) = 0.08109146
#
# Stress axis : x y z
#
# Youngs Moduli (GPa) = 103.74740 42.60084 30.26743
#
# Poissons Ratio (x) = 0.09012 -0.00258
# Poissons Ratio (y) = 0.21947 -0.28755
# Poissons Ratio (z) = -0.00883 -0.40472
#
# Static dielectric constant tensor:
#      x y z
#    x 1.960040 0.000000 0.001350 
#    y 0.000000 2.000440 0.000000 
#    z 0.001350 0.000000 1.970160 
# 
# From -- ./inp_files/7998.got.cif
#   From: 2010.05.17/outbox.cif.g08.bks.cpg/sg4_4_cif.got.tgz:7998.got - 2010.06.03 18:43:04.
