data_PCOD9114477
_publ_section_title
;
Structure prediction by ZEFSAII (Michael W. Deem and Ramdas Pophale) SiO2 
 PCOD9114477
Probable space group: P 21
;
_chemical_formula_sum "Si O2"
_cell_formula_units_Z 16
_cell_length_a 16.941086
_cell_length_b 5.282652
_cell_length_c 22.909184
_cell_angle_alpha 90.000000
_cell_angle_beta 162.367700
_cell_angle_gamma 90.000000
_cell_volume 621.029828
_symmetry_space_group_name_H-M "P 21"
_symmetry_group_IT_number 4
_symmetry_cell_setting 'monoclinic'
loop_
_space_group_symop_operation_xyz
x,y,z
-x,1/2+y,-z
loop_
_atom_site_type_symbol
_atom_site_label
_atom_site_fract_x
_atom_site_fract_y
_atom_site_fract_z
Si Si1 0.179064 0.127490 0.279152
Si Si2 0.101354 0.929025 0.596068
Si Si3 0.081127 0.630637 0.242501
Si Si4 0.602834 0.617808 0.820066
Si Si5 0.553938 0.112821 0.846164
Si Si6 0.160771 0.107125 0.128558
Si Si7 0.824529 0.085395 0.243520
Si Si8 0.212771 0.077225 0.846226
O O1 0.257259 0.383603 0.365133
O O2 0.209422 0.121028 0.231398
O O3 0.264458 0.872473 0.369982
O O4 0.864099 0.121471 0.070791
O O5 0.055874 0.750701 0.619652
O O6 0.030135 0.707898 0.498609
O O7 0.399370 0.017912 0.793980
O O8 0.882663 0.636699 0.156276
O O9 0.901412 0.624098 0.056838
O O10 0.479784 0.390785 0.771097
O O11 0.608974 0.560713 0.755968
O O12 0.497281 0.896036 0.758673
O O13 0.035965 0.374804 0.021621
O O14 0.864955 0.286897 0.220300
O O15 0.892889 0.802868 0.270364
O O16 0.522218 0.075271 0.051730
#
# Coordination Sequence:
#
# PCOD9114477 Si02
#       8
#     2   2   2   2   2   2   2   2
#     4  10  18  27  45  68 103 144 171 208 247 323
#     4  12  25  40  57  76 103 143 188 241 275 313
#     4  10  17  27  41  68  96 131 173 199 246 300
#     4  10  18  28  47  70 105 144 172 212 251 327
#     4  10  19  32  47  68  93 133 182 215 259 307
#     4  12  16  28  41  70 105 146 183 193 259 318
#     4  10  21  37  53  76 100 131 177 227 288 319
#     4  10  20  33  55  76 101 134 172 229 269 331
#
# _framework density 25.763660000000002
#
# number of rings (size 3 to 8) (size 9 to 14) (size 15 to 20)
#    0.000    1.500    5.000    3.750    0.000    6.000 
#    0.000    0.000    0.000    0.000    0.000    0.000 
#    0.000    0.000    0.000  101.250    0.000    0.625 
#
# Total GULP energy -89380.282568 kJ/mol
# GULP energy per Si atom -5586.267660 kJ/mol
# Density = 2.570502 g / cm^3
# Si number density = 25.763660 Si / 1000 Ang^3
#
#
#
# Elastic Constant Matrix: (Units=GPa)
#
#
# Indices 1 2 3 4 5 6 
#
# 1 124.3894 20.3127 14.8753 0.0000 -5.9900 0.0000
# 2 20.3127 192.8027 1.5222 0.0000 -3.0312 0.0000
# 3 14.8753 1.5222 52.1039 0.0000 14.0783 0.0000
# 4 0.0000 0.0000 0.0000 5.8307 0.0000 -7.9662
# 5 -5.9900 -3.0312 14.0783 0.0000 23.2346 0.0000
# 6 0.0000 0.0000 0.0000 -7.9662 0.0000 44.2019
#
#
#
# Elastic Compliance Matrix: (Units=1/GPa)
#
#
# Indices 1 2 3 4 5 6 
#
# 1 0.008828 -0.000832 -0.003685 0.000000 0.004400 0.000000
# 2 -0.000832 0.005283 -0.000054 0.000000 0.000507 0.000000
# 3 -0.003685 -0.000054 0.024519 0.000000 -0.015813 0.000000
# 4 0.000000 0.000000 0.000000 0.227528 0.000000 0.041006
# 5 0.004400 0.000507 -0.015813 0.000000 0.053821 0.000000
# 6 0.000000 0.000000 0.000000 0.041006 0.000000 0.030014
#
#
# Mechanical properties :
#
#
# Convention : Reuss Voigt Hill
#
# Bulk Modulus (GPa) = 33.91219 49.19072 41.55146
# Shear Modulus (GPa) = 13.55150 36.82583 25.18866
#
# Velocity S-wave (km/s) = 2.29594 3.78480 3.13018
# Velocity P-wave (km/s) = 4.49665 6.18338 5.40620
#
# Compressibility (1/GPa) = 0.02948792
#
# Stress axis : x y z
#
# Youngs Moduli (GPa) = 113.28069 189.29775 40.78523
#
# Poissons Ratio (x) = 0.15745 0.15028
# Poissons Ratio (y) = 0.09422 0.00220
# Poissons Ratio (z) = 0.41742 0.01022
#
# Static dielectric constant tensor:
#      x y z
#    x 2.083970 0.000000 -0.038320 
#    y 0.000000 2.182390 0.000000 
#    z -0.038320 0.000000 2.146180 
# 
# From -- ./inp_files/15764.got.cif
#   From: 2010.05.17/outbox.cif.g08.bks.cpg/sg4_8_cif.got.tgz:15764.got - 2010.06.03 18:43:04.
