data_PCOD9114065
_publ_section_title
;
Structure prediction by ZEFSAII (Michael W. Deem and Ramdas Pophale) SiO2 
 PCOD9114065
Probable space group: P 2
;
_chemical_formula_sum "Si O2"
_cell_formula_units_Z 12
_cell_length_a 12.985381
_cell_length_b 5.255819
_cell_length_c 20.588920
_cell_angle_alpha 90.000000
_cell_angle_beta 160.537674
_cell_angle_gamma 90.000000
_cell_volume 468.184109
_symmetry_space_group_name_H-M "P 2"
_symmetry_group_IT_number 3
_symmetry_cell_setting 'monoclinic'
loop_
_space_group_symop_operation_xyz
x,y,z
-x,y,-z
loop_
_atom_site_type_symbol
_atom_site_label
_atom_site_fract_x
_atom_site_fract_y
_atom_site_fract_z
Si Si1 0.270559 0.812620 0.405993
Si Si2 0.332411 0.083560 0.260875
Si Si3 0.840156 0.450248 0.546798
Si Si4 0.385821 0.939340 0.155209
Si Si5 0.405527 0.430046 0.794535
Si Si6 0.765138 0.134897 0.116945
O O1 0.500000 0.637609 0.500000
O O2 0.520384 0.010310 0.582814
O O3 0.147130 0.680984 0.396502
O O4 0.970694 0.942865 0.197881
O O5 0.451457 0.911057 0.271209
O O6 0.486662 0.351744 0.331917
O O7 0.967770 0.044697 0.051737
O O8 0.058215 0.483290 0.614128
O O9 0.017591 0.241728 0.697080
O O10 0.456582 0.674890 0.160721
O O11 0.579576 0.170139 0.238638
O O12 0.617504 0.351054 0.983411
O O13 0.500000 0.997273 0.000000
#
# Coordination Sequence:
#
# PCOD9114065 Si02
#       6
#     2   2   2   2   2   2
#     4  11  24  42  72 103 144 192 240 304 375 431
#     4  10  26  48  68 107 148 191 253 305 366 450
#     4  10  25  44  70 107 149 189 245 313 364 446
#     4  11  27  47  77 104 146 201 247 307 370 450
#     4  11  26  46  75 111 143 196 248 304 382 444
#     4   9  22  42  67 102 144 183 240 306 366 438
#
# _framework density 25.630942000000001
#
# number of rings (size 3 to 8) (size 9 to 14) (size 15 to 20)
#    0.000    1.667    0.000    1.000   16.333    5.333 
#    0.000    0.000    0.000    0.000    0.000    0.000 
#    0.000    0.000    0.000    0.000    0.000    0.000 
#
# Total GULP energy -66993.660008 kJ/mol
# GULP energy per Si atom -5582.805001 kJ/mol
# Density = 2.557261 g / cm^3
# Si number density = 25.630942 Si / 1000 Ang^3
#
#
#
# Elastic Constant Matrix: (Units=GPa)
#
#
# Indices 1 2 3 4 5 6 
#
# 1 142.3007 42.8979 40.9761 0.0000 34.8523 0.0000
# 2 42.8979 124.0753 41.8678 0.0000 29.5534 0.0000
# 3 40.9761 41.8678 101.4142 0.0000 33.0899 0.0000
# 4 0.0000 0.0000 0.0000 22.6243 0.0000 2.3290
# 5 34.8523 29.5534 33.0899 0.0000 49.4082 0.0000
# 6 0.0000 0.0000 0.0000 2.3290 0.0000 38.4242
#
#
#
# Elastic Compliance Matrix: (Units=1/GPa)
#
#
# Indices 1 2 3 4 5 6 
#
# 1 0.009020 -0.001542 -0.001578 0.000000 -0.004384 0.000000
# 2 -0.001542 0.010239 -0.002509 0.000000 -0.003356 0.000000
# 3 -0.001578 -0.002509 0.013668 0.000000 -0.006540 0.000000
# 4 0.000000 0.000000 0.000000 0.044478 0.000000 -0.002696
# 5 -0.004384 -0.003356 -0.006540 0.000000 0.029720 0.000000
# 6 0.000000 0.000000 0.000000 -0.002696 0.000000 0.026189
#
#
# Mechanical properties :
#
#
# Convention : Reuss Voigt Hill
#
# Bulk Modulus (GPa) = 46.14731 68.80819 57.47775
# Shear Modulus (GPa) = 32.93963 38.22790 35.58377
#
# Velocity S-wave (km/s) = 3.58879 3.86615 3.73005
# Velocity P-wave (km/s) = 5.93432 6.84350 6.40506
#
# Compressibility (1/GPa) = 0.02166973
#
# Stress axis : x y z
#
# Youngs Moduli (GPa) = 110.86201 97.66771 73.16557
#
# Poissons Ratio (x) = 0.15062 0.11542
# Poissons Ratio (y) = 0.17096 0.18356
# Poissons Ratio (z) = 0.17489 0.24503
#
# Static dielectric constant tensor:
#      x y z
#    x 2.178330 0.000000 0.003690 
#    y 0.000000 2.036620 0.000000 
#    z 0.003690 0.000000 2.077820 
# 
# From -- ./inp_files/8357.got.cif
#   From: 2010.05.17/outbox.cif.g08.bks.cpg/sg3_5_cif.got.tgz:8357.got - 2010.06.03 18:33:08.
