data_PCOD9114770
_publ_section_title
;
Structure prediction by ZEFSAII (Michael W. Deem and Ramdas Pophale) SiO2 
 PCOD9114770
Probable space group: P 21
;
_chemical_formula_sum "Si O2"
_cell_formula_units_Z 14
_cell_length_a 12.757787
_cell_length_b 8.586342
_cell_length_c 8.880256
_cell_angle_alpha 90.000000
_cell_angle_beta 145.146350
_cell_angle_gamma 90.000000
_cell_volume 555.919279
_symmetry_space_group_name_H-M "P 21"
_symmetry_group_IT_number 4
_symmetry_cell_setting 'monoclinic'
loop_
_space_group_symop_operation_xyz
x,y,z
-x,1/2+y,-z
loop_
_atom_site_type_symbol
_atom_site_label
_atom_site_fract_x
_atom_site_fract_y
_atom_site_fract_z
Si Si1 0.265587 0.891560 0.820069
Si Si2 0.375439 0.536434 0.903267
Si Si3 0.986158 0.668095 0.959810
Si Si4 0.581705 0.483154 0.718517
Si Si5 0.089692 0.872966 0.328616
Si Si6 0.207392 0.443051 0.400901
Si Si7 0.481429 0.833484 0.671864
O O1 0.337533 0.713775 0.902520
O O2 0.086364 0.901434 0.502616
O O3 0.422912 0.007975 0.936100
O O4 0.249983 0.939610 0.975344
O O5 0.233389 0.488576 0.604488
O O6 0.380953 0.428892 0.058622
O O7 0.904177 0.531339 0.760371
O O8 0.948451 0.815997 0.811231
O O9 0.950548 0.753398 0.082031
O O10 0.166132 0.576911 0.227620
O O11 0.408352 0.388726 0.584828
O O12 0.552265 0.666622 0.703245
O O13 0.582234 0.431562 0.547890
O O14 0.297664 0.809691 0.553479
#
# Coordination Sequence:
#
# PCOD9114770 Si02
#       7
#     2   2   2   2   2   2   2
#     4  10  19  33  55  83 111 140 184 234 272 321
#     4  10  19  33  55  83 111 140 184 234 272 321
#     4  10  20  34  58  82 112 148 180 234 254 330
#     4  11  23  37  57  84 113 144 181 233 285 332
#     4  10  20  36  58  86 110 140 191 221 278 317
#     4  10  20  36  58  86 110 140 191 221 278 317
#     4  11  23  37  57  84 113 144 181 233 285 332
#
# _framework density 25.183513999999999
#
# number of rings (size 3 to 8) (size 9 to 14) (size 15 to 20)
#    0.000    1.714    2.857    3.429   12.000    0.000 
#    0.000    0.000    0.000   10.286    0.000    0.000 
#    0.000    0.000    0.000    0.000    0.000    0.000 
#
# Total GULP energy -78009.408882 kJ/mol
# GULP energy per Si atom -5572.100634 kJ/mol
# Density = 2.512620 g / cm^3
# Si number density = 25.183514 Si / 1000 Ang^3
#
#
#
# Elastic Constant Matrix: (Units=GPa)
#
#
# Indices 1 2 3 4 5 6 
#
# 1 55.5657 20.0854 34.8786 0.0000 -15.9557 0.0000
# 2 20.0854 85.7866 64.1791 0.0000 -2.1595 0.0000
# 3 34.8786 64.1791 224.4450 0.0000 -44.7244 0.0000
# 4 0.0000 0.0000 0.0000 56.5729 0.0000 -10.9851
# 5 -15.9557 -2.1595 -44.7244 0.0000 30.8147 0.0000
# 6 0.0000 0.0000 0.0000 -10.9851 0.0000 16.9961
#
#
#
# Elastic Compliance Matrix: (Units=1/GPa)
#
#
# Indices 1 2 3 4 5 6 
#
# 1 0.023215 -0.005399 0.000360 0.000000 0.012165 0.000000
# 2 -0.005399 0.017313 -0.006228 0.000000 -0.010622 0.000000
# 3 0.000360 -0.006228 0.008625 0.000000 0.012268 0.000000
# 4 0.000000 0.000000 0.000000 0.020213 0.000000 0.013064
# 5 0.012165 -0.010622 0.012268 0.000000 0.055813 0.000000
# 6 0.000000 0.000000 0.000000 0.013064 0.000000 0.067281
#
#
# Mechanical properties :
#
#
# Convention : Reuss Voigt Hill
#
# Bulk Modulus (GPa) = 37.56571 67.12040 52.34306
# Shear Modulus (GPa) = 22.33468 37.32035 29.82752
#
# Velocity S-wave (km/s) = 2.98128 3.85377 3.44525
# Velocity P-wave (km/s) = 5.17686 6.82000 6.05443
#
# Compressibility (1/GPa) = 0.02662002
#
# Stress axis : x y z
#
# Youngs Moduli (GPa) = 43.07499 57.76047 115.94127
#
# Poissons Ratio (x) = 0.31183 -0.04176
# Poissons Ratio (y) = 0.23255 0.72210
# Poissons Ratio (z) = -0.01552 0.35974
#
# Static dielectric constant tensor:
#      x y z
#    x 2.034370 0.000000 -0.023730 
#    y 0.000000 2.028520 0.000000 
#    z -0.023730 0.000000 2.050120 
# 
# From -- ./inp_files/5357.got.cif
#   From: 2010.05.17/outbox.cif.g08.bks.cpg/sg4_3_cif.got.tgz:5357.got - 2010.06.03 18:43:04.
