data_PCOD9114305
_publ_section_title
;
Structure prediction by ZEFSAII (Michael W. Deem and Ramdas Pophale) SiO2 
 PCOD9114305
Probable space group: P 2
;
_chemical_formula_sum "Si O2"
_cell_formula_units_Z 11
_cell_length_a 6.059501
_cell_length_b 4.842181
_cell_length_c 15.424811
_cell_angle_alpha 90.000000
_cell_angle_beta 104.348295
_cell_angle_gamma 90.000000
_cell_volume 438.465155
_symmetry_space_group_name_H-M "P 2"
_symmetry_group_IT_number 3
_symmetry_cell_setting 'monoclinic'
loop_
_space_group_symop_operation_xyz
x,y,z
-x,y,-z
loop_
_atom_site_type_symbol
_atom_site_label
_atom_site_fract_x
_atom_site_fract_y
_atom_site_fract_z
Si Si1 0.291245 0.735640 0.229265
Si Si2 0.352885 0.018331 0.410972
Si Si3 0.412416 0.842695 0.894818
Si Si4 0.292821 0.438734 0.641111
Si Si5 0.000000 0.864672 0.500000
Si Si6 0.871405 0.333351 0.190974
O O1 0.377369 0.893552 0.151856
O O2 0.525963 0.615265 0.287921
O O3 0.108215 0.493427 0.196499
O O4 0.238554 0.908558 0.311167
O O5 0.500000 0.845884 0.500000
O O6 0.539661 0.239818 0.397922
O O7 0.137032 0.069162 0.450589
O O8 0.320756 0.533923 0.869406
O O9 0.194160 0.037024 0.853995
O O10 0.500000 0.879831 0.000000
O O11 0.158616 0.306426 0.708351
O O12 0.142197 0.655003 0.573658
#
# Coordination Sequence:
#
# PCOD9114305 Si02
#       6
#     2   2   2   2   1   2
#     4  11  25  46  73 111 155 197 259 319 389 467
#     4  12  26  43  70 107 154 204 258 316 379 458
#     4  11  26  50  77 114 153 197 259 330 395 480
#     4  11  26  45  70 107 153 204 262 326 378 465
#     4  12  26  48  70 110 154 210 266 318 388 450
#     4  11  25  46  80 109 151 205 254 322 408 463
#
# _framework density 25.087508
#
# number of rings (size 3 to 8) (size 9 to 14) (size 15 to 20)
#    0.000    0.727    5.455    0.545    5.091    2.909 
#    0.000    1.818    0.000    0.000    0.000    0.000 
#    0.000    0.000    0.000    0.000    0.000    0.000 
#
# Total GULP energy -61394.984166 kJ/mol
# GULP energy per Si atom -5581.362197 kJ/mol
# Density = 2.503041 g / cm^3
# Si number density = 25.087508 Si / 1000 Ang^3
#
#
#
# Elastic Constant Matrix: (Units=GPa)
#
#
# Indices 1 2 3 4 5 6 
#
# 1 107.3921 15.9358 73.1842 0.0000 -14.4325 0.0000
# 2 15.9358 75.7390 31.9280 0.0000 -7.7138 0.0000
# 3 73.1842 31.9280 198.1868 0.0000 -17.5014 0.0000
# 4 0.0000 0.0000 0.0000 36.8965 0.0000 15.3672
# 5 -14.4325 -7.7138 -17.5014 0.0000 33.7308 0.0000
# 6 0.0000 0.0000 0.0000 15.3672 0.0000 63.3203
#
#
#
# Elastic Compliance Matrix: (Units=1/GPa)
#
#
# Indices 1 2 3 4 5 6 
#
# 1 0.012776 -0.000537 -0.004359 0.000000 0.003082 0.000000
# 2 -0.000537 0.014339 -0.001931 0.000000 0.002048 0.000000
# 3 -0.004359 -0.001931 0.007088 0.000000 0.001371 0.000000
# 4 0.000000 0.000000 0.000000 0.030150 0.000000 -0.007317
# 5 0.003082 0.002048 0.001371 0.000000 0.032145 0.000000
# 6 0.000000 0.000000 0.000000 -0.007317 0.000000 0.017569
#
#
# Mechanical properties :
#
#
# Convention : Reuss Voigt Hill
#
# Bulk Modulus (GPa) = 48.66470 69.26823 58.96646
# Shear Modulus (GPa) = 37.15555 44.14083 40.64819
#
# Velocity S-wave (km/s) = 3.85260 4.19916 4.02961
# Velocity P-wave (km/s) = 6.26340 7.15410 6.72351
#
# Compressibility (1/GPa) = 0.02054878
#
# Stress axis : x y z
#
# Youngs Moduli (GPa) = 78.27068 69.74134 141.09156
#
# Poissons Ratio (x) = 0.03742 0.61505
# Poissons Ratio (y) = 0.04200 0.27245
# Poissons Ratio (z) = 0.34120 0.13467
#
# Static dielectric constant tensor:
#      x y z
#    x 2.607650 0.000000 -0.191140 
#    y 0.000000 2.061190 0.000000 
#    z -0.191140 0.000000 2.027830 
# 
# From -- ./inp_files/2741.got.cif
#   From: 2010.05.17/outbox.cif.g08.bks.cpg/sg3_2_cif.got.tgz:2741.got - 2010.06.03 18:33:08.
