data_PCOD9114589
_publ_section_title
;
Structure prediction by ZEFSAII (Michael W. Deem and Ramdas Pophale) SiO2 
 PCOD9114589
Probable space group: P 21
;
_chemical_formula_sum "Si O2"
_cell_formula_units_Z 16
_cell_length_a 10.847275
_cell_length_b 11.688242
_cell_length_c 8.045162
_cell_angle_alpha 90.000000
_cell_angle_beta 40.153175
_cell_angle_gamma 90.000000
_cell_volume 657.736690
_symmetry_space_group_name_H-M "P 21"
_symmetry_group_IT_number 4
_symmetry_cell_setting 'monoclinic'
loop_
_space_group_symop_operation_xyz
x,y,z
-x,1/2+y,-z
loop_
_atom_site_type_symbol
_atom_site_label
_atom_site_fract_x
_atom_site_fract_y
_atom_site_fract_z
Si Si1 0.997689 0.383100 0.837956
Si Si2 0.757754 0.371396 0.387888
Si Si3 0.038222 0.018224 0.576430
Si Si4 0.734008 0.872710 0.720730
Si Si5 0.665343 0.803193 0.139524
Si Si6 0.412625 0.095711 0.612003
Si Si7 0.342386 0.979301 0.024428
Si Si8 0.181901 0.549298 0.891489
O O1 0.170121 0.333472 0.550111
O O2 0.072977 0.506012 0.837704
O O3 0.821943 0.402893 0.892564
O O4 0.897909 0.324377 0.100517
O O5 0.881456 0.401250 0.420888
O O6 0.565908 0.304826 0.625451
O O7 0.683769 0.495285 0.394984
O O8 0.860449 0.984212 0.643236
O O9 0.223077 0.053468 0.280752
O O10 0.955255 0.088857 0.817481
O O11 0.740775 0.792171 0.875150
O O12 0.514950 0.908972 0.924840
O O13 0.712491 0.707561 0.226680
O O14 0.734620 0.926059 0.131613
O O15 0.624608 0.120094 0.326680
O O16 0.433393 0.047762 0.777925
#
# Coordination Sequence:
#
# PCOD9114589 Si02
#       8
#     2   2   2   2   2   2   2   2
#     4   9  18  33  59  83 107 148 187 223 284 334
#     4   9  18  36  57  82 113 148 185 236 279 324
#     4   9  18  33  59  83 107 148 187 223 284 334
#     4  10  18  33  59  83 108 146 182 227 282 338
#     4  10  20  35  58  83 111 150 190 230 281 334
#     4  10  20  35  58  83 111 150 190 230 281 334
#     4  10  18  33  59  83 108 146 182 227 282 338
#     4   9  18  36  57  82 113 148 185 236 279 324
#
# _framework density 24.325845000000001
#
# number of rings (size 3 to 8) (size 9 to 14) (size 15 to 20)
#    0.000    2.500    2.500    0.000    0.000    0.000 
#    0.000   13.750    0.000    1.500    0.000    0.000 
#    0.000    0.000    0.000    0.000    0.000    0.000 
#
# Total GULP energy -89246.456054 kJ/mol
# GULP energy per Si atom -5577.903503 kJ/mol
# Density = 2.427048 g / cm^3
# Si number density = 24.325845 Si / 1000 Ang^3
#
#
#
# Elastic Constant Matrix: (Units=GPa)
#
#
# Indices 1 2 3 4 5 6 
#
# 1 110.3574 6.4876 35.2010 0.0000 -10.2153 0.0000
# 2 6.4876 33.0479 2.2409 0.0000 1.6427 0.0000
# 3 35.2010 2.2409 151.8802 0.0000 -8.6526 0.0000
# 4 0.0000 0.0000 0.0000 27.7334 0.0000 1.3201
# 5 -10.2153 1.6427 -8.6526 0.0000 46.2453 0.0000
# 6 0.0000 0.0000 0.0000 1.3201 0.0000 6.8809
#
#
#
# Elastic Compliance Matrix: (Units=1/GPa)
#
#
# Indices 1 2 3 4 5 6 
#
# 1 0.010048 -0.001917 -0.002193 0.000000 0.001877 0.000000
# 2 -0.001917 0.030718 -0.000096 0.000000 -0.001533 0.000000
# 3 -0.002193 -0.000096 0.007143 0.000000 0.000855 0.000000
# 4 0.000000 0.000000 0.000000 0.036390 0.000000 -0.006981
# 5 0.001877 -0.001533 0.000855 0.000000 0.022253 0.000000
# 6 0.000000 0.000000 0.000000 -0.006981 0.000000 0.146670
#
#
# Mechanical properties :
#
#
# Convention : Reuss Voigt Hill
#
# Bulk Modulus (GPa) = 25.31973 42.57162 33.94567
# Shear Modulus (GPa) = 18.19506 32.92897 25.56202
#
# Velocity S-wave (km/s) = 2.73788 3.68321 3.24515
# Velocity P-wave (km/s) = 4.51949 5.96880 5.29398
#
# Compressibility (1/GPa) = 0.03949490
#
# Stress axis : x y z
#
# Youngs Moduli (GPa) = 99.52641 32.55411 140.00379
#
# Poissons Ratio (x) = 0.06241 0.30710
# Poissons Ratio (y) = 0.19079 0.01348
# Poissons Ratio (z) = 0.21831 0.00313
#
# Static dielectric constant tensor:
#      x y z
#    x 1.960240 0.000000 0.019670 
#    y 0.000000 2.018040 0.000000 
#    z 0.019670 0.000000 1.987060 
# 
# From -- ./inp_files/8432.got.cif
#   From: 2010.05.17/outbox.cif.g08.bks.cpg/sg4_5_cif.got.tgz:8432.got - 2010.06.03 18:43:04.
