data_PCOD9114995
_publ_section_title
;
Structure prediction by ZEFSAII (Michael W. Deem and Ramdas Pophale) SiO2 
 PCOD9114995
Probable space group: P 21
;
_chemical_formula_sum "Si O2"
_cell_formula_units_Z 12
_cell_length_a 7.700240
_cell_length_b 7.766579
_cell_length_c 11.026673
_cell_angle_alpha 90.000000
_cell_angle_beta 123.151967
_cell_angle_gamma 90.000000
_cell_volume 552.102487
_symmetry_space_group_name_H-M "P 21"
_symmetry_group_IT_number 4
_symmetry_cell_setting 'monoclinic'
loop_
_space_group_symop_operation_xyz
x,y,z
-x,1/2+y,-z
loop_
_atom_site_type_symbol
_atom_site_label
_atom_site_fract_x
_atom_site_fract_y
_atom_site_fract_z
Si Si1 0.593479 0.133300 0.802382
Si Si2 0.283053 0.171992 0.059730
Si Si3 0.908669 0.299336 0.078119
Si Si4 0.167578 0.500450 0.333305
Si Si5 0.785154 0.738005 0.222342
Si Si6 0.401244 0.482836 0.673796
O O1 0.361336 0.100644 0.761714
O O2 0.566463 0.325186 0.734801
O O3 0.691519 0.024282 0.732587
O O4 0.741742 0.155706 0.976191
O O5 0.092683 0.261118 0.054051
O O6 0.478029 0.142932 0.221780
O O7 0.323328 0.267063 0.948854
O O8 0.201926 0.982339 0.989007
O O9 0.024116 0.332189 0.250238
O O10 0.303579 0.498262 0.505220
O O11 0.010381 0.661296 0.286673
O O12 0.768966 0.908964 0.296686
#
# Coordination Sequence:
#
# PCOD9114995 Si02
#       6
#     2   2   2   2   2   2
#     4   9  20  41  59  88 120 161 208 250 305 364
#     4  10  20  40  64  92 125 163 214 252 305 373
#     4  10  19  38  65  91 119 166 206 250 306 369
#     4  11  21  42  61  88 131 157 208 258 311 369
#     4   9  21  41  57  89 125 159 211 252 294 380
#     4   9  23  40  58  94 124 156 211 254 315 361
#
# _framework density 21.735095000000001
#
# number of rings (size 3 to 8) (size 9 to 14) (size 15 to 20)
#    1.000    1.333    3.333    0.000    2.333    1.333 
#    6.000    0.000    0.000    0.000    0.000    0.000 
#    0.000    0.000    0.000    0.000    0.000    0.000 
#
# Total GULP energy -66800.939197 kJ/mol
# GULP energy per Si atom -5566.744933 kJ/mol
# Density = 2.168563 g / cm^3
# Si number density = 21.735095 Si / 1000 Ang^3
#
#
#
# Elastic Constant Matrix: (Units=GPa)
#
#
# Indices 1 2 3 4 5 6 
#
# 1 63.2308 -3.0915 -12.4260 0.0000 -0.6800 0.0000
# 2 -3.0915 34.4755 10.3560 0.0000 -3.8130 0.0000
# 3 -12.4260 10.3560 107.1323 0.0000 17.5715 0.0000
# 4 0.0000 0.0000 0.0000 13.9558 0.0000 -12.4809
# 5 -0.6800 -3.8130 17.5715 0.0000 15.8883 0.0000
# 6 0.0000 0.0000 0.0000 -12.4809 0.0000 15.4517
#
#
#
# Elastic Compliance Matrix: (Units=1/GPa)
#
#
# Indices 1 2 3 4 5 6 
#
# 1 0.016236 0.000686 0.002047 0.000000 -0.001405 0.000000
# 2 0.000686 0.032143 -0.005250 0.000000 0.013549 0.000000
# 3 0.002047 -0.005250 0.012548 0.000000 -0.015049 0.000000
# 4 0.000000 0.000000 0.000000 0.258099 0.000000 0.208476
# 5 -0.001405 0.013549 -0.015049 0.000000 0.082774 0.000000
# 6 0.000000 0.000000 0.000000 0.208476 0.000000 0.233112
#
#
# Mechanical properties :
#
#
# Convention : Reuss Voigt Hill
#
# Bulk Modulus (GPa) = 17.89156 21.61285 19.75221
# Shear Modulus (GPa) = 7.59213 23.05914 15.32564
#
# Velocity S-wave (km/s) = 1.87099 3.26071 2.65827
# Velocity P-wave (km/s) = 3.59402 4.91341 4.30457
#
# Compressibility (1/GPa) = 0.05589227
#
# Stress axis : x y z
#
# Youngs Moduli (GPa) = 61.59216 31.11079 79.69714
#
# Poissons Ratio (x) = -0.02133 -0.16316
# Poissons Ratio (y) = -0.04222 0.41841
# Poissons Ratio (z) = -0.12610 0.16333
#
# Static dielectric constant tensor:
#      x y z
#    x 1.788980 0.000000 0.025270 
#    y 0.000000 1.874890 0.000000 
#    z 0.025270 0.000000 1.813310 
# 
# From -- ./inp_files/10890.got.cif
#   From: 2010.05.17/outbox.cif.g08.bks.cpg/sg4_6_cif.got.tgz:10890.got - 2010.06.03 18:43:04.
