data_PCOD9114537
_publ_section_title
;
Structure prediction by ZEFSAII (Michael W. Deem and Ramdas Pophale) SiO2 
 PCOD9114537
Probable space group: P 21
;
_chemical_formula_sum "Si O2"
_cell_formula_units_Z 16
_cell_length_a 11.927829
_cell_length_b 5.057133
_cell_length_c 23.182680
_cell_angle_alpha 90.000000
_cell_angle_beta 36.199571
_cell_angle_gamma 90.000000
_cell_volume 825.890723
_symmetry_space_group_name_H-M "P 21"
_symmetry_group_IT_number 4
_symmetry_cell_setting 'monoclinic'
loop_
_space_group_symop_operation_xyz
x,y,z
-x,1/2+y,-z
loop_
_atom_site_type_symbol
_atom_site_label
_atom_site_fract_x
_atom_site_fract_y
_atom_site_fract_z
Si Si1 0.246382 0.658610 0.417725
Si Si2 0.539842 0.880092 0.071652
Si Si3 0.594136 0.291300 0.533438
Si Si4 0.911352 0.014192 0.792082
Si Si5 0.187516 0.160757 0.368489
Si Si6 0.791620 0.520021 0.884454
Si Si7 0.594094 0.886087 0.830898
Si Si8 0.251336 0.288448 0.589438
O O1 0.400916 0.722798 0.401673
O O2 0.260710 0.368115 0.385806
O O3 0.041094 0.682817 0.534726
O O4 0.240120 0.869408 0.368433
O O5 0.480694 0.681565 0.147990
O O6 0.126916 0.725456 0.140986
O O7 0.567575 0.171588 0.086407
O O8 0.690855 0.701824 0.974250
O O9 0.392449 0.265143 0.585520
O O10 0.667940 0.586517 0.491874
O O11 0.730853 0.081567 0.443396
O O12 0.051392 0.170296 0.691763
O O13 0.958861 0.718334 0.793192
O O14 0.724105 0.945051 0.832906
O O15 0.275494 0.254496 0.271821
O O16 0.627587 0.448088 0.905317
#
# Coordination Sequence:
#
# PCOD9114537 Si02
#       8
#     2   2   2   2   2   2   2   2
#     4  10  20  33  48  66  95 126 156 197 238 274
#     4  10  18  29  43  63  93 126 155 185 229 281
#     4  10  20  34  51  69  97 130 159 200 243 278
#     4  10  19  29  46  69  96 126 157 194 229 278
#     4  10  20  32  47  69  93 124 163 195 229 279
#     4  10  18  29  44  65  95 128 156 186 233 285
#     4  10  19  29  45  66  93 125 157 192 225 273
#     4  10  20  33  50  73  96 125 165 197 234 288
#
# _framework density 19.373021000000001
#
# number of rings (size 3 to 8) (size 9 to 14) (size 15 to 20)
#    0.000    2.000    0.000    6.000    0.000    4.000 
#    0.000    0.000    0.000    0.000    0.000    0.000 
#    0.000   20.000    0.000    0.000    0.000    0.000 
#
# Total GULP energy -89085.039551 kJ/mol
# GULP energy per Si atom -5567.814972 kJ/mol
# Density = 1.932893 g / cm^3
# Si number density = 19.373021 Si / 1000 Ang^3
#
#
#
# Elastic Constant Matrix: (Units=GPa)
#
#
# Indices 1 2 3 4 5 6 
#
# 1 23.0803 13.9252 -4.9846 0.0000 7.0983 0.0000
# 2 13.9252 80.3632 16.8700 0.0000 2.5583 0.0000
# 3 -4.9846 16.8700 33.1404 0.0000 10.6011 0.0000
# 4 0.0000 0.0000 0.0000 24.0824 0.0000 0.3295
# 5 7.0983 2.5583 10.6011 0.0000 10.6214 0.0000
# 6 0.0000 0.0000 0.0000 0.3295 0.0000 10.9860
#
#
#
# Elastic Compliance Matrix: (Units=1/GPa)
#
#
# Indices 1 2 3 4 5 6 
#
# 1 0.159001 -0.044722 0.113447 0.000000 -0.208719 0.000000
# 2 -0.044722 0.026731 -0.040890 0.000000 0.064261 0.000000
# 3 0.113447 -0.040890 0.130970 0.000000 -0.196688 0.000000
# 4 0.000000 0.000000 0.000000 0.041541 0.000000 -0.001246
# 5 -0.208719 0.064261 -0.196688 0.000000 0.414471 0.000000
# 6 0.000000 0.000000 0.000000 -0.001246 0.000000 0.091062
#
#
# Mechanical properties :
#
#
# Convention : Reuss Voigt Hill
#
# Bulk Modulus (GPa) = 2.68548 20.91169 11.79859
# Shear Modulus (GPa) = 5.36348 16.52284 10.94316
#
# Velocity S-wave (km/s) = 1.66569 2.92358 2.37927
# Velocity P-wave (km/s) = 2.25579 4.71318 3.69477
#
# Compressibility (1/GPa) = 0.37237238
#
# Stress axis : x y z
#
# Youngs Moduli (GPa) = 6.28925 37.41001 7.63531
#
# Poissons Ratio (x) = 1.67305 -0.86620
# Poissons Ratio (y) = 0.28127 0.31221
# Poissons Ratio (z) = -0.71350 1.52969
#
# Static dielectric constant tensor:
#      x y z
#    x 1.653730 0.000000 0.002560 
#    y 0.000000 1.739830 0.000000 
#    z 0.002560 0.000000 1.768000 
# 
# From -- ./inp_files/15672.got.cif
#   From: 2010.05.17/outbox.cif.g08.bks.cpg/sg4_8_cif.got.tgz:15672.got - 2010.06.03 18:43:04.
