data_PCOD9114098
_publ_section_title
;
Structure prediction by ZEFSAII (Michael W. Deem and Ramdas Pophale) SiO2 
 PCOD9114098
Probable space group: P 2
;
_chemical_formula_sum "Si O2"
_cell_formula_units_Z 10
_cell_length_a 10.432051
_cell_length_b 4.620425
_cell_length_c 18.552786
_cell_angle_alpha 90.000000
_cell_angle_beta 156.896851
_cell_angle_gamma 90.000000
_cell_volume 350.894139
_symmetry_space_group_name_H-M "P 2"
_symmetry_group_IT_number 3
_symmetry_cell_setting 'monoclinic'
loop_
_space_group_symop_operation_xyz
x,y,z
-x,y,-z
loop_
_atom_site_type_symbol
_atom_site_label
_atom_site_fract_x
_atom_site_fract_y
_atom_site_fract_z
Si Si1 0.269755 0.203910 0.821893
Si Si2 0.656726 0.621020 0.820176
Si Si3 0.237749 0.078238 0.559318
Si Si4 0.114884 0.088745 0.938014
Si Si5 0.143853 0.567326 0.282872
O O1 0.975357 0.079397 0.622855
O O2 0.101245 0.451493 0.781989
O O3 0.500000 0.046492 0.000000
O O4 0.547427 0.267508 0.905537
O O5 0.377664 0.380240 0.663244
O O6 0.542418 0.864865 0.704376
O O7 0.000000 0.446731 0.000000
O O8 0.748085 0.856564 0.931519
O O9 0.000000 0.959879 0.500000
O O10 0.861606 0.351919 0.789202
O O11 0.982470 0.871861 0.808776
O O12 0.500000 0.578676 0.500000
#
# Coordination Sequence:
#
# PCOD9114098 Si02
#       5
#     2   2   2   2   2
#     4  10  26  46  73 105 145 191 241 299 360 431
#     4  12  28  46  76 106 149 192 242 308 365 432
#     4  12  26  48  76 106 142 197 249 296 365 439
#     4  11  25  48  70 106 152 190 241 308 365 431
#     4  11  26  45  76 106 145 194 248 304 362 432
#
# _framework density 28.498626000000002
#
# number of rings (size 3 to 8) (size 9 to 14) (size 15 to 20)
#    0.000    0.800    2.000    3.000    8.400   10.400 
#    0.000    0.000    0.000    0.000    0.000    0.000 
#    0.000    0.000    0.000    0.000    0.000    0.000 
#
# Total GULP energy -55778.138425 kJ/mol
# GULP energy per Si atom -5577.813842 kJ/mol
# Density = 2.843376 g / cm^3
# Si number density = 28.498626 Si / 1000 Ang^3
#
#
#
# Elastic Constant Matrix: (Units=GPa)
#
#
# Indices 1 2 3 4 5 6 
#
# 1 72.7585 8.8027 55.1228 0.0000 -17.7840 0.0000
# 2 8.8027 152.4524 71.8879 0.0000 -9.7034 0.0000
# 3 55.1228 71.8879 297.7909 0.0000 -49.2582 0.0000
# 4 0.0000 0.0000 0.0000 60.1470 0.0000 4.7840
# 5 -17.7840 -9.7034 -49.2582 0.0000 59.9084 0.0000
# 6 0.0000 0.0000 0.0000 4.7840 0.0000 26.1216
#
#
#
# Elastic Compliance Matrix: (Units=1/GPa)
#
#
# Indices 1 2 3 4 5 6 
#
# 1 0.016400 0.000503 -0.002706 0.000000 0.002724 0.000000
# 2 0.000503 0.007422 -0.001923 0.000000 -0.000230 0.000000
# 3 -0.002706 -0.001923 0.004790 0.000000 0.002824 0.000000
# 4 0.000000 0.000000 0.000000 0.016872 0.000000 -0.003090
# 5 0.002724 -0.000230 0.002824 0.000000 0.019786 0.000000
# 6 0.000000 0.000000 0.000000 -0.003090 0.000000 0.038848
#
#
# Mechanical properties :
#
#
# Convention : Reuss Voigt Hill
#
# Bulk Modulus (GPa) = 49.11760 88.29209 68.70484
# Shear Modulus (GPa) = 41.96125 55.04794 48.50459
#
# Velocity S-wave (km/s) = 3.84134 4.39976 4.13000
# Velocity P-wave (km/s) = 6.07841 7.54049 6.84858
#
# Compressibility (1/GPa) = 0.02035930
#
# Stress axis : x y z
#
# Youngs Moduli (GPa) = 60.97720 134.72563 208.75503
#
# Poissons Ratio (x) = -0.06772 0.56496
# Poissons Ratio (y) = -0.03065 0.40140
# Poissons Ratio (z) = 0.16502 0.25906
#
# Static dielectric constant tensor:
#      x y z
#    x 2.632710 0.000000 0.144220 
#    y 0.000000 2.201320 0.000000 
#    z 0.144220 0.000000 2.147510 
# 
# From -- ./inp_files/13167.got.cif
#   From: 2010.05.17/outbox.cif.g08.bks.cpg/sg3_7_cif.got.tgz:13167.got - 2010.06.03 18:33:08.
