data_PCOD9114119
_publ_section_title
;
Structure prediction by ZEFSAII (Michael W. Deem and Ramdas Pophale) SiO2 
 PCOD9114119
Probable space group: P 2
;
_chemical_formula_sum "Si O2"
_cell_formula_units_Z 12
_cell_length_a 5.305301
_cell_length_b 5.232608
_cell_length_c 17.856894
_cell_angle_alpha 90.000000
_cell_angle_beta 72.716443
_cell_angle_gamma 90.000000
_cell_volume 473.333813
_symmetry_space_group_name_H-M "P 2"
_symmetry_group_IT_number 3
_symmetry_cell_setting 'monoclinic'
loop_
_space_group_symop_operation_xyz
x,y,z
-x,y,-z
loop_
_atom_site_type_symbol
_atom_site_label
_atom_site_fract_x
_atom_site_fract_y
_atom_site_fract_z
Si Si1 0.590955 0.419580 0.910831
Si Si2 0.000000 0.078240 0.500000
Si Si3 0.539927 0.747573 0.210073
Si Si4 0.500000 0.416905 0.500000
Si Si5 0.912617 0.075566 0.089169
Si Si6 0.758821 0.505073 0.326023
Si Si7 0.910868 0.990071 0.673977
O O1 0.616108 0.639352 0.847496
O O2 0.345422 0.247573 0.904578
O O3 0.851299 0.247573 0.898701
O O4 0.500000 0.522433 0.000000
O O5 0.748688 0.247573 0.501312
O O6 0.928477 0.247572 0.321522
O O7 0.584522 0.525449 0.267187
O O8 0.811101 0.855794 0.152504
O O9 0.381104 0.969697 0.267187
O O10 0.587335 0.554281 0.416367
O O11 0.920069 0.940864 0.583633
O O12 0.000000 0.972712 0.000000
O O13 0.945946 0.747571 0.304054
#
# Coordination Sequence:
#
# PCOD9114119 Si02
#       7
#     2   1   2   1   2   2   2
#     4  10  26  51  79 113 158 213 273 338 412 494
#     4  10  26  52  82 112 164 214 274 326 404 482
#     4  12  30  46  84 114 170 204 282 332 428 470
#     4  10  26  52  82 112 164 214 274 326 404 482
#     4  10  26  51  79 113 158 213 273 338 412 494
#     4  11  30  50  80 120 164 215 273 337 407 487
#     4  11  30  50  80 120 164 215 273 337 407 487
#
# _framework density 25.352087999999998
#
# number of rings (size 3 to 8) (size 9 to 14) (size 15 to 20)
#    0.000    1.333    0.000    0.000   21.000    5.333 
#    0.000    0.000    0.000    0.000    0.000    0.000 
#    0.000    0.000    0.000    0.000    0.000    0.000 
#
# Total GULP energy -67292.833876 kJ/mol
# GULP energy per Si atom -5607.736156 kJ/mol
# Density = 2.529439 g / cm^3
# Si number density = 25.352088 Si / 1000 Ang^3
#
#
#
# Elastic Constant Matrix: (Units=GPa)
#
#
# Indices 1 2 3 4 5 6 
#
# 1 160.0215 47.5645 63.2002 0.0000 0.3996 0.0000
# 2 47.5645 114.4111 63.9920 0.0000 -0.4297 0.0000
# 3 63.2002 63.9920 242.1579 0.0000 -2.5416 0.0000
# 4 0.0000 0.0000 0.0000 19.8636 0.0000 0.6168
# 5 0.3996 -0.4297 -2.5416 0.0000 40.8252 0.0000
# 6 0.0000 0.0000 0.0000 0.6168 0.0000 43.5157
#
#
#
# Elastic Compliance Matrix: (Units=1/GPa)
#
#
# Indices 1 2 3 4 5 6 
#
# 1 0.007478 -0.002367 -0.001328 0.000000 -0.000181 0.000000
# 2 -0.002367 0.011005 -0.002291 0.000000 -0.000004 0.000000
# 3 -0.001328 -0.002291 0.005085 0.000000 0.000305 0.000000
# 4 0.000000 0.000000 0.000000 0.050366 0.000000 -0.000714
# 5 -0.000181 -0.000004 0.000305 0.000000 0.024515 0.000000
# 6 0.000000 0.000000 0.000000 -0.000714 0.000000 0.022990
#
#
# Mechanical properties :
#
#
# Convention : Reuss Voigt Hill
#
# Bulk Modulus (GPa) = 86.22824 96.23377 91.23101
# Shear Modulus (GPa) = 36.42317 43.62982 40.02650
#
# Velocity S-wave (km/s) = 3.79449 4.15294 3.97775
# Velocity P-wave (km/s) = 7.29956 7.81263 7.56045
#
# Compressibility (1/GPa) = 0.01159713
#
# Stress axis : x y z
#
# Youngs Moduli (GPa) = 133.73358 90.86404 196.66921
#
# Poissons Ratio (x) = 0.21503 0.26119
# Poissons Ratio (y) = 0.31649 0.45051
# Poissons Ratio (z) = 0.17761 0.20814
#
# Static dielectric constant tensor:
#      x y z
#    x 2.021800 0.000000 0.000690 
#    y 0.000000 2.212410 0.000000 
#    z 0.000690 0.000000 1.995440 
# 
# From -- ./inp_files/12839.got.cif
#   From: 2010.05.17/outbox.cif.g08.bks.cpg/sg3_7_cif.got.tgz:12839.got - 2010.06.03 18:33:08.
