data_PCOD9114698
_publ_section_title
;
Structure prediction by ZEFSAII (Michael W. Deem and Ramdas Pophale) SiO2 
 PCOD9114698
Probable space group: P 21
;
_chemical_formula_sum "Si O2"
_cell_formula_units_Z 12
_cell_length_a 5.616942
_cell_length_b 11.397556
_cell_length_c 8.354842
_cell_angle_alpha 90.000000
_cell_angle_beta 60.626632
_cell_angle_gamma 90.000000
_cell_volume 466.109926
_symmetry_space_group_name_H-M "P 21"
_symmetry_group_IT_number 4
_symmetry_cell_setting 'monoclinic'
loop_
_space_group_symop_operation_xyz
x,y,z
-x,1/2+y,-z
loop_
_atom_site_type_symbol
_atom_site_label
_atom_site_fract_x
_atom_site_fract_y
_atom_site_fract_z
Si Si1 0.619602 0.016060 0.535045
Si Si2 0.842886 0.873019 0.740643
Si Si3 0.092185 0.065281 0.858844
Si Si4 0.626254 0.362155 0.627848
Si Si5 0.344982 0.759097 0.066393
Si Si6 0.850392 0.510555 0.810255
O O1 0.333487 0.081753 0.649026
O O2 0.710040 0.977987 0.681263
O O3 0.560229 0.895079 0.458411
O O4 0.875969 0.065016 0.354396
O O5 0.082144 0.830033 0.545085
O O6 0.977573 0.935134 0.850539
O O7 0.603044 0.785340 0.868388
O O8 0.838619 0.151192 0.920847
O O9 0.200113 0.072259 0.004966
O O10 0.552601 0.266502 0.783295
O O11 0.650815 0.484744 0.724731
O O12 0.145524 0.873643 0.134296
#
# Coordination Sequence:
#
# PCOD9114698 Si02
#       6
#     2   2   2   2   2   2
#     4  10  18  40  61  79 120 155 191 245 296 341
#     4  10  20  39  60  85 121 154 193 249 294 339
#     4  11  22  38  63  89 117 159 199 241 292 355
#     4   8  19  36  60  79 114 159 189 242 296 338
#     4  10  21  40  59  91 117 155 205 234 297 352
#     4   9  20  37  59  85 119 154 189 249 293 339
#
# _framework density 25.745004000000002
#
# number of rings (size 3 to 8) (size 9 to 14) (size 15 to 20)
#    1.000    1.333    1.667    1.000    0.000    1.333 
#    6.000    3.333    0.000    0.000    0.000    0.000 
#    0.000    0.000    0.000    0.000    0.000    0.000 
#
# Total GULP energy -66960.796913 kJ/mol
# GULP energy per Si atom -5580.066409 kJ/mol
# Density = 2.568641 g / cm^3
# Si number density = 25.745004 Si / 1000 Ang^3
#
#
#
# Elastic Constant Matrix: (Units=GPa)
#
#
# Indices 1 2 3 4 5 6 
#
# 1 52.2980 8.7328 44.3397 0.0000 9.0280 0.0000
# 2 8.7328 62.9919 32.7873 0.0000 4.2957 0.0000
# 3 44.3397 32.7873 159.1979 0.0000 -2.4809 0.0000
# 4 0.0000 0.0000 0.0000 16.4224 0.0000 -1.7422
# 5 9.0280 4.2957 -2.4809 0.0000 38.3191 0.0000
# 6 0.0000 0.0000 0.0000 -1.7422 0.0000 43.7701
#
#
#
# Elastic Compliance Matrix: (Units=1/GPa)
#
#
# Indices 1 2 3 4 5 6 
#
# 1 0.026714 0.000778 -0.007708 0.000000 -0.006880 0.000000
# 2 0.000778 0.017997 -0.003961 0.000000 -0.002457 0.000000
# 3 -0.007708 -0.003961 0.009289 0.000000 0.002861 0.000000
# 4 0.000000 0.000000 0.000000 0.061151 0.000000 0.002434
# 5 -0.006880 -0.002457 0.002861 0.000000 0.028178 0.000000
# 6 0.000000 0.000000 0.000000 0.002434 0.000000 0.022944
#
#
# Mechanical properties :
#
#
# Convention : Reuss Voigt Hill
#
# Bulk Modulus (GPa) = 31.04013 49.57860 40.30936
# Shear Modulus (GPa) = 25.15176 32.27752 28.71464
#
# Velocity S-wave (km/s) = 3.12902 3.54466 3.34331
# Velocity P-wave (km/s) = 5.01371 6.00435 5.53125
#
# Compressibility (1/GPa) = 0.03221637
#
# Stress axis : x y z
#
# Youngs Moduli (GPa) = 37.43381 55.56568 107.65795
#
# Poissons Ratio (x) = -0.04321 0.82979
# Poissons Ratio (y) = -0.02911 0.42647
# Poissons Ratio (z) = 0.28853 0.22012
#
# Static dielectric constant tensor:
#      x y z
#    x 2.024950 0.000000 -0.030540 
#    y 0.000000 2.094180 0.000000 
#    z -0.030540 0.000000 1.985010 
# 
# From -- ./inp_files/1164.got.cif
#   From: 2010.05.17/outbox.cif.g08.bks.cpg/sg4_1_cif.got.tgz:1164.got - 2010.06.03 18:43:04.
