data_PCOD9114786
_publ_section_title
;
Structure prediction by ZEFSAII (Michael W. Deem and Ramdas Pophale) SiO2 
 PCOD9114786
Probable space group: P 21
;
_chemical_formula_sum "Si O2"
_cell_formula_units_Z 16
_cell_length_a 21.358031
_cell_length_b 9.128517
_cell_length_c 8.006602
_cell_angle_alpha 90.000000
_cell_angle_beta 29.719303
_cell_angle_gamma 90.000000
_cell_volume 773.879832
_symmetry_space_group_name_H-M "P 21"
_symmetry_group_IT_number 4
_symmetry_cell_setting 'monoclinic'
loop_
_space_group_symop_operation_xyz
x,y,z
-x,1/2+y,-z
loop_
_atom_site_type_symbol
_atom_site_label
_atom_site_fract_x
_atom_site_fract_y
_atom_site_fract_z
Si Si1 0.106038 0.462640 0.635235
Si Si2 0.998638 0.158847 0.834253
Si Si3 0.623252 0.900745 0.023294
Si Si4 0.610463 0.565702 0.554600
Si Si5 0.510233 0.130746 0.825788
Si Si6 0.093462 0.567405 0.287335
Si Si7 0.768401 0.299097 0.208625
Si Si8 0.667025 0.883409 0.302884
O O1 0.255125 0.488915 0.325301
O O2 0.067520 0.522365 0.538435
O O3 0.096372 0.285663 0.653514
O O4 0.024598 0.539506 0.968745
O O5 0.010558 0.090261 0.618438
O O6 0.871095 0.257019 0.108254
O O7 0.587511 0.751517 0.012433
O O8 0.661596 0.856896 0.119812
O O9 0.497708 0.000751 0.315278
O O10 0.734855 0.466457 0.257463
O O11 0.640437 0.733932 0.457090
O O12 0.546745 0.552525 0.882626
O O13 0.637670 0.223004 0.562767
O O14 0.560503 0.003879 0.588745
O O15 0.173312 0.719623 0.090755
O O16 0.194630 0.449876 0.980797
#
# Coordination Sequence:
#
# PCOD9114786 Si02
#       8
#     2   2   2   2   2   2   2   2
#     4  11  23  43  65  93 119 169 207 267 318 359
#     4  10  23  43  64  89 122 161 213 262 308 376
#     4  10  22  37  55  86 127 155 204 249 304 377
#     4  11  20  33  61  91 118 164 202 239 314 366
#     4  10  19  33  59  86 121 160 196 242 308 367
#     4   8  21  43  62  84 127 158 201 256 312 367
#     4   8  19  40  55  84 122 160 200 247 306 366
#     4  10  19  36  59  89 120 161 195 256 302 364
#
# _framework density 20.675045000000001
#
# number of rings (size 3 to 8) (size 9 to 14) (size 15 to 20)
#    0.750    1.500    0.000    3.000    1.750    3.000 
#    4.500    1.250    0.000    0.000    0.000    0.000 
#    0.000    0.000    0.000    0.000    0.000    0.000 
#
# Total GULP energy -89134.109409 kJ/mol
# GULP energy per Si atom -5570.881838 kJ/mol
# Density = 2.062799 g / cm^3
# Si number density = 20.675045 Si / 1000 Ang^3
#
#
#
# Elastic Constant Matrix: (Units=GPa)
#
#
# Indices 1 2 3 4 5 6 
#
# 1 39.7550 21.7866 9.7712 0.0000 -0.9240 0.0000
# 2 21.7866 75.1800 10.1716 0.0000 5.5133 0.0000
# 3 9.7712 10.1716 31.6527 0.0000 9.6904 0.0000
# 4 0.0000 0.0000 0.0000 -13.7295 0.0000 -29.4409
# 5 -0.9240 5.5133 9.6904 0.0000 21.8360 0.0000
# 6 0.0000 0.0000 0.0000 -29.4409 0.0000 -7.4001
#
#
#
# Elastic Compliance Matrix: (Units=1/GPa)
#
#
# Indices 1 2 3 4 5 6 
#
# 1 0.032459 -0.008678 -0.009631 0.000000 0.007839 0.000000
# 2 -0.008678 0.016285 -0.001369 0.000000 -0.003872 0.000000
# 3 -0.009631 -0.001369 0.040532 0.000000 -0.018049 0.000000
# 4 0.000000 0.000000 0.000000 0.009671 0.000000 -0.038476
# 5 0.007839 -0.003872 -0.018049 0.000000 0.055115 0.000000
# 6 0.000000 0.000000 0.000000 -0.038476 0.000000 0.017943
#
#
# Mechanical properties :
#
#
# Convention : Reuss Voigt Hill
#
# Bulk Modulus (GPa) = 20.03239 25.56073 22.79656
# Shear Modulus (GPa) = 21.92955 7.13184 14.53069
#
# Velocity S-wave (km/s) = 3.26034 1.85930 2.65394
# Velocity P-wave (km/s) = 4.88705 4.12301 4.52120
#
# Compressibility (1/GPa) = 0.04991916
#
# Stress axis : x y z
#
# Youngs Moduli (GPa) = 30.80771 61.40451 24.67209
#
# Poissons Ratio (x) = 0.53288 0.23762
# Poissons Ratio (y) = 0.26736 0.03378
# Poissons Ratio (z) = 0.29672 0.08407
#
# Static dielectric constant tensor:
#      x y z
#    x 1.743320 0.000000 -0.045440 
#    y 0.000000 1.758710 0.000000 
#    z -0.045440 0.000000 1.778590 
# 
# From -- ./inp_files/9579.got.cif
#   From: 2010.05.17/outbox.cif.g08.bks.cpg/sg4_5_cif.got.tgz:9579.got - 2010.06.03 18:43:04.
