data_PCOD9114653
_publ_section_title
;
Structure prediction by ZEFSAII (Michael W. Deem and Ramdas Pophale) SiO2 
 PCOD9114653
Probable space group: P 21
;
_chemical_formula_sum "Si O2"
_cell_formula_units_Z 14
_cell_length_a 16.317128
_cell_length_b 9.122057
_cell_length_c 7.079174
_cell_angle_alpha 90.000000
_cell_angle_beta 34.010181
_cell_angle_gamma 90.000000
_cell_volume 589.379639
_symmetry_space_group_name_H-M "P 21"
_symmetry_group_IT_number 4
_symmetry_cell_setting 'monoclinic'
loop_
_space_group_symop_operation_xyz
x,y,z
-x,1/2+y,-z
loop_
_atom_site_type_symbol
_atom_site_label
_atom_site_fract_x
_atom_site_fract_y
_atom_site_fract_z
Si Si1 0.512299 0.611660 0.050264
Si Si2 0.875667 0.595897 0.791912
Si Si3 0.274911 0.531351 0.793567
Si Si4 0.690873 0.343129 0.179540
Si Si5 0.699835 0.340096 0.708007
Si Si6 0.995817 0.870478 0.762108
Si Si7 0.354750 0.320001 0.949581
O O1 0.431112 0.542343 0.389564
O O2 0.379113 0.687719 0.193268
O O3 0.618118 0.750184 0.895946
O O4 0.608652 0.476221 0.795599
O O5 0.960297 0.491947 0.481698
O O6 0.975827 0.708199 0.714453
O O7 0.775431 0.482501 0.098088
O O8 0.754474 0.698658 0.925368
O O9 0.227839 0.699004 0.901569
O O10 0.290670 0.466688 0.976190
O O11 0.165584 0.430580 0.880931
O O12 0.521851 0.327403 0.556953
O O13 0.695752 0.349941 0.943679
O O14 0.873018 0.359179 0.339165
#
# Coordination Sequence:
#
# PCOD9114653 Si02
#       7
#     2   2   2   2   2   2   2
#     4  11  23  42  59  92 127 168 209 253 319 374
#     4  10  19  35  61  92 124 160 203 266 316 358
#     4  10  21  37  66  91 121 156 215 264 310 362
#     4  10  18  36  61  95 123 155 210 262 307 365
#     4  11  23  41  59  88 133 163 206 251 320 388
#     4  10  20  38  61  89 126 161 205 261 314 376
#     4  10  18  37  65  89 120 157 212 269 298 355
#
# _framework density 23.753792000000001
#
# number of rings (size 3 to 8) (size 9 to 14) (size 15 to 20)
#    0.000    1.714    4.286    2.571    2.000    0.000 
#    0.000    4.286    0.000    0.000    0.000    0.000 
#    0.000    0.000    0.000    0.000    0.000    0.000 
#
# Total GULP energy -78002.816416 kJ/mol
# GULP energy per Si atom -5571.629744 kJ/mol
# Density = 2.369973 g / cm^3
# Si number density = 23.753792 Si / 1000 Ang^3
#
#
#
# Elastic Constant Matrix: (Units=GPa)
#
#
# Indices 1 2 3 4 5 6 
#
# 1 75.9841 47.0746 18.2057 0.0000 -26.5441 0.0000
# 2 47.0746 112.5942 11.2007 0.0000 -20.4536 0.0000
# 3 18.2057 11.2007 45.7842 0.0000 -18.2825 0.0000
# 4 0.0000 0.0000 0.0000 37.6690 0.0000 -20.2652
# 5 -26.5441 -20.4536 -18.2825 0.0000 41.1555 0.0000
# 6 0.0000 0.0000 0.0000 -20.2652 0.0000 39.2838
#
#
#
# Elastic Compliance Matrix: (Units=1/GPa)
#
#
# Indices 1 2 3 4 5 6 
#
# 1 0.021373 -0.007003 -0.003247 0.000000 0.008862 0.000000
# 2 -0.007003 0.012069 0.000515 0.000000 0.001710 0.000000
# 3 -0.003247 0.000515 0.027076 0.000000 0.010190 0.000000
# 4 0.000000 0.000000 0.000000 0.036745 0.000000 0.018955
# 5 0.008862 0.001710 0.010190 0.000000 0.035390 0.000000
# 6 0.000000 0.000000 0.000000 0.018955 0.000000 0.035234
#
#
# Mechanical properties :
#
#
# Convention : Reuss Voigt Hill
#
# Bulk Modulus (GPa) = 24.36170 43.03607 33.69888
# Shear Modulus (GPa) = 24.87082 34.14710 29.50896
#
# Velocity S-wave (km/s) = 3.23929 3.79561 3.52843
# Velocity P-wave (km/s) = 4.92634 6.11275 5.55133
#
# Compressibility (1/GPa) = 0.04104804
#
# Stress axis : x y z
#
# Youngs Moduli (GPa) = 46.78785 82.85873 36.93366
#
# Poissons Ratio (x) = 0.58026 0.11991
# Poissons Ratio (y) = 0.32765 -0.01902
# Poissons Ratio (z) = 0.15191 -0.04267
#
# Static dielectric constant tensor:
#      x y z
#    x 1.945260 0.000000 0.010120 
#    y 0.000000 1.980310 0.000000 
#    z 0.010120 0.000000 1.983150 
# 
# From -- ./inp_files/7742.got.cif
#   From: 2010.05.17/outbox.cif.g08.bks.cpg/sg4_4_cif.got.tgz:7742.got - 2010.06.03 18:43:04.
