data_PCOD9114790
_publ_section_title
;
Structure prediction by ZEFSAII (Michael W. Deem and Ramdas Pophale) SiO2 
 PCOD9114790
Probable space group: P 21
;
_chemical_formula_sum "Si O2"
_cell_formula_units_Z 14
_cell_length_a 8.483554
_cell_length_b 17.960912
_cell_length_c 9.819029
_cell_angle_alpha 90.000000
_cell_angle_beta 148.368208
_cell_angle_gamma 90.000000
_cell_volume 784.667788
_symmetry_space_group_name_H-M "P 21"
_symmetry_group_IT_number 4
_symmetry_cell_setting 'monoclinic'
loop_
_space_group_symop_operation_xyz
x,y,z
-x,1/2+y,-z
loop_
_atom_site_type_symbol
_atom_site_label
_atom_site_fract_x
_atom_site_fract_y
_atom_site_fract_z
Si Si1 0.417442 0.700080 0.637005
Si Si2 0.227732 0.378138 0.512223
Si Si3 0.600916 0.458400 0.017977
Si Si4 0.540609 0.856287 0.617658
Si Si5 0.848969 0.755589 0.339667
Si Si6 0.856861 0.888275 0.131754
Si Si7 0.828414 0.624782 0.147777
O O1 0.495093 0.766608 0.592019
O O2 0.207354 0.740689 0.596543
O O3 0.186221 0.638920 0.408594
O O4 0.691788 0.661083 0.911925
O O5 0.321000 0.378037 0.424435
O O6 0.243682 0.295950 0.591197
O O7 0.886251 0.408128 0.271878
O O8 0.449012 0.428090 0.767513
O O9 0.339103 0.451327 0.938450
O O10 0.723401 0.541276 0.088763
O O11 0.747682 0.876438 0.898144
O O12 0.215920 0.894860 0.397982
O O13 0.720182 0.676707 0.195450
O O14 0.791401 0.815005 0.176089
#
# Coordination Sequence:
#
# PCOD9114790 Si02
#       7
#     2   2   2   2   2   2   2
#     4   9  17  32  57  80 102 145 185 228 268 340
#     4  11  23  34  59  86 117 138 193 238 275 321
#     4  11  22  37  56  87 109 153 185 238 274 330
#     4  11  19  36  57  85 108 146 181 232 278 329
#     4   8  19  33  58  81 102 139 192 236 258 321
#     4  10  19  35  59  79 108 146 192 219 272 336
#     4  10  19  33  60  78 110 141 196 227 277 323
#
# _framework density 17.841947000000001
#
# number of rings (size 3 to 8) (size 9 to 14) (size 15 to 20)
#    0.857    1.143    1.429    4.286    2.000    0.000 
#    0.000    0.000    9.429    0.000    0.000    0.000 
#    0.000    0.000    0.000    0.000    0.000    0.000 
#
# Total GULP energy -77962.238504 kJ/mol
# GULP energy per Si atom -5568.731322 kJ/mol
# Density = 1.780134 g / cm^3
# Si number density = 17.841947 Si / 1000 Ang^3
#
#
#
# Elastic Constant Matrix: (Units=GPa)
#
#
# Indices 1 2 3 4 5 6 
#
# 1 44.2409 4.4608 5.4236 0.0000 -13.0675 0.0000
# 2 4.4608 36.2394 0.2194 0.0000 -2.2029 0.0000
# 3 5.4236 0.2194 92.6679 0.0000 -3.0264 0.0000
# 4 0.0000 0.0000 0.0000 14.9032 0.0000 0.1216
# 5 -13.0675 -2.2029 -3.0264 0.0000 26.2660 0.0000
# 6 0.0000 0.0000 0.0000 0.1216 0.0000 10.6672
#
#
#
# Elastic Compliance Matrix: (Units=1/GPa)
#
#
# Indices 1 2 3 4 5 6 
#
# 1 0.026839 -0.002506 -0.001140 0.000000 0.013011 0.000000
# 2 -0.002506 0.027970 0.000117 0.000000 0.001113 0.000000
# 3 -0.001140 0.000117 0.010880 0.000000 0.000696 0.000000
# 4 0.000000 0.000000 0.000000 0.067106 0.000000 -0.000765
# 5 0.013011 0.001113 0.000696 0.000000 0.044719 0.000000
# 6 0.000000 0.000000 0.000000 -0.000765 0.000000 0.093754
#
#
# Mechanical properties :
#
#
# Convention : Reuss Voigt Hill
#
# Bulk Modulus (GPa) = 17.05584 21.48399 19.26991
# Shear Modulus (GPa) = 16.78584 21.23689 19.01137
#
# Velocity S-wave (km/s) = 3.07059 3.45378 3.26781
# Velocity P-wave (km/s) = 4.70654 5.28888 5.00618
#
# Compressibility (1/GPa) = 0.05863096
#
# Stress axis : x y z
#
# Youngs Moduli (GPa) = 37.25912 35.75301 91.90835
#
# Poissons Ratio (x) = 0.08959 0.10477
# Poissons Ratio (y) = 0.09337 -0.01073
# Poissons Ratio (z) = 0.04247 -0.00417
#
# Static dielectric constant tensor:
#      x y z
#    x 1.592640 0.000000 0.015170 
#    y 0.000000 1.629200 0.000000 
#    z 0.015170 0.000000 1.626870 
# 
# From -- ./inp_files/2041.got.cif
#   From: 2010.05.17/outbox.cif.g08.bks.cpg/sg4_2_cif.got.tgz:2041.got - 2010.06.03 18:43:04.
