data_PCOD9114446
_publ_section_title
;
Structure prediction by ZEFSAII (Michael W. Deem and Ramdas Pophale) SiO2 
 PCOD9114446
Probable space group: P 21
;
_chemical_formula_sum "Si O2"
_cell_formula_units_Z 16
_cell_length_a 8.735091
_cell_length_b 8.882845
_cell_length_c 11.292338
_cell_angle_alpha 90.000000
_cell_angle_beta 66.623774
_cell_angle_gamma 90.000000
_cell_volume 804.281178
_symmetry_space_group_name_H-M "P 21"
_symmetry_group_IT_number 4
_symmetry_cell_setting 'monoclinic'
loop_
_space_group_symop_operation_xyz
x,y,z
-x,1/2+y,-z
loop_
_atom_site_type_symbol
_atom_site_label
_atom_site_fract_x
_atom_site_fract_y
_atom_site_fract_z
Si Si1 0.068476 0.209080 0.496924
Si Si2 0.300667 0.953695 0.529209
Si Si3 0.707525 0.225498 0.677281
Si Si4 0.643193 0.890346 0.658482
Si Si5 0.419581 0.620941 0.662992
Si Si6 0.521716 0.465625 0.879619
Si Si7 0.710380 0.755705 0.898424
Si Si8 0.074265 0.740339 0.720607
O O1 0.186214 0.356539 0.466497
O O2 0.906450 0.207600 0.627887
O O3 0.998407 0.198145 0.385743
O O4 0.188795 0.071580 0.489035
O O5 0.324322 0.810273 0.437102
O O6 0.176348 0.897868 0.670881
O O7 0.480345 0.035747 0.472841
O O8 0.644001 0.332099 0.800628
O O9 0.620672 0.064590 0.692251
O O10 0.496431 0.790327 0.646692
O O11 0.678527 0.815718 0.775266
O O12 0.462647 0.542272 0.774700
O O13 0.222181 0.627992 0.709466
O O14 0.616389 0.593525 0.927569
O O15 0.373175 0.379512 0.991586
O O16 0.910433 0.744587 0.852219
#
# Coordination Sequence:
#
# PCOD9114446 Si02
#       8
#     2   2   2   2   2   2   2   2
#     4   9  17  31  51  79 109 141 177 217 260 317
#     4   9  19  33  52  79 111 143 176 215 262 320
#     4  10  16  28  52  78 103 136 176 218 264 313
#     4   9  18  31  52  77 107 140 174 218 269 318
#     4   9  20  37  52  77 114 145 173 218 272 321
#     4  10  21  37  56  77 106 140 183 230 272 317
#     4  10  20  36  56  78 101 139 185 228 268 315
#     4  10  19  33  57  81 109 142 178 220 269 319
#
# _framework density 19.893542
#
# number of rings (size 3 to 8) (size 9 to 14) (size 15 to 20)
#    0.000    2.500    0.000    5.250    0.000    3.000 
#    0.000    5.000    0.000   13.500    0.000    0.000 
#    0.000    0.000    0.000    0.000    0.000    0.000 
#
# Total GULP energy -89175.260996 kJ/mol
# GULP energy per Si atom -5573.453812 kJ/mol
# Density = 1.984826 g / cm^3
# Si number density = 19.893542 Si / 1000 Ang^3
#
#
#
# Elastic Constant Matrix: (Units=GPa)
#
#
# Indices 1 2 3 4 5 6 
#
# 1 101.5320 36.2017 38.2493 0.0000 -35.7758 0.0000
# 2 36.2017 128.1763 32.3790 0.0000 -21.0080 0.0000
# 3 38.2493 32.3790 76.8428 0.0000 -36.4643 0.0000
# 4 0.0000 0.0000 0.0000 34.0654 0.0000 -7.5112
# 5 -35.7758 -21.0080 -36.4643 0.0000 32.5525 0.0000
# 6 0.0000 0.0000 0.0000 -7.5112 0.0000 18.9054
#
#
#
# Elastic Compliance Matrix: (Units=1/GPa)
#
#
# Indices 1 2 3 4 5 6 
#
# 1 0.016533 -0.001994 0.001329 0.000000 0.018371 0.000000
# 2 -0.001994 0.009134 -0.002346 0.000000 0.001075 0.000000
# 3 0.001329 -0.002346 0.028424 0.000000 0.031786 0.000000
# 4 0.000000 0.000000 0.000000 0.032174 0.000000 0.012783
# 5 0.018371 0.001075 0.031786 0.000000 0.087210 0.000000
# 6 0.000000 0.000000 0.000000 0.012783 0.000000 0.057974
#
#
# Mechanical properties :
#
#
# Convention : Reuss Voigt Hill
#
# Bulk Modulus (GPa) = 20.80368 57.80122 39.30245
# Shear Modulus (GPa) = 19.72433 30.41941 25.07187
#
# Velocity S-wave (km/s) = 3.15222 3.91463 3.55392
# Velocity P-wave (km/s) = 4.87122 7.03923 6.05308
#
# Compressibility (1/GPa) = 0.04806842
#
# Stress axis : x y z
#
# Youngs Moduli (GPa) = 60.48529 109.48362 35.18112
#
# Poissons Ratio (x) = 0.21832 -0.04674
# Poissons Ratio (y) = 0.12061 0.08253
# Poissons Ratio (z) = -0.08036 0.25683
#
# Static dielectric constant tensor:
#      x y z
#    x 1.744830 0.000000 -0.024980 
#    y 0.000000 1.742900 0.000000 
#    z -0.024980 0.000000 1.746250 
# 
# From -- ./inp_files/7501.got.cif
#   From: 2010.05.17/outbox.cif.g08.bks.cpg/sg4_4_cif.got.tgz:7501.got - 2010.06.03 18:43:04.
