data_PCOD9114553
_publ_section_title
;
Structure prediction by ZEFSAII (Michael W. Deem and Ramdas Pophale) SiO2 
 PCOD9114553
Probable space group: P 21
;
_chemical_formula_sum "Si O2"
_cell_formula_units_Z 16
_cell_length_a 22.964859
_cell_length_b 5.476138
_cell_length_c 12.794933
_cell_angle_alpha 90.000000
_cell_angle_beta 151.897736
_cell_angle_gamma 90.000000
_cell_volume 757.949347
_symmetry_space_group_name_H-M "P 21"
_symmetry_group_IT_number 4
_symmetry_cell_setting 'monoclinic'
loop_
_space_group_symop_operation_xyz
x,y,z
-x,1/2+y,-z
loop_
_atom_site_type_symbol
_atom_site_label
_atom_site_fract_x
_atom_site_fract_y
_atom_site_fract_z
Si Si1 0.648904 0.433220 0.170111
Si Si2 0.998297 0.431903 0.358666
Si Si3 0.651177 0.933228 0.290519
Si Si4 0.134344 0.931910 0.630349
Si Si5 0.766025 0.432582 0.884761
Si Si6 0.454248 0.932618 0.611053
Si Si7 0.650348 0.932567 0.741542
Si Si8 0.579825 0.932595 0.385005
O O1 0.686252 0.683657 0.288669
O O2 0.722950 0.432601 0.178139
O O3 0.686257 0.183183 0.288998
O O4 0.499486 0.433120 0.935683
O O5 0.075356 0.681412 0.491470
O O6 0.903594 0.432095 0.308053
O O7 0.074898 0.181821 0.490563
O O8 0.913265 0.432471 0.120913
O O9 0.688290 0.932770 0.471436
O O10 0.689458 0.432581 0.654071
O O11 0.723363 0.682065 0.873844
O O12 0.723343 0.183088 0.873792
O O13 0.531249 0.932652 0.626160
O O14 0.484913 0.694110 0.725133
O O15 0.484850 0.171033 0.725123
O O16 0.615363 0.932509 0.564017
#
# Coordination Sequence:
#
# PCOD9114553 Si02
#       8
#     2   2   2   2   2   2   2   2
#     4  10  21  37  55  77 106 136 174 221 257 298
#     4  10  21  36  54  80 105 136 178 209 255 315
#     4  10  21  36  54  80 105 136 178 209 255 315
#     4  10  21  37  55  77 106 136 174 221 257 298
#     4  10  18  31  48  71 105 136 160 206 251 304
#     4  10  19  30  47  76 106 134 171 206 256 321
#     4  10  19  30  47  76 106 134 171 206 256 321
#     4  10  18  31  48  71 105 136 160 206 251 304
#
# _framework density 21.109590000000001
#
# number of rings (size 3 to 8) (size 9 to 14) (size 15 to 20)
#    0.000    2.000    0.000    6.000    0.000    3.000 
#    0.000    0.000    0.000    0.000    0.000   70.000 
#    0.000    0.000    0.000    0.000    0.000    0.000 
#
# Total GULP energy -89185.517220 kJ/mol
# GULP energy per Si atom -5574.094826 kJ/mol
# Density = 2.106154 g / cm^3
# Si number density = 21.109590 Si / 1000 Ang^3
#
#
#
# Elastic Constant Matrix: (Units=GPa)
#
#
# Indices 1 2 3 4 5 6 
#
# 1 80.6669 22.8388 10.9173 0.0000 8.8437 0.0000
# 2 22.8388 224.1989 31.7250 0.0000 1.8367 0.0000
# 3 10.9173 31.7250 45.6612 0.0000 3.2823 0.0000
# 4 0.0000 0.0000 0.0000 14.2189 0.0000 6.1941
# 5 8.8437 1.8367 3.2823 0.0000 17.5155 0.0000
# 6 0.0000 0.0000 0.0000 6.1941 0.0000 22.7572
#
#
#
# Elastic Compliance Matrix: (Units=1/GPa)
#
#
# Indices 1 2 3 4 5 6 
#
# 1 0.013677 -0.001046 -0.002083 0.000000 -0.006406 0.000000
# 2 -0.001046 0.005027 -0.003287 0.000000 0.000617 0.000000
# 3 -0.002083 -0.003287 0.024917 0.000000 -0.003273 0.000000
# 4 0.000000 0.000000 0.000000 0.079789 0.000000 -0.021717
# 5 -0.006406 0.000617 -0.003273 0.000000 0.060875 0.000000
# 6 0.000000 0.000000 0.000000 -0.021717 0.000000 0.049853
#
#
# Mechanical properties :
#
#
# Convention : Reuss Voigt Hill
#
# Bulk Modulus (GPa) = 32.47838 53.49881 42.98859
# Shear Modulus (GPa) = 19.43756 29.90139 24.66947
#
# Velocity S-wave (km/s) = 3.03775 3.76770 3.42224
# Velocity P-wave (km/s) = 5.26525 6.65777 6.00203
#
# Compressibility (1/GPa) = 0.03078972
#
# Stress axis : x y z
#
# Youngs Moduli (GPa) = 73.11567 198.92807 40.13255
#
# Poissons Ratio (x) = 0.20809 0.08359
# Poissons Ratio (y) = 0.07648 0.13191
# Poissons Ratio (z) = 0.15229 0.65386
#
# Static dielectric constant tensor:
#      x y z
#    x 1.781610 0.000000 -0.057100 
#    y 0.000000 1.881790 0.000000 
#    z -0.057100 0.000000 1.849800 
# 
# From -- ./inp_files/11520.got.cif
#   From: 2010.05.17/outbox.cif.g08.bks.cpg/sg4_6_cif.got.tgz:11520.got - 2010.06.03 18:43:04.
