data_PCOD9114542
_publ_section_title
;
Structure prediction by ZEFSAII (Michael W. Deem and Ramdas Pophale) SiO2 
 PCOD9114542
Probable space group: P 21
;
_chemical_formula_sum "Si O2"
_cell_formula_units_Z 16
_cell_length_a 11.842699
_cell_length_b 8.317219
_cell_length_c 10.536994
_cell_angle_alpha 90.000000
_cell_angle_beta 39.679833
_cell_angle_gamma 90.000000
_cell_volume 662.680815
_symmetry_space_group_name_H-M "P 21"
_symmetry_group_IT_number 4
_symmetry_cell_setting 'monoclinic'
loop_
_space_group_symop_operation_xyz
x,y,z
-x,1/2+y,-z
loop_
_atom_site_type_symbol
_atom_site_label
_atom_site_fract_x
_atom_site_fract_y
_atom_site_fract_z
Si Si1 0.743396 0.704820 0.342695
Si Si2 0.809371 0.704443 0.835938
Si Si3 0.660948 0.064599 0.977215
Si Si4 0.989111 0.087802 0.105453
Si Si5 0.217359 0.786088 0.901833
Si Si6 0.542389 0.014743 0.539265
Si Si7 0.285509 0.186807 0.350397
Si Si8 0.432337 0.553602 0.213934
O O1 0.867242 0.642067 0.125318
O O2 0.558080 0.610768 0.481399
O O3 0.799647 0.671758 0.438085
O O4 0.691288 0.889875 0.370450
O O5 0.963615 0.664801 0.800113
O O6 0.639514 0.591625 0.013409
O O7 0.743264 0.887121 0.913107
O O8 0.844237 0.675181 0.657043
O O9 0.751447 0.178982 0.001291
O O10 0.450989 0.065857 0.192053
O O11 0.664352 0.123370 0.827228
O O12 0.048233 0.902264 0.068142
O O13 0.820142 0.173123 0.187574
O O14 0.386176 0.897962 0.730355
O O15 0.603874 0.111994 0.611450
O O16 0.374714 0.365466 0.263731
#
# Coordination Sequence:
#
# PCOD9114542 Si02
#       8
#     2   2   2   2   2   2   2   2
#     4  10  20  34  55  83 113 152 180 244 291 338
#     4  10  18  31  52  86 107 147 192 229 277 341
#     4  10  18  29  57  83 108 146 187 231 287 329
#     4  11  23  36  58  80 116 152 200 235 282 340
#     4  11  21  39  54  84 114 156 193 239 274 348
#     4  10  20  36  55  83 122 141 194 240 291 334
#     4   9  18  32  54  79 114 145 180 237 287 329
#     4   9  16  33  51  82 112 143 180 239 273 333
#
# _framework density 24.144352999999999
#
# number of rings (size 3 to 8) (size 9 to 14) (size 15 to 20)
#    0.000    2.000    5.000    0.750    1.750    1.000 
#    0.000    0.000    0.000    9.000    0.000    0.000 
#    0.000    0.000    0.000    0.000    0.000    0.000 
#
# Total GULP energy -89392.079398 kJ/mol
# GULP energy per Si atom -5587.004962 kJ/mol
# Density = 2.408940 g / cm^3
# Si number density = 24.144353 Si / 1000 Ang^3
#
#
#
# Elastic Constant Matrix: (Units=GPa)
#
#
# Indices 1 2 3 4 5 6 
#
# 1 180.7480 43.0281 33.2958 0.0000 47.2249 0.0000
# 2 43.0281 35.4318 -5.9654 0.0000 20.7992 0.0000
# 3 33.2958 -5.9654 48.5930 0.0000 13.1438 0.0000
# 4 0.0000 0.0000 0.0000 22.6005 0.0000 12.1926
# 5 47.2249 20.7992 13.1438 0.0000 51.4679 0.0000
# 6 0.0000 0.0000 0.0000 12.1926 0.0000 28.8518
#
#
#
# Elastic Compliance Matrix: (Units=1/GPa)
#
#
# Indices 1 2 3 4 5 6 
#
# 1 0.010852 -0.013103 -0.008361 0.000000 -0.002527 0.000000
# 2 -0.013103 0.057117 0.020390 0.000000 -0.016266 0.000000
# 3 -0.008361 0.020390 0.031114 0.000000 -0.008514 0.000000
# 4 0.000000 0.000000 0.000000 0.057313 0.000000 -0.024220
# 5 -0.002527 -0.016266 -0.008514 0.000000 0.030496 0.000000
# 6 0.000000 0.000000 0.000000 -0.024220 0.000000 0.044895
#
#
# Mechanical properties :
#
#
# Convention : Reuss Voigt Hill
#
# Bulk Modulus (GPa) = 10.31616 45.05443 27.68529
# Shear Modulus (GPa) = 18.77944 33.54501 26.16223
#
# Velocity S-wave (km/s) = 2.79193 3.73145 3.29534
# Velocity P-wave (km/s) = 3.83081 6.10458 5.09613
#
# Compressibility (1/GPa) = 0.09693528
#
# Stress axis : x y z
#
# Youngs Moduli (GPa) = 92.14617 17.50785 32.13979
#
# Poissons Ratio (x) = 0.22941 0.26872
# Poissons Ratio (y) = 1.20740 -0.65533
# Poissons Ratio (z) = 0.77043 -0.35698
#
# Static dielectric constant tensor:
#      x y z
#    x 1.986830 0.000000 -0.077450 
#    y 0.000000 1.963930 0.000000 
#    z -0.077450 0.000000 2.026460 
# 
# From -- ./inp_files/11996.got.cif
#   From: 2010.05.17/outbox.cif.g08.bks.cpg/sg4_6_cif.got.tgz:11996.got - 2010.06.03 18:43:04.
