data_PCOD9114764
_publ_section_title
;
Structure prediction by ZEFSAII (Michael W. Deem and Ramdas Pophale) SiO2 
 PCOD9114764
Probable space group: P 21
;
_chemical_formula_sum "Si O2"
_cell_formula_units_Z 14
_cell_length_a 5.247399
_cell_length_b 15.378550
_cell_length_c 6.810131
_cell_angle_alpha 90.000000
_cell_angle_beta 74.135960
_cell_angle_gamma 90.000000
_cell_volume 528.628734
_symmetry_space_group_name_H-M "P 21"
_symmetry_group_IT_number 4
_symmetry_cell_setting 'monoclinic'
loop_
_space_group_symop_operation_xyz
x,y,z
-x,1/2+y,-z
loop_
_atom_site_type_symbol
_atom_site_label
_atom_site_fract_x
_atom_site_fract_y
_atom_site_fract_z
Si Si1 0.669367 0.992980 0.115930
Si Si2 0.271137 0.685234 0.952842
Si Si3 0.189609 0.944023 0.449900
Si Si4 0.415615 0.682717 0.459192
Si Si5 0.656664 0.996802 0.552998
Si Si6 0.763307 0.794602 0.954303
Si Si7 0.913109 0.773188 0.464254
O O1 0.359096 0.996059 0.251116
O O2 0.793053 0.000084 0.307519
O O3 0.742183 0.082544 0.992850
O O4 0.722179 0.895761 0.024298
O O5 0.362530 0.682414 0.704811
O O6 0.497428 0.736640 0.023009
O O7 0.005583 0.742843 0.005179
O O8 0.418580 0.928422 0.569977
O O9 0.926955 0.981124 0.609753
O O10 0.087141 0.856106 0.374251
O O11 0.495156 0.586091 0.379829
O O12 0.653770 0.751022 0.395590
O O13 0.128920 0.697318 0.424576
O O14 0.832283 0.791979 0.706914
#
# Coordination Sequence:
#
# PCOD9114764 Si02
#       7
#     2   2   2   2   2   2   2
#     4   9  22  35  61  78 114 143 183 231 270 317
#     4   9  20  33  56  84 105 143 193 215 262 340
#     4  10  20  32  56  79 107 133 183 219 275 312
#     4   9  17  32  53  77 101 137 182 223 250 316
#     4   9  19  32  56  78 100 142 181 213 264 323
#     4  10  21  35  59  80 110 145 182 225 276 317
#     4  10  19  33  53  80 105 135 178 226 265 321
#
# _framework density 26.483615
#
# number of rings (size 3 to 8) (size 9 to 14) (size 15 to 20)
#    0.857    1.714    0.000    1.714    8.000    0.000 
#    0.000    0.000    9.429    0.000    0.000    0.000 
#    0.000    0.000    0.000    0.000    0.000    0.000 
#
# Total GULP energy -78117.757779 kJ/mol
# GULP energy per Si atom -5579.839841 kJ/mol
# Density = 2.642334 g / cm^3
# Si number density = 26.483615 Si / 1000 Ang^3
#
#
#
# Elastic Constant Matrix: (Units=GPa)
#
#
# Indices 1 2 3 4 5 6 
#
# 1 211.1527 79.8943 16.3893 0.0000 -16.4994 0.0000
# 2 79.8943 192.5325 14.2823 0.0000 -17.6297 0.0000
# 3 16.3893 14.2823 73.5794 0.0000 0.3411 0.0000
# 4 0.0000 0.0000 0.0000 31.2603 0.0000 -13.1517
# 5 -16.4994 -17.6297 0.3411 0.0000 29.9853 0.0000
# 6 0.0000 0.0000 0.0000 -13.1517 0.0000 39.1040
#
#
#
# Elastic Compliance Matrix: (Units=1/GPa)
#
#
# Indices 1 2 3 4 5 6 
#
# 1 0.005768 -0.002153 -0.000876 0.000000 0.001918 0.000000
# 2 -0.002153 0.006380 -0.000771 0.000000 0.002575 0.000000
# 3 -0.000876 -0.000771 0.013941 0.000000 -0.001094 0.000000
# 4 0.000000 0.000000 0.000000 0.037262 0.000000 0.012532
# 5 0.001918 0.002575 -0.001094 0.000000 0.035932 0.000000
# 6 0.000000 0.000000 0.000000 0.012532 0.000000 0.029788
#
#
# Mechanical properties :
#
#
# Convention : Reuss Voigt Hill
#
# Bulk Modulus (GPa) = 54.08377 77.59961 65.84169
# Shear Modulus (GPa) = 35.00577 44.51651 39.76114
#
# Velocity S-wave (km/s) = 3.63959 4.10434 3.87893
# Velocity P-wave (km/s) = 6.17479 7.19898 6.70647
#
# Compressibility (1/GPa) = 0.01848984
#
# Stress axis : x y z
#
# Youngs Moduli (GPa) = 173.35697 156.73038 71.73327
#
# Poissons Ratio (x) = 0.33746 0.06283
# Poissons Ratio (y) = 0.37325 0.05529
# Poissons Ratio (z) = 0.15183 0.12081
#
# Static dielectric constant tensor:
#      x y z
#    x 2.113040 0.000000 0.095360 
#    y 0.000000 2.135060 0.000000 
#    z 0.095360 0.000000 2.177390 
# 
# From -- ./inp_files/3795.got.cif
#   From: 2010.05.17/outbox.cif.g08.bks.cpg/sg4_2_cif.got.tgz:3795.got - 2010.06.03 18:43:04.
