data_PCOD9114191
_publ_section_title
;
Structure prediction by ZEFSAII (Michael W. Deem and Ramdas Pophale) SiO2 
 PCOD9114191
Probable space group: P 2
;
_chemical_formula_sum "Si O2"
_cell_formula_units_Z 16
_cell_length_a 8.773187
_cell_length_b 12.070884
_cell_length_c 9.450553
_cell_angle_alpha 90.000000
_cell_angle_beta 52.826324
_cell_angle_gamma 90.000000
_cell_volume 797.456787
_symmetry_space_group_name_H-M "P 2"
_symmetry_group_IT_number 3
_symmetry_cell_setting 'monoclinic'
loop_
_space_group_symop_operation_xyz
x,y,z
-x,y,-z
loop_
_atom_site_type_symbol
_atom_site_label
_atom_site_fract_x
_atom_site_fract_y
_atom_site_fract_z
Si Si1 0.917561 0.757450 0.303601
Si Si2 0.528421 0.510661 0.819641
Si Si3 0.297429 0.754738 0.280202
Si Si4 0.992955 0.985657 0.854642
Si Si5 0.828221 0.526759 0.198116
Si Si6 0.687456 0.359191 0.497589
Si Si7 0.681544 0.103636 0.504972
Si Si8 0.536900 0.976025 0.123570
O O1 0.126519 0.757747 0.260888
O O2 0.912462 0.863214 0.203431
O O3 0.781499 0.770802 0.516131
O O4 0.861382 0.646491 0.252001
O O5 0.618063 0.632552 0.776254
O O6 0.351260 0.524378 0.808905
O O7 0.654959 0.422081 0.663369
O O8 0.500000 0.477004 0.000000
O O9 0.447361 0.852950 0.173109
O O10 0.765538 0.967059 0.982920
O O11 0.124381 0.047461 0.665284
O O12 0.000000 0.048836 0.000000
O O13 0.821839 0.436562 0.326655
O O14 0.000000 0.500045 0.000000
O O15 0.500000 0.357388 0.500000
O O16 0.734030 0.231774 0.499723
O O17 0.500000 0.100446 0.500000
O O18 0.585056 0.039721 0.689848
O O19 0.500000 0.040664 0.000000
#
# Coordination Sequence:
#
# PCOD9114191 Si02
#       8
#     2   2   2   2   2   2   2   2
#     4  11  23  40  65  95 140 176 219 273 340 411
#     4  11  23  41  68  97 134 171 220 272 342 404
#     4  11  23  40  65  94 138 182 212 276 345 399
#     4  12  25  41  68 104 130 179 234 269 335 415
#     4  11  23  41  66  99 130 175 222 275 327 409
#     4   9  22  45  66  92 131 176 224 277 335 388
#     4  11  24  46  70  96 136 181 230 288 331 392
#     4  12  25  43  70  98 138 178 220 282 345 395
#
# _framework density 20.063782
#
# number of rings (size 3 to 8) (size 9 to 14) (size 15 to 20)
#    0.000    1.000    5.000    1.500    3.500    1.500 
#    2.250    0.000    8.250    0.000    0.000    0.000 
#    0.000    0.000    0.000    0.000    0.000    0.000 
#
# Total GULP energy -89111.743526 kJ/mol
# GULP energy per Si atom -5569.483970 kJ/mol
# Density = 2.001812 g / cm^3
# Si number density = 20.063782 Si / 1000 Ang^3
#
#
#
# Elastic Constant Matrix: (Units=GPa)
#
#
# Indices 1 2 3 4 5 6 
#
# 1 46.5167 23.4601 57.3927 0.0000 -1.4204 0.0000
# 2 23.4601 160.3369 98.2098 0.0000 2.2054 0.0000
# 3 57.3927 98.2098 202.2867 0.0000 8.6402 0.0000
# 4 0.0000 0.0000 0.0000 -2.8966 0.0000 -30.0000
# 5 -1.4204 2.2054 8.6402 0.0000 35.9358 0.0000
# 6 0.0000 0.0000 0.0000 -30.0000 0.0000 -147.3068
#
#
#
# Elastic Compliance Matrix: (Units=1/GPa)
#
#
# Indices 1 2 3 4 5 6 
#
# 1 0.033759 0.001386 -0.010411 0.000000 0.003753 0.000000
# 2 0.001386 0.008942 -0.004762 0.000000 0.000651 0.000000
# 3 -0.010411 -0.004762 0.010321 0.000000 -0.002601 0.000000
# 4 0.000000 0.000000 0.000000 0.311222 0.000000 -0.063383
# 5 0.003753 0.000651 -0.002601 0.000000 0.028561 0.000000
# 6 0.000000 0.000000 0.000000 -0.063383 0.000000 0.006120
#
#
# Mechanical properties :
#
#
# Convention : Reuss Voigt Hill
#
# Bulk Modulus (GPa) = 39.29879 85.25173 62.27526
# Shear Modulus (GPa) = 11.49474 -7.51500 1.98987
#
# Velocity S-wave (km/s) = 2.39615 -1.93744 0.99696
# Velocity P-wave (km/s) = 5.22349 6.13006 5.69484
#
# Compressibility (1/GPa) = 0.02544607
#
# Stress axis : x y z
#
# Youngs Moduli (GPa) = 29.62214 111.82878 96.89399
#
# Poissons Ratio (x) = -0.15499 1.00877
# Poissons Ratio (y) = -0.04105 0.46145
# Poissons Ratio (z) = 0.30840 0.53258
#
# Static dielectric constant tensor:
#      x y z
#    x 1.812770 0.000000 -0.115050 
#    y 0.000000 1.696200 0.000000 
#    z -0.115050 0.000000 1.867300 
# 
# From -- ./inp_files/5952.got.cif
#   From: 2010.05.17/outbox.cif.g08.bks.cpg/sg3_3_cif.got.tgz:5952.got - 2010.06.03 18:33:08.
