data_PCOD9114127
_publ_section_title
;
Structure prediction by ZEFSAII (Michael W. Deem and Ramdas Pophale) SiO2 
 PCOD9114127
Probable space group: P 2
;
_chemical_formula_sum "Si O2"
_cell_formula_units_Z 12
_cell_length_a 13.932144
_cell_length_b 9.586614
_cell_length_c 9.342398
_cell_angle_alpha 90.000000
_cell_angle_beta 148.808718
_cell_angle_gamma 90.000000
_cell_volume 646.226603
_symmetry_space_group_name_H-M "P 2"
_symmetry_group_IT_number 3
_symmetry_cell_setting 'monoclinic'
loop_
_space_group_symop_operation_xyz
x,y,z
-x,y,-z
loop_
_atom_site_type_symbol
_atom_site_label
_atom_site_fract_x
_atom_site_fract_y
_atom_site_fract_z
Si Si1 0.903969 0.677490 0.225495
Si Si2 0.224174 0.980374 0.033595
Si Si3 0.914948 0.161853 0.729207
Si Si4 0.516499 0.638897 0.347453
Si Si5 0.383162 0.952842 0.559178
Si Si6 0.867126 0.477201 0.691934
O O1 0.871255 0.832304 0.120260
O O2 0.000000 0.689569 0.500000
O O3 0.033295 0.582551 0.290407
O O4 0.694536 0.617631 0.971847
O O5 0.301577 0.969160 0.294451
O O6 0.404976 0.003482 0.168502
O O7 0.078572 0.103975 0.839621
O O8 0.858085 0.319134 0.623823
O O9 0.750824 0.047873 0.517535
O O10 0.000000 0.162710 0.000000
O O11 0.500000 0.646445 0.500000
O O12 0.597511 0.786950 0.394015
O O13 0.664693 0.526642 0.484469
O O14 0.000000 0.478107 0.000000
#
# Coordination Sequence:
#
# PCOD9114127 Si02
#       6
#     2   2   2   2   2   2
#     4  11  23  38  59  86 115 150 191 237 286 333
#     4   9  16  32  52  77 110 140 183 228 279 323
#     4   9  19  30  51  85 113 141 181 232 281 328
#     4  11  19  36  61  85 111 149 194 237 279 328
#     4   9  15  30  53  82 105 140 183 233 273 322
#     4  11  21  36  57  85 118 151 189 232 282 342
#
# _framework density 18.56934
#
# number of rings (size 3 to 8) (size 9 to 14) (size 15 to 20)
#    0.000    2.000    5.000    1.000    0.000    3.333 
#    3.000    0.833    0.000    4.000    0.000    0.000 
#    0.000    0.000    0.000    0.000    0.000    0.000 
#
# Total GULP energy -66903.598088 kJ/mol
# GULP energy per Si atom -5575.299841 kJ/mol
# Density = 1.852707 g / cm^3
# Si number density = 18.569340 Si / 1000 Ang^3
#
#
#
# Elastic Constant Matrix: (Units=GPa)
#
#
# Indices 1 2 3 4 5 6 
#
# 1 44.2159 57.2118 39.6821 0.0000 21.7211 0.0000
# 2 57.2118 116.1985 56.7116 0.0000 34.5682 0.0000
# 3 39.6821 56.7116 93.4563 0.0000 26.9788 0.0000
# 4 0.0000 0.0000 0.0000 5.9731 0.0000 4.2408
# 5 21.7211 34.5682 26.9788 0.0000 26.7702 0.0000
# 6 0.0000 0.0000 0.0000 4.2408 0.0000 4.0535
#
#
#
# Elastic Compliance Matrix: (Units=1/GPa)
#
#
# Indices 1 2 3 4 5 6 
#
# 1 0.074718 -0.027047 -0.011133 0.000000 -0.014480 0.000000
# 2 -0.027047 0.025333 -0.001100 0.000000 -0.009658 0.000000
# 3 -0.011133 -0.001100 0.018443 0.000000 -0.008132 0.000000
# 4 0.000000 0.000000 0.000000 0.650874 0.000000 -0.680945
# 5 -0.014480 -0.009658 -0.008132 0.000000 0.069771 0.000000
# 6 0.000000 0.000000 0.000000 -0.680945 0.000000 0.959105
#
#
# Mechanical properties :
#
#
# Convention : Reuss Voigt Hill
#
# Bulk Modulus (GPa) = 25.04188 62.34243 43.69216
# Shear Modulus (GPa) = 2.64534 14.04370 8.34452
#
# Velocity S-wave (km/s) = 1.19485 2.75305 2.12214
# Velocity P-wave (km/s) = 3.92663 6.61448 5.43920
#
# Compressibility (1/GPa) = 0.03993311
#
# Stress axis : x y z
#
# Youngs Moduli (GPa) = 13.38374 39.47403 54.22238
#
# Poissons Ratio (x) = 1.06766 0.60363
# Poissons Ratio (y) = 0.36199 0.05967
# Poissons Ratio (z) = 0.14900 0.04344
#
# Static dielectric constant tensor:
#      x y z
#    x 1.650140 0.000000 0.014080 
#    y 0.000000 1.640600 0.000000 
#    z 0.014080 0.000000 1.646260 
# 
# From -- ./inp_files/5627.got.cif
#   From: 2010.05.17/outbox.cif.g08.bks.cpg/sg3_3_cif.got.tgz:5627.got - 2010.06.03 18:33:08.
