data_PCOD9114605
_publ_section_title
;
Structure prediction by ZEFSAII (Michael W. Deem and Ramdas Pophale) SiO2 
 PCOD9114605
Probable space group: P 21
;
_chemical_formula_sum "Si O2"
_cell_formula_units_Z 16
_cell_length_a 12.002315
_cell_length_b 7.212063
_cell_length_c 7.212914
_cell_angle_alpha 90.000000
_cell_angle_beta 109.632047
_cell_angle_gamma 90.000000
_cell_volume 588.066043
_symmetry_space_group_name_H-M "P 21"
_symmetry_group_IT_number 4
_symmetry_cell_setting 'monoclinic'
loop_
_space_group_symop_operation_xyz
x,y,z
-x,1/2+y,-z
loop_
_atom_site_type_symbol
_atom_site_label
_atom_site_fract_x
_atom_site_fract_y
_atom_site_fract_z
Si Si1 0.002987 0.593350 0.193767
Si Si2 0.499402 0.576541 0.775968
Si Si3 0.251977 0.155187 0.540098
Si Si4 0.246565 0.650295 0.244679
Si Si5 0.504182 0.148130 0.659017
Si Si6 0.249327 0.559246 0.681067
Si Si7 0.002541 0.470572 0.577572
Si Si8 0.749869 0.580352 0.866791
O O1 0.021231 0.443017 0.366498
O O2 0.115160 0.582930 0.119978
O O3 0.004287 0.791010 0.299314
O O4 0.875846 0.586893 0.031988
O O5 0.495457 0.354807 0.736561
O O6 0.495257 0.660686 0.565433
O O7 0.379432 0.624505 0.819765
O O8 0.631531 0.619952 0.918962
O O9 0.378985 0.054786 0.640970
O O10 0.249919 0.336561 0.664715
O O11 0.129915 0.049937 0.496514
O O12 0.252066 0.203178 0.320656
O O13 0.366705 0.563373 0.228752
O O14 0.246848 0.628675 0.467213
O O15 0.258521 0.867276 0.206200
O O16 0.119966 0.592067 0.695725
#
# Coordination Sequence:
#
# PCOD9114605 Si02
#       8
#     2   2   2   2   2   2   2   2
#     4  11  23  37  58  85 123 160 198 242 292 357
#     4   8  15  30  53  84 114 147 187 240 291 342
#     4  10  18  34  58  88 115 153 194 243 296 345
#     4   9  18  35  56  88 113 147 192 244 292 340
#     4   8  15  28  54  84 111 143 188 237 287 344
#     4   9  18  33  59  86 118 157 198 237 281 365
#     4  11  21  38  55  85 119 164 201 233 286 365
#     4  10  20  35  59  88 117 147 192 256 301 336
#
# _framework density 27.207829
#
# number of rings (size 3 to 8) (size 9 to 14) (size 15 to 20)
#    0.000    2.500    2.500    0.000    0.000    2.000 
#    0.000    0.000    0.000    7.500    0.000    0.000 
#    0.000    0.000    0.000    0.000    0.000    0.000 
#
# Total GULP energy -89378.499204 kJ/mol
# GULP energy per Si atom -5586.156200 kJ/mol
# Density = 2.714590 g / cm^3
# Si number density = 27.207829 Si / 1000 Ang^3
#
#
#
# Elastic Constant Matrix: (Units=GPa)
#
#
# Indices 1 2 3 4 5 6 
#
# 1 274.7517 27.8391 68.7050 0.0000 83.5990 0.0000
# 2 27.8391 80.0617 4.2859 0.0000 8.0447 0.0000
# 3 68.7050 4.2859 80.2218 0.0000 9.5740 0.0000
# 4 0.0000 0.0000 0.0000 13.8736 0.0000 6.4002
# 5 83.5990 8.0447 9.5740 0.0000 60.4108 0.0000
# 6 0.0000 0.0000 0.0000 6.4002 0.0000 31.1656
#
#
#
# Elastic Compliance Matrix: (Units=1/GPa)
#
#
# Indices 1 2 3 4 5 6 
#
# 1 0.008526 -0.001577 -0.005947 0.000000 -0.010646 0.000000
# 2 -0.001577 0.012970 0.000615 0.000000 0.000357 0.000000
# 3 -0.005947 0.000615 0.016873 0.000000 0.005474 0.000000
# 4 0.000000 0.000000 0.000000 0.079623 0.000000 -0.016351
# 5 -0.010646 0.000357 0.005474 0.000000 0.030370 0.000000
# 6 0.000000 0.000000 0.000000 -0.016351 0.000000 0.035445
#
#
# Mechanical properties :
#
#
# Convention : Reuss Voigt Hill
#
# Bulk Modulus (GPa) = 40.73265 70.74392 55.73828
# Shear Modulus (GPa) = 24.29462 43.37035 33.83248
#
# Velocity S-wave (km/s) = 2.99143 3.99687 3.53013
# Velocity P-wave (km/s) = 5.18989 6.88170 6.09478
#
# Compressibility (1/GPa) = 0.02455033
#
# Stress axis : x y z
#
# Youngs Moduli (GPa) = 117.29178 77.10235 59.26773
#
# Poissons Ratio (x) = 0.12155 0.35247
# Poissons Ratio (y) = 0.18491 -0.03643
# Poissons Ratio (z) = 0.69754 -0.04739
#
# Static dielectric constant tensor:
#      x y z
#    x 2.214170 0.000000 0.054620 
#    y 0.000000 2.140700 0.000000 
#    z 0.054620 0.000000 2.191310 
# 
# From -- ./inp_files/8033.got.cif
#   From: 2010.05.17/outbox.cif.g08.bks.cpg/sg4_5_cif.got.tgz:8033.got - 2010.06.03 18:43:04.
