data_PCOD9114369
_publ_section_title
;
Structure prediction by ZEFSAII (Michael W. Deem and Ramdas Pophale) SiO2 
 PCOD9114369
Probable space group: P 2
;
_chemical_formula_sum "Si O2"
_cell_formula_units_Z 7
_cell_length_a 8.354033
_cell_length_b 5.107701
_cell_length_c 7.553044
_cell_angle_alpha 90.000000
_cell_angle_beta 64.325191
_cell_angle_gamma 90.000000
_cell_volume 290.467419
_symmetry_space_group_name_H-M "P 2"
_symmetry_group_IT_number 3
_symmetry_cell_setting 'monoclinic'
loop_
_space_group_symop_operation_xyz
x,y,z
-x,y,-z
loop_
_atom_site_type_symbol
_atom_site_label
_atom_site_fract_x
_atom_site_fract_y
_atom_site_fract_z
Si Si1 0.662698 0.716740 0.016821
Si Si2 0.350593 0.518771 0.349838
Si Si3 0.838810 0.035974 0.437798
Si Si4 0.000000 0.014094 0.000000
O O1 0.558332 0.586027 0.229189
O O2 0.500000 0.881707 0.000000
O O3 0.709428 0.529901 0.829321
O O4 0.837916 0.852747 0.994356
O O5 0.315469 0.233575 0.435852
O O6 0.240388 0.742761 0.505678
O O7 0.000000 0.054333 0.500000
O O8 0.910973 0.137226 0.214827
#
# Coordination Sequence:
#
# PCOD9114369 Si02
#       4
#     2   2   2   1
#     4   8  21  47  74 107 143 193 239 304 352 442
#     4   9  23  46  72  97 157 182 235 300 370 402
#     4  12  23  45  74 109 142 197 233 307 353 439
#     4  12  24  44  82 108 144 190 260 278 378 424
#
# _framework density 24.099088999999999
#
# number of rings (size 3 to 8) (size 9 to 14) (size 15 to 20)
#    1.714    0.000    2.857    0.857    0.000    6.857 
#    0.000    2.857    6.286    0.000    0.000    0.000 
#    0.000    0.000    0.000    0.000    0.000    0.000 
#
# Total GULP energy -39048.909251 kJ/mol
# GULP energy per Si atom -5578.415607 kJ/mol
# Density = 2.404424 g / cm^3
# Si number density = 24.099089 Si / 1000 Ang^3
#
#
#
# Elastic Constant Matrix: (Units=GPa)
#
#
# Indices 1 2 3 4 5 6 
#
# 1 122.0398 15.9034 10.7807 0.0000 6.1151 0.0000
# 2 15.9034 53.5349 1.7271 0.0000 -4.3449 0.0000
# 3 10.7807 1.7271 130.7029 0.0000 -11.4577 0.0000
# 4 0.0000 0.0000 0.0000 20.1834 0.0000 -21.3537
# 5 6.1151 -4.3449 -11.4577 0.0000 35.3633 0.0000
# 6 0.0000 0.0000 0.0000 -21.3537 0.0000 10.0739
#
#
#
# Elastic Compliance Matrix: (Units=1/GPa)
#
#
# Indices 1 2 3 4 5 6 
#
# 1 0.008735 -0.002739 -0.000871 0.000000 -0.002129 0.000000
# 2 -0.002739 0.019727 0.000226 0.000000 0.002971 0.000000
# 3 -0.000871 0.000226 0.007962 0.000000 0.002758 0.000000
# 4 0.000000 0.000000 0.000000 -0.039872 0.000000 -0.084517
# 5 -0.002129 0.002971 0.002758 0.000000 0.029905 0.000000
# 6 0.000000 0.000000 0.000000 -0.084517 0.000000 -0.079885
#
#
# Mechanical properties :
#
#
# Convention : Reuss Voigt Hill
#
# Bulk Modulus (GPa) = 33.72241 40.34444 37.03342
# Shear Modulus (GPa) = -135.96064 31.64855 -52.15604
#
# Velocity S-wave (km/s) = -7.51930 3.62783 -4.65718
# Velocity P-wave (km/s) = 7.83344 5.85881 3.67676
#
# Compressibility (1/GPa) = 0.02965387
#
# Stress axis : x y z
#
# Youngs Moduli (GPa) = 114.48640 50.69187 125.60366
#
# Poissons Ratio (x) = 0.13887 0.10939
# Poissons Ratio (y) = 0.31363 -0.02835
# Poissons Ratio (z) = 0.09971 -0.01144
#
# Static dielectric constant tensor:
#      x y z
#    x 1.848540 0.000000 0.008340 
#    y 0.000000 1.909000 0.000000 
#    z 0.008340 0.000000 1.997850 
# 
# From -- ./inp_files/730.got.cif
#   From: 2010.05.17/outbox.cif.g08.bks.cpg/sg3_1_cif.got.tgz:730.got - 2010.06.03 18:33:08.
