data_PCOD9114351
_publ_section_title
;
Structure prediction by ZEFSAII (Michael W. Deem and Ramdas Pophale) SiO2 
 PCOD9114351
Probable space group: P 2
;
_chemical_formula_sum "Si O2"
_cell_formula_units_Z 12
_cell_length_a 22.566642
_cell_length_b 5.112294
_cell_length_c 8.942981
_cell_angle_alpha 90.000000
_cell_angle_beta 150.656569
_cell_angle_gamma 90.000000
_cell_volume 505.591275
_symmetry_space_group_name_H-M "P 2"
_symmetry_group_IT_number 3
_symmetry_cell_setting 'monoclinic'
loop_
_space_group_symop_operation_xyz
x,y,z
-x,y,-z
loop_
_atom_site_type_symbol
_atom_site_label
_atom_site_fract_x
_atom_site_fract_y
_atom_site_fract_z
Si Si1 0.163531 0.262550 0.549821
Si Si2 0.226118 0.695326 0.192730
Si Si3 0.855801 0.765652 0.663568
Si Si4 0.079554 0.203329 0.813922
Si Si5 0.588917 0.108703 0.838365
Si Si6 0.501963 0.613478 0.822935
O O1 0.175428 0.565991 0.537618
O O2 0.024603 0.219934 0.290192
O O3 0.180648 0.063447 0.448939
O O4 0.271208 0.171019 0.896428
O O5 0.206445 0.654027 0.326277
O O6 0.365004 0.651778 0.464096
O O7 0.140629 0.484297 0.924921
O O8 0.180116 0.987834 0.065356
O O9 0.000000 0.753174 0.000000
O O10 0.000000 0.117348 0.500000
O O11 0.500000 0.104579 0.500000
O O12 0.550032 0.339290 0.866440
O O13 0.576076 0.843334 0.904915
O O14 0.500000 0.628404 0.000000
#
# Coordination Sequence:
#
# PCOD9114351 Si02
#       6
#     2   2   2   2   2   2
#     4  12  24  43  72  97 141 172 227 284 341 416
#     4  12  25  43  73  98 138 173 227 285 341 414
#     4  12  22  43  66 107 132 171 222 279 353 404
#     4  12  26  43  65 104 134 181 220 280 348 405
#     4  12  28  49  73 106 141 194 240 291 350 420
#     4  12  27  50  73 106 143 191 241 291 350 421
#
# _framework density 23.734587999999999
#
# number of rings (size 3 to 8) (size 9 to 14) (size 15 to 20)
#    0.000    0.000    3.333    7.000    4.667    0.000 
#    0.000    0.000    0.000    0.000    0.000    0.000 
#    0.000    0.000    0.000    0.000    0.000    0.000 
#
# Total GULP energy -67205.590434 kJ/mol
# GULP energy per Si atom -5600.465869 kJ/mol
# Density = 2.368057 g / cm^3
# Si number density = 23.734588 Si / 1000 Ang^3
#
#
#
# Elastic Constant Matrix: (Units=GPa)
#
#
# Indices 1 2 3 4 5 6 
#
# 1 36.8800 22.5556 5.3769 0.0000 -0.1430 0.0000
# 2 22.5556 130.3278 17.3003 0.0000 1.3947 0.0000
# 3 5.3769 17.3003 110.4091 0.0000 18.3246 0.0000
# 4 0.0000 0.0000 0.0000 37.4251 0.0000 2.7625
# 5 -0.1430 1.3947 18.3246 0.0000 47.7105 0.0000
# 6 0.0000 0.0000 0.0000 2.7625 0.0000 8.2234
#
#
#
# Elastic Compliance Matrix: (Units=1/GPa)
#
#
# Indices 1 2 3 4 5 6 
#
# 1 0.030386 -0.005164 -0.000759 0.000000 0.000534 0.000000
# 2 -0.005164 0.008716 -0.001142 0.000000 0.000168 0.000000
# 3 -0.000759 -0.001142 0.009899 0.000000 -0.003771 0.000000
# 4 0.000000 0.000000 0.000000 0.027399 0.000000 -0.009204
# 5 0.000534 0.000168 -0.003771 0.000000 0.022405 0.000000
# 6 0.000000 0.000000 0.000000 -0.009204 0.000000 0.124696
#
#
# Mechanical properties :
#
#
# Convention : Reuss Voigt Hill
#
# Bulk Modulus (GPa) = 28.67725 40.89807 34.78766
# Shear Modulus (GPa) = 20.05974 34.16408 27.11191
#
# Velocity S-wave (km/s) = 2.91033 3.79809 3.38345
# Velocity P-wave (km/s) = 4.83757 6.04175 5.47288
#
# Compressibility (1/GPa) = 0.03487084
#
# Stress axis : x y z
#
# Youngs Moduli (GPa) = 32.91003 114.72527 101.01989
#
# Poissons Ratio (x) = 0.59241 0.07670
# Poissons Ratio (y) = 0.16994 0.11539
# Poissons Ratio (z) = 0.02499 0.13105
#
# Static dielectric constant tensor:
#      x y z
#    x 1.937990 0.000000 0.007680 
#    y 0.000000 1.822940 0.000000 
#    z 0.007680 0.000000 1.922960 
# 
# From -- ./inp_files/9302.got.cif
#   From: 2010.05.17/outbox.cif.g08.bks.cpg/sg3_5_cif.got.tgz:9302.got - 2010.06.03 18:33:08.
