data_PCOD9114002
_publ_section_title
;
Structure prediction by ZEFSAII (Michael W. Deem and Ramdas Pophale) SiO2 
 PCOD9114002
Probable space group: P 2
;
_chemical_formula_sum "Si O2"
_cell_formula_units_Z 13
_cell_length_a 9.685395
_cell_length_b 4.879183
_cell_length_c 11.442409
_cell_angle_alpha 90.000000
_cell_angle_beta 89.903247
_cell_angle_gamma 90.000000
_cell_volume 540.731030
_symmetry_space_group_name_H-M "P 2"
_symmetry_group_IT_number 3
_symmetry_cell_setting 'monoclinic'
loop_
_space_group_symop_operation_xyz
x,y,z
-x,y,-z
loop_
_atom_site_type_symbol
_atom_site_label
_atom_site_fract_x
_atom_site_fract_y
_atom_site_fract_z
Si Si1 0.669359 0.398180 0.791513
Si Si2 0.430310 0.794081 0.797271
Si Si3 0.346032 0.080365 0.456167
Si Si4 0.961257 0.252320 0.743432
Si Si5 0.099450 0.747540 0.398477
Si Si6 0.500000 0.461928 0.000000
Si Si7 0.272876 0.305255 0.703015
O O1 0.590479 0.694467 0.781188
O O2 0.648343 0.248134 0.666393
O O3 0.832332 0.368514 0.818340
O O4 0.933972 0.436131 0.628340
O O5 0.373936 0.092465 0.769448
O O6 0.340352 0.602073 0.712296
O O7 0.402673 0.666057 0.925278
O O8 0.500000 0.022303 0.500000
O O9 0.254569 0.813323 0.432875
O O10 0.272346 0.225382 0.566838
O O11 0.935111 0.935588 0.713698
O O12 0.588747 0.290872 0.906897
O O13 0.123066 0.294075 0.764163
O O14 0.000000 0.844142 0.500000
#
# Coordination Sequence:
#
# PCOD9114002 Si02
#       7
#     2   2   2   2   2   1   2
#     4   9  22  43  71 103 136 196 240 295 361 428
#     4  10  24  44  71 100 137 189 238 303 358 417
#     4  11  22  39  65 105 146 183 238 294 362 437
#     4  11  24  41  63  98 141 187 230 290 361 442
#     4  11  23  39  60  91 140 195 228 274 355 440
#     4   8  20  50  74 100 134 190 256 300 340 436
#     4  12  24  42  65 108 145 181 233 305 373 430
#
# _framework density 24.041530000000002
#
# number of rings (size 3 to 8) (size 9 to 14) (size 15 to 20)
#    0.923    0.615    3.077    1.385    4.308    0.615 
#    0.000    0.769    0.000    1.846    0.000    0.000 
#    0.000    0.000    0.000    0.000    0.000    0.000 
#
# Total GULP energy -72537.004229 kJ/mol
# GULP energy per Si atom -5579.769556 kJ/mol
# Density = 2.398681 g / cm^3
# Si number density = 24.041530 Si / 1000 Ang^3
#
#
#
# Elastic Constant Matrix: (Units=GPa)
#
#
# Indices 1 2 3 4 5 6 
#
# 1 150.7232 25.0641 41.7310 0.0000 -44.5121 0.0000
# 2 25.0641 72.2988 18.4653 0.0000 -5.3774 0.0000
# 3 41.7310 18.4653 103.4277 0.0000 -20.9635 0.0000
# 4 0.0000 0.0000 0.0000 30.2343 0.0000 -2.2979
# 5 -44.5121 -5.3774 -20.9635 0.0000 37.3023 0.0000
# 6 0.0000 0.0000 0.0000 -2.2979 0.0000 31.3770
#
#
#
# Elastic Compliance Matrix: (Units=1/GPa)
#
#
# Indices 1 2 3 4 5 6 
#
# 1 0.010998 -0.002526 -0.001580 0.000000 0.011872 0.000000
# 2 -0.002526 0.015090 -0.002082 0.000000 -0.002009 0.000000
# 3 -0.001580 -0.002082 0.011551 0.000000 0.004305 0.000000
# 4 0.000000 0.000000 0.000000 0.033260 0.000000 0.002436
# 5 0.011872 -0.002009 0.004305 0.000000 0.043104 0.000000
# 6 0.000000 0.000000 0.000000 0.002436 0.000000 0.032049
#
#
# Mechanical properties :
#
#
# Convention : Reuss Voigt Hill
#
# Bulk Modulus (GPa) = 39.58605 55.21894 47.40249
# Shear Modulus (GPa) = 29.96717 35.86201 32.91459
#
# Velocity S-wave (km/s) = 3.53438 3.86640 3.70411
# Velocity P-wave (km/s) = 5.75823 6.55363 6.16876
#
# Compressibility (1/GPa) = 0.02526143
#
# Stress axis : x y z
#
# Youngs Moduli (GPa) = 90.92279 66.27094 86.57582
#
# Poissons Ratio (x) = 0.16742 0.13682
# Poissons Ratio (y) = 0.22969 0.18025
# Poissons Ratio (z) = 0.14369 0.13797
#
# Static dielectric constant tensor:
#      x y z
#    x 2.009820 0.000000 -0.040670 
#    y 0.000000 1.957530 0.000000 
#    z -0.040670 0.000000 1.983070 
# 
# From -- ./inp_files/10228.got.cif
#   From: 2010.05.17/outbox.cif.g08.bks.cpg/sg3_6_cif.got.tgz:10228.got - 2010.06.03 18:33:08.
