data_PCOD9114797
_publ_section_title
;
Structure prediction by ZEFSAII (Michael W. Deem and Ramdas Pophale) SiO2 
 PCOD9114797
Probable space group: P 21
;
_chemical_formula_sum "Si O2"
_cell_formula_units_Z 14
_cell_length_a 7.121217
_cell_length_b 15.980903
_cell_length_c 6.145154
_cell_angle_alpha 90.000000
_cell_angle_beta 57.639109
_cell_angle_gamma 90.000000
_cell_volume 590.727849
_symmetry_space_group_name_H-M "P 21"
_symmetry_group_IT_number 4
_symmetry_cell_setting 'monoclinic'
loop_
_space_group_symop_operation_xyz
x,y,z
-x,1/2+y,-z
loop_
_atom_site_type_symbol
_atom_site_label
_atom_site_fract_x
_atom_site_fract_y
_atom_site_fract_z
Si Si1 0.151465 0.729160 0.826440
Si Si2 0.968458 0.942214 0.530124
Si Si3 0.399504 0.881350 0.532541
Si Si4 0.263336 0.326420 0.011706
Si Si5 0.987324 0.106102 0.758239
Si Si6 0.768980 0.660126 0.778765
Si Si7 0.230133 0.999501 0.978958
O O1 0.022216 0.676555 0.718775
O O2 0.357398 0.784495 0.624261
O O3 0.958542 0.798658 0.980387
O O4 0.175274 0.670395 0.020279
O O5 0.190439 0.914812 0.523421
O O6 0.050443 0.948562 0.232836
O O7 0.896839 0.034621 0.654004
O O8 0.799392 0.874658 0.728732
O O9 0.596906 0.881657 0.238583
O O10 0.398436 0.939670 0.746155
O O11 0.361118 0.237802 0.035397
O O12 0.180087 0.155609 0.507557
O O13 0.104242 0.053665 0.875980
O O14 0.678639 0.570915 0.914920
#
# Coordination Sequence:
#
# PCOD9114797 Si02
#       7
#     2   2   2   2   2   2   2
#     4   8  18  32  53  79 105 138 181 215 257 319
#     4   9  19  36  54  76 107 142 177 220 262 315
#     4  10  19  34  54  80 109 139 177 220 265 308
#     4   9  19  36  52  81 111 135 180 218 259 319
#     4   9  16  34  60  73 104 149 170 217 273 304
#     4   8  17  34  55  75 108 142 175 213 267 312
#     4   9  18  34  58  76 104 143 178 215 263 313
#
# _framework density 23.699577000000001
#
# number of rings (size 3 to 8) (size 9 to 14) (size 15 to 20)
#    0.857    2.286    0.000    0.000    2.000    0.000 
#    5.143    0.000   25.143    0.000    0.000    0.000 
#    0.000    0.000    0.000    0.000    0.000    0.000 
#
# Total GULP energy -78001.826389 kJ/mol
# GULP energy per Si atom -5571.559028 kJ/mol
# Density = 2.364564 g / cm^3
# Si number density = 23.699577 Si / 1000 Ang^3
#
#
#
# Elastic Constant Matrix: (Units=GPa)
#
#
# Indices 1 2 3 4 5 6 
#
# 1 35.2512 8.4335 -0.0384 0.0000 4.1972 0.0000
# 2 8.4335 112.5312 63.6753 0.0000 6.1062 0.0000
# 3 -0.0384 63.6753 146.5441 0.0000 14.9163 0.0000
# 4 0.0000 0.0000 0.0000 57.9069 0.0000 9.6014
# 5 4.1972 6.1062 14.9163 0.0000 18.8044 0.0000
# 6 0.0000 0.0000 0.0000 9.6014 0.0000 11.8838
#
#
#
# Elastic Compliance Matrix: (Units=1/GPa)
#
#
# Indices 1 2 3 4 5 6 
#
# 1 0.029967 -0.003016 0.002066 0.000000 -0.007348 0.000000
# 2 -0.003016 0.012088 -0.005355 0.000000 0.000995 0.000000
# 3 0.002066 -0.005355 0.009813 0.000000 -0.006507 0.000000
# 4 0.000000 0.000000 0.000000 0.019940 0.000000 -0.016111
# 5 -0.007348 0.000995 -0.006507 0.000000 0.059657 0.000000
# 6 0.000000 0.000000 0.000000 -0.016111 0.000000 0.097165
#
#
# Mechanical properties :
#
#
# Convention : Reuss Voigt Hill
#
# Bulk Modulus (GPa) = 25.47169 48.71860 37.09514
# Shear Modulus (GPa) = 19.65976 32.53608 26.09792
#
# Velocity S-wave (km/s) = 2.88330 3.70923 3.32203
# Velocity P-wave (km/s) = 4.67500 6.24066 5.51369
#
# Compressibility (1/GPa) = 0.03925928
#
# Stress axis : x y z
#
# Youngs Moduli (GPa) = 33.37042 82.72400 101.90130
#
# Poissons Ratio (x) = 0.24953 -0.21058
# Poissons Ratio (y) = 0.10066 0.54565
# Poissons Ratio (z) = -0.06896 0.44296
#
# Static dielectric constant tensor:
#      x y z
#    x 1.959350 0.000000 -0.001700 
#    y 0.000000 1.941640 0.000000 
#    z -0.001700 0.000000 1.927970 
# 
# From -- ./inp_files/2017.got.cif
#   From: 2010.05.17/outbox.cif.g08.bks.cpg/sg4_2_cif.got.tgz:2017.got - 2010.06.03 18:43:04.
