data_PCOD9114277
_publ_section_title
;
Structure prediction by ZEFSAII (Michael W. Deem and Ramdas Pophale) SiO2 
 PCOD9114277
Probable space group: P 2
;
_chemical_formula_sum "Si O2"
_cell_formula_units_Z 14
_cell_length_a 12.032162
_cell_length_b 5.088860
_cell_length_c 9.566638
_cell_angle_alpha 90.000000
_cell_angle_beta 74.708092
_cell_angle_gamma 90.000000
_cell_volume 565.025925
_symmetry_space_group_name_H-M "P 2"
_symmetry_group_IT_number 3
_symmetry_cell_setting 'monoclinic'
loop_
_space_group_symop_operation_xyz
x,y,z
-x,y,-z
loop_
_atom_site_type_symbol
_atom_site_label
_atom_site_fract_x
_atom_site_fract_y
_atom_site_fract_z
Si Si1 0.561837 0.003780 0.220531
Si Si2 0.667473 0.331677 0.930191
Si Si3 0.135031 0.942456 0.493369
Si Si4 0.715026 0.461730 0.609233
Si Si5 0.500000 0.378788 0.500000
Si Si6 0.204007 0.868241 0.778015
Si Si7 0.500000 0.790058 0.000000
Si Si8 0.869029 0.369189 0.045284
O O1 0.536871 0.200845 0.353996
O O2 0.660037 0.821349 0.253335
O O3 0.458648 0.860585 0.176992
O O4 0.605366 0.110614 0.048518
O O5 0.658762 0.344468 0.768429
O O6 0.605204 0.589987 0.005967
O O7 0.801216 0.326102 0.924803
O O8 0.207122 0.719284 0.386281
O O9 0.148629 0.836995 0.646748
O O10 0.000000 0.961977 0.500000
O O11 0.199838 0.223719 0.467252
O O12 0.614118 0.515002 0.528093
O O13 0.143760 0.668342 0.903259
O O14 0.192711 0.172236 0.826826
O O15 0.000000 0.290081 0.000000
#
# Coordination Sequence:
#
# PCOD9114277 Si02
#       8
#     2   2   2   2   1   2   1   2
#     4  11  25  46  71 106 152 190 249 298 378 441
#     4  11  27  44  70 110 143 194 241 308 364 439
#     4  12  29  50  77 108 153 200 253 314 374 445
#     4  12  29  48  79 111 150 200 253 306 381 446
#     4  12  26  50  76 112 150 202 248 310 376 462
#     4  11  24  47  72 105 146 193 242 306 364 434
#     4  12  22  44  72 102 150 194 234 314 364 440
#     4  11  25  44  75 107 144 190 247 300 368 437
#
# _framework density 24.777625
#
# number of rings (size 3 to 8) (size 9 to 14) (size 15 to 20)
#    0.000    0.571    2.857    3.857   10.000    1.714 
#    0.000    0.000    0.000    0.000    0.000    0.000 
#    0.000    0.000    0.000    0.000    0.000    0.000 
#
# Total GULP energy -78133.010503 kJ/mol
# GULP energy per Si atom -5580.929322 kJ/mol
# Density = 2.472123 g / cm^3
# Si number density = 24.777625 Si / 1000 Ang^3
#
#
#
# Elastic Constant Matrix: (Units=GPa)
#
#
# Indices 1 2 3 4 5 6 
#
# 1 122.7081 0.9700 41.1937 0.0000 16.9491 0.0000
# 2 0.9700 63.7400 -0.9845 0.0000 -6.9671 0.0000
# 3 41.1937 -0.9845 118.0843 0.0000 31.8715 0.0000
# 4 0.0000 0.0000 0.0000 34.9249 0.0000 7.3673
# 5 16.9491 -6.9671 31.8715 0.0000 37.0366 0.0000
# 6 0.0000 0.0000 0.0000 7.3673 0.0000 15.3945
#
#
#
# Elastic Compliance Matrix: (Units=1/GPa)
#
#
# Indices 1 2 3 4 5 6 
#
# 1 0.009344 -0.000404 -0.002720 0.000000 -0.002011 0.000000
# 2 -0.000404 0.016107 -0.000772 0.000000 0.003879 0.000000
# 3 -0.002720 -0.000772 0.011872 0.000000 -0.009116 0.000000
# 4 0.000000 0.000000 0.000000 0.031848 0.000000 -0.015241
# 5 -0.002011 0.003879 -0.009116 0.000000 0.036495 0.000000
# 6 0.000000 0.000000 0.000000 -0.015241 0.000000 0.072252
#
#
# Mechanical properties :
#
#
# Convention : Reuss Voigt Hill
#
# Bulk Modulus (GPa) = 33.86334 42.98786 38.42560
# Shear Modulus (GPa) = 25.56855 35.02808 30.29831
#
# Velocity S-wave (km/s) = 3.21584 3.76400 3.50066
# Velocity P-wave (km/s) = 5.24265 6.02307 5.64636
#
# Compressibility (1/GPa) = 0.02953046
#
# Stress axis : x y z
#
# Youngs Moduli (GPa) = 107.02574 62.08503 84.23524
#
# Poissons Ratio (x) = 0.02508 0.22912
# Poissons Ratio (y) = 0.04324 0.06500
# Poissons Ratio (z) = 0.29111 0.04791
#
# Static dielectric constant tensor:
#      x y z
#    x 1.648410 0.000000 -0.083290 
#    y 0.000000 2.185900 0.000000 
#    z -0.083290 0.000000 1.924110 
# 
# From -- ./inp_files/6675.got.cif
#   From: 2010.05.17/outbox.cif.g08.bks.cpg/sg3_4_cif.got.tgz:6675.got - 2010.06.03 18:33:08.
