data_PCOD9114211
_publ_section_title
;
Structure prediction by ZEFSAII (Michael W. Deem and Ramdas Pophale) SiO2 
 PCOD9114211
Probable space group: P 2
;
_chemical_formula_sum "Si O2"
_cell_formula_units_Z 13
_cell_length_a 9.262432
_cell_length_b 5.275272
_cell_length_c 16.869696
_cell_angle_alpha 90.000000
_cell_angle_beta 44.277181
_cell_angle_gamma 90.000000
_cell_volume 575.457915
_symmetry_space_group_name_H-M "P 2"
_symmetry_group_IT_number 3
_symmetry_cell_setting 'monoclinic'
loop_
_space_group_symop_operation_xyz
x,y,z
-x,y,-z
loop_
_atom_site_type_symbol
_atom_site_label
_atom_site_fract_x
_atom_site_fract_y
_atom_site_fract_z
Si Si1 0.610322 0.024990 0.335005
Si Si2 0.903951 0.588719 0.693625
Si Si3 0.500000 0.010033 0.000000
Si Si4 0.834713 0.090313 0.412178
Si Si5 0.547500 0.629536 0.123500
Si Si6 0.184825 0.379740 0.102434
Si Si7 0.245043 0.509306 0.802735
O O1 0.636117 0.244012 0.259001
O O2 0.758901 0.103930 0.350148
O O3 0.375508 0.040280 0.457024
O O4 0.676586 0.741259 0.283662
O O5 0.673438 0.583929 0.749046
O O6 0.855728 0.556817 0.806472
O O7 0.018444 0.850241 0.632966
O O8 0.048004 0.351196 0.614164
O O9 0.734578 0.119364 0.893111
O O10 0.461548 0.867294 0.931180
O O11 0.716489 0.619070 0.125372
O O12 0.614289 0.423536 0.031898
O O13 0.987907 0.425731 0.125556
#
# Coordination Sequence:
#
# PCOD9114211 Si02
#       7
#     2   2   1   2   2   2   2
#     4  11  24  46  71 107 142 183 246 303 368 431
#     4  12  22  43  73 105 134 191 241 298 358 434
#     4  12  24  46  78 100 154 202 262 290 354 454
#     4  11  23  43  77 103 136 186 249 302 352 442
#     4  12  28  45  70 107 152 192 243 300 366 445
#     4  12  24  44  70 107 144 191 247 299 356 444
#     4  12  28  46  71 109 150 190 229 312 376 428
#
# _framework density 22.590706999999998
#
# number of rings (size 3 to 8) (size 9 to 14) (size 15 to 20)
#    0.000    0.308    6.154    2.308    4.308    2.462 
#    0.000    4.615    0.000    0.000    0.000    0.000 
#    0.000    0.000    0.000    0.000    0.000    0.000 
#
# Total GULP energy -72551.713892 kJ/mol
# GULP energy per Si atom -5580.901069 kJ/mol
# Density = 2.253929 g / cm^3
# Si number density = 22.590707 Si / 1000 Ang^3
#
#
#
# Elastic Constant Matrix: (Units=GPa)
#
#
# Indices 1 2 3 4 5 6 
#
# 1 112.5651 18.5807 22.1728 0.0000 -19.1682 0.0000
# 2 18.5807 127.6263 38.7630 0.0000 -20.9347 0.0000
# 3 22.1728 38.7630 85.3395 0.0000 -29.0795 0.0000
# 4 0.0000 0.0000 0.0000 57.7584 0.0000 40.0791
# 5 -19.1682 -20.9347 -29.0795 0.0000 31.2867 0.0000
# 6 0.0000 0.0000 0.0000 40.0791 0.0000 68.8419
#
#
#
# Elastic Compliance Matrix: (Units=1/GPa)
#
#
# Indices 1 2 3 4 5 6 
#
# 1 0.009968 -0.000401 -0.000612 0.000000 0.005270 0.000000
# 2 -0.000401 0.009342 -0.003063 0.000000 0.003159 0.000000
# 3 -0.000612 -0.003063 0.018209 0.000000 0.014500 0.000000
# 4 0.000000 0.000000 0.000000 0.029049 0.000000 -0.016912
# 5 0.005270 0.003159 0.014500 0.000000 0.050782 0.000000
# 6 0.000000 0.000000 0.000000 -0.016912 0.000000 0.024372
#
#
# Mechanical properties :
#
#
# Convention : Reuss Voigt Hill
#
# Bulk Modulus (GPa) = 34.05147 53.84044 43.94595
# Shear Modulus (GPa) = 31.31606 47.97835 39.64721
#
# Velocity S-wave (km/s) = 3.72726 4.61348 4.19384
# Velocity P-wave (km/s) = 5.79907 7.22936 6.55335
#
# Compressibility (1/GPa) = 0.02936731
#
# Stress axis : x y z
#
# Youngs Moduli (GPa) = 100.32244 107.04199 54.91767
#
# Poissons Ratio (x) = 0.04291 0.03361
# Poissons Ratio (y) = 0.04022 0.16821
# Poissons Ratio (z) = 0.06140 0.32786
#
# Static dielectric constant tensor:
#      x y z
#    x 1.872660 0.000000 0.036500 
#    y 0.000000 1.980800 0.000000 
#    z 0.036500 0.000000 1.813230 
# 
# From -- ./inp_files/14810.got.cif
#   From: 2010.05.17/outbox.cif.g08.bks.cpg/sg3_8_cif.got.tgz:14810.got - 2010.06.03 18:33:08.
