data_PCOD9114672
_publ_section_title
;
Structure prediction by ZEFSAII (Michael W. Deem and Ramdas Pophale) SiO2 
 PCOD9114672
Probable space group: P 21
;
_chemical_formula_sum "Si O2"
_cell_formula_units_Z 16
_cell_length_a 7.483805
_cell_length_b 14.527983
_cell_length_c 6.766839
_cell_angle_alpha 90.000000
_cell_angle_beta 103.170549
_cell_angle_gamma 90.000000
_cell_volume 716.369492
_symmetry_space_group_name_H-M "P 21"
_symmetry_group_IT_number 4
_symmetry_cell_setting 'monoclinic'
loop_
_space_group_symop_operation_xyz
x,y,z
-x,1/2+y,-z
loop_
_atom_site_type_symbol
_atom_site_label
_atom_site_fract_x
_atom_site_fract_y
_atom_site_fract_z
Si Si1 0.657266 0.291060 0.786795
Si Si2 0.075654 0.458461 0.127899
Si Si3 0.083764 0.062670 0.263198
Si Si4 0.385393 0.948153 0.497349
Si Si5 0.924473 0.261095 0.197427
Si Si6 0.583972 0.207789 0.376229
Si Si7 0.438019 0.363190 0.101038
Si Si8 0.745389 0.018611 0.447847
O O1 0.722222 0.371511 0.655568
O O2 0.572643 0.220544 0.608531
O O3 0.818883 0.250999 0.961072
O O4 0.519278 0.333454 0.913083
O O5 0.248209 0.417541 0.047745
O O6 0.157073 0.526871 0.313837
O O7 0.999758 0.365396 0.213420
O O8 0.934098 0.513722 0.955137
O O9 0.914217 0.017522 0.341849
O O10 0.269447 0.038333 0.424969
O O11 0.053953 0.172284 0.247892
O O12 0.421202 0.926152 0.735222
O O13 0.591256 0.942845 0.457125
O O14 0.773348 0.249105 0.331400
O O15 0.431392 0.268499 0.227775
O O16 0.615685 0.101570 0.341963
#
# Coordination Sequence:
#
# PCOD9114672 Si02
#       8
#     2   2   2   2   2   2   2   2
#     4  10  18  38  61  82 119 156 197 243 308 358
#     4  11  22  39  62  89 121 159 206 253 303 365
#     4  11  23  39  63  89 123 164 203 251 311 358
#     4  10  21  37  60  87 116 158 197 246 305 356
#     4  10  22  36  59  91 120 157 207 253 294 368
#     4   9  20  38  60  87 120 160 194 252 310 353
#     4   9  21  36  61  88 116 154 200 248 300 364
#     4  10  23  39  60  89 123 156 206 252 301 366
#
# _framework density 22.334841999999998
#
# number of rings (size 3 to 8) (size 9 to 14) (size 15 to 20)
#    0.000    2.000    1.250    1.500    7.000    0.000 
#    0.000    0.000    2.750    0.000    0.000    0.000 
#    0.000    0.000    0.000    0.000    0.000    0.000 
#
# Total GULP energy -89147.634781 kJ/mol
# GULP energy per Si atom -5571.727174 kJ/mol
# Density = 2.228401 g / cm^3
# Si number density = 22.334842 Si / 1000 Ang^3
#
#
#
# Elastic Constant Matrix: (Units=GPa)
#
#
# Indices 1 2 3 4 5 6 
#
# 1 69.4772 16.5535 13.5785 0.0000 -5.7870 0.0000
# 2 16.5535 34.3460 -0.8604 0.0000 -9.5701 0.0000
# 3 13.5785 -0.8604 79.8651 0.0000 -5.2762 0.0000
# 4 0.0000 0.0000 0.0000 11.8948 0.0000 -1.2613
# 5 -5.7870 -9.5701 -5.2762 0.0000 21.0758 0.0000
# 6 0.0000 0.0000 0.0000 -1.2613 0.0000 26.3545
#
#
#
# Elastic Compliance Matrix: (Units=1/GPa)
#
#
# Indices 1 2 3 4 5 6 
#
# 1 0.016936 -0.008182 -0.002955 0.000000 0.000195 0.000000
# 2 -0.008182 0.037437 0.002816 0.000000 0.015457 0.000000
# 3 -0.002955 0.002816 0.013305 0.000000 0.003798 0.000000
# 4 0.000000 0.000000 0.000000 0.084499 0.000000 0.004044
# 5 0.000195 0.015457 0.003798 0.000000 0.055471 0.000000
# 6 0.000000 0.000000 0.000000 0.004044 0.000000 0.038138
#
#
# Mechanical properties :
#
#
# Convention : Reuss Voigt Hill
#
# Bulk Modulus (GPa) = 19.59450 26.91464 23.25457
# Shear Modulus (GPa) = 17.89289 22.15945 20.02617
#
# Velocity S-wave (km/s) = 2.83348 3.15325 2.99763
# Velocity P-wave (km/s) = 4.41553 5.03329 4.73450
#
# Compressibility (1/GPa) = 0.05103473
#
# Stress axis : x y z
#
# Youngs Moduli (GPa) = 59.04425 26.71185 75.16135
#
# Poissons Ratio (x) = 0.21857 0.22208
# Poissons Ratio (y) = 0.48312 -0.21163
# Poissons Ratio (z) = 0.17446 -0.07521
#
# Static dielectric constant tensor:
#      x y z
#    x 1.849150 0.000000 -0.004670 
#    y 0.000000 1.938200 0.000000 
#    z -0.004670 0.000000 1.834160 
# 
# From -- ./inp_files/1528.got.cif
#   From: 2010.05.17/outbox.cif.g08.bks.cpg/sg4_1_cif.got.tgz:1528.got - 2010.06.03 18:43:04.
