data_PCOD9114610
_publ_section_title
;
Structure prediction by ZEFSAII (Michael W. Deem and Ramdas Pophale) SiO2 
 PCOD9114610
Probable space group: P 21
;
_chemical_formula_sum "Si O2"
_cell_formula_units_Z 16
_cell_length_a 15.669077
_cell_length_b 5.423465
_cell_length_c 13.356149
_cell_angle_alpha 90.000000
_cell_angle_beta 44.383207
_cell_angle_gamma 90.000000
_cell_volume 793.890509
_symmetry_space_group_name_H-M "P 21"
_symmetry_group_IT_number 4
_symmetry_cell_setting 'monoclinic'
loop_
_space_group_symop_operation_xyz
x,y,z
-x,1/2+y,-z
loop_
_atom_site_type_symbol
_atom_site_label
_atom_site_fract_x
_atom_site_fract_y
_atom_site_fract_z
Si Si1 0.606878 0.765790 0.799459
Si Si2 0.414782 0.470646 0.686598
Si Si3 0.426394 0.631742 0.325116
Si Si4 0.988653 0.785755 0.571790
Si Si5 0.343508 0.675940 0.939031
Si Si6 0.342430 0.235505 0.554946
Si Si7 0.789480 0.512289 0.496413
Si Si8 0.262967 0.188078 0.106585
O O1 0.481739 0.640920 0.866844
O O2 0.726462 0.678923 0.636134
O O3 0.638475 0.720565 0.886730
O O4 0.579281 0.042374 0.784418
O O5 0.453763 0.261788 0.733981
O O6 0.356302 0.675085 0.807757
O O7 0.329840 0.375560 0.669476
O O8 0.545340 0.541665 0.526001
O O9 0.400822 0.406509 0.420211
O O10 0.312260 0.806302 0.433203
O O11 0.867889 0.694535 0.729350
O O12 0.035012 0.536151 0.475148
O O13 0.088849 0.888845 0.565816
O O14 0.269263 0.436691 0.035903
O O15 0.289624 0.930438 0.028053
O O16 0.218777 0.145206 0.604606
#
# Coordination Sequence:
#
# PCOD9114610 Si02
#       8
#     2   2   2   2   2   2   2   2
#     4  11  21  38  59  90 135 176 212 261 335 398
#     4  11  20  34  61  91 140 174 215 273 341 411
#     4  10  18  34  59  93 129 164 219 272 333 395
#     4  12  25  46  71  94 132 178 237 293 324 388
#     4  12  25  40  60  93 139 176 214 266 328 426
#     4  10  20  34  59  97 130 172 218 276 346 390
#     4  10  22  37  64  97 125 170 222 294 330 385
#     4  12  27  41  61  95 130 186 219 261 339 397
#
# _framework density 20.153912999999999
#
# number of rings (size 3 to 8) (size 9 to 14) (size 15 to 20)
#    0.000    1.000    6.250    3.000    3.500    0.000 
#    0.000    0.000    0.000    0.000    3.250    0.000 
#    0.000    0.000    0.000    0.000    0.000    0.000 
#
# Total GULP energy -89189.291369 kJ/mol
# GULP energy per Si atom -5574.330711 kJ/mol
# Density = 2.010804 g / cm^3
# Si number density = 20.153913 Si / 1000 Ang^3
#
#
#
# Elastic Constant Matrix: (Units=GPa)
#
#
# Indices 1 2 3 4 5 6 
#
# 1 111.9912 37.6516 48.0864 0.0000 16.7996 0.0000
# 2 37.6516 96.2275 39.3132 0.0000 15.7041 0.0000
# 3 48.0864 39.3132 93.1246 0.0000 7.6481 0.0000
# 4 0.0000 0.0000 0.0000 37.8742 0.0000 4.9419
# 5 16.7996 15.7041 7.6481 0.0000 23.8891 0.0000
# 6 0.0000 0.0000 0.0000 4.9419 0.0000 32.9849
#
#
#
# Elastic Compliance Matrix: (Units=1/GPa)
#
#
# Indices 1 2 3 4 5 6 
#
# 1 0.012729 -0.001825 -0.005305 0.000000 -0.006053 0.000000
# 2 -0.001825 0.013972 -0.004423 0.000000 -0.006485 0.000000
# 3 -0.005305 -0.004423 0.015199 0.000000 0.001772 0.000000
# 4 0.000000 0.000000 0.000000 0.026930 0.000000 -0.004035
# 5 -0.006053 -0.006485 0.001772 0.000000 0.049812 0.000000
# 6 0.000000 0.000000 0.000000 -0.004035 0.000000 0.030921
#
#
# Mechanical properties :
#
#
# Convention : Reuss Voigt Hill
#
# Bulk Modulus (GPa) = 53.21172 61.27174 57.24173
# Shear Modulus (GPa) = 27.94323 30.70247 29.32285
#
# Velocity S-wave (km/s) = 3.72760 3.90731 3.81851
# Velocity P-wave (km/s) = 6.70721 7.12910 6.92137
#
# Compressibility (1/GPa) = 0.01879285
#
# Stress axis : x y z
#
# Youngs Moduli (GPa) = 78.56199 71.57383 65.79238
#
# Poissons Ratio (x) = 0.13064 0.34903
# Poissons Ratio (y) = 0.14340 0.29101
# Poissons Ratio (z) = 0.41677 0.31658
#
# Static dielectric constant tensor:
#      x y z
#    x 1.716120 0.000000 0.026880 
#    y 0.000000 1.868630 0.000000 
#    z 0.026880 0.000000 1.747970 
# 
# From -- ./inp_files/12422.got.cif
#   From: 2010.05.17/outbox.cif.g08.bks.cpg/sg4_7_cif.got.tgz:12422.got - 2010.06.03 18:43:04.
