data_PCOD9114524
_publ_section_title
;
Structure prediction by ZEFSAII (Michael W. Deem and Ramdas Pophale) SiO2 
 PCOD9114524
Probable space group: P 21
;
_chemical_formula_sum "Si O2"
_cell_formula_units_Z 14
_cell_length_a 6.817250
_cell_length_b 13.074439
_cell_length_c 7.174599
_cell_angle_alpha 90.000000
_cell_angle_beta 61.194755
_cell_angle_gamma 90.000000
_cell_volume 560.356198
_symmetry_space_group_name_H-M "P 21"
_symmetry_group_IT_number 4
_symmetry_cell_setting 'monoclinic'
loop_
_space_group_symop_operation_xyz
x,y,z
-x,1/2+y,-z
loop_
_atom_site_type_symbol
_atom_site_label
_atom_site_fract_x
_atom_site_fract_y
_atom_site_fract_z
Si Si1 0.097022 0.848580 0.179771
Si Si2 0.092878 0.493783 0.230237
Si Si3 0.730688 0.824689 0.638811
Si Si4 0.020975 0.559527 0.693227
Si Si5 0.710079 0.240031 0.259272
Si Si6 0.619707 0.448369 0.417339
Si Si7 0.556886 0.513688 0.854655
O O1 0.142455 0.779912 0.981570
O O2 0.332276 0.901965 0.135484
O O3 0.940531 0.798216 0.409296
O O4 0.952680 0.951791 0.210738
O O5 0.165070 0.373870 0.224108
O O6 0.045712 0.535508 0.461180
O O7 0.313182 0.541884 0.040642
O O8 0.850102 0.500552 0.243972
O O9 0.542940 0.737864 0.706965
O O10 0.577151 0.923697 0.637334
O O11 0.183223 0.644205 0.692719
O O12 0.757951 0.585225 0.836133
O O13 0.689827 0.330570 0.421457
O O14 0.549176 0.503191 0.636268
#
# Coordination Sequence:
#
# PCOD9114524 Si02
#       7
#     2   2   2   2   2   2   2
#     4   9  18  34  57  77 111 149 181 227 281 323
#     4  10  17  37  57  73 111 149 173 231 281 316
#     4   9  18  32  53  80 104 142 187 219 273 331
#     4   8  19  34  56  81 112 149 187 223 280 330
#     4  10  19  34  56  83 113 146 188 230 272 329
#     4   9  20  29  57  81 100 141 189 221 269 340
#     4   9  17  34  56  75 107 146 179 223 278 325
#
# _framework density 24.984106000000001
#
# number of rings (size 3 to 8) (size 9 to 14) (size 15 to 20)
#    1.714    1.143    2.857    0.000    2.000    1.143 
#    0.000    0.000   18.857    0.000    0.000    0.000 
#    0.000    0.000    0.000    0.000    0.000    0.000 
#
# Total GULP energy -77976.963807 kJ/mol
# GULP energy per Si atom -5569.783129 kJ/mol
# Density = 2.492724 g / cm^3
# Si number density = 24.984106 Si / 1000 Ang^3
#
#
#
# Elastic Constant Matrix: (Units=GPa)
#
#
# Indices 1 2 3 4 5 6 
#
# 1 120.8073 14.3373 25.4481 0.0000 -25.3065 0.0000
# 2 14.3373 62.0738 -1.1121 0.0000 -0.4262 0.0000
# 3 25.4481 -1.1121 131.3954 0.0000 -29.8245 0.0000
# 4 0.0000 0.0000 0.0000 11.1838 0.0000 4.0714
# 5 -25.3065 -0.4262 -29.8245 0.0000 29.0568 0.0000
# 6 0.0000 0.0000 0.0000 4.0714 0.0000 41.1936
#
#
#
# Elastic Compliance Matrix: (Units=1/GPa)
#
#
# Indices 1 2 3 4 5 6 
#
# 1 0.010458 -0.002353 0.000019 0.000000 0.009092 0.000000
# 2 -0.002353 0.016647 0.000244 0.000000 -0.001555 0.000000
# 3 0.000019 0.000244 0.009926 0.000000 0.010208 0.000000
# 4 0.000000 0.000000 0.000000 0.092753 0.000000 -0.009167
# 5 0.009092 -0.001555 0.010208 0.000000 0.052789 0.000000
# 6 0.000000 0.000000 0.000000 -0.009167 0.000000 0.025182
#
#
# Mechanical properties :
#
#
# Convention : Reuss Voigt Hill
#
# Bulk Modulus (GPa) = 30.44163 43.51368 36.97766
# Shear Modulus (GPa) = 22.43309 34.66038 28.54673
#
# Velocity S-wave (km/s) = 2.99974 3.72868 3.38390
# Velocity P-wave (km/s) = 4.92024 5.99932 5.48637
#
# Compressibility (1/GPa) = 0.03284975
#
# Stress axis : x y z
#
# Youngs Moduli (GPa) = 95.62416 60.07109 100.74388
#
# Poissons Ratio (x) = 0.14133 -0.00187
# Poissons Ratio (y) = 0.22497 -0.02455
# Poissons Ratio (z) = -0.00177 -0.01464
#
# Static dielectric constant tensor:
#      x y z
#    x 2.028240 0.000000 -0.023780 
#    y 0.000000 2.082870 0.000000 
#    z -0.023780 0.000000 2.009340 
# 
# From -- ./inp_files/6813.got.cif
#   From: 2010.05.17/outbox.cif.g08.bks.cpg/sg4_4_cif.got.tgz:6813.got - 2010.06.03 18:43:04.
