data_PCOD9114715
_publ_section_title
;
Structure prediction by ZEFSAII (Michael W. Deem and Ramdas Pophale) SiO2 
 PCOD9114715
Probable space group: P 21
;
_chemical_formula_sum "Si O2"
_cell_formula_units_Z 14
_cell_length_a 11.376192
_cell_length_b 9.277924
_cell_length_c 8.441420
_cell_angle_alpha 90.000000
_cell_angle_beta 49.679984
_cell_angle_gamma 90.000000
_cell_volume 679.313480
_symmetry_space_group_name_H-M "P 21"
_symmetry_group_IT_number 4
_symmetry_cell_setting 'monoclinic'
loop_
_space_group_symop_operation_xyz
x,y,z
-x,1/2+y,-z
loop_
_atom_site_type_symbol
_atom_site_label
_atom_site_fract_x
_atom_site_fract_y
_atom_site_fract_z
Si Si1 0.808220 0.606970 0.927054
Si Si2 0.656224 0.470769 0.358081
Si Si3 0.959912 0.342827 0.610421
Si Si4 0.968017 0.350807 0.226169
Si Si5 0.497425 0.728045 0.670361
Si Si6 0.303177 0.339881 0.226023
Si Si7 0.214442 0.582375 0.073653
O O1 0.883193 0.477676 0.763117
O O2 0.722563 0.713352 0.879769
O O3 0.946120 0.700969 0.885568
O O4 0.695004 0.545458 0.157255
O O5 0.812229 0.391150 0.275165
O O6 0.604942 0.596486 0.521750
O O7 0.525848 0.350165 0.442600
O O8 0.933692 0.348354 0.444632
O O9 0.887655 0.198792 0.744570
O O10 0.144624 0.346120 0.465178
O O11 0.097102 0.473860 0.090253
O O12 0.561214 0.803113 0.773240
O O13 0.331369 0.661437 0.856148
O O14 0.309331 0.486415 0.118861
#
# Coordination Sequence:
#
# PCOD9114715 Si02
#       7
#     2   2   2   2   2   2   2
#     4  10  22  42  70  95 124 173 234 271 328 386
#     4  12  28  43  63  99 141 181 216 274 345 408
#     4  10  18  42  70  98 118 168 234 274 322 378
#     4  10  23  42  69  94 129 171 218 289 321 404
#     4  12  28  43  63  99 141 181 216 274 345 408
#     4  10  23  42  69  94 129 171 218 289 321 404
#     4  10  22  42  70  95 124 173 234 271 328 386
#
# _framework density 20.609041999999999
#
# number of rings (size 3 to 8) (size 9 to 14) (size 15 to 20)
#    0.000    1.714    1.429    5.143    8.000    4.571 
#    0.000    0.000    0.000    0.000    0.000    0.000 
#    0.000    0.000    0.000    0.000    0.000    0.000 
#
# Total GULP energy -78265.308683 kJ/mol
# GULP energy per Si atom -5590.379192 kJ/mol
# Density = 2.056213 g / cm^3
# Si number density = 20.609042 Si / 1000 Ang^3
#
#
#
# Elastic Constant Matrix: (Units=GPa)
#
#
# Indices 1 2 3 4 5 6 
#
# 1 66.5800 14.3965 -23.7649 0.0000 -10.3219 0.0000
# 2 14.3965 98.9917 -4.7424 0.0000 -0.4348 0.0000
# 3 -23.7649 -4.7424 42.3926 0.0000 2.9005 0.0000
# 4 0.0000 0.0000 0.0000 -517.2351 0.0000 -34.4336
# 5 -10.3219 -0.4348 2.9005 0.0000 5.9470 0.0000
# 6 0.0000 0.0000 0.0000 -34.4336 0.0000 17.2006
#
#
#
# Elastic Compliance Matrix: (Units=1/GPa)
#
#
# Indices 1 2 3 4 5 6 
#
# 1 0.025811 -0.003033 0.011463 0.000000 0.038987 0.000000
# 2 -0.003033 0.010513 -0.000224 0.000000 -0.004387 0.000000
# 3 0.011463 -0.000224 0.029618 0.000000 0.005433 0.000000
# 4 0.000000 0.000000 0.000000 -0.001706 0.000000 -0.003415
# 5 0.038987 -0.004387 0.005433 0.000000 0.232851 0.000000
# 6 0.000000 0.000000 0.000000 -0.003415 0.000000 0.051301
#
#
# Mechanical properties :
#
#
# Convention : Reuss Voigt Hill
#
# Bulk Modulus (GPa) = 12.14298 19.97139 16.05719
# Shear Modulus (GPa) = 13.91098 -84.01249 -35.05076
#
# Velocity S-wave (km/s) = 2.60088 -6.39166 -4.12848
# Velocity P-wave (km/s) = 3.86320 6.69026 3.86233
#
# Compressibility (1/GPa) = 0.08235211
#
# Stress axis : x y z
#
# Youngs Moduli (GPa) = 38.74311 95.12039 33.76322
#
# Poissons Ratio (x) = 0.28853 -0.38701
# Poissons Ratio (y) = 0.11752 0.00757
# Poissons Ratio (z) = -0.44410 0.02133
#
# Static dielectric constant tensor:
#      x y z
#    x 1.854750 0.000000 -0.001560 
#    y 0.000000 1.741340 0.000000 
#    z -0.001560 0.000000 1.695590 
# 
# From -- ./inp_files/7601.got.cif
#   From: 2010.05.17/outbox.cif.g08.bks.cpg/sg4_4_cif.got.tgz:7601.got - 2010.06.03 18:43:04.
