data_PCOD9114915
_publ_section_title
;
Structure prediction by ZEFSAII (Michael W. Deem and Ramdas Pophale) SiO2 
 PCOD9114915
Probable space group: P 21
;
_chemical_formula_sum "Si O2"
_cell_formula_units_Z 12
_cell_length_a 9.489118
_cell_length_b 7.794291
_cell_length_c 9.592616
_cell_angle_alpha 90.000000
_cell_angle_beta 47.978250
_cell_angle_gamma 90.000000
_cell_volume 527.065369
_symmetry_space_group_name_H-M "P 21"
_symmetry_group_IT_number 4
_symmetry_cell_setting 'monoclinic'
loop_
_space_group_symop_operation_xyz
x,y,z
-x,1/2+y,-z
loop_
_atom_site_type_symbol
_atom_site_label
_atom_site_fract_x
_atom_site_fract_y
_atom_site_fract_z
Si Si1 0.602826 0.514800 0.093934
Si Si2 0.045988 0.384229 0.601830
Si Si3 0.989578 0.419792 0.216137
Si Si4 0.054708 0.792444 0.041241
Si Si5 0.283417 0.263812 0.220652
Si Si6 0.247637 0.740916 0.411551
O O1 0.477401 0.361339 0.115533
O O2 0.458071 0.657776 0.256427
O O3 0.754220 0.410744 0.087764
O O4 0.694566 0.611150 0.901817
O O5 0.192261 0.248949 0.434177
O O6 0.114796 0.574123 0.520050
O O7 0.060053 0.380991 0.758365
O O8 0.845380 0.329238 0.664397
O O9 0.796059 0.366711 0.427500
O O10 0.044279 0.600231 0.109074
O O11 0.142507 0.392494 0.235003
O O12 0.017031 0.291176 0.068397
#
# Coordination Sequence:
#
# PCOD9114915 Si02
#       6
#     2   2   2   2   2   2
#     4  11  22  38  64  99 134 164 213 275 324 367
#     4  10  19  36  63  91 124 167 216 256 311 386
#     4  11  24  42  64  90 126 173 220 259 320 395
#     4  12  23  41  65  92 125 171 218 269 319 383
#     4  10  21  38  63  96 128 170 216 266 317 383
#     4  10  21  39  63  96 131 171 215 265 319 384
#
# _framework density 22.767576999999999
#
# number of rings (size 3 to 8) (size 9 to 14) (size 15 to 20)
#    0.000    1.333    0.000    9.000    0.000    1.333 
#    0.000    8.333    0.000    4.000    0.000    0.000 
#    0.000    0.000    0.000    0.000    0.000    0.000 
#
# Total GULP energy -66849.488934 kJ/mol
# GULP energy per Si atom -5570.790745 kJ/mol
# Density = 2.271576 g / cm^3
# Si number density = 22.767577 Si / 1000 Ang^3
#
#
#
# Elastic Constant Matrix: (Units=GPa)
#
#
# Indices 1 2 3 4 5 6 
#
# 1 42.9627 6.7307 30.5687 0.0000 4.2752 0.0000
# 2 6.7307 100.3633 35.7372 0.0000 -6.0476 0.0000
# 3 30.5687 35.7372 125.0842 0.0000 6.7935 0.0000
# 4 0.0000 0.0000 0.0000 50.9748 0.0000 -4.7114
# 5 4.2752 -6.0476 6.7935 0.0000 34.3673 0.0000
# 6 0.0000 0.0000 0.0000 -4.7114 0.0000 40.5682
#
#
#
# Elastic Compliance Matrix: (Units=1/GPa)
#
#
# Indices 1 2 3 4 5 6 
#
# 1 0.028353 0.000446 -0.006944 0.000000 -0.002076 0.000000
# 2 0.000446 0.011335 -0.003490 0.000000 0.002629 0.000000
# 3 -0.006944 -0.003490 0.010791 0.000000 -0.001883 0.000000
# 4 0.000000 0.000000 0.000000 0.019830 0.000000 0.002303
# 5 -0.002076 0.002629 -0.001883 0.000000 0.030191 0.000000
# 6 0.000000 0.000000 0.000000 0.002303 0.000000 0.024917
#
#
# Mechanical properties :
#
#
# Convention : Reuss Voigt Hill
#
# Bulk Modulus (GPa) = 32.78334 46.05370 39.41852
# Shear Modulus (GPa) = 32.14156 38.20696 35.17426
#
# Velocity S-wave (km/s) = 3.76137 4.10094 3.93482
# Velocity P-wave (km/s) = 5.77012 6.53417 6.16399
#
# Compressibility (1/GPa) = 0.03050330
#
# Stress axis : x y z
#
# Youngs Moduli (GPa) = 35.26924 88.22132 92.66932
#
# Poissons Ratio (x) = -0.03934 0.64348
# Poissons Ratio (y) = -0.01573 0.32344
# Poissons Ratio (z) = 0.24490 0.30792
#
# Static dielectric constant tensor:
#      x y z
#    x 1.817740 0.000000 -0.060020 
#    y 0.000000 1.972460 0.000000 
#    z -0.060020 0.000000 1.974990 
# 
# From -- ./inp_files/5225.got.cif
#   From: 2010.05.17/outbox.cif.g08.bks.cpg/sg4_3_cif.got.tgz:5225.got - 2010.06.03 18:43:04.
