data_PCOD9114816
_publ_section_title
;
Structure prediction by ZEFSAII (Michael W. Deem and Ramdas Pophale) SiO2 
 PCOD9114816
Probable space group: P 21
;
_chemical_formula_sum "Si O2"
_cell_formula_units_Z 14
_cell_length_a 13.855746
_cell_length_b 8.294550
_cell_length_c 8.742920
_cell_angle_alpha 90.000000
_cell_angle_beta 137.138021
_cell_angle_gamma 90.000000
_cell_volume 683.499139
_symmetry_space_group_name_H-M "P 21"
_symmetry_group_IT_number 4
_symmetry_cell_setting 'monoclinic'
loop_
_space_group_symop_operation_xyz
x,y,z
-x,1/2+y,-z
loop_
_atom_site_type_symbol
_atom_site_label
_atom_site_fract_x
_atom_site_fract_y
_atom_site_fract_z
Si Si1 0.536003 0.898450 0.827663
Si Si2 0.226460 0.459045 0.501252
Si Si3 0.647953 0.655876 0.204633
Si Si4 0.059426 0.777740 0.860663
Si Si5 0.087308 0.974732 0.403071
Si Si6 0.809683 0.054025 0.200544
Si Si7 0.734629 0.267325 0.622445
O O1 0.420107 0.847010 0.569077
O O2 0.455427 0.022915 0.846327
O O3 0.585261 0.743389 0.983586
O O4 0.679547 0.989864 0.947787
O O5 0.318602 0.297432 0.633231
O O6 0.235065 0.545327 0.676619
O O7 0.276297 0.578216 0.427615
O O8 0.061953 0.410606 0.287148
O O9 0.799751 0.569000 0.360235
O O10 0.178450 0.803145 0.124534
O O11 0.137579 0.728477 0.793289
O O12 0.973240 0.609212 0.787393
O O13 0.169294 0.840690 0.404062
O O14 0.944565 0.936334 0.329719
#
# Coordination Sequence:
#
# PCOD9114816 Si02
#       7
#     2   2   2   2   2   2   2
#     4  10  19  34  58  80 120 148 189 234 290 347
#     4  10  20  34  62  84 110 147 202 240 276 338
#     4   9  18  35  51  86 108 148 191 236 279 334
#     4   9  20  37  55  83 116 145 191 240 280 345
#     4   8  19  34  59  78 113 141 191 240 275 333
#     4   9  20  36  58  78 115 142 188 242 276 325
#     4  11  20  34  61  83 112 155 186 230 296 352
#
# _framework density 20.482832999999999
#
# number of rings (size 3 to 8) (size 9 to 14) (size 15 to 20)
#    0.857    1.714    0.000    2.571    2.000    0.000 
#    0.000    1.429   12.571    0.000    0.000    0.000 
#    0.000    0.000    0.000    0.000    0.000    0.000 
#
# Total GULP energy -77979.108016 kJ/mol
# GULP energy per Si atom -5569.936287 kJ/mol
# Density = 2.043621 g / cm^3
# Si number density = 20.482833 Si / 1000 Ang^3
#
#
#
# Elastic Constant Matrix: (Units=GPa)
#
#
# Indices 1 2 3 4 5 6 
#
# 1 33.0581 1.8791 14.6064 0.0000 21.8019 0.0000
# 2 1.8791 30.0331 24.5825 0.0000 6.9048 0.0000
# 3 14.6064 24.5825 149.2275 0.0000 24.7758 0.0000
# 4 0.0000 0.0000 0.0000 28.0570 0.0000 7.7255
# 5 21.8019 6.9048 24.7758 0.0000 33.6094 0.0000
# 6 0.0000 0.0000 0.0000 7.7255 0.0000 16.2091
#
#
#
# Elastic Compliance Matrix: (Units=1/GPa)
#
#
# Indices 1 2 3 4 5 6 
#
# 1 0.053538 0.004959 -0.000139 0.000000 -0.035645 0.000000
# 2 0.004959 0.039350 -0.005801 0.000000 -0.007025 0.000000
# 3 -0.000139 -0.005801 0.008498 0.000000 -0.004982 0.000000
# 4 0.000000 0.000000 0.000000 0.041026 0.000000 -0.019554
# 5 -0.035645 -0.007025 -0.004982 0.000000 0.057992 0.000000
# 6 0.000000 0.000000 0.000000 -0.019554 0.000000 0.071013
#
#
# Mechanical properties :
#
#
# Convention : Reuss Voigt Hill
#
# Bulk Modulus (GPa) = 10.05808 32.71718 21.38763
# Shear Modulus (GPa) = 16.31219 26.99180 21.65199
#
# Velocity S-wave (km/s) = 2.82509 3.63406 3.25480
# Velocity P-wave (km/s) = 3.94495 5.79794 4.95877
#
# Compressibility (1/GPa) = 0.09942253
#
# Stress axis : x y z
#
# Youngs Moduli (GPa) = 18.67850 25.41313 117.68004
#
# Poissons Ratio (x) = -0.12603 0.01638
# Poissons Ratio (y) = -0.09263 0.68270
# Poissons Ratio (z) = 0.00260 0.14743
#
# Static dielectric constant tensor:
#      x y z
#    x 1.736100 0.000000 0.010900 
#    y 0.000000 1.777810 0.000000 
#    z 0.010900 0.000000 1.749340 
# 
# From -- ./inp_files/9191.got.cif
#   From: 2010.05.17/outbox.cif.g08.bks.cpg/sg4_5_cif.got.tgz:9191.got - 2010.06.03 18:43:04.
