data_PCOD9114796
_publ_section_title
;
Structure prediction by ZEFSAII (Michael W. Deem and Ramdas Pophale) SiO2 
 PCOD9114796
Probable space group: P 21
;
_chemical_formula_sum "Si O2"
_cell_formula_units_Z 12
_cell_length_a 11.999470
_cell_length_b 7.747066
_cell_length_c 12.185837
_cell_angle_alpha 90.000000
_cell_angle_beta 155.116901
_cell_angle_gamma 90.000000
_cell_volume 476.647844
_symmetry_space_group_name_H-M "P 21"
_symmetry_group_IT_number 4
_symmetry_cell_setting 'monoclinic'
loop_
_space_group_symop_operation_xyz
x,y,z
-x,1/2+y,-z
loop_
_atom_site_type_symbol
_atom_site_label
_atom_site_fract_x
_atom_site_fract_y
_atom_site_fract_z
Si Si1 0.165569 0.278440 0.007203
Si Si2 0.700683 0.942328 0.218244
Si Si3 0.248259 0.643101 0.957159
Si Si4 0.312875 0.239119 0.491200
Si Si5 0.143234 0.085537 0.762396
Si Si6 0.604967 0.374980 0.560755
O O1 0.198006 0.463685 0.977400
O O2 0.142419 0.143873 0.887905
O O3 0.891982 0.286992 0.830435
O O4 0.419446 0.268095 0.311330
O O5 0.753961 0.081912 0.169442
O O6 0.873182 0.007225 0.474551
O O7 0.793129 0.759574 0.251494
O O8 0.387790 0.957160 0.959803
O O9 0.996299 0.758697 0.762629
O O10 0.522881 0.713365 0.250437
O O11 0.450000 0.379441 0.536680
O O12 0.353404 0.060524 0.458602
#
# Coordination Sequence:
#
# PCOD9114796 Si02
#       6
#     2   2   2   2   2   2
#     4   9  19  35  55  75 105 146 181 213 271 343
#     4  11  22  39  61  86 115 152 193 236 283 339
#     4   9  19  35  55  75 105 146 181 213 271 343
#     4  10  19  34  54  77 103 138 179 221 268 326
#     4  11  22  39  61  86 115 152 193 236 283 339
#     4  10  19  34  54  77 103 138 179 221 268 326
#
# _framework density 25.175816999999999
#
# number of rings (size 3 to 8) (size 9 to 14) (size 15 to 20)
#    0.000    2.000    0.000    4.000    0.000    5.333 
#    0.000   10.000    0.000    0.000    0.000    0.000 
#    0.000    0.000    0.000    0.000    0.000    0.000 
#
# Total GULP energy -67283.826042 kJ/mol
# GULP energy per Si atom -5606.985504 kJ/mol
# Density = 2.511852 g / cm^3
# Si number density = 25.175817 Si / 1000 Ang^3
#
#
#
# Elastic Constant Matrix: (Units=GPa)
#
#
# Indices 1 2 3 4 5 6 
#
# 1 54.4008 6.6723 1.9408 0.0000 5.6855 0.0000
# 2 6.6723 114.8735 30.1630 0.0000 -4.5669 0.0000
# 3 1.9408 30.1630 107.5658 0.0000 17.5232 0.0000
# 4 0.0000 0.0000 0.0000 37.4929 0.0000 -2.8828
# 5 5.6855 -4.5669 17.5232 0.0000 50.6389 0.0000
# 6 0.0000 0.0000 0.0000 -2.8828 0.0000 44.8623
#
#
#
# Elastic Compliance Matrix: (Units=1/GPa)
#
#
# Indices 1 2 3 4 5 6 
#
# 1 0.018773 -0.001292 0.000409 0.000000 -0.002366 0.000000
# 2 -0.001292 0.009655 -0.003020 0.000000 0.002061 0.000000
# 3 0.000409 -0.003020 0.010797 0.000000 -0.004054 0.000000
# 4 0.000000 0.000000 0.000000 0.026804 0.000000 0.001722
# 5 -0.002366 0.002061 -0.004054 0.000000 0.021602 0.000000
# 6 0.000000 0.000000 0.000000 0.001722 0.000000 0.022401
#
#
# Mechanical properties :
#
#
# Convention : Reuss Voigt Hill
#
# Bulk Modulus (GPa) = 31.82754 39.37693 35.60223
# Shear Modulus (GPa) = 38.96787 42.46976 40.71882
#
# Velocity S-wave (km/s) = 3.93851 4.11168 4.02603
# Velocity P-wave (km/s) = 5.77513 6.18190 5.98197
#
# Compressibility (1/GPa) = 0.03141933
#
# Stress axis : x y z
#
# Youngs Moduli (GPa) = 53.26745 103.57183 92.62224
#
# Poissons Ratio (x) = 0.13380 -0.03788
# Poissons Ratio (y) = 0.06881 0.27971
# Poissons Ratio (z) = -0.02178 0.31277
#
# Static dielectric constant tensor:
#      x y z
#    x 1.972160 0.000000 0.006400 
#    y 0.000000 2.023270 0.000000 
#    z 0.006400 0.000000 1.894740 
# 
# From -- ./inp_files/2343.got.cif
#   From: 2010.05.17/outbox.cif.g08.bks.cpg/sg4_2_cif.got.tgz:2343.got - 2010.06.03 18:43:04.
