data_PCOD9114683
_publ_section_title
;
Structure prediction by ZEFSAII (Michael W. Deem and Ramdas Pophale) SiO2 
 PCOD9114683
Probable space group: P 21
;
_chemical_formula_sum "Si O2"
_cell_formula_units_Z 14
_cell_length_a 5.532006
_cell_length_b 15.659425
_cell_length_c 7.242643
_cell_angle_alpha 90.000000
_cell_angle_beta 118.405031
_cell_angle_gamma 90.000000
_cell_volume 551.879311
_symmetry_space_group_name_H-M "P 21"
_symmetry_group_IT_number 4
_symmetry_cell_setting 'monoclinic'
loop_
_space_group_symop_operation_xyz
x,y,z
-x,1/2+y,-z
loop_
_atom_site_type_symbol
_atom_site_label
_atom_site_fract_x
_atom_site_fract_y
_atom_site_fract_z
Si Si1 0.070249 0.782470 0.463600
Si Si2 0.406799 0.586863 0.127217
Si Si3 0.074486 0.827620 0.053943
Si Si4 0.423131 0.254290 0.946337
Si Si5 0.157091 0.963949 0.617235
Si Si6 0.696555 0.100716 0.492028
Si Si7 0.158848 0.015343 0.186205
O O1 0.748239 0.783845 0.296574
O O2 0.184491 0.803492 0.299396
O O3 0.122064 0.863105 0.610975
O O4 0.176360 0.687464 0.546982
O O5 0.581975 0.652578 0.069893
O O6 0.560369 0.496327 0.191454
O O7 0.408905 0.620015 0.339362
O O8 0.096985 0.576493 0.947229
O O9 0.266026 0.779914 0.979423
O O10 0.758009 0.794037 0.953060
O O11 0.111910 0.929214 0.051008
O O12 0.148617 0.986126 0.395954
O O13 0.917646 0.025440 0.603522
O O14 0.453212 0.060442 0.282655
#
# Coordination Sequence:
#
# PCOD9114683 Si02
#       7
#     2   2   2   2   2   2   2
#     4   9  19  36  66  91 129 177 223 269 338 402
#     4  11  22  41  65  96 129 174 222 280 341 401
#     4   9  19  38  62  90 129 172 216 270 336 394
#     4  10  18  38  65  92 125 179 212 272 339 399
#     4  10  21  42  63  92 128 175 223 278 338 402
#     4  11  21  42  66  94 133 180 224 282 339 405
#     4  10  24  39  63  95 131 171 224 279 339 401
#
# _framework density 25.367864999999998
#
# number of rings (size 3 to 8) (size 9 to 14) (size 15 to 20)
#    0.857    1.143    2.857    0.857    0.000    1.143 
#    2.571    0.000    0.000    0.000    0.000    0.000 
#    0.000    0.000    0.000    0.000    0.000    0.000 
#
# Total GULP energy -78260.868119 kJ/mol
# GULP energy per Si atom -5590.062008 kJ/mol
# Density = 2.531013 g / cm^3
# Si number density = 25.367865 Si / 1000 Ang^3
#
#
#
# Elastic Constant Matrix: (Units=GPa)
#
#
# Indices 1 2 3 4 5 6 
#
# 1 121.4495 47.0739 20.2124 0.0000 15.8335 0.0000
# 2 47.0739 151.6047 35.6333 0.0000 2.1433 0.0000
# 3 20.2124 35.6333 57.0280 0.0000 3.3774 0.0000
# 4 0.0000 0.0000 0.0000 32.0091 0.0000 6.5273
# 5 15.8335 2.1433 3.3774 0.0000 34.8229 0.0000
# 6 0.0000 0.0000 0.0000 6.5273 0.0000 32.2250
#
#
#
# Elastic Compliance Matrix: (Units=1/GPa)
#
#
# Indices 1 2 3 4 5 6 
#
# 1 0.010108 -0.002691 -0.001648 0.000000 -0.004270 0.000000
# 2 -0.002691 0.008448 -0.004392 0.000000 0.001129 0.000000
# 3 -0.001648 -0.004392 0.020923 0.000000 -0.001010 0.000000
# 4 0.000000 0.000000 0.000000 0.032587 0.000000 -0.006601
# 5 -0.004270 0.001129 -0.001010 0.000000 0.030687 0.000000
# 6 0.000000 0.000000 0.000000 -0.006601 0.000000 0.032369
#
#
# Mechanical properties :
#
#
# Convention : Reuss Voigt Hill
#
# Bulk Modulus (GPa) = 45.41853 59.54683 52.48268
# Shear Modulus (GPa) = 31.26510 34.95556 33.11033
#
# Velocity S-wave (km/s) = 3.51446 3.71610 3.61669
# Velocity P-wave (km/s) = 5.86612 6.47586 6.17852
#
# Compressibility (1/GPa) = 0.02201745
#
# Stress axis : x y z
#
# Youngs Moduli (GPa) = 98.93283 118.37308 47.79342
#
# Poissons Ratio (x) = 0.31851 0.07878
# Poissons Ratio (y) = 0.26620 0.20990
# Poissons Ratio (z) = 0.16307 0.51987
#
# Static dielectric constant tensor:
#      x y z
#    x 2.009280 0.000000 -0.017500 
#    y 0.000000 1.999470 0.000000 
#    z -0.017500 0.000000 1.981490 
# 
# From -- ./inp_files/4800.got.cif
#   From: 2010.05.17/outbox.cif.g08.bks.cpg/sg4_3_cif.got.tgz:4800.got - 2010.06.03 18:43:04.
