data_PCOD9114425
_publ_section_title
;
Structure prediction by ZEFSAII (Michael W. Deem and Ramdas Pophale) SiO2 
 PCOD9114425
Probable space group: P 2
;
_chemical_formula_sum "Si O2"
_cell_formula_units_Z 13
_cell_length_a 15.000000
_cell_length_b 9.000000
_cell_length_c 15.000000
_cell_angle_alpha 90.000000
_cell_angle_beta 20.000000
_cell_angle_gamma 90.000000
_cell_volume 692.590790
_symmetry_space_group_name_H-M "P 2"
_symmetry_group_IT_number 3
_symmetry_cell_setting 'monoclinic'
loop_
_space_group_symop_operation_xyz
x,y,z
-x,y,-z
loop_
_atom_site_type_symbol
_atom_site_label
_atom_site_fract_x
_atom_site_fract_y
_atom_site_fract_z
Si Si1 0.090412 0.888690 0.046481
Si Si2 0.797975 0.841918 0.846178
Si Si3 0.301497 0.648945 0.360019
Si Si4 0.500000 0.395448 0.500000
Si Si5 0.287125 0.356749 0.269216
Si Si6 0.500000 0.067415 0.000000
Si Si7 0.590562 0.686955 0.534994
Si Si8 0.000000 0.169746 0.000000
O O1 0.333605 0.792851 0.778361
O O2 0.055737 0.050241 0.029689
O O3 0.138984 0.897730 0.109980
O O4 0.831630 0.787696 0.272713
O O5 0.045599 0.747333 0.579150
O O6 0.552944 0.730145 0.082887
O O7 0.705143 0.968877 0.863653
O O8 0.285669 0.475841 0.349165
O O9 0.335996 0.657289 0.432678
O O10 0.549496 0.522552 0.530452
O O11 0.249914 0.282789 0.749583
O O12 0.371664 0.182859 0.192742
O O13 0.000000 0.357590 0.500000
O O14 0.500000 0.419546 0.000000
#
# Coordination Sequence:
#
# PCOD9114425 Si02
#       8
#     2   2   2   1   2   1   2   1
#     4  10  21  42  62  88 117 166 196 248 297 360
#     4  10  23  38  64  87 117 153 214 246 296 347
#     4  10  22  40  62  88 113 160 206 252 290 352
#     4  12  24  38  60 100 120 160 196 246 298 362
#     4  10  23  39  55  86 117 157 194 236 315 352
#     4  10  26  38  58  88 122 158 190 256 302 360
#     4  10  21  41  64  86 119 158 208 244 290 354
#     4  12  24  38  62  94 130 156 192 244 312 356
#
# _framework density 18.770102000000001
#
# number of rings (size 3 to 8) (size 9 to 14) (size 15 to 20)
#    0.462    1.231    0.000    3.692    5.385    1.231 
#    2.769    0.000    0.000    0.000    0.000    0.000 
#    0.000    0.000    0.000    0.000    0.000    0.000 
#
# Total GULP energy -72417.241799 kJ/mol
# GULP energy per Si atom -5570.557061 kJ/mol
# Density = 1.872738 g / cm^3
# Si number density = 18.770102 Si / 1000 Ang^3
#
#
#
# Elastic Constant Matrix: (Units=GPa)
#
#
# Indices 1 2 3 4 5 6 
#
# 1 87.0527 60.1156 27.9110 0.0000 -9.9038 0.0000
# 2 60.1156 168.2734 55.0076 0.0000 -11.3888 0.0000
# 3 27.9110 55.0076 145.0668 0.0000 -27.6215 0.0000
# 4 0.0000 0.0000 0.0000 58.2588 0.0000 -9.7915
# 5 -9.9038 -11.3888 -27.6215 0.0000 17.7623 0.0000
# 6 0.0000 0.0000 0.0000 -9.7915 0.0000 46.5900
#
#
#
# Elastic Compliance Matrix: (Units=1/GPa)
#
#
# Indices 1 2 3 4 5 6 
#
# 1 0.015730 -0.005252 -0.000009 0.000000 0.005390 0.000000
# 2 -0.005252 0.008540 -0.002476 0.000000 -0.001303 0.000000
# 3 -0.000009 -0.002476 0.010698 0.000000 0.015044 0.000000
# 4 0.000000 0.000000 0.000000 0.017793 0.000000 0.003739
# 5 0.005390 -0.001303 0.015044 0.000000 0.081863 0.000000
# 6 0.000000 0.000000 0.000000 0.003739 0.000000 0.022250
#
#
# Mechanical properties :
#
#
# Convention : Reuss Voigt Hill
#
# Bulk Modulus (GPa) = 51.29427 76.27347 63.78387
# Shear Modulus (GPa) = 27.95692 41.67948 34.81820
#
# Velocity S-wave (km/s) = 3.86351 4.71736 4.31162
# Velocity P-wave (km/s) = 6.87672 8.39018 7.67087
#
# Compressibility (1/GPa) = 0.01949535
#
# Stress axis : x y z
#
# Youngs Moduli (GPa) = 63.57255 117.09419 93.47199
#
# Poissons Ratio (x) = 0.61497 0.00082
# Poissons Ratio (y) = 0.33388 0.23143
# Poissons Ratio (z) = 0.00056 0.28991
#
# Static dielectric constant tensor:
#      x y z
#    x 1.695450 0.000000 0.021970 
#    y 0.000000 1.629350 0.000000 
#    z 0.021970 0.000000 1.687070 
# 
# From -- ./inp_files/13985.got.cif
#   From: 2010.05.17/outbox.ucp.g08.bks.cvg/sg3_7_cif.got.tgz:13985.got - 2010.06.11 12:50:29.
