data_PCOD9114572
_publ_section_title
;
Structure prediction by ZEFSAII (Michael W. Deem and Ramdas Pophale) SiO2 
 PCOD9114572
Probable space group: P 21
;
_chemical_formula_sum "Si O2"
_cell_formula_units_Z 16
_cell_length_a 7.457299
_cell_length_b 11.230906
_cell_length_c 7.943070
_cell_angle_alpha 90.000000
_cell_angle_beta 73.102897
_cell_angle_gamma 90.000000
_cell_volume 636.529802
_symmetry_space_group_name_H-M "P 21"
_symmetry_group_IT_number 4
_symmetry_cell_setting 'monoclinic'
loop_
_space_group_symop_operation_xyz
x,y,z
-x,1/2+y,-z
loop_
_atom_site_type_symbol
_atom_site_label
_atom_site_fract_x
_atom_site_fract_y
_atom_site_fract_z
Si Si1 0.661798 0.832470 0.876878
Si Si2 0.736948 0.276189 0.603242
Si Si3 0.885937 0.027838 0.649371
Si Si4 0.091220 0.180793 0.363975
Si Si5 0.733213 0.376472 0.953914
Si Si6 0.864229 0.588808 0.098135
Si Si7 0.327245 0.272126 0.607569
Si Si8 0.140410 0.439938 0.867147
O O1 0.742670 0.919977 0.710388
O O2 0.791610 0.715275 0.831700
O O3 0.443554 0.802484 0.932327
O O4 0.712253 0.909181 0.027575
O O5 0.549274 0.273761 0.548638
O O6 0.920851 0.275423 0.436635
O O7 0.768957 0.151778 0.695141
O O8 0.722854 0.372815 0.754566
O O9 0.035678 0.029240 0.761772
O O10 0.000256 0.056265 0.445763
O O11 0.239592 0.208519 0.471667
O O12 0.712451 0.501972 0.053657
O O13 0.953230 0.354721 0.931901
O O14 0.751500 0.697009 0.211017
O O15 0.046124 0.569334 0.922394
O O16 0.245629 0.402851 0.669397
#
# Coordination Sequence:
#
# PCOD9114572 Si02
#       8
#     2   2   2   2   2   2   2   2
#     4  11  19  35  57  81 109 143 186 228 274 324
#     4  10  19  34  60  80 108 150 184 220 281 337
#     4   8  18  37  55  75 112 151 180 213 293 334
#     4   9  21  34  54  81 110 145 186 228 260 341
#     4  10  18  32  56  87 105 137 190 231 267 325
#     4   8  17  31  54  80 106 143 182 223 267 331
#     4  11  17  36  56  78 111 152 179 221 281 329
#     4   9  19  31  54  82 109 137 183 232 269 321
#
# _framework density 25.136293999999999
#
# number of rings (size 3 to 8) (size 9 to 14) (size 15 to 20)
#    1.500    1.000    2.500    0.750    0.000    1.000 
#    0.000    2.500    0.000    0.000    0.000    0.000 
#    0.000    0.000    0.000    0.000    0.000    0.000 
#
# Total GULP energy -89098.877989 kJ/mol
# GULP energy per Si atom -5568.679874 kJ/mol
# Density = 2.507908 g / cm^3
# Si number density = 25.136294 Si / 1000 Ang^3
#
#
#
# Elastic Constant Matrix: (Units=GPa)
#
#
# Indices 1 2 3 4 5 6 
#
# 1 155.6373 21.0024 23.0132 0.0000 -24.2817 0.0000
# 2 21.0024 34.6849 3.5501 0.0000 0.9999 0.0000
# 3 23.0132 3.5501 39.4770 0.0000 -15.8092 0.0000
# 4 0.0000 0.0000 0.0000 35.8012 0.0000 1.5056
# 5 -24.2817 0.9999 -15.8092 0.0000 36.5997 0.0000
# 6 0.0000 0.0000 0.0000 1.5056 0.0000 33.9072
#
#
#
# Elastic Compliance Matrix: (Units=1/GPa)
#
#
# Indices 1 2 3 4 5 6 
#
# 1 0.008140 -0.004797 -0.002538 0.000000 0.004435 0.000000
# 2 -0.004797 0.032091 -0.002074 0.000000 -0.004955 0.000000
# 3 -0.002538 -0.002074 0.031856 0.000000 0.012133 0.000000
# 4 0.000000 0.000000 0.000000 0.027984 0.000000 -0.001243
# 5 0.004435 -0.004955 0.012133 0.000000 0.035641 0.000000
# 6 0.000000 0.000000 0.000000 -0.001243 0.000000 0.029547
#
#
# Mechanical properties :
#
#
# Convention : Reuss Voigt Hill
#
# Bulk Modulus (GPa) = 18.77234 36.10342 27.43788
# Shear Modulus (GPa) = 24.77304 33.41053 29.09179
#
# Velocity S-wave (km/s) = 3.14275 3.64974 3.40569
# Velocity P-wave (km/s) = 4.54462 5.67054 5.13851
#
# Compressibility (1/GPa) = 0.05326987
#
# Stress axis : x y z
#
# Youngs Moduli (GPa) = 122.85522 31.16173 31.39136
#
# Poissons Ratio (x) = 0.14948 0.07966
# Poissons Ratio (y) = 0.58932 0.06510
# Poissons Ratio (z) = 0.31175 0.06462
#
# Static dielectric constant tensor:
#      x y z
#    x 1.911430 0.000000 0.023790 
#    y 0.000000 2.055830 0.000000 
#    z 0.023790 0.000000 2.082560 
# 
# From -- ./inp_files/6617.got.cif
#   From: 2010.05.17/outbox.cif.g08.bks.cpg/sg4_4_cif.got.tgz:6617.got - 2010.06.03 18:43:04.
