data_PCOD9114999
_publ_section_title
;
Structure prediction by ZEFSAII (Michael W. Deem and Ramdas Pophale) SiO2 
 PCOD9114999
Probable space group: P 21
;
_chemical_formula_sum "Si O2"
_cell_formula_units_Z 16
_cell_length_a 8.311264
_cell_length_b 5.082894
_cell_length_c 17.668163
_cell_angle_alpha 90.000000
_cell_angle_beta 124.501123
_cell_angle_gamma 90.000000
_cell_volume 615.116522
_symmetry_space_group_name_H-M "P 21"
_symmetry_group_IT_number 4
_symmetry_cell_setting 'monoclinic'
loop_
_space_group_symop_operation_xyz
x,y,z
-x,1/2+y,-z
loop_
_atom_site_type_symbol
_atom_site_label
_atom_site_fract_x
_atom_site_fract_y
_atom_site_fract_z
Si Si1 0.376899 0.932010 0.955336
Si Si2 0.747610 0.696472 0.217310
Si Si3 0.699649 0.622394 0.453865
Si Si4 0.891354 0.329841 0.763875
Si Si5 0.651095 0.818760 0.668653
Si Si6 0.047236 0.872103 0.603323
Si Si7 0.403787 0.511161 0.708338
Si Si8 0.977610 0.686330 0.042962
O O1 0.313284 0.955614 0.851181
O O2 0.206280 0.047436 0.963545
O O3 0.447056 0.641810 0.992243
O O4 0.886030 0.593073 0.320989
O O5 0.568715 0.848607 0.208018
O O6 0.885871 0.867825 0.200909
O O7 0.874710 0.465688 0.458191
O O8 0.602938 0.812091 0.364839
O O9 0.820326 0.801188 0.543632
O O10 0.530293 0.418852 0.430778
O O11 0.806371 0.048737 0.717446
O O12 0.767502 0.550929 0.688489
O O13 0.890478 0.315236 0.854763
O O14 0.542652 0.748388 0.720231
O O15 0.188187 0.630494 0.659377
O O16 0.070894 0.437112 0.023247
#
# Coordination Sequence:
#
# PCOD9114999 Si02
#       8
#     2   2   2   2   2   2   2   2
#     4  11  26  47  70 103 146 175 227 303 348 404
#     4  10  26  42  70 102 136 189 229 273 360 417
#     4  10  19  38  66 101 137 172 227 290 336 386
#     4  11  25  45  68  95 144 180 225 287 344 414
#     4  11  23  41  67  99 134 178 225 287 337 395
#     4  10  20  37  68 100 137 177 230 281 337 411
#     4  10  21  40  67 100 132 171 236 276 338 399
#     4  11  24  46  70 100 134 190 233 273 354 430
#
# _framework density 26.011330000000001
#
# number of rings (size 3 to 8) (size 9 to 14) (size 15 to 20)
#    0.000    1.500    2.500    1.500    3.500    5.000 
#    4.500    0.000    5.500    0.000    0.000    0.000 
#    0.000    0.000    0.000    0.000    0.000    0.000 
#
# Total GULP energy -89502.595319 kJ/mol
# GULP energy per Si atom -5593.912207 kJ/mol
# Density = 2.595213 g / cm^3
# Si number density = 26.011330 Si / 1000 Ang^3
#
#
#
# Elastic Constant Matrix: (Units=GPa)
#
#
# Indices 1 2 3 4 5 6 
#
# 1 77.1748 20.3510 13.8475 0.0000 6.2252 0.0000
# 2 20.3510 124.8644 5.2896 0.0000 4.1254 0.0000
# 3 13.8475 5.2896 37.0172 0.0000 -3.6812 0.0000
# 4 0.0000 0.0000 0.0000 35.0012 0.0000 18.4948
# 5 6.2252 4.1254 -3.6812 0.0000 25.5339 0.0000
# 6 0.0000 0.0000 0.0000 18.4948 0.0000 31.4361
#
#
#
# Elastic Compliance Matrix: (Units=1/GPa)
#
#
# Indices 1 2 3 4 5 6 
#
# 1 0.014845 -0.002044 -0.005670 0.000000 -0.004106 0.000000
# 2 -0.002044 0.008395 -0.000528 0.000000 -0.000934 0.000000
# 3 -0.005670 -0.000528 0.029784 0.000000 0.005761 0.000000
# 4 0.000000 0.000000 0.000000 0.041459 0.000000 -0.024392
# 5 -0.004106 -0.000934 0.005761 0.000000 0.041146 0.000000
# 6 0.000000 0.000000 0.000000 -0.024392 0.000000 0.046161
#
#
# Mechanical properties :
#
#
# Convention : Reuss Voigt Hill
#
# Bulk Modulus (GPa) = 27.36633 35.33695 31.35164
# Shear Modulus (GPa) = 23.75827 31.69879 27.72853
#
# Velocity S-wave (km/s) = 3.02550 3.49471 3.26853
# Velocity P-wave (km/s) = 4.76955 5.46797 5.13066
#
# Compressibility (1/GPa) = 0.03654126
#
# Stress axis : x y z
#
# Youngs Moduli (GPa) = 67.36248 119.11838 33.57528
#
# Poissons Ratio (x) = 0.24344 0.19036
# Poissons Ratio (y) = 0.13767 0.01773
# Poissons Ratio (z) = 0.38192 0.06290
#
# Static dielectric constant tensor:
#      x y z
#    x 2.076070 0.000000 -0.049730 
#    y 0.000000 2.031540 0.000000 
#    z -0.049730 0.000000 2.171790 
# 
# From -- ./inp_files/14852.got.cif
#   From: 2010.05.17/outbox.cif.g08.bks.cpg/sg4_8_cif.got.tgz:14852.got - 2010.06.03 18:43:04.
