data_PCOD9114385
_publ_section_title
;
Structure prediction by ZEFSAII (Michael W. Deem and Ramdas Pophale) SiO2 
 PCOD9114385
Probable space group: P 2
;
_chemical_formula_sum "Si O2"
_cell_formula_units_Z 10
_cell_length_a 15.750874
_cell_length_b 5.315096
_cell_length_c 10.261647
_cell_angle_alpha 90.000000
_cell_angle_beta 151.951672
_cell_angle_gamma 90.000000
_cell_volume 403.952574
_symmetry_space_group_name_H-M "P 2"
_symmetry_group_IT_number 3
_symmetry_cell_setting 'monoclinic'
loop_
_space_group_symop_operation_xyz
x,y,z
-x,y,-z
loop_
_atom_site_type_symbol
_atom_site_label
_atom_site_fract_x
_atom_site_fract_y
_atom_site_fract_z
Si Si1 0.836805 0.960930 0.487423
Si Si2 0.500000 0.326743 0.500000
Si Si3 0.827676 0.717083 0.976924
Si Si4 0.000000 0.326740 0.500000
Si Si5 0.663193 0.960931 0.512575
Si Si6 0.672325 0.717080 0.023076
O O1 0.749998 0.070648 0.499997
O O2 0.696485 0.863336 0.190317
O O3 0.952452 0.160234 0.561566
O O4 0.960687 0.724542 0.703158
O O5 0.682745 0.490099 0.770359
O O6 0.547545 0.160236 0.438431
O O7 0.803514 0.863340 0.809682
O O8 0.750001 0.854327 0.000002
O O9 0.817255 0.490096 0.229640
O O10 0.539312 0.724541 0.296843
#
# Coordination Sequence:
#
# PCOD9114385 Si02
#       6
#     2   1   2   1   2   2
#     4  12  28  50  75 111 152 192 248 310 366 438
#     4  12  26  48  84 104 150 200 250 296 378 438
#     4  12  24  49  77 106 150 196 243 304 371 435
#     4  12  26  48  84 104 150 200 250 296 378 438
#     4  12  28  50  75 111 152 192 248 310 366 438
#     4  12  24  49  77 106 150 196 243 304 371 435
#
# _framework density 24.755381
#
# number of rings (size 3 to 8) (size 9 to 14) (size 15 to 20)
#    0.000    0.000    8.000    1.200    5.600    1.600 
#    7.200    0.000    0.000    0.000    0.000    0.000 
#    0.000    0.000    0.000    0.000    0.000    0.000 
#
# Total GULP energy -55763.556295 kJ/mol
# GULP energy per Si atom -5576.355630 kJ/mol
# Density = 2.469904 g / cm^3
# Si number density = 24.755381 Si / 1000 Ang^3
#
#
#
# Elastic Constant Matrix: (Units=GPa)
#
#
# Indices 1 2 3 4 5 6 
#
# 1 226.9945 60.3414 40.6343 0.0000 -37.9241 0.0000
# 2 60.3414 83.4466 42.1940 0.0000 -0.9393 0.0000
# 3 40.6343 42.1940 158.8612 0.0000 -26.3060 0.0000
# 4 0.0000 0.0000 0.0000 4661.8471 0.0000 1638.6311
# 5 -37.9241 -0.9393 -26.3060 0.0000 46.7097 0.0000
# 6 0.0000 0.0000 0.0000 1638.6311 0.0000 608.6876
#
#
#
# Elastic Compliance Matrix: (Units=1/GPa)
#
#
# Indices 1 2 3 4 5 6 
#
# 1 0.006546 -0.004953 0.000557 0.000000 0.005529 0.000000
# 2 -0.004953 0.017757 -0.004474 0.000000 -0.006183 0.000000
# 3 0.000557 -0.004474 0.008162 0.000000 0.004958 0.000000
# 4 0.000000 0.000000 0.000000 0.003991 0.000000 -0.010745
# 5 0.005529 -0.006183 0.004958 0.000000 0.028566 0.000000
# 6 0.000000 0.000000 0.000000 -0.010745 0.000000 0.030570
#
#
# Mechanical properties :
#
#
# Convention : Reuss Voigt Hill
#
# Bulk Modulus (GPa) = 67.90782 83.96020 75.93401
# Shear Modulus (GPa) = 42.28675 1085.19106 563.73890
#
# Velocity S-wave (km/s) = 4.13750 20.95990 15.10689
# Velocity P-wave (km/s) = 7.09340 24.89470 18.30386
#
# Compressibility (1/GPa) = 0.01472584
#
# Stress axis : x y z
#
# Youngs Moduli (GPa) = 152.76524 56.31433 122.52356
#
# Poissons Ratio (x) = 0.27891 -0.06819
# Poissons Ratio (y) = 0.75660 0.54811
# Poissons Ratio (z) = -0.08502 0.25192
#
# Static dielectric constant tensor:
#      x y z
#    x 1.778780 0.000000 0.081060 
#    y 0.000000 2.004890 0.000000 
#    z 0.081060 0.000000 2.001670 
# 
# From -- ./inp_files/2730.got.cif
#   From: 2010.05.17/outbox.cif.g08.bks.cpg/sg3_2_cif.got.tgz:2730.got - 2010.06.03 18:33:08.
