data_PCOD9114532
_publ_section_title
;
Structure prediction by ZEFSAII (Michael W. Deem and Ramdas Pophale) SiO2 
 PCOD9114532
Probable space group: P 21
;
_chemical_formula_sum "Si O2"
_cell_formula_units_Z 16
_cell_length_a 27.099360
_cell_length_b 5.040928
_cell_length_c 18.067946
_cell_angle_alpha 90.000000
_cell_angle_beta 157.099711
_cell_angle_gamma 90.000000
_cell_volume 960.442701
_symmetry_space_group_name_H-M "P 21"
_symmetry_group_IT_number 4
_symmetry_cell_setting 'monoclinic'
loop_
_space_group_symop_operation_xyz
x,y,z
-x,1/2+y,-z
loop_
_atom_site_type_symbol
_atom_site_label
_atom_site_fract_x
_atom_site_fract_y
_atom_site_fract_z
Si Si1 0.011996 0.755070 0.678232
Si Si2 0.040171 0.294996 0.222263
Si Si3 0.076748 0.684157 0.084094
Si Si4 0.439939 0.663755 0.823831
Si Si5 0.602665 0.164673 0.063450
Si Si6 0.090791 0.275243 0.704615
Si Si7 0.168900 0.996527 0.681024
Si Si8 0.200505 0.796209 0.397808
O O1 0.108951 0.539617 0.777505
O O2 0.878013 0.672247 0.453887
O O3 0.997273 0.744644 0.745349
O O4 0.055714 0.041710 0.712310
O O5 0.100925 0.584438 0.294891
O O6 0.925322 0.250007 0.005442
O O7 0.147678 0.084669 0.345804
O O8 0.192587 0.749872 0.298397
O O9 0.033342 0.381729 0.036515
O O10 0.488500 0.363994 0.884202
O O11 0.335695 0.741090 0.620232
O O12 0.559004 0.866560 0.985642
O O13 0.382431 0.690749 0.827133
O O14 0.724572 0.288022 0.192838
O O15 0.960033 0.333721 0.478952
O O16 0.191829 0.179411 0.784057
#
# Coordination Sequence:
#
# PCOD9114532 Si02
#       8
#     2   2   2   2   2   2   2   2
#     4  10  19  28  44  69  92 116 152 188 225 296
#     4  10  18  28  47  69  91 123 152 184 238 284
#     4   8  16  28  43  66  87 118 152 185 225 281
#     4  10  21  34  41  71  87 127 166 199 212 268
#     4  10  22  31  48  60  96 120 167 198 227 253
#     4  10  20  31  46  68  90 119 159 188 236 295
#     4  10  20  33  48  64  92 129 151 195 238 273
#     4  10  18  31  47  61  95 124 157 191 227 272
#
# _framework density 16.658985999999999
#
# number of rings (size 3 to 8) (size 9 to 14) (size 15 to 20)
#    0.750    1.500    1.250    2.250    3.500    1.000 
#    0.000    0.000    0.000    0.000    0.000    0.000 
#    0.000    4.000    0.000    0.125    0.000    0.000 
#
# Total GULP energy -89141.913960 kJ/mol
# GULP energy per Si atom -5571.369623 kJ/mol
# Density = 1.662107 g / cm^3
# Si number density = 16.658986 Si / 1000 Ang^3
#
#
#
# Elastic Constant Matrix: (Units=GPa)
#
#
# Indices 1 2 3 4 5 6 
#
# 1 72.5710 -0.5075 15.8607 0.0000 -20.0793 0.0000
# 2 -0.5075 66.5410 -10.1469 0.0000 -2.6353 0.0000
# 3 15.8607 -10.1469 48.4628 0.0000 -22.9930 0.0000
# 4 0.0000 0.0000 0.0000 13.5443 0.0000 -1.5252
# 5 -20.0793 -2.6353 -22.9930 0.0000 28.3900 0.0000
# 6 0.0000 0.0000 0.0000 -1.5252 0.0000 22.3691
#
#
#
# Elastic Compliance Matrix: (Units=1/GPa)
#
#
# Indices 1 2 3 4 5 6 
#
# 1 0.017165 0.000711 0.000524 0.000000 0.012630 0.000000
# 2 0.000711 0.016358 0.006742 0.000000 0.007481 0.000000
# 3 0.000524 0.006742 0.036293 0.000000 0.030390 0.000000
# 4 0.000000 0.000000 0.000000 0.074403 0.000000 0.005073
# 5 0.012630 0.007481 0.030390 0.000000 0.069463 0.000000
# 6 0.000000 0.000000 0.000000 0.005073 0.000000 0.045050
#
#
# Mechanical properties :
#
#
# Convention : Reuss Voigt Hill
#
# Bulk Modulus (GPa) = 11.65931 21.99860 16.82895
# Shear Modulus (GPa) = 18.42506 25.01858 21.72182
#
# Velocity S-wave (km/s) = 3.32929 3.87952 3.61489
# Velocity P-wave (km/s) = 4.66828 5.77074 5.24854
#
# Compressibility (1/GPa) = 0.08576840
#
# Stress axis : x y z
#
# Youngs Moduli (GPa) = 58.25917 61.13170 27.55359
#
# Poissons Ratio (x) = -0.04346 -0.01442
# Poissons Ratio (y) = -0.04142 -0.18576
# Poissons Ratio (z) = -0.03050 -0.41214
#
# Static dielectric constant tensor:
#      x y z
#    x 1.574940 0.000000 -0.015350 
#    y 0.000000 1.602380 0.000000 
#    z -0.015350 0.000000 1.569980 
# 
# From -- ./inp_files/15425.got.cif
#   From: 2010.05.17/outbox.cif.g08.bks.cpg/sg4_8_cif.got.tgz:15425.got - 2010.06.03 18:43:04.
