data_PCOD9114788
_publ_section_title
;
Structure prediction by ZEFSAII (Michael W. Deem and Ramdas Pophale) SiO2 
 PCOD9114788
Probable space group: P 21
;
_chemical_formula_sum "Si O2"
_cell_formula_units_Z 16
_cell_length_a 10.309030
_cell_length_b 9.180578
_cell_length_c 7.918171
_cell_angle_alpha 90.000000
_cell_angle_beta 63.102523
_cell_angle_gamma 90.000000
_cell_volume 668.326484
_symmetry_space_group_name_H-M "P 21"
_symmetry_group_IT_number 4
_symmetry_cell_setting 'monoclinic'
loop_
_space_group_symop_operation_xyz
x,y,z
-x,1/2+y,-z
loop_
_atom_site_type_symbol
_atom_site_label
_atom_site_fract_x
_atom_site_fract_y
_atom_site_fract_z
Si Si1 0.873751 0.922410 0.923717
Si Si2 0.396768 0.125237 0.402693
Si Si3 0.769597 0.378812 0.921322
Si Si4 0.014566 0.097166 0.128191
Si Si5 0.274354 0.642907 0.784743
Si Si6 0.444011 0.067404 0.729674
Si Si7 0.524525 0.349101 0.852283
Si Si8 0.702279 0.891816 0.710460
O O1 0.902777 0.750714 0.929669
O O2 0.837704 0.943432 0.745716
O O3 0.735434 0.988667 0.109367
O O4 0.996103 0.015679 0.954911
O O5 0.560592 0.189102 0.339002
O O6 0.366309 0.046956 0.596587
O O7 0.283137 0.245689 0.409628
O O8 0.427691 0.005937 0.243189
O O9 0.797335 0.260002 0.047621
O O10 0.657403 0.494352 0.070498
O O11 0.907443 0.477784 0.800964
O O12 0.680166 0.293385 0.832674
O O13 0.848621 0.127196 0.284509
O O14 0.464737 0.237019 0.752415
O O15 0.604565 0.997960 0.652551
O O16 0.413098 0.346741 0.073849
#
# Coordination Sequence:
#
# PCOD9114788 Si02
#       8
#     2   2   2   2   2   2   2   2
#     4  10  19  33  59  89 115 147 195 253 283 336
#     4  12  22  37  55  89 126 151 187 242 310 359
#     4  11  21  37  60  86 117 151 206 243 283 353
#     4  10  19  35  57  95 109 153 201 250 285 329
#     4  10  19  35  57  81 118 152 187 245 284 346
#     4  11  24  35  58  88 123 156 183 247 310 352
#     4  11  20  34  58  87 112 153 195 242 286 342
#     4  11  20  38  58  85 118 153 200 242 291 347
#
# _framework density 23.940396
#
# number of rings (size 3 to 8) (size 9 to 14) (size 15 to 20)
#    0.750    0.500    5.000    4.500    0.000    0.000 
#    0.000    0.000    0.000    4.500    0.000    0.000 
#    0.000    0.000    0.000    0.000    0.000    0.000 
#
# Total GULP energy -89154.244067 kJ/mol
# GULP energy per Si atom -5572.140254 kJ/mol
# Density = 2.388591 g / cm^3
# Si number density = 23.940396 Si / 1000 Ang^3
#
#
#
# Elastic Constant Matrix: (Units=GPa)
#
#
# Indices 1 2 3 4 5 6 
#
# 1 60.1284 -4.0965 3.9798 0.0000 9.3423 0.0000
# 2 -4.0965 93.2374 1.2684 0.0000 -0.7896 0.0000
# 3 3.9798 1.2684 51.7087 0.0000 21.0515 0.0000
# 4 0.0000 0.0000 0.0000 16.6470 0.0000 19.5655
# 5 9.3423 -0.7896 21.0515 0.0000 21.9893 0.0000
# 6 0.0000 0.0000 0.0000 19.5655 0.0000 36.8970
#
#
#
# Elastic Compliance Matrix: (Units=1/GPa)
#
#
# Indices 1 2 3 4 5 6 
#
# 1 0.018099 0.000669 0.002804 0.000000 -0.010350 0.000000
# 2 0.000669 0.010768 -0.000586 0.000000 0.000663 0.000000
# 3 0.002804 -0.000586 0.032169 0.000000 -0.032010 0.000000
# 4 0.000000 0.000000 0.000000 0.159441 0.000000 -0.084547
# 5 -0.010350 0.000663 -0.032010 0.000000 0.080542 0.000000
# 6 0.000000 0.000000 0.000000 -0.084547 0.000000 0.071936
#
#
# Mechanical properties :
#
#
# Convention : Reuss Voigt Hill
#
# Bulk Modulus (GPa) = 14.96706 23.04198 19.00452
# Shear Modulus (GPa) = 12.83860 28.70153 20.77007
#
# Velocity S-wave (km/s) = 2.31827 3.46623 2.94866
# Velocity P-wave (km/s) = 3.66486 5.06609 4.42134
#
# Compressibility (1/GPa) = 0.06681338
#
# Stress axis : x y z
#
# Youngs Moduli (GPa) = 55.25102 92.86516 31.08546
#
# Poissons Ratio (x) = -0.06216 -0.08717
# Poissons Ratio (y) = -0.03699 0.01820
# Poissons Ratio (z) = -0.15494 0.05437
#
# Static dielectric constant tensor:
#      x y z
#    x 2.073620 0.000000 0.018850 
#    y 0.000000 1.914420 0.000000 
#    z 0.018850 0.000000 1.916250 
# 
# From -- ./inp_files/7843.got.cif
#   From: 2010.05.17/outbox.cif.g08.bks.cpg/sg4_4_cif.got.tgz:7843.got - 2010.06.03 18:43:04.
