data_PCOD9114237
_publ_section_title
;
Structure prediction by ZEFSAII (Michael W. Deem and Ramdas Pophale) SiO2 
 PCOD9114237
Probable space group: P 2
;
_chemical_formula_sum "Si O2"
_cell_formula_units_Z 14
_cell_length_a 5.172847
_cell_length_b 16.087333
_cell_length_c 9.451638
_cell_angle_alpha 90.000000
_cell_angle_beta 56.818270
_cell_angle_gamma 90.000000
_cell_volume 658.285827
_symmetry_space_group_name_H-M "P 2"
_symmetry_group_IT_number 3
_symmetry_cell_setting 'monoclinic'
loop_
_space_group_symop_operation_xyz
x,y,z
-x,y,-z
loop_
_atom_site_type_symbol
_atom_site_label
_atom_site_fract_x
_atom_site_fract_y
_atom_site_fract_z
Si Si1 0.051705 0.228490 0.316927
Si Si2 0.852974 0.384792 0.886611
Si Si3 0.030587 0.571569 0.160422
Si Si4 0.314442 0.142000 0.816927
Si Si5 0.373805 0.985697 0.386610
Si Si6 0.351430 0.798919 0.339577
Si Si7 0.500000 0.647994 0.500000
Si Si8 0.500000 0.722494 0.000000
O O1 0.999327 0.319865 0.266145
O O2 0.410092 0.198414 0.201442
O O3 0.000000 0.225764 0.500000
O O4 0.812975 0.172075 0.298559
O O5 0.849716 0.480406 0.833926
O O6 0.500000 0.359632 0.000000
O O7 0.000000 0.379106 0.000000
O O8 0.754046 0.590085 0.351217
O O9 0.000000 0.562377 0.000000
O O10 0.225139 0.656475 0.106288
O O11 0.468384 0.050625 0.766145
O O12 0.000000 0.144726 0.000000
O O13 0.500000 0.010857 0.500000
O O14 0.482431 0.890083 0.333925
O O15 0.000000 0.991383 0.500000
O O16 0.437721 0.714014 0.393709
O O17 0.000000 0.808110 0.500000
O O18 0.456476 0.780403 0.148783
#
# Coordination Sequence:
#
# PCOD9114237 Si02
#       8
#     2   2   2   2   2   2   1   1
#     4  12  25  46  73 102 137 181 227 279 345 416
#     4  11  24  46  71 101 140 180 227 286 345 404
#     4  11  24  42  69  99 138 182 231 290 345 406
#     4  12  25  46  73 102 137 181 227 279 345 416
#     4  11  24  46  71 101 140 180 227 286 345 404
#     4  11  24  42  69  99 138 182 231 290 345 406
#     4  12  22  44  68  98 134 184 234 284 346 414
#     4  12  22  44  68  98 134 184 234 284 346 414
#
# _framework density 21.267358000000002
#
# number of rings (size 3 to 8) (size 9 to 14) (size 15 to 20)
#    0.000    0.571    4.286    5.143    0.000    0.000 
#   20.571    0.000    0.000    0.000    0.000    0.000 
#    0.000    0.000    0.000    0.000    0.000    0.000 
#
# Total GULP energy -78012.017211 kJ/mol
# GULP energy per Si atom -5572.286944 kJ/mol
# Density = 2.121895 g / cm^3
# Si number density = 21.267358 Si / 1000 Ang^3
#
#
#
# Elastic Constant Matrix: (Units=GPa)
#
#
# Indices 1 2 3 4 5 6 
#
# 1 79.0252 14.0781 23.8591 0.0000 -0.2072 0.0000
# 2 14.0781 130.2182 44.0379 0.0000 -0.4004 0.0000
# 3 23.8591 44.0379 154.1507 0.0000 -0.7972 0.0000
# 4 0.0000 0.0000 0.0000 44.8690 0.0000 0.0713
# 5 -0.2072 -0.4004 -0.7972 0.0000 35.3339 0.0000
# 6 0.0000 0.0000 0.0000 0.0713 0.0000 50.1131
#
#
#
# Elastic Compliance Matrix: (Units=1/GPa)
#
#
# Indices 1 2 3 4 5 6 
#
# 1 0.013354 -0.000824 -0.001831 0.000000 0.000028 0.000000
# 2 -0.000824 0.008552 -0.002315 0.000000 0.000040 0.000000
# 3 -0.001831 -0.002315 0.007433 0.000000 0.000131 0.000000
# 4 0.000000 0.000000 0.000000 0.022287 0.000000 -0.000032
# 5 0.000028 0.000040 0.000131 0.000000 0.028305 0.000000
# 6 0.000000 0.000000 0.000000 -0.000032 0.000000 0.019955
#
#
# Mechanical properties :
#
#
# Convention : Reuss Voigt Hill
#
# Bulk Modulus (GPa) = 51.55524 58.59379 55.07451
# Shear Modulus (GPa) = 42.99498 44.82446 43.90972
#
# Velocity S-wave (km/s) = 4.50114 4.59591 4.54878
# Velocity P-wave (km/s) = 7.16295 7.46820 7.31717
#
# Compressibility (1/GPa) = 0.01939667
#
# Stress axis : x y z
#
# Youngs Moduli (GPa) = 74.88386 116.93663 134.54070
#
# Poissons Ratio (x) = 0.09639 0.24638
# Poissons Ratio (y) = 0.06173 0.31149
# Poissons Ratio (z) = 0.13713 0.27074
#
# Static dielectric constant tensor:
#      x y z
#    x 1.870930 0.000000 0.004530 
#    y 0.000000 1.767790 0.000000 
#    z 0.004530 0.000000 1.532450 
# 
# From -- ./inp_files/4494.got.cif
#   From: 2010.05.17/outbox.cif.g08.bks.cpg/sg3_3_cif.got.tgz:4494.got - 2010.06.03 18:33:08.
