data_PCOD9114063
_publ_section_title
;
Structure prediction by ZEFSAII (Michael W. Deem and Ramdas Pophale) SiO2 
 PCOD9114063
Probable space group: P 2
;
_chemical_formula_sum "Si O2"
_cell_formula_units_Z 16
_cell_length_a 8.651705
_cell_length_b 5.159928
_cell_length_c 19.312989
_cell_angle_alpha 90.000000
_cell_angle_beta 51.221191
_cell_angle_gamma 90.000000
_cell_volume 672.124564
_symmetry_space_group_name_H-M "P 2"
_symmetry_group_IT_number 3
_symmetry_cell_setting 'monoclinic'
loop_
_space_group_symop_operation_xyz
x,y,z
-x,y,-z
loop_
_atom_site_type_symbol
_atom_site_label
_atom_site_fract_x
_atom_site_fract_y
_atom_site_fract_z
Si Si1 0.006386 0.653490 0.854770
Si Si2 0.823336 0.729879 0.475453
Si Si3 0.988389 0.140784 0.767617
Si Si4 0.283470 0.231364 0.565922
Si Si5 0.264702 0.753261 0.348456
Si Si6 0.402180 0.730329 0.959788
Si Si7 0.608027 0.372417 0.807502
Si Si8 0.367762 0.980846 0.819088
O O1 0.019926 0.365771 0.817430
O O2 0.188184 0.810459 0.840217
O O3 0.961805 0.854785 0.805438
O O4 0.820492 0.653865 0.958666
O O5 0.847771 0.465728 0.426660
O O6 0.736253 0.641695 0.573797
O O7 0.042177 0.861304 0.411056
O O8 0.696915 0.966854 0.482675
O O9 0.791391 0.189236 0.777097
O O10 0.185291 0.155346 0.665823
O O11 0.500000 0.355098 0.500000
O O12 0.297123 0.563047 0.275339
O O13 0.447869 0.943370 0.285037
O O14 0.540256 0.490260 0.899785
O O15 0.402893 0.884541 0.887961
O O16 0.500000 0.860001 0.000000
O O17 0.401282 0.283642 0.827571
#
# Coordination Sequence:
#
# PCOD9114063 Si02
#       8
#     2   2   2   2   2   2   2   2
#     4  12  29  48  75 111 153 199 245 315 383 453
#     4  11  25  45  71 104 143 191 251 305 361 442
#     4  12  27  49  77 107 156 197 257 305 382 453
#     4  12  27  44  73 107 149 193 244 305 372 444
#     4  10  25  43  72 102 143 192 250 306 371 439
#     4  11  24  48  74 109 143 199 254 305 375 458
#     4  11  24  46  78 108 147 200 258 309 371 462
#     4  11  27  45  76 106 155 190 251 316 386 444
#
# _framework density 23.805109000000002
#
# number of rings (size 3 to 8) (size 9 to 14) (size 15 to 20)
#    0.000    0.750    2.500    3.000   12.250    1.500 
#    0.000    0.000    0.000    0.000    0.000    0.000 
#    0.000    0.000    0.000    0.000    0.000    0.000 
#
# Total GULP energy -89208.631095 kJ/mol
# GULP energy per Si atom -5575.539443 kJ/mol
# Density = 2.375093 g / cm^3
# Si number density = 23.805109 Si / 1000 Ang^3
#
#
#
# Elastic Constant Matrix: (Units=GPa)
#
#
# Indices 1 2 3 4 5 6 
#
# 1 73.6486 -0.4845 14.9247 0.0000 -6.8769 0.0000
# 2 -0.4845 50.6839 3.2786 0.0000 4.4569 0.0000
# 3 14.9247 3.2786 159.2836 0.0000 -19.1414 0.0000
# 4 0.0000 0.0000 0.0000 18.8676 0.0000 -0.3528
# 5 -6.8769 4.4569 -19.1414 0.0000 25.5254 0.0000
# 6 0.0000 0.0000 0.0000 -0.3528 0.0000 27.3809
#
#
#
# Elastic Compliance Matrix: (Units=1/GPa)
#
#
# Indices 1 2 3 4 5 6 
#
# 1 0.014058 -0.000077 -0.000944 0.000000 0.003093 0.000000
# 2 -0.000077 0.020160 -0.000916 0.000000 -0.004228 0.000000
# 3 -0.000944 -0.000916 0.007005 0.000000 0.005159 0.000000
# 4 0.000000 0.000000 0.000000 0.053014 0.000000 0.000683
# 5 0.003093 -0.004228 0.005159 0.000000 0.044617 0.000000
# 6 0.000000 0.000000 0.000000 0.000683 0.000000 0.036531
#
#
# Mechanical properties :
#
#
# Convention : Reuss Voigt Hill
#
# Bulk Modulus (GPa) = 26.77323 35.45041 31.11182
# Shear Modulus (GPa) = 26.08148 32.08129 29.08138
#
# Velocity S-wave (km/s) = 3.31361 3.67504 3.49900
# Velocity P-wave (km/s) = 5.09032 5.73865 5.42418
#
# Compressibility (1/GPa) = 0.03735074
#
# Stress axis : x y z
#
# Youngs Moduli (GPa) = 71.13606 49.60225 142.74785
#
# Poissons Ratio (x) = 0.00380 0.13475
# Poissons Ratio (y) = 0.00544 0.13073
# Poissons Ratio (z) = 0.06715 0.04543
#
# Static dielectric constant tensor:
#      x y z
#    x 2.002450 0.000000 0.057240 
#    y 0.000000 2.049790 0.000000 
#    z 0.057240 0.000000 1.826250 
# 
# From -- ./inp_files/8282.got.cif
#   From: 2010.05.17/outbox.cif.g08.bks.cpg/sg3_5_cif.got.tgz:8282.got - 2010.06.03 18:33:08.
