data_PCOD9114867
_publ_section_title
;
Structure prediction by ZEFSAII (Michael W. Deem and Ramdas Pophale) SiO2 
 PCOD9114867
Probable space group: P 21
;
_chemical_formula_sum "Si O2"
_cell_formula_units_Z 14
_cell_length_a 7.562201
_cell_length_b 6.400126
_cell_length_c 14.365767
_cell_angle_alpha 90.000000
_cell_angle_beta 121.988505
_cell_angle_gamma 90.000000
_cell_volume 589.712693
_symmetry_space_group_name_H-M "P 21"
_symmetry_group_IT_number 4
_symmetry_cell_setting 'monoclinic'
loop_
_space_group_symop_operation_xyz
x,y,z
-x,1/2+y,-z
loop_
_atom_site_type_symbol
_atom_site_label
_atom_site_fract_x
_atom_site_fract_y
_atom_site_fract_z
Si Si1 0.490162 0.221530 0.371562
Si Si2 0.488744 0.026673 0.872180
Si Si3 0.198606 0.924100 0.412586
Si Si4 0.840832 0.204852 0.258373
Si Si5 0.528235 0.461134 0.818431
Si Si6 0.134689 0.545195 0.247805
Si Si7 0.785027 0.689584 0.028864
O O1 0.705551 0.311399 0.471209
O O2 0.351347 0.421891 0.304719
O O3 0.372971 0.081890 0.418265
O O4 0.504690 0.060759 0.290791
O O5 0.540161 0.217525 0.821994
O O6 0.333813 0.879584 0.769640
O O7 0.691217 0.907866 0.966993
O O8 0.361545 0.108222 0.926964
O O9 0.146542 0.732320 0.327332
O O10 0.996529 0.073410 0.367092
O O11 0.988585 0.343227 0.233717
O O12 0.677530 0.028474 0.178564
O O13 0.731795 0.545814 0.925850
O O14 0.017528 0.656026 0.129418
#
# Coordination Sequence:
#
# PCOD9114867 Si02
#       7
#     2   2   2   2   2   2   2
#     4  11  25  45  69  97 135 185 233 282 339 400
#     4  10  19  35  66 106 141 175 213 275 347 411
#     4  11  22  45  69  93 134 188 231 276 341 411
#     4   9  21  39  68 101 129 173 223 276 339 400
#     4  11  23  42  66 104 138 173 229 291 334 404
#     4  10  22  42  70  95 133 186 232 268 339 421
#     4  10  20  36  68 100 140 176 217 272 351 409
#
# _framework density 23.740373999999999
#
# number of rings (size 3 to 8) (size 9 to 14) (size 15 to 20)
#    0.000    1.714    2.857    1.714    2.000    3.429 
#    5.143    0.000    0.000    0.000    0.000    0.000 
#    0.000    0.000    0.000    0.000    0.000    0.000 
#
# Total GULP energy -78097.761543 kJ/mol
# GULP energy per Si atom -5578.411539 kJ/mol
# Density = 2.368634 g / cm^3
# Si number density = 23.740374 Si / 1000 Ang^3
#
#
#
# Elastic Constant Matrix: (Units=GPa)
#
#
# Indices 1 2 3 4 5 6 
#
# 1 54.7167 32.3864 44.9928 0.0000 11.4231 0.0000
# 2 32.3864 168.3880 94.6728 0.0000 6.9158 0.0000
# 3 44.9928 94.6728 206.5136 0.0000 29.0824 0.0000
# 4 0.0000 0.0000 0.0000 40.6467 0.0000 -17.3533
# 5 11.4231 6.9158 29.0824 0.0000 30.1784 0.0000
# 6 0.0000 0.0000 0.0000 -17.3533 0.0000 16.3834
#
#
#
# Elastic Compliance Matrix: (Units=1/GPa)
#
#
# Indices 1 2 3 4 5 6 
#
# 1 0.023502 -0.002478 -0.003253 0.000000 -0.005193 0.000000
# 2 -0.002478 0.008364 -0.003653 0.000000 0.002541 0.000000
# 3 -0.003253 -0.003653 0.008023 0.000000 -0.005663 0.000000
# 4 0.000000 0.000000 0.000000 0.044911 0.000000 0.047570
# 5 -0.005193 0.002541 -0.005663 0.000000 0.039977 0.000000
# 6 0.000000 0.000000 0.000000 0.047570 0.000000 0.111424
#
#
# Mechanical properties :
#
#
# Convention : Reuss Voigt Hill
#
# Bulk Modulus (GPa) = 47.34342 85.96915 66.65628
# Shear Modulus (GPa) = 19.08329 34.61279 26.84804
#
# Velocity S-wave (km/s) = 2.83827 3.82248 3.36654
# Velocity P-wave (km/s) = 5.54315 7.46811 6.57644
#
# Compressibility (1/GPa) = 0.02112226
#
# Stress axis : x y z
#
# Youngs Moduli (GPa) = 42.55017 119.55367 124.64183
#
# Poissons Ratio (x) = 0.29624 0.40546
# Poissons Ratio (y) = 0.10544 0.45526
# Poissons Ratio (z) = 0.13842 0.43667
#
# Static dielectric constant tensor:
#      x y z
#    x 2.002220 0.000000 -0.046110 
#    y 0.000000 1.916420 0.000000 
#    z -0.046110 0.000000 1.871860 
# 
# From -- ./inp_files/13617.got.cif
#   From: 2010.05.17/outbox.cif.g08.bks.cpg/sg4_7_cif.got.tgz:13617.got - 2010.06.03 18:43:04.
