data_PCOD9114956
_publ_section_title
;
Structure prediction by ZEFSAII (Michael W. Deem and Ramdas Pophale) SiO2 
 PCOD9114956
Probable space group: P 21
;
_chemical_formula_sum "Si O2"
_cell_formula_units_Z 14
_cell_length_a 5.899065
_cell_length_b 12.966623
_cell_length_c 7.917004
_cell_angle_alpha 90.000000
_cell_angle_beta 117.101730
_cell_angle_gamma 90.000000
_cell_volume 539.086003
_symmetry_space_group_name_H-M "P 21"
_symmetry_group_IT_number 4
_symmetry_cell_setting 'monoclinic'
loop_
_space_group_symop_operation_xyz
x,y,z
-x,1/2+y,-z
loop_
_atom_site_type_symbol
_atom_site_label
_atom_site_fract_x
_atom_site_fract_y
_atom_site_fract_z
Si Si1 0.157880 0.961540 0.794071
Si Si2 0.615865 0.023740 0.132038
Si Si3 0.411529 0.830984 0.464923
Si Si4 0.165998 0.618843 0.126305
Si Si5 0.114121 0.350648 0.584038
Si Si6 0.721764 0.691134 0.793152
Si Si7 0.342859 0.069328 0.533101
O O1 0.021821 0.872952 0.642572
O O2 0.215767 0.048527 0.670754
O O3 0.419424 0.941694 0.980052
O O4 0.978142 0.014435 0.868557
O O5 0.464934 0.102389 0.199850
O O6 0.706162 0.092500 0.007527
O O7 0.824871 0.958261 0.300795
O O8 0.603084 0.811640 0.370855
O O9 0.558653 0.788203 0.679945
O O10 0.112708 0.799052 0.383798
O O11 0.399494 0.955710 0.478531
O O12 0.949551 0.701856 0.003665
O O13 0.386313 0.625662 0.340868
O O14 0.814186 0.639567 0.648050
#
# Coordination Sequence:
#
# PCOD9114956 Si02
#       7
#     2   2   2   2   2   2   2
#     4   9  19  35  65  90 119 167 216 258 327 383
#     4  10  21  36  67  94 122 172 219 266 325 393
#     4  11  24  41  68  97 133 175 220 274 328 389
#     4  10  19  37  64  89 123 165 219 264 327 386
#     4  11  22  44  63  92 132 171 214 270 329 384
#     4  11  23  39  64  97 128 172 221 271 326 389
#     4  10  20  42  63  91 129 176 211 271 328 388
#
# _framework density 25.96988
#
# number of rings (size 3 to 8) (size 9 to 14) (size 15 to 20)
#    0.000    1.714    2.857    1.714    4.000    0.000 
#    0.000    7.143    9.429    0.000    0.000    0.000 
#    0.000    0.000    0.000    0.000    0.000    0.000 
#
# Total GULP energy -78190.712065 kJ/mol
# GULP energy per Si atom -5585.050862 kJ/mol
# Density = 2.591077 g / cm^3
# Si number density = 25.969880 Si / 1000 Ang^3
#
#
#
# Elastic Constant Matrix: (Units=GPa)
#
#
# Indices 1 2 3 4 5 6 
#
# 1 131.6537 21.2023 17.8399 0.0000 1.5397 0.0000
# 2 21.2023 64.0459 20.5928 0.0000 3.8903 0.0000
# 3 17.8399 20.5928 130.7640 0.0000 21.6992 0.0000
# 4 0.0000 0.0000 0.0000 43.4639 0.0000 4.9011
# 5 1.5397 3.8903 21.6992 0.0000 43.2925 0.0000
# 6 0.0000 0.0000 0.0000 4.9011 0.0000 24.9685
#
#
#
# Elastic Compliance Matrix: (Units=1/GPa)
#
#
# Indices 1 2 3 4 5 6 
#
# 1 0.008091 -0.002450 -0.000771 0.000000 0.000319 0.000000
# 2 -0.002450 0.017190 -0.002324 0.000000 -0.000293 0.000000
# 3 -0.000771 -0.002324 0.008812 0.000000 -0.004181 0.000000
# 4 0.000000 0.000000 0.000000 0.023528 0.000000 -0.004618
# 5 0.000319 -0.000293 -0.004181 0.000000 0.025209 0.000000
# 6 0.000000 0.000000 0.000000 -0.004618 0.000000 0.040957
#
#
# Mechanical properties :
#
#
# Convention : Reuss Voigt Hill
#
# Bulk Modulus (GPa) = 43.47284 49.52595 46.49940
# Shear Modulus (GPa) = 35.07648 40.13358 37.60503
#
# Velocity S-wave (km/s) = 3.67912 3.93541 3.80942
# Velocity P-wave (km/s) = 5.90118 6.30570 6.10679
#
# Compressibility (1/GPa) = 0.02300287
#
# Stress axis : x y z
#
# Youngs Moduli (GPa) = 123.59434 58.17347 113.47766
#
# Poissons Ratio (x) = 0.14253 0.08748
# Poissons Ratio (y) = 0.30281 0.26375
# Poissons Ratio (z) = 0.09528 0.13521
#
# Static dielectric constant tensor:
#      x y z
#    x 2.097040 0.000000 0.034430 
#    y 0.000000 2.042790 0.000000 
#    z 0.034430 0.000000 1.988870 
# 
# From -- ./inp_files/1498.got.cif
#   From: 2010.05.17/outbox.cif.g08.bks.cpg/sg4_1_cif.got.tgz:1498.got - 2010.06.03 18:43:04.
