data_PCOD9114965
_publ_section_title
;
Structure prediction by ZEFSAII (Michael W. Deem and Ramdas Pophale) SiO2 
 PCOD9114965
Probable space group: P 21
;
_chemical_formula_sum "Si O2"
_cell_formula_units_Z 16
_cell_length_a 17.933702
_cell_length_b 6.005427
_cell_length_c 8.325798
_cell_angle_alpha 90.000000
_cell_angle_beta 128.372030
_cell_angle_gamma 90.000000
_cell_volume 702.997667
_symmetry_space_group_name_H-M "P 21"
_symmetry_group_IT_number 4
_symmetry_cell_setting 'monoclinic'
loop_
_space_group_symop_operation_xyz
x,y,z
-x,1/2+y,-z
loop_
_atom_site_type_symbol
_atom_site_label
_atom_site_fract_x
_atom_site_fract_y
_atom_site_fract_z
Si Si1 0.088669 0.948910 0.286833
Si Si2 0.910963 0.661008 0.032751
Si Si3 0.144914 0.381930 0.764056
Si Si4 0.396288 0.676588 0.016724
Si Si5 0.957751 0.267509 0.324790
Si Si6 0.444981 0.507500 0.423908
Si Si7 0.390623 0.366134 0.697095
Si Si8 0.737290 0.541751 0.287925
O O1 0.018139 0.749429 0.147526
O O2 0.020220 0.127903 0.281565
O O3 0.177619 0.903794 0.517122
O O4 0.127578 0.062293 0.179707
O O5 0.846528 0.841411 0.034915
O O6 0.919314 0.475293 0.178730
O O7 0.035156 0.325625 0.562748
O O8 0.214047 0.238477 0.750727
O O9 0.134607 0.643268 0.731906
O O10 0.391097 0.544261 0.180157
O O11 0.503611 0.766223 0.150650
O O12 0.378479 0.534912 0.830815
O O13 0.329111 0.891348 0.911656
O O14 0.500144 0.757326 0.516190
O O15 0.386416 0.474700 0.512959
O O16 0.320767 0.163018 0.647195
#
# Coordination Sequence:
#
# PCOD9114965 Si02
#       8
#     2   2   2   2   2   2   2   2
#     4  10  23  40  65 100 132 183 237 301 367 446
#     4  11  20  40  68  92 135 183 232 293 375 452
#     4  10  22  38  63  98 130 177 232 295 359 446
#     4  11  23  46  77 107 151 207 252 321 393 467
#     4  10  19  37  67  88 126 174 225 275 364 439
#     4  10  24  44  83 116 147 199 272 321 388 485
#     4  11  23  46  77 108 150 207 253 317 395 470
#     4  11  26  45  70 107 151 188 263 315 379 461
#
# _framework density 22.759679999999999
#
# number of rings (size 3 to 8) (size 9 to 14) (size 15 to 20)
#    0.000    1.500    3.750    0.750    3.500    3.000 
#    4.500    0.000    0.000    0.000    0.000    0.000 
#    0.000    0.000    0.000    0.000    0.000    0.000 
#
# Total GULP energy -89194.964122 kJ/mol
# GULP energy per Si atom -5574.685258 kJ/mol
# Density = 2.270788 g / cm^3
# Si number density = 22.759680 Si / 1000 Ang^3
#
#
#
# Elastic Constant Matrix: (Units=GPa)
#
#
# Indices 1 2 3 4 5 6 
#
# 1 99.0312 35.7450 56.3155 0.0000 -18.9164 0.0000
# 2 35.7450 78.1279 45.3958 0.0000 -10.4350 0.0000
# 3 56.3155 45.3958 95.4319 0.0000 -34.2839 0.0000
# 4 0.0000 0.0000 0.0000 36.7543 0.0000 -4.0948
# 5 -18.9164 -10.4350 -34.2839 0.0000 46.5312 0.0000
# 6 0.0000 0.0000 0.0000 -4.0948 0.0000 38.7343
#
#
#
# Elastic Compliance Matrix: (Units=1/GPa)
#
#
# Indices 1 2 3 4 5 6 
#
# 1 0.015534 -0.002443 -0.008069 0.000000 -0.000178 0.000000
# 2 -0.002443 0.018394 -0.008409 0.000000 -0.003064 0.000000
# 3 -0.008069 -0.008409 0.023642 0.000000 0.012254 0.000000
# 4 0.000000 0.000000 0.000000 0.027532 0.000000 0.002911
# 5 -0.000178 -0.003064 0.012254 0.000000 0.029760 0.000000
# 6 0.000000 0.000000 0.000000 0.002911 0.000000 0.026125
#
#
# Mechanical properties :
#
#
# Convention : Reuss Voigt Hill
#
# Bulk Modulus (GPa) = 50.68545 60.83374 55.75959
# Shear Modulus (GPa) = 26.96822 33.41294 30.19058
#
# Velocity S-wave (km/s) = 3.44599 3.83570 3.64606
# Velocity P-wave (km/s) = 6.17667 6.81202 6.50211
#
# Compressibility (1/GPa) = 0.01972953
#
# Stress axis : x y z
#
# Youngs Moduli (GPa) = 64.37546 54.36604 42.29714
#
# Poissons Ratio (x) = 0.13279 0.34128
# Poissons Ratio (y) = 0.15724 0.35568
# Poissons Ratio (z) = 0.51943 0.45716
#
# Static dielectric constant tensor:
#      x y z
#    x 1.845290 0.000000 -0.006530 
#    y 0.000000 2.005740 0.000000 
#    z -0.006530 0.000000 1.815300 
# 
# From -- ./inp_files/9860.got.cif
#   From: 2010.05.17/outbox.cif.g08.bks.cpg/sg4_5_cif.got.tgz:9860.got - 2010.06.03 18:43:04.
