data_PCOD9114825
_publ_section_title
;
Structure prediction by ZEFSAII (Michael W. Deem and Ramdas Pophale) SiO2 
 PCOD9114825
Probable space group: P 21
;
_chemical_formula_sum "Si O2"
_cell_formula_units_Z 16
_cell_length_a 7.746106
_cell_length_b 11.745362
_cell_length_c 14.752006
_cell_angle_alpha 90.000000
_cell_angle_beta 146.961276
_cell_angle_gamma 90.000000
_cell_volume 731.747654
_symmetry_space_group_name_H-M "P 21"
_symmetry_group_IT_number 4
_symmetry_cell_setting 'monoclinic'
loop_
_space_group_symop_operation_xyz
x,y,z
-x,1/2+y,-z
loop_
_atom_site_type_symbol
_atom_site_label
_atom_site_fract_x
_atom_site_fract_y
_atom_site_fract_z
Si Si1 0.509584 0.647440 0.258829
Si Si2 0.278082 0.247455 0.485274
Si Si3 0.325126 0.870538 0.822107
Si Si4 0.224015 0.049759 0.333881
Si Si5 0.249209 0.835764 0.443524
Si Si6 0.933092 0.083141 0.602181
Si Si7 0.197565 0.743026 0.944636
Si Si8 0.662061 0.905707 0.790208
O O1 0.523072 0.748804 0.336368
O O2 0.296176 0.542002 0.196792
O O3 0.864805 0.596394 0.401152
O O4 0.409585 0.695404 0.118347
O O5 0.294850 0.118603 0.457652
O O6 0.422860 0.318329 0.466794
O O7 0.926379 0.290489 0.341396
O O8 0.369491 0.807971 0.937296
O O9 0.602684 0.884244 0.871258
O O10 0.142106 0.992060 0.750434
O O11 0.567030 0.042289 0.435157
O O12 0.991715 0.133139 0.177758
O O13 0.085268 0.931753 0.309876
O O14 0.092267 0.712141 0.372824
O O15 0.361205 0.871604 0.593362
O O16 0.948928 0.831227 0.879129
#
# Coordination Sequence:
#
# PCOD9114825 Si02
#       8
#     2   2   2   2   2   2   2   2
#     4  11  25  40  63  96 134 170 219 267 333 393
#     4  10  19  34  65  92 122 163 213 264 315 381
#     4  10  21  40  68  92 126 171 217 264 325 380
#     4  10  19  38  65  91 124 170 210 266 322 374
#     4  11  19  37  70  95 125 164 226 273 313 387
#     4  10  20  39  64  94 120 170 219 265 313 389
#     4  11  24  45  61  94 137 169 210 271 328 393
#     4  11  21  41  68  92 128 175 210 272 327 383
#
# _framework density 21.865461
#
# number of rings (size 3 to 8) (size 9 to 14) (size 15 to 20)
#    0.000    1.500    6.250    0.750    1.750    1.000 
#    9.000    0.000    2.750    0.000    0.000    0.000 
#    0.000    0.000    0.000    0.000    0.000    0.000 
#
# Total GULP energy -89186.862922 kJ/mol
# GULP energy per Si atom -5574.178933 kJ/mol
# Density = 2.181569 g / cm^3
# Si number density = 21.865461 Si / 1000 Ang^3
#
#
#
# Elastic Constant Matrix: (Units=GPa)
#
#
# Indices 1 2 3 4 5 6 
#
# 1 87.9807 35.5606 34.5437 0.0000 -18.5397 0.0000
# 2 35.5606 95.6151 15.3935 0.0000 -13.1907 0.0000
# 3 34.5437 15.3935 57.0711 0.0000 -22.7183 0.0000
# 4 0.0000 0.0000 0.0000 14.7665 0.0000 -7.5042
# 5 -18.5397 -13.1907 -22.7183 0.0000 32.8964 0.0000
# 6 0.0000 0.0000 0.0000 -7.5042 0.0000 39.3939
#
#
#
# Elastic Compliance Matrix: (Units=1/GPa)
#
#
# Indices 1 2 3 4 5 6 
#
# 1 0.016888 -0.004691 -0.008160 0.000000 0.002001 0.000000
# 2 -0.004691 0.012492 0.000567 0.000000 0.002757 0.000000
# 3 -0.008160 0.000567 0.028366 0.000000 0.015218 0.000000
# 4 0.000000 0.000000 0.000000 0.074979 0.000000 0.014283
# 5 0.002001 0.002757 0.015218 0.000000 0.043142 0.000000
# 6 0.000000 0.000000 0.000000 0.014283 0.000000 0.028105
#
#
# Mechanical properties :
#
#
# Convention : Reuss Voigt Hill
#
# Bulk Modulus (GPa) = 30.13928 45.74026 37.93977
# Shear Modulus (GPa) = 20.86827 27.75598 24.31213
#
# Velocity S-wave (km/s) = 3.09268 3.56673 3.33813
# Velocity P-wave (km/s) = 5.15430 6.15844 5.67861
#
# Compressibility (1/GPa) = 0.03317929
#
# Stress axis : x y z
#
# Youngs Moduli (GPa) = 59.21500 80.04953 35.25373
#
# Poissons Ratio (x) = 0.37551 0.28766
# Poissons Ratio (y) = 0.27778 -0.02000
# Poissons Ratio (z) = 0.48317 -0.04542
#
# Static dielectric constant tensor:
#      x y z
#    x 1.819810 0.000000 0.034670 
#    y 0.000000 1.854800 0.000000 
#    z 0.034670 0.000000 1.839820 
# 
# From -- ./inp_files/14989.got.cif
#   From: 2010.05.17/outbox.cif.g08.bks.cpg/sg4_8_cif.got.tgz:14989.got - 2010.06.03 18:43:04.
