data_PCOD9114057
_publ_section_title
;
Structure prediction by ZEFSAII (Michael W. Deem and Ramdas Pophale) SiO2 
 PCOD9114057
Probable space group: P 2
;
_chemical_formula_sum "Si O2"
_cell_formula_units_Z 8
_cell_length_a 5.406192
_cell_length_b 11.303592
_cell_length_c 5.262290
_cell_angle_alpha 90.000000
_cell_angle_beta 85.787489
_cell_angle_gamma 90.000000
_cell_volume 320.706577
_symmetry_space_group_name_H-M "P 2"
_symmetry_group_IT_number 3
_symmetry_cell_setting 'monoclinic'
loop_
_space_group_symop_operation_xyz
x,y,z
-x,y,-z
loop_
_atom_site_type_symbol
_atom_site_label
_atom_site_fract_x
_atom_site_fract_y
_atom_site_fract_z
Si Si1 0.664483 0.594510 0.735556
Si Si2 0.227901 0.849045 0.155550
Si Si3 0.354371 0.241485 0.758348
Si Si4 0.000000 0.387693 0.500000
Si Si5 0.500000 0.010957 0.500000
O O1 0.500000 0.621023 0.500000
O O2 0.824007 0.712792 0.768961
O O3 0.819313 0.479629 0.654350
O O4 0.500000 0.574495 0.000000
O O5 0.288771 0.931479 0.389905
O O6 0.500000 0.846432 0.000000
O O7 0.000000 0.890687 0.000000
O O8 0.500000 0.288894 0.500000
O O9 0.094128 0.300348 0.716526
O O10 0.374775 0.100404 0.713356
O O11 0.500000 0.271954 0.000000
#
# Coordination Sequence:
#
# PCOD9114057 Si02
#       5
#     2   2   2   1   1
#     4  11  28  50  77 122 162 210 270 334 411 492
#     4  11  26  49  80 120 164 207 270 336 413 489
#     4  10  26  49  73 114 150 205 268 327 391 477
#     4  12  28  50  84 110 166 216 268 332 414 480
#     4  10  24  50  78 112 158 204 276 330 406 480
#
# _framework density 24.944922999999999
#
# number of rings (size 3 to 8) (size 9 to 14) (size 15 to 20)
#    0.750    0.500    1.250    1.500    7.000   12.000 
#    0.000    0.000    0.000    0.000    0.000    0.000 
#    0.000    0.000    0.000    0.000    0.000    0.000 
#
# Total GULP energy -44757.926904 kJ/mol
# GULP energy per Si atom -5594.740863 kJ/mol
# Density = 2.488815 g / cm^3
# Si number density = 24.944923 Si / 1000 Ang^3
#
#
#
# Elastic Constant Matrix: (Units=GPa)
#
#
# Indices 1 2 3 4 5 6 
#
# 1 94.3969 53.5069 71.8182 0.0000 37.4523 0.0000
# 2 53.5069 173.4574 59.9473 0.0000 34.7334 0.0000
# 3 71.8182 59.9473 210.8904 0.0000 41.2680 0.0000
# 4 0.0000 0.0000 0.0000 -6.2055 0.0000 2.9494
# 5 37.4523 34.7334 41.2680 0.0000 66.3881 0.0000
# 6 0.0000 0.0000 0.0000 2.9494 0.0000 -19.9012
#
#
#
# Elastic Compliance Matrix: (Units=1/GPa)
#
#
# Indices 1 2 3 4 5 6 
#
# 1 0.017641 -0.002857 -0.004031 0.000000 -0.005952 0.000000
# 2 -0.002857 0.007250 -0.000753 0.000000 -0.001713 0.000000
# 3 -0.004031 -0.000753 0.006610 0.000000 -0.001442 0.000000
# 4 0.000000 0.000000 0.000000 -0.173358 0.000000 -0.025692
# 5 -0.005952 -0.001713 -0.001442 0.000000 0.020213 0.000000
# 6 0.000000 0.000000 0.000000 -0.025692 0.000000 -0.054056
#
#
# Mechanical properties :
#
#
# Convention : Reuss Voigt Hill
#
# Bulk Modulus (GPa) = 61.65069 94.36551 78.00810
# Shear Modulus (GPa) = -32.25551 27.62110 -2.31721
#
# Velocity S-wave (km/s) = -3.59983 3.33120 -0.96486
# Velocity P-wave (km/s) = 2.73679 7.25999 5.48623
#
# Compressibility (1/GPa) = 0.01622042
#
# Stress axis : x y z
#
# Youngs Moduli (GPa) = 56.68607 137.93944 151.27463
#
# Poissons Ratio (x) = 0.39408 0.60977
# Poissons Ratio (y) = 0.16195 0.11384
# Poissons Ratio (z) = 0.22849 0.10381
#
# Static dielectric constant tensor:
#      x y z
#    x 2.485220 0.000000 -0.182510 
#    y 0.000000 1.930600 0.000000 
#    z -0.182510 0.000000 2.063420 
# 
# From -- ./inp_files/179.got.cif
#   From: 2010.05.17/outbox.cif.g08.bks.cpg/sg3_1_cif.got.tgz:179.got - 2010.06.03 18:33:08.
