data_PCOD9114703
_publ_section_title
;
Structure prediction by ZEFSAII (Michael W. Deem and Ramdas Pophale) SiO2 
 PCOD9114703
Probable space group: P 21
;
_chemical_formula_sum "Si O2"
_cell_formula_units_Z 16
_cell_length_a 7.093556
_cell_length_b 12.096616
_cell_length_c 7.735190
_cell_angle_alpha 90.000000
_cell_angle_beta 115.618690
_cell_angle_gamma 90.000000
_cell_volume 598.489965
_symmetry_space_group_name_H-M "P 21"
_symmetry_group_IT_number 4
_symmetry_cell_setting 'monoclinic'
loop_
_space_group_symop_operation_xyz
x,y,z
-x,1/2+y,-z
loop_
_atom_site_type_symbol
_atom_site_label
_atom_site_fract_x
_atom_site_fract_y
_atom_site_fract_z
Si Si1 0.985386 0.375000 0.770917
Si Si2 0.356556 0.787442 0.925056
Si Si3 0.610333 0.467212 0.842807
Si Si4 0.148382 0.128839 0.797807
Si Si5 0.680346 0.707376 0.499184
Si Si6 0.964116 0.914045 0.612655
Si Si7 0.642507 0.156732 0.385265
Si Si8 0.075314 0.610663 0.808358
O O1 0.776167 0.401994 0.792990
O O2 0.961006 0.400824 0.556457
O O3 0.064455 0.249469 0.822666
O O4 0.115233 0.485116 0.874923
O O5 0.154025 0.860631 0.796364
O O6 0.462557 0.744469 0.792819
O O7 0.244823 0.684563 0.975007
O O8 0.495934 0.868531 0.090737
O O9 0.442819 0.533870 0.669004
O O10 0.712561 0.560481 0.009609
O O11 0.277098 0.154202 0.672084
O O12 0.963286 0.039647 0.682424
O O13 0.441876 0.698012 0.466786
O O14 0.768902 0.831662 0.548881
O O15 0.830897 0.641185 0.698523
O O16 0.857058 0.148655 0.360935
#
# Coordination Sequence:
#
# PCOD9114703 Si02
#       8
#     2   2   2   2   2   2   2   2
#     4  11  21  36  67  90 120 170 208 255 313 368
#     4   8  21  38  59  87 129 157 204 257 302 362
#     4  11  22  38  59  92 131 167 202 255 312 372
#     4  10  22  35  63  93 124 159 214 260 302 377
#     4  10  18  40  67  87 119 166 205 259 318 352
#     4   9  18  39  62  89 122 155 212 265 300 367
#     4  10  21  38  66  87 125 168 201 251 319 363
#     4   9  19  38  65  87 118 160 210 248 306 363
#
# _framework density 26.733948999999999
#
# number of rings (size 3 to 8) (size 9 to 14) (size 15 to 20)
#    0.750    1.500    2.500    0.000    1.750    2.000 
#    0.000   10.000    2.750    0.000    0.000    0.000 
#    0.000    0.000    0.000    0.000    0.000    0.000 
#
# Total GULP energy -89251.917967 kJ/mol
# GULP energy per Si atom -5578.244873 kJ/mol
# Density = 2.667310 g / cm^3
# Si number density = 26.733949 Si / 1000 Ang^3
#
#
#
# Elastic Constant Matrix: (Units=GPa)
#
#
# Indices 1 2 3 4 5 6 
#
# 1 72.1696 20.6617 19.8080 0.0000 -18.0977 0.0000
# 2 20.6617 218.0776 32.4629 0.0000 4.1889 0.0000
# 3 19.8080 32.4629 55.5364 0.0000 -8.7729 0.0000
# 4 0.0000 0.0000 0.0000 47.8677 0.0000 6.5035
# 5 -18.0977 4.1889 -8.7729 0.0000 44.0195 0.0000
# 6 0.0000 0.0000 0.0000 6.5035 0.0000 36.4765
#
#
#
# Elastic Compliance Matrix: (Units=1/GPa)
#
#
# Indices 1 2 3 4 5 6 
#
# 1 0.016928 -0.001061 -0.004442 0.000000 0.006175 0.000000
# 2 -0.001061 0.005141 -0.002863 0.000000 -0.001496 0.000000
# 3 -0.004442 -0.002863 0.021702 0.000000 0.002771 0.000000
# 4 0.000000 0.000000 0.000000 0.021410 0.000000 -0.003817
# 5 0.006175 -0.001496 0.002771 0.000000 0.025951 0.000000
# 6 0.000000 0.000000 0.000000 -0.003817 0.000000 0.028096
#
#
# Mechanical properties :
#
#
# Convention : Reuss Voigt Hill
#
# Bulk Modulus (GPa) = 36.98415 54.62766 45.80591
# Shear Modulus (GPa) = 34.48973 43.86281 39.17627
#
# Velocity S-wave (km/s) = 3.59571 4.05497 3.83222
# Velocity P-wave (km/s) = 5.57701 6.51167 6.06238
#
# Compressibility (1/GPa) = 0.02703861
#
# Stress axis : x y z
#
# Youngs Moduli (GPa) = 59.07474 194.51554 46.07942
#
# Poissons Ratio (x) = 0.20643 0.20467
# Poissons Ratio (y) = 0.06269 0.13192
# Poissons Ratio (z) = 0.26239 0.55688
#
# Static dielectric constant tensor:
#      x y z
#    x 2.125970 0.000000 0.086870 
#    y 0.000000 2.172910 0.000000 
#    z 0.086870 0.000000 2.273540 
# 
# From -- ./inp_files/6264.got.cif
#   From: 2010.05.17/outbox.cif.g08.bks.cpg/sg4_4_cif.got.tgz:6264.got - 2010.06.03 18:43:04.
