data_PCOD9114197
_publ_section_title
;
Structure prediction by ZEFSAII (Michael W. Deem and Ramdas Pophale) SiO2 
 PCOD9114197
Probable space group: P 2
;
_chemical_formula_sum "Si O2"
_cell_formula_units_Z 14
_cell_length_a 10.251912
_cell_length_b 6.916840
_cell_length_c 9.091960
_cell_angle_alpha 90.000000
_cell_angle_beta 98.961221
_cell_angle_gamma 90.000000
_cell_volume 636.849037
_symmetry_space_group_name_H-M "P 2"
_symmetry_group_IT_number 3
_symmetry_cell_setting 'monoclinic'
loop_
_space_group_symop_operation_xyz
x,y,z
-x,y,-z
loop_
_atom_site_type_symbol
_atom_site_label
_atom_site_fract_x
_atom_site_fract_y
_atom_site_fract_z
Si Si1 0.824528 0.543890 0.607655
Si Si2 0.556249 0.808066 0.156372
Si Si3 0.657242 0.202203 0.047616
Si Si4 0.375554 0.864889 0.376407
Si Si5 0.233256 0.542832 0.732739
Si Si6 0.827235 0.146752 0.776058
Si Si7 0.983735 0.800160 0.166821
O O1 0.684997 0.653384 0.607546
O O2 0.834835 0.504431 0.435505
O O3 0.846638 0.352877 0.705689
O O4 0.923880 0.696159 0.697260
O O5 0.429670 0.876875 0.221612
O O6 0.629622 0.654404 0.269307
O O7 0.640951 0.995117 0.125733
O O8 0.500000 0.712181 0.000000
O O9 0.732573 0.356091 0.164459
O O10 0.500000 0.256858 0.000000
O O11 0.745530 0.178198 0.914645
O O12 0.500000 0.910281 0.500000
O O13 0.261891 0.025506 0.356263
O O14 0.154883 0.707319 0.810101
O O15 0.962133 0.021846 0.821002
O O16 0.000000 0.739119 0.000000
#
# Coordination Sequence:
#
# PCOD9114197 Si02
#       7
#     2   2   2   2   2   2   2
#     4  11  27  44  69 103 137 186 232 288 351 414
#     4  11  23  42  67 103 145 185 229 282 347 414
#     4  11  24  41  70 112 143 181 237 287 351 416
#     4  11  23  42  66 102 146 186 227 282 353 418
#     4  12  26  44  71 103 141 185 231 288 350 416
#     4  11  25  45  70 101 141 184 235 287 347 417
#     4  11  26  49  72  95 132 185 239 291 346 412
#
# _framework density 21.983231
#
# number of rings (size 3 to 8) (size 9 to 14) (size 15 to 20)
#    0.000    0.857    4.286    2.571    8.000    3.429 
#    0.000    4.286    0.000    0.000    0.000    0.000 
#    0.000    0.000    0.000    0.000    0.000    0.000 
#
# Total GULP energy -78060.818913 kJ/mol
# GULP energy per Si atom -5575.772780 kJ/mol
# Density = 2.193320 g / cm^3
# Si number density = 21.983231 Si / 1000 Ang^3
#
#
#
# Elastic Constant Matrix: (Units=GPa)
#
#
# Indices 1 2 3 4 5 6 
#
# 1 39.9742 29.8526 16.5990 0.0000 0.8380 0.0000
# 2 29.8526 128.7311 45.0388 0.0000 -3.2864 0.0000
# 3 16.5990 45.0388 121.6156 0.0000 0.9991 0.0000
# 4 0.0000 0.0000 0.0000 32.4813 0.0000 12.0968
# 5 0.8380 -3.2864 0.9991 0.0000 40.1065 0.0000
# 6 0.0000 0.0000 0.0000 12.0968 0.0000 12.1743
#
#
#
# Elastic Compliance Matrix: (Units=1/GPa)
#
#
# Indices 1 2 3 4 5 6 
#
# 1 0.030638 -0.006519 -0.001758 0.000000 -0.001130 0.000000
# 2 -0.006519 0.010338 -0.002948 0.000000 0.001057 0.000000
# 3 -0.001758 -0.002948 0.009558 0.000000 -0.000443 0.000000
# 4 0.000000 0.000000 0.000000 0.048872 0.000000 -0.048561
# 5 -0.001130 0.001057 -0.000443 0.000000 0.025055 0.000000
# 6 0.000000 0.000000 0.000000 -0.048561 0.000000 0.130393
#
#
# Mechanical properties :
#
#
# Convention : Reuss Voigt Hill
#
# Bulk Modulus (GPa) = 35.60623 52.58907 44.09765
# Shear Modulus (GPa) = 17.44200 30.20779 23.82490
#
# Velocity S-wave (km/s) = 2.81983 3.71095 3.29565
# Velocity P-wave (km/s) = 5.18016 6.50660 5.88090
#
# Compressibility (1/GPa) = 0.02808497
#
# Stress axis : x y z
#
# Youngs Moduli (GPa) = 32.63915 96.73041 104.62618
#
# Poissons Ratio (x) = 0.63055 0.18397
# Poissons Ratio (y) = 0.21276 0.30839
# Poissons Ratio (z) = 0.05739 0.28512
#
# Static dielectric constant tensor:
#      x y z
#    x 1.902600 0.000000 -0.025560 
#    y 0.000000 1.781010 0.000000 
#    z -0.025560 0.000000 1.733040 
# 
# From -- ./inp_files/6717.got.cif
#   From: 2010.05.17/outbox.cif.g08.bks.cpg/sg3_4_cif.got.tgz:6717.got - 2010.06.03 18:33:08.
