data_PCOD9114453
_publ_section_title
;
Structure prediction by ZEFSAII (Michael W. Deem and Ramdas Pophale) SiO2 
 PCOD9114453
Probable space group: P 21
;
_chemical_formula_sum "Si O2"
_cell_formula_units_Z 12
_cell_length_a 7.521637
_cell_length_b 4.736703
_cell_length_c 13.408721
_cell_angle_alpha 90.000000
_cell_angle_beta 95.389584
_cell_angle_gamma 90.000000
_cell_volume 475.610716
_symmetry_space_group_name_H-M "P 21"
_symmetry_group_IT_number 4
_symmetry_cell_setting 'monoclinic'
loop_
_space_group_symop_operation_xyz
x,y,z
-x,1/2+y,-z
loop_
_atom_site_type_symbol
_atom_site_label
_atom_site_fract_x
_atom_site_fract_y
_atom_site_fract_z
Si Si1 0.404604 0.793820 0.760637
Si Si2 0.942835 0.416324 0.559971
Si Si3 0.880356 0.771249 0.222347
Si Si4 0.601504 0.981111 0.957829
Si Si5 0.889914 0.204585 0.108656
Si Si6 0.558878 0.687683 0.560418
O O1 0.561901 0.861212 0.847058
O O2 0.256431 0.583273 0.809284
O O3 0.472513 0.663398 0.664016
O O4 0.295052 0.080537 0.741796
O O5 0.755993 0.567517 0.567963
O O6 0.065656 0.666410 0.521541
O O7 0.017485 0.295350 0.666692
O O8 0.905158 0.524310 0.135443
O O9 0.026725 0.995486 0.162495
O O10 0.541735 0.727167 0.027541
O O11 0.789909 0.104564 0.004930
O O12 0.450539 0.511060 0.472716
#
# Coordination Sequence:
#
# PCOD9114453 Si02
#       6
#     2   2   2   2   2   2
#     4   9  22  35  63  92 140 162 216 272 329 376
#     4  12  26  44  64  90 130 182 230 270 329 403
#     4  10  20  35  61  88 128 167 216 261 329 386
#     4  10  16  31  56  99 136 164 207 270 327 388
#     4   9  18  32  60  94 131 161 210 266 324 386
#     4  12  28  43  64  95 135 178 225 281 332 381
#
# _framework density 25.230719000000001
#
# number of rings (size 3 to 8) (size 9 to 14) (size 15 to 20)
#    1.000    0.667    1.667    3.000    7.000    0.000 
#    0.000    0.000    0.000    0.000    0.000   16.333 
#   10.000    0.000    0.000    0.000    0.000    0.000 
#
# Total GULP energy -66816.983394 kJ/mol
# GULP energy per Si atom -5568.081950 kJ/mol
# Density = 2.517329 g / cm^3
# Si number density = 25.230719 Si / 1000 Ang^3
#
#
#
# Elastic Constant Matrix: (Units=GPa)
#
#
# Indices 1 2 3 4 5 6 
#
# 1 71.6621 8.3782 40.8696 0.0000 -7.9906 0.0000
# 2 8.3782 107.6775 -9.7937 0.0000 0.4612 0.0000
# 3 40.8696 -9.7937 87.4695 0.0000 11.6390 0.0000
# 4 0.0000 0.0000 0.0000 42.2075 0.0000 11.0081
# 5 -7.9906 0.4612 11.6390 0.0000 37.4954 0.0000
# 6 0.0000 0.0000 0.0000 11.0081 0.0000 22.5510
#
#
#
# Elastic Compliance Matrix: (Units=1/GPa)
#
#
# Indices 1 2 3 4 5 6 
#
# 1 0.021830 -0.002791 -0.011616 0.000000 0.008292 0.000000
# 2 -0.002791 0.009747 0.002598 0.000000 -0.001521 0.000000
# 3 -0.011616 0.002598 0.018238 0.000000 -0.008169 0.000000
# 4 0.000000 0.000000 0.000000 0.027149 0.000000 -0.013252
# 5 0.008292 -0.001521 -0.008169 0.000000 0.030991 0.000000
# 6 0.000000 0.000000 0.000000 -0.013252 0.000000 0.050813
#
#
# Mechanical properties :
#
#
# Convention : Reuss Voigt Hill
#
# Bulk Modulus (GPa) = 38.17217 38.41302 38.29260
# Shear Modulus (GPa) = 26.16200 35.60778 30.88489
#
# Velocity S-wave (km/s) = 3.22360 3.76079 3.50251
# Velocity P-wave (km/s) = 5.38680 5.84087 5.61842
#
# Compressibility (1/GPa) = 0.02619709
#
# Stress axis : x y z
#
# Youngs Moduli (GPa) = 45.80918 102.59688 54.83167
#
# Poissons Ratio (x) = 0.28630 0.63690
# Poissons Ratio (y) = 0.12783 -0.14243
# Poissons Ratio (z) = 0.53210 -0.26650
#
# Static dielectric constant tensor:
#      x y z
#    x 2.143500 0.000000 -0.130870 
#    y 0.000000 1.977090 0.000000 
#    z -0.130870 0.000000 2.016110 
# 
# From -- ./inp_files/10700.got.cif
#   From: 2010.05.17/outbox.cif.g08.bks.cpg/sg4_6_cif.got.tgz:10700.got - 2010.06.03 18:43:04.
