data_PCOD9114983
_publ_section_title
;
Structure prediction by ZEFSAII (Michael W. Deem and Ramdas Pophale) SiO2 
 PCOD9114983
Probable space group: P 21
;
_chemical_formula_sum "Si O2"
_cell_formula_units_Z 16
_cell_length_a 5.195519
_cell_length_b 15.435399
_cell_length_c 8.085145
_cell_angle_alpha 90.000000
_cell_angle_beta 92.508359
_cell_angle_gamma 90.000000
_cell_volume 647.766211
_symmetry_space_group_name_H-M "P 21"
_symmetry_group_IT_number 4
_symmetry_cell_setting 'monoclinic'
loop_
_space_group_symop_operation_xyz
x,y,z
-x,1/2+y,-z
loop_
_atom_site_type_symbol
_atom_site_label
_atom_site_fract_x
_atom_site_fract_y
_atom_site_fract_z
Si Si1 0.773905 0.300910 0.154116
Si Si2 0.912878 0.704850 0.597823
Si Si3 0.931112 0.914682 0.268691
Si Si4 0.948794 0.236048 0.822370
Si Si5 0.574293 0.631065 0.843197
Si Si6 0.417601 0.955385 0.049618
Si Si7 0.577305 0.655504 0.305599
Si Si8 0.277378 0.555660 0.522186
O O1 0.954461 0.280518 0.001389
O O2 0.649969 0.393305 0.106252
O O3 0.563809 0.223433 0.142926
O O4 0.934843 0.286737 0.326196
O O5 0.846538 0.652336 0.766174
O O6 0.657531 0.708665 0.477924
O O7 0.084542 0.636939 0.499452
O O8 0.872757 0.969188 0.432727
O O9 0.674001 0.919623 0.147226
O O10 0.996031 0.814728 0.301286
O O11 0.175459 0.950025 0.171218
O O12 0.664960 0.200741 0.786093
O O13 0.176289 0.167950 0.804618
O O14 0.552665 0.557888 0.983454
O O15 0.427878 0.579836 0.692749
O O16 0.476198 0.564160 0.376545
#
# Coordination Sequence:
#
# PCOD9114983 Si02
#       8
#     2   2   2   2   2   2   2   2
#     4  10  23  36  63  98 126 162 208 258 313 368
#     4  10  19  38  63  93 115 163 214 250 293 375
#     4  10  20  36  60  92 120 153 210 261 295 349
#     4  11  23  38  59  96 127 155 195 257 316 365
#     4   9  19  34  61  94 124 156 213 258 304 357
#     4  10  20  36  58  94 128 156 205 267 304 352
#     4  11  22  39  60  90 123 162 197 248 309 368
#     4   9  18  37  62  89 113 159 212 255 286 360
#
# _framework density 24.700267
#
# number of rings (size 3 to 8) (size 9 to 14) (size 15 to 20)
#    0.000    2.000    2.500    1.500    5.250    0.000 
#    0.000    0.000    0.000    7.500    3.250    0.000 
#    0.000    0.000    0.000    0.000    0.000    0.000 
#
# Total GULP energy -89287.603338 kJ/mol
# GULP energy per Si atom -5580.475209 kJ/mol
# Density = 2.464405 g / cm^3
# Si number density = 24.700267 Si / 1000 Ang^3
#
#
#
# Elastic Constant Matrix: (Units=GPa)
#
#
# Indices 1 2 3 4 5 6 
#
# 1 131.0017 14.8910 19.8909 0.0000 11.7503 0.0000
# 2 14.8910 60.4976 10.5731 0.0000 14.9633 0.0000
# 3 19.8909 10.5731 57.2756 0.0000 3.9663 0.0000
# 4 0.0000 0.0000 0.0000 25.6663 0.0000 -6.4498
# 5 11.7503 14.9633 3.9663 0.0000 37.7173 0.0000
# 6 0.0000 0.0000 0.0000 -6.4498 0.0000 36.2502
#
#
#
# Elastic Compliance Matrix: (Units=1/GPa)
#
#
# Indices 1 2 3 4 5 6 
#
# 1 0.008318 -0.001139 -0.002549 0.000000 -0.001871 0.000000
# 2 -0.001139 0.018975 -0.002630 0.000000 -0.006897 0.000000
# 3 -0.002549 -0.002630 0.018840 0.000000 -0.000144 0.000000
# 4 0.000000 0.000000 0.000000 0.040785 0.000000 0.007257
# 5 -0.001871 -0.006897 -0.000144 0.000000 0.029847 0.000000
# 6 0.000000 0.000000 0.000000 0.007257 0.000000 0.028877
#
#
# Mechanical properties :
#
#
# Convention : Reuss Voigt Hill
#
# Bulk Modulus (GPa) = 29.85249 37.72056 33.78652
# Shear Modulus (GPa) = 29.50832 33.48809 31.49820
#
# Velocity S-wave (km/s) = 3.46013 3.68608 3.57489
# Velocity P-wave (km/s) = 5.29863 5.78107 5.54510
#
# Compressibility (1/GPa) = 0.03349805
#
# Stress axis : x y z
#
# Youngs Moduli (GPa) = 120.22372 52.70009 53.07850
#
# Poissons Ratio (x) = 0.06003 0.13529
# Poissons Ratio (y) = 0.13694 0.13958
# Poissons Ratio (z) = 0.30643 0.13859
#
# Static dielectric constant tensor:
#      x y z
#    x 1.995120 0.000000 -0.006820 
#    y 0.000000 2.037470 0.000000 
#    z -0.006820 0.000000 2.121320 
# 
# From -- ./inp_files/4935.got.cif
#   From: 2010.05.17/outbox.cif.g08.bks.cpg/sg4_3_cif.got.tgz:4935.got - 2010.06.03 18:43:04.
