data_PCOD9114568
_publ_section_title
;
Structure prediction by ZEFSAII (Michael W. Deem and Ramdas Pophale) SiO2 
 PCOD9114568
Probable space group: P 21
;
_chemical_formula_sum "Si O2"
_cell_formula_units_Z 16
_cell_length_a 7.493030
_cell_length_b 17.877486
_cell_length_c 6.728009
_cell_angle_alpha 90.000000
_cell_angle_beta 40.359659
_cell_angle_gamma 90.000000
_cell_volume 583.641672
_symmetry_space_group_name_H-M "P 21"
_symmetry_group_IT_number 4
_symmetry_cell_setting 'monoclinic'
loop_
_space_group_symop_operation_xyz
x,y,z
-x,1/2+y,-z
loop_
_atom_site_type_symbol
_atom_site_label
_atom_site_fract_x
_atom_site_fract_y
_atom_site_fract_z
Si Si1 0.579797 0.681070 0.333070
Si Si2 0.187157 0.415274 0.818553
Si Si3 0.960179 0.083625 0.162646
Si Si4 0.131288 0.823717 0.358022
Si Si5 0.610588 0.728731 0.844278
Si Si6 0.688650 0.326945 0.327677
Si Si7 0.097184 0.466729 0.317233
Si Si8 0.625844 0.563187 0.821450
O O1 0.619793 0.714098 0.076465
O O2 0.478593 0.750030 0.552507
O O3 0.325556 0.623801 0.546722
O O4 0.862715 0.636955 0.133944
O O5 0.475243 0.394216 0.478921
O O6 0.096024 0.499652 0.856431
O O7 0.214871 0.418705 0.034657
O O8 0.966927 0.348540 0.978366
O O9 0.154674 0.075281 0.189166
O O10 0.392625 0.796101 0.012359
O O11 0.225967 0.826135 0.510058
O O12 0.995460 0.905431 0.441616
O O13 0.906638 0.758682 0.531537
O O14 0.546245 0.645857 0.814677
O O15 0.812121 0.511912 0.517692
O O16 0.352329 0.522470 0.133840
#
# Coordination Sequence:
#
# PCOD9114568 Si02
#       8
#     2   2   2   2   2   2   2   2
#     4  10  18  33  56  82 105 137 184 230 261 303
#     4  11  22  36  56  83 111 142 177 222 271 320
#     4  11  22  36  56  83 111 142 177 222 271 320
#     4  10  18  32  54  81 107 137 182 230 263 303
#     4  10  18  32  54  81 107 137 182 230 263 303
#     4  10  18  33  56  82 105 137 184 230 261 303
#     4  11  21  35  56  82 110 142 177 220 271 322
#     4  11  21  35  56  82 110 142 177 220 271 322
#
# _framework density 27.414079999999998
#
# number of rings (size 3 to 8) (size 9 to 14) (size 15 to 20)
#    0.000    1.500    0.000   12.000    0.000    0.000 
#    0.000    0.000    0.000   15.000    0.000    0.000 
#    0.000    0.000    0.000    0.000    0.000    0.000 
#
# Total GULP energy -89679.784894 kJ/mol
# GULP energy per Si atom -5604.986556 kJ/mol
# Density = 2.735168 g / cm^3
# Si number density = 27.414080 Si / 1000 Ang^3
#
#
#
# Elastic Constant Matrix: (Units=GPa)
#
#
# Indices 1 2 3 4 5 6 
#
# 1 50.9654 17.2477 16.0785 0.0000 -5.8878 0.0000
# 2 17.2477 162.6419 55.0212 0.0000 -14.0617 0.0000
# 3 16.0785 55.0212 153.1375 0.0000 -20.4447 0.0000
# 4 0.0000 0.0000 0.0000 79.2065 0.0000 -9.2581
# 5 -5.8878 -14.0617 -20.4447 0.0000 42.7624 0.0000
# 6 0.0000 0.0000 0.0000 -9.2581 0.0000 55.1843
#
#
#
# Elastic Compliance Matrix: (Units=1/GPa)
#
#
# Indices 1 2 3 4 5 6 
#
# 1 0.020791 -0.001590 -0.001388 0.000000 0.001676 0.000000
# 2 -0.001590 0.007177 -0.002271 0.000000 0.001055 0.000000
# 3 -0.001388 -0.002271 0.007869 0.000000 0.002824 0.000000
# 4 0.000000 0.000000 0.000000 0.012878 0.000000 0.002160
# 5 0.001676 0.001055 0.002824 0.000000 0.025313 0.000000
# 6 0.000000 0.000000 0.000000 0.002160 0.000000 0.018484
#
#
# Mechanical properties :
#
#
# Convention : Reuss Voigt Hill
#
# Bulk Modulus (GPa) = 39.46563 60.38219 49.92391
# Shear Modulus (GPa) = 44.86156 53.99047 49.42601
#
# Velocity S-wave (km/s) = 4.04968 4.44266 4.25071
# Velocity P-wave (km/s) = 6.02445 6.95630 6.50707
#
# Compressibility (1/GPa) = 0.02533850
#
# Stress axis : x y z
#
# Youngs Moduli (GPa) = 48.09820 139.34342 127.08669
#
# Poissons Ratio (x) = 0.22162 0.17636
# Poissons Ratio (y) = 0.07650 0.28856
# Poissons Ratio (z) = 0.06675 0.31639
#
# Static dielectric constant tensor:
#      x y z
#    x 2.354950 0.000000 0.117560 
#    y 0.000000 2.149700 0.000000 
#    z 0.117560 0.000000 2.041690 
# 
# From -- ./inp_files/6911.got.cif
#   From: 2010.05.17/outbox.cif.g08.bks.cpg/sg4_4_cif.got.tgz:6911.got - 2010.06.03 18:43:04.
