data_PCOD9114193
_publ_section_title
;
Structure prediction by ZEFSAII (Michael W. Deem and Ramdas Pophale) SiO2 
 PCOD9114193
Probable space group: P 2
;
_chemical_formula_sum "Si O2"
_cell_formula_units_Z 12
_cell_length_a 14.236962
_cell_length_b 4.892701
_cell_length_c 18.194614
_cell_angle_alpha 90.000000
_cell_angle_beta 154.444840
_cell_angle_gamma 90.000000
_cell_volume 546.724695
_symmetry_space_group_name_H-M "P 2"
_symmetry_group_IT_number 3
_symmetry_cell_setting 'monoclinic'
loop_
_space_group_symop_operation_xyz
x,y,z
-x,y,-z
loop_
_atom_site_type_symbol
_atom_site_label
_atom_site_fract_x
_atom_site_fract_y
_atom_site_fract_z
Si Si1 0.831042 0.959540 0.443503
Si Si2 0.821645 0.640638 0.812351
Si Si3 0.888163 0.699329 0.125710
Si Si4 0.466025 0.440674 0.755704
Si Si5 0.542439 0.166774 0.652261
Si Si6 0.956527 0.187148 0.686377
O O1 0.696090 0.694293 0.373861
O O2 0.000000 0.881788 0.500000
O O3 0.665994 0.195580 0.298978
O O4 0.948780 0.099410 0.596266
O O5 0.663394 0.386608 0.687444
O O6 0.951704 0.712319 0.830945
O O7 0.676999 0.889300 0.740659
O O8 0.000000 0.565782 0.000000
O O9 0.990046 0.499266 0.258843
O O10 0.875890 0.998852 0.151056
O O11 0.664129 0.569696 0.940034
O O12 0.547535 0.301020 0.737494
O O13 0.288125 0.126296 0.457119
#
# Coordination Sequence:
#
# PCOD9114193 Si02
#       6
#     2   2   2   2   2   2
#     4  11  24  47  74  97 125 175 225 271 335 430
#     4  12  24  37  64  93 131 176 237 260 302 388
#     4  12  25  41  63  99 135 173 211 281 330 370
#     4  11  23  43  70  96 133 175 223 268 340 400
#     4  11  23  41  63  90 131 184 224 261 312 388
#     4  11  25  42  64  94 136 166 215 279 343 376
#
# _framework density 21.948891
#
# number of rings (size 3 to 8) (size 9 to 14) (size 15 to 20)
#    0.000    0.667    1.667    8.000    2.333    4.000 
#    0.000    5.000    0.000    0.000    0.000    0.000 
#    0.000    0.000    0.000    0.000    0.000    0.000 
#
# Total GULP energy -67186.428935 kJ/mol
# GULP energy per Si atom -5598.869078 kJ/mol
# Density = 2.189893 g / cm^3
# Si number density = 21.948891 Si / 1000 Ang^3
#
#
#
# Elastic Constant Matrix: (Units=GPa)
#
#
# Indices 1 2 3 4 5 6 
#
# 1 68.2383 -0.1177 16.7154 0.0000 -1.3754 0.0000
# 2 -0.1177 89.9125 15.8213 0.0000 0.1698 0.0000
# 3 16.7154 15.8213 75.4967 0.0000 -11.6006 0.0000
# 4 0.0000 0.0000 0.0000 46.6838 0.0000 -4.0485
# 5 -1.3754 0.1698 -11.6006 0.0000 22.5129 0.0000
# 6 0.0000 0.0000 0.0000 -4.0485 0.0000 12.8634
#
#
#
# Elastic Compliance Matrix: (Units=1/GPa)
#
#
# Indices 1 2 3 4 5 6 
#
# 1 0.015551 0.000680 -0.003736 0.000000 -0.000980 0.000000
# 2 0.000680 0.011621 -0.002816 0.000000 -0.001497 0.000000
# 3 -0.003736 -0.002816 0.015889 0.000000 0.007980 0.000000
# 4 0.000000 0.000000 0.000000 0.022022 0.000000 0.006931
# 5 -0.000980 -0.001497 0.007980 0.000000 0.048483 0.000000
# 6 0.000000 0.000000 0.000000 0.006931 0.000000 0.079921
#
#
# Mechanical properties :
#
#
# Convention : Reuss Voigt Hill
#
# Bulk Modulus (GPa) = 31.93189 33.16506 32.54847
# Shear Modulus (GPa) = 23.18351 29.82725 26.50538
#
# Velocity S-wave (km/s) = 3.25353 3.69038 3.47882
# Velocity P-wave (km/s) = 5.35666 5.77074 5.56755
#
# Compressibility (1/GPa) = 0.03131666
#
# Stress axis : x y z
#
# Youngs Moduli (GPa) = 64.30400 86.05012 62.93601
#
# Poissons Ratio (x) = -0.05848 0.23514
# Poissons Ratio (y) = -0.04370 0.17722
# Poissons Ratio (z) = 0.24025 0.24231
#
# Static dielectric constant tensor:
#      x y z
#    x 1.792050 0.000000 -0.019830 
#    y 0.000000 1.776920 0.000000 
#    z -0.019830 0.000000 1.816170 
# 
# From -- ./inp_files/16033.got.cif
#   From: 2010.05.17/outbox.cif.g08.bks.cpg/sg3_9_cif.got.tgz:16033.got - 2010.06.03 18:33:08.
