data_PCOD9114215
_publ_section_title
;
Structure prediction by ZEFSAII (Michael W. Deem and Ramdas Pophale) SiO2 
 PCOD9114215
Probable space group: P 2
;
_chemical_formula_sum "Si O2"
_cell_formula_units_Z 12
_cell_length_a 22.708445
_cell_length_b 5.277536
_cell_length_c 13.575009
_cell_angle_alpha 90.000000
_cell_angle_beta 17.839178
_cell_angle_gamma 90.000000
_cell_volume 498.392325
_symmetry_space_group_name_H-M "P 2"
_symmetry_group_IT_number 3
_symmetry_cell_setting 'monoclinic'
loop_
_space_group_symop_operation_xyz
x,y,z
-x,y,-z
loop_
_atom_site_type_symbol
_atom_site_label
_atom_site_fract_x
_atom_site_fract_y
_atom_site_fract_z
Si Si1 0.129949 0.350570 0.390073
Si Si2 0.633356 0.708383 0.711061
Si Si3 0.209191 0.356303 0.707655
Si Si4 0.519757 0.009238 0.206469
Si Si5 0.627133 0.691063 0.388683
Si Si6 0.961406 0.855928 0.336272
O O1 0.100052 0.617999 0.494453
O O2 0.000000 0.359217 0.500000
O O3 0.070091 0.121739 0.558176
O O4 0.338609 0.249217 0.018674
O O5 0.686694 0.525852 0.538825
O O6 0.822047 0.823954 0.462462
O O7 0.480989 0.899145 0.902716
O O8 0.500000 0.559650 0.000000
O O9 0.295946 0.080618 0.569312
O O10 0.262967 0.473373 0.726140
O O11 0.000000 0.350995 0.000000
O O12 0.525581 0.827803 0.292538
O O13 0.500000 0.598689 0.500000
O O14 0.812320 0.844099 0.052362
#
# Coordination Sequence:
#
# PCOD9114215 Si02
#       6
#     2   2   2   2   2   2
#     4  12  28  50  76 108 152 198 253 309 375 448
#     4  11  23  44  68 105 140 187 241 305 368 439
#     4  11  25  43  71 103 145 189 244 309 372 439
#     4  11  27  43  74 103 150 195 246 312 375 448
#     4  11  27  47  72 105 149 197 252 305 376 451
#     4  12  27  47  77 110 148 197 249 312 373 448
#
# _framework density 24.077414999999998
#
# number of rings (size 3 to 8) (size 9 to 14) (size 15 to 20)
#    0.000    0.667    3.333    2.500   11.667    1.333 
#    0.000    0.000    0.000    0.000    0.000    0.000 
#    0.000    0.000    0.000    0.000    0.000    0.000 
#
# Total GULP energy -67013.529288 kJ/mol
# GULP energy per Si atom -5584.460774 kJ/mol
# Density = 2.402261 g / cm^3
# Si number density = 24.077415 Si / 1000 Ang^3
#
#
#
# Elastic Constant Matrix: (Units=GPa)
#
#
# Indices 1 2 3 4 5 6 
#
# 1 186.3263 31.7230 28.3203 0.0000 -21.6640 0.0000
# 2 31.7230 76.7481 0.5801 0.0000 0.5047 0.0000
# 3 28.3203 0.5801 83.4346 0.0000 -19.7351 0.0000
# 4 0.0000 0.0000 0.0000 40.8049 0.0000 -7.9583
# 5 -21.6640 0.5047 -19.7351 0.0000 28.7049 0.0000
# 6 0.0000 0.0000 0.0000 -7.9583 0.0000 19.1770
#
#
#
# Elastic Compliance Matrix: (Units=1/GPa)
#
#
# Indices 1 2 3 4 5 6 
#
# 1 0.006489 -0.002700 -0.001211 0.000000 0.004112 0.000000
# 2 -0.002700 0.014157 0.000331 0.000000 -0.002059 0.000000
# 3 -0.001211 0.000331 0.014541 0.000000 0.009078 0.000000
# 4 0.000000 0.000000 0.000000 0.026665 0.000000 0.011066
# 5 0.004112 -0.002059 0.009078 0.000000 0.044218 0.000000
# 6 0.000000 0.000000 0.000000 0.011066 0.000000 0.056738
#
#
# Mechanical properties :
#
#
# Convention : Reuss Voigt Hill
#
# Bulk Modulus (GPa) = 35.68023 51.97286 43.82654
# Shear Modulus (GPa) = 27.88463 36.79640 32.34051
#
# Velocity S-wave (km/s) = 3.40681 3.91353 3.66893
# Velocity P-wave (km/s) = 5.50693 6.48487 6.01581
#
# Compressibility (1/GPa) = 0.02802673
#
# Stress axis : x y z
#
# Youngs Moduli (GPa) = 154.11201 70.63806 68.76923
#
# Poissons Ratio (x) = 0.19072 0.08329
# Poissons Ratio (y) = 0.41610 -0.02276
# Poissons Ratio (z) = 0.18664 -0.02338
#
# Static dielectric constant tensor:
#      x y z
#    x 1.479420 0.000000 0.121970 
#    y 0.000000 1.958700 0.000000 
#    z 0.121970 0.000000 2.075280 
# 
# From -- ./inp_files/8144.got.cif
#   From: 2010.05.17/outbox.cif.g08.bks.cpg/sg3_5_cif.got.tgz:8144.got - 2010.06.03 18:33:08.
