data_PCOD9114364
_publ_section_title
;
Structure prediction by ZEFSAII (Michael W. Deem and Ramdas Pophale) SiO2 
 PCOD9114364
Probable space group: P 2
;
_chemical_formula_sum "Si O2"
_cell_formula_units_Z 12
_cell_length_a 21.553765
_cell_length_b 5.175695
_cell_length_c 12.238938
_cell_angle_alpha 90.000000
_cell_angle_beta 22.535109
_cell_angle_gamma 90.000000
_cell_volume 523.259513
_symmetry_space_group_name_H-M "P 2"
_symmetry_group_IT_number 3
_symmetry_cell_setting 'monoclinic'
loop_
_space_group_symop_operation_xyz
x,y,z
-x,y,-z
loop_
_atom_site_type_symbol
_atom_site_label
_atom_site_fract_x
_atom_site_fract_y
_atom_site_fract_z
Si Si1 0.098195 0.465340 0.957840
Si Si2 0.383055 0.002198 0.795694
Si Si3 0.198653 0.421024 0.410860
Si Si4 0.297657 0.967026 0.596352
Si Si5 0.806196 0.501643 0.830168
Si Si6 0.317337 0.921629 0.312662
O O1 0.227428 0.694674 0.748807
O O2 0.192878 0.198177 0.815392
O O3 0.000000 0.471873 0.000000
O O4 0.978044 0.493061 0.255548
O O5 0.500000 0.995200 0.500000
O O6 0.513941 0.996602 0.681570
O O7 0.265843 0.756624 0.997161
O O8 0.272056 0.255557 0.982929
O O9 0.246488 0.489070 0.210742
O O10 0.304400 0.617558 0.311539
O O11 0.216332 0.115014 0.400921
O O12 0.266962 0.978255 0.517380
O O13 0.000000 0.494857 0.500000
O O14 0.500000 0.005887 0.000000
#
# Coordination Sequence:
#
# PCOD9114364 Si02
#       6
#     2   2   2   2   2   2
#     4  12  23  42  66 105 136 191 225 282 352 424
#     4  12  29  51  76 106 141 190 244 296 360 423
#     4  12  25  41  69  98 143 172 236 283 352 421
#     4  12  24  42  69  98 146 175 239 285 349 423
#     4  12  28  51  75 108 141 188 242 300 357 425
#     4  12  23  40  65  98 133 184 217 291 355 421
#
# _framework density 22.933171999999999
#
# number of rings (size 3 to 8) (size 9 to 14) (size 15 to 20)
#    0.000    0.000    3.333    7.000    4.667    0.000 
#    0.000    0.000    0.000    0.000    0.000    0.000 
#    0.000    0.000    0.000    0.000    0.000    0.000 
#
# Total GULP energy -67175.950227 kJ/mol
# GULP energy per Si atom -5597.995852 kJ/mol
# Density = 2.288098 g / cm^3
# Si number density = 22.933172 Si / 1000 Ang^3
#
#
#
# Elastic Constant Matrix: (Units=GPa)
#
#
# Indices 1 2 3 4 5 6 
#
# 1 18.8715 79.7370 53.4221 0.0000 14.4243 0.0000
# 2 79.7370 -98.1238 -88.1414 0.0000 1.0885 0.0000
# 3 53.4221 -88.1414 55.2398 0.0000 14.1929 0.0000
# 4 0.0000 0.0000 0.0000 118.5350 0.0000 -20.1217
# 5 14.4243 1.0885 14.1929 0.0000 52.4531 0.0000
# 6 0.0000 0.0000 0.0000 -20.1217 0.0000 13.4730
#
#
#
# Elastic Compliance Matrix: (Units=1/GPa)
#
#
# Indices 1 2 3 4 5 6 
#
# 1 0.013247 0.008713 0.002229 0.000000 -0.004427 0.000000
# 2 0.008713 0.001736 -0.005408 0.000000 -0.000969 0.000000
# 3 0.002229 -0.005408 0.008004 0.000000 -0.002666 0.000000
# 4 0.000000 0.000000 0.000000 0.011302 0.000000 0.016879
# 5 -0.004427 -0.000969 -0.002666 0.000000 0.021024 0.000000
# 6 0.000000 0.000000 0.000000 0.016879 0.000000 0.099430
#
#
# Mechanical properties :
#
#
# Convention : Reuss Voigt Hill
#
# Bulk Modulus (GPa) = 29.36270 7.33586 18.34928
# Shear Modulus (GPa) = 32.25290 32.29022 32.27156
#
# Velocity S-wave (km/s) = 3.75425 3.75642 3.75534
# Velocity P-wave (km/s) = 5.62351 4.69255 5.17899
#
# Compressibility (1/GPa) = 0.03405682
#
# Stress axis : x y z
#
# Youngs Moduli (GPa) = 75.48801 576.02372 124.94172
#
# Poissons Ratio (x) = -5.01906 -0.27852
# Poissons Ratio (y) = -0.65775 0.67563
# Poissons Ratio (z) = -0.16828 3.11488
#
# Static dielectric constant tensor:
#      x y z
#    x 1.940470 0.000000 -0.010340 
#    y 0.000000 1.808320 0.000000 
#    z -0.010340 0.000000 1.782370 
# 
# From -- ./inp_files/12589.got.cif
#   From: 2010.05.17/outbox.cif.g08.bks.cpg/sg3_7_cif.got.tgz:12589.got - 2010.06.03 18:33:08.
