data_PCOD9114336
_publ_section_title
;
Structure prediction by ZEFSAII (Michael W. Deem and Ramdas Pophale) SiO2 
 PCOD9114336
Probable space group: P 2
;
_chemical_formula_sum "Si O2"
_cell_formula_units_Z 11
_cell_length_a 8.066919
_cell_length_b 6.594842
_cell_length_c 13.937907
_cell_angle_alpha 90.000000
_cell_angle_beta 140.831774
_cell_angle_gamma 90.000000
_cell_volume 468.329374
_symmetry_space_group_name_H-M "P 2"
_symmetry_group_IT_number 3
_symmetry_cell_setting 'monoclinic'
loop_
_space_group_symop_operation_xyz
x,y,z
-x,y,-z
loop_
_atom_site_type_symbol
_atom_site_label
_atom_site_fract_x
_atom_site_fract_y
_atom_site_fract_z
Si Si1 0.500000 0.946900 0.500000
Si Si2 0.555122 0.269344 0.685481
Si Si3 0.297190 0.749449 0.020193
Si Si4 0.726185 0.419974 0.252011
Si Si5 0.000000 0.042144 0.000000
Si Si6 0.858792 0.576696 0.696887
Si Si7 0.500000 0.104630 0.000000
O O1 0.745694 0.797256 0.623391
O O2 0.458957 0.087478 0.574507
O O3 0.354393 0.345761 0.677859
O O4 0.636946 0.450694 0.651891
O O5 0.830835 0.191921 0.856804
O O6 0.560723 0.624272 0.154115
O O7 0.223796 0.870283 0.081856
O O8 0.090803 0.598784 0.879930
O O9 0.294541 0.945416 0.949616
O O10 0.014742 0.469941 0.340174
O O11 0.614712 0.243371 0.133855
#
# Coordination Sequence:
#
# PCOD9114336 Si02
#       7
#     1   2   2   2   1   2   1
#     4  12  30  54  74 102 160 210 254 302 384 454
#     4  12  27  49  77 112 145 201 252 309 382 444
#     4  12  22  41  74 116 149 184 240 316 383 436
#     4  12  25  43  78 116 150 187 255 317 375 443
#     4  12  22  42  80 112 150 186 252 314 376 452
#     4  12  25  50  74 105 156 200 245 315 373 447
#     4  12  20  40  70 118 148 180 234 308 388 434
#
# _framework density 23.487742000000001
#
# number of rings (size 3 to 8) (size 9 to 14) (size 15 to 20)
#    0.000    0.000    7.273    3.818    0.000    0.000 
#    0.000    5.455    0.000    0.000    0.000    0.000 
#    0.000    0.000    0.000    0.000    0.000    0.000 
#
# Total GULP energy -61421.851163 kJ/mol
# GULP energy per Si atom -5583.804651 kJ/mol
# Density = 2.343428 g / cm^3
# Si number density = 23.487742 Si / 1000 Ang^3
#
#
#
# Elastic Constant Matrix: (Units=GPa)
#
#
# Indices 1 2 3 4 5 6 
#
# 1 146.0752 77.2831 14.7315 0.0000 -7.2816 0.0000
# 2 77.2831 138.7311 19.7219 0.0000 -13.8274 0.0000
# 3 14.7315 19.7219 49.7962 0.0000 -9.2311 0.0000
# 4 0.0000 0.0000 0.0000 45.0345 0.0000 -0.2203
# 5 -7.2816 -13.8274 -9.2311 0.0000 27.2776 0.0000
# 6 0.0000 0.0000 0.0000 -0.2203 0.0000 58.3440
#
#
#
# Elastic Compliance Matrix: (Units=1/GPa)
#
#
# Indices 1 2 3 4 5 6 
#
# 1 0.009739 -0.005345 -0.000837 0.000000 -0.000393 0.000000
# 2 -0.005345 0.010816 -0.002081 0.000000 0.003352 0.000000
# 3 -0.000837 -0.002081 0.022317 0.000000 0.006274 0.000000
# 4 0.000000 0.000000 0.000000 0.022206 0.000000 0.000084
# 5 -0.000393 0.003352 0.006274 0.000000 0.040377 0.000000
# 6 0.000000 0.000000 0.000000 0.000084 0.000000 0.017140
#
#
# Mechanical properties :
#
#
# Convention : Reuss Voigt Hill
#
# Bulk Modulus (GPa) = 37.95829 62.00839 49.98334
# Shear Modulus (GPa) = 33.80616 40.98894 37.39755
#
# Velocity S-wave (km/s) = 3.79794 4.18200 3.99459
# Velocity P-wave (km/s) = 5.95218 7.05524 6.52705
#
# Compressibility (1/GPa) = 0.02634470
#
# Stress axis : x y z
#
# Youngs Moduli (GPa) = 102.68423 92.45746 44.80950
#
# Poissons Ratio (x) = 0.49421 0.03750
# Poissons Ratio (y) = 0.54888 0.09325
# Poissons Ratio (z) = 0.08594 0.19240
#
# Static dielectric constant tensor:
#      x y z
#    x 1.341300 0.000000 0.064680 
#    y 0.000000 1.832120 0.000000 
#    z 0.064680 0.000000 1.859010 
# 
# From -- ./inp_files/4880.got.cif
#   From: 2010.05.17/outbox.cif.g08.bks.cpg/sg3_3_cif.got.tgz:4880.got - 2010.06.03 18:33:08.
