data_PCOD9114557
_publ_section_title
;
Structure prediction by ZEFSAII (Michael W. Deem and Ramdas Pophale) SiO2 
 PCOD9114557
Probable space group: P 21
;
_chemical_formula_sum "Si O2"
_cell_formula_units_Z 16
_cell_length_a 11.494703
_cell_length_b 8.386744
_cell_length_c 17.921860
_cell_angle_alpha 90.000000
_cell_angle_beta 160.309330
_cell_angle_gamma 90.000000
_cell_volume 582.142492
_symmetry_space_group_name_H-M "P 21"
_symmetry_group_IT_number 4
_symmetry_cell_setting 'monoclinic'
loop_
_space_group_symop_operation_xyz
x,y,z
-x,1/2+y,-z
loop_
_atom_site_type_symbol
_atom_site_label
_atom_site_fract_x
_atom_site_fract_y
_atom_site_fract_z
Si Si1 0.105184 0.410840 0.125017
Si Si2 0.724102 0.892417 0.511918
Si Si3 0.210806 0.241899 0.038841
Si Si4 0.436207 0.445757 0.870578
Si Si5 0.807046 0.147517 0.149831
Si Si6 0.468281 0.249834 0.755016
Si Si7 0.342136 0.954001 0.769583
Si Si8 0.220627 0.588072 0.324986
O O1 0.875547 0.267196 0.019482
O O2 0.227044 0.362104 0.117830
O O3 0.852215 0.566388 0.964774
O O4 0.361733 0.471766 0.344188
O O5 0.853145 0.754688 0.647060
O O6 0.049329 0.948214 0.655768
O O7 0.523783 0.797634 0.326392
O O8 0.613734 0.044266 0.495588
O O9 0.885821 0.248605 0.784235
O O10 0.559681 0.283002 0.205190
O O11 0.200604 0.561549 0.775327
O O12 0.310332 0.384986 0.714146
O O13 0.504683 0.281059 0.957299
O O14 0.817118 0.526731 0.094879
O O15 0.691554 0.015616 0.021713
O O16 0.305521 0.086895 0.683412
#
# Coordination Sequence:
#
# PCOD9114557 Si02
#       8
#     2   2   2   2   2   2   2   2
#     4   9  20  38  63  87 112 151 208 252 293 347
#     4  11  22  35  57  88 129 160 188 248 307 372
#     4  10  20  37  69  88 111 150 213 255 291 340
#     4   9  17  32  51  80 108 151 190 231 279 343
#     4  10  18  31  54  77 112 151 195 235 276 346
#     4  10  23  35  54  86 127 160 190 243 313 360
#     4  11  22  34  61  89 119 158 204 245 300 361
#     4   8  18  34  59  83 108 155 192 251 283 339
#
# _framework density 27.484683
#
# number of rings (size 3 to 8) (size 9 to 14) (size 15 to 20)
#    0.750    1.500    2.500    2.250    1.750    0.000 
#    0.000    0.000    8.250    0.000    0.000    0.000 
#    0.000    0.000    0.000    0.000    0.000    0.000 
#
# Total GULP energy -89192.888203 kJ/mol
# GULP energy per Si atom -5574.555513 kJ/mol
# Density = 2.742213 g / cm^3
# Si number density = 27.484683 Si / 1000 Ang^3
#
#
#
# Elastic Constant Matrix: (Units=GPa)
#
#
# Indices 1 2 3 4 5 6 
#
# 1 132.9308 43.3698 22.3010 0.0000 -37.2361 0.0000
# 2 43.3698 72.8343 2.4650 0.0000 -3.4397 0.0000
# 3 22.3010 2.4650 57.2584 0.0000 -16.0213 0.0000
# 4 0.0000 0.0000 0.0000 33.7435 0.0000 -7.5700
# 5 -37.2361 -3.4397 -16.0213 0.0000 43.8141 0.0000
# 6 0.0000 0.0000 0.0000 -7.5700 0.0000 57.5480
#
#
#
# Elastic Compliance Matrix: (Units=1/GPa)
#
#
# Indices 1 2 3 4 5 6 
#
# 1 0.012905 -0.007159 -0.002012 0.000000 0.009669 0.000000
# 2 -0.007159 0.017758 0.000793 0.000000 -0.004401 0.000000
# 3 -0.002012 0.000793 0.019777 0.000000 0.005584 0.000000
# 4 0.000000 0.000000 0.000000 0.030536 0.000000 0.004017
# 5 0.009669 -0.004401 0.005584 0.000000 0.032738 0.000000
# 6 0.000000 0.000000 0.000000 0.004017 0.000000 0.017905
#
#
# Mechanical properties :
#
#
# Convention : Reuss Voigt Hill
#
# Bulk Modulus (GPa) = 29.69003 44.36613 37.02808
# Shear Modulus (GPa) = 31.32746 40.01364 35.67055
#
# Velocity S-wave (km/s) = 3.37978 3.81970 3.60645
# Velocity P-wave (km/s) = 5.10454 5.96914 5.55369
#
# Compressibility (1/GPa) = 0.03368134
#
# Stress axis : x y z
#
# Youngs Moduli (GPa) = 77.49118 56.31170 50.56464
#
# Poissons Ratio (x) = 0.40316 0.10175
# Poissons Ratio (y) = 0.55479 -0.04008
# Poissons Ratio (z) = 0.15594 -0.04464
#
# Static dielectric constant tensor:
#      x y z
#    x 2.174750 0.000000 -0.016230 
#    y 0.000000 2.185230 0.000000 
#    z -0.016230 0.000000 2.296270 
# 
# From -- ./inp_files/15172.got.cif
#   From: 2010.05.17/outbox.cif.g08.bks.cpg/sg4_8_cif.got.tgz:15172.got - 2010.06.03 18:43:04.
