data_PCOD9114056
_publ_section_title
;
Structure prediction by ZEFSAII (Michael W. Deem and Ramdas Pophale) SiO2 
 PCOD9114056
Probable space group: P 2
;
_chemical_formula_sum "Si O2"
_cell_formula_units_Z 12
_cell_length_a 11.731667
_cell_length_b 4.773821
_cell_length_c 19.834743
_cell_angle_alpha 90.000000
_cell_angle_beta 159.221928
_cell_angle_gamma 90.000000
_cell_volume 394.070401
_symmetry_space_group_name_H-M "P 2"
_symmetry_group_IT_number 3
_symmetry_cell_setting 'monoclinic'
loop_
_space_group_symop_operation_xyz
x,y,z
-x,y,-z
loop_
_atom_site_type_symbol
_atom_site_label
_atom_site_fract_x
_atom_site_fract_y
_atom_site_fract_z
Si Si1 0.631698 0.743340 0.293192
Si Si2 0.672045 0.253999 0.777115
Si Si3 0.147685 0.638320 0.788198
Si Si4 0.480534 0.761273 0.631827
Si Si5 0.485446 0.254501 0.869439
Si Si6 0.807483 0.281347 0.714980
O O1 0.550782 0.514100 0.322496
O O2 0.494790 0.965456 0.280759
O O3 0.442433 0.522058 0.139362
O O4 0.000000 0.658084 0.500000
O O5 0.339866 0.009928 0.744793
O O6 0.692489 0.034257 0.722479
O O7 0.000000 0.278824 0.000000
O O8 0.256781 0.374773 0.801304
O O9 0.872443 0.796089 0.593415
O O10 0.940325 0.535374 0.736489
O O11 0.500000 0.763867 0.000000
O O12 0.693241 0.495198 0.717147
O O13 0.832473 0.147435 0.084812
O O14 0.500000 0.185007 0.500000
#
# Coordination Sequence:
#
# PCOD9114056 Si02
#       6
#     2   2   2   2   2   2
#     4  12  24  43  77 109 149 197 249 312 375 442
#     4  12  27  49  77 111 155 197 251 314 378 448
#     4  10  24  50  77 110 153 199 254 312 377 450
#     4  12  25  47  75 112 148 200 252 312 374 448
#     4  11  26  48  73 111 149 194 254 309 372 446
#     4  11  24  51  75 113 148 206 246 313 377 452
#
# _framework density 30.451415000000001
#
# number of rings (size 3 to 8) (size 9 to 14) (size 15 to 20)
#    0.000    0.667    3.333    4.000    2.333    1.333 
#    9.000    5.000    0.000    0.000    0.000    0.000 
#    0.000    0.000    0.000    0.000    0.000    0.000 
#
# Total GULP energy -67124.716329 kJ/mol
# GULP energy per Si atom -5593.726361 kJ/mol
# Density = 3.038211 g / cm^3
# Si number density = 30.451415 Si / 1000 Ang^3
#
#
#
# Elastic Constant Matrix: (Units=GPa)
#
#
# Indices 1 2 3 4 5 6 
#
# 1 288.8504 58.6603 68.4816 0.0000 19.8101 0.0000
# 2 58.6603 277.1004 61.2500 0.0000 22.4777 0.0000
# 3 68.4816 61.2500 241.6876 0.0000 2.8120 0.0000
# 4 0.0000 0.0000 0.0000 25.1299 0.0000 14.8364
# 5 19.8101 22.4777 2.8120 0.0000 58.4779 0.0000
# 6 0.0000 0.0000 0.0000 14.8364 0.0000 55.8108
#
#
#
# Elastic Compliance Matrix: (Units=1/GPa)
#
#
# Indices 1 2 3 4 5 6 
#
# 1 0.003866 -0.000522 -0.000951 0.000000 -0.001063 0.000000
# 2 -0.000522 0.004016 -0.000854 0.000000 -0.001326 0.000000
# 3 -0.000951 -0.000854 0.004619 0.000000 0.000428 0.000000
# 4 0.000000 0.000000 0.000000 0.047201 0.000000 -0.012548
# 5 -0.001063 -0.001326 0.000428 0.000000 0.017950 0.000000
# 6 0.000000 0.000000 0.000000 -0.012548 0.000000 0.021253
#
#
# Mechanical properties :
#
#
# Convention : Reuss Voigt Hill
#
# Bulk Modulus (GPa) = 127.45177 131.60246 129.52712
# Shear Modulus (GPa) = 47.09225 69.16684 58.12954
#
# Velocity S-wave (km/s) = 3.93679 4.77107 4.37387
# Velocity P-wave (km/s) = 7.91261 8.58265 8.25443
#
# Compressibility (1/GPa) = 0.00784610
#
# Stress axis : x y z
#
# Youngs Moduli (GPa) = 258.63973 249.02341 216.51951
#
# Poissons Ratio (x) = 0.13000 0.20588
# Poissons Ratio (y) = 0.13502 0.18498
# Poissons Ratio (z) = 0.24593 0.21275
#
# Static dielectric constant tensor:
#      x y z
#    x 2.620510 0.000000 -0.070120 
#    y 0.000000 2.248800 0.000000 
#    z -0.070120 0.000000 2.181680 
# 
# From -- ./inp_files/15929.got.cif
#   From: 2010.05.17/outbox.cif.g08.bks.cpg/sg3_8_cif.got.tgz:15929.got - 2010.06.03 18:33:08.
