data_PCOD9114474
_publ_section_title
;
Structure prediction by ZEFSAII (Michael W. Deem and Ramdas Pophale) SiO2 
 PCOD9114474
Probable space group: P 21
;
_chemical_formula_sum "Si O2"
_cell_formula_units_Z 14
_cell_length_a 19.022608
_cell_length_b 7.955825
_cell_length_c 10.689590
_cell_angle_alpha 90.000000
_cell_angle_beta 160.801323
_cell_angle_gamma 90.000000
_cell_volume 531.994767
_symmetry_space_group_name_H-M "P 21"
_symmetry_group_IT_number 4
_symmetry_cell_setting 'monoclinic'
loop_
_space_group_symop_operation_xyz
x,y,z
-x,1/2+y,-z
loop_
_atom_site_type_symbol
_atom_site_label
_atom_site_fract_x
_atom_site_fract_y
_atom_site_fract_z
Si Si1 0.014581 0.398110 0.322615
Si Si2 0.693317 0.684011 0.503814
Si Si3 0.169521 0.699102 0.428351
Si Si4 0.321723 0.405892 0.321385
Si Si5 0.378848 0.828457 0.532258
Si Si6 0.700459 0.619397 0.909239
Si Si7 0.127540 0.061027 0.446049
O O1 0.169876 0.527971 0.509440
O O2 0.099263 0.211735 0.498098
O O3 0.824296 0.359383 0.901927
O O4 0.907817 0.497928 0.259868
O O5 0.590595 0.844558 0.397444
O O6 0.572514 0.519494 0.347789
O O7 0.734512 0.655516 0.428032
O O8 0.935937 0.696116 0.967366
O O9 0.319297 0.730212 0.560052
O O10 0.203528 0.866082 0.572179
O O11 0.506337 0.492402 0.553038
O O12 0.251356 0.245885 0.122326
O O13 0.119553 0.522213 0.004776
O O14 0.571305 0.731951 0.790972
#
# Coordination Sequence:
#
# PCOD9114474 Si02
#       7
#     2   2   2   2   2   2   2
#     4  11  18  23  32  38  43  52  57  61  74  75
#     4   9  16  24  32  37  39  52  60  64  70  72
#     4   9  17  26  32  37  42  50  60  67  64  76
#     4  11  17  23  28  37  47  50  57  63  71  79
#     4  10  17  24  29  36  45  51  57  62  72  76
#     4  12  18  22  27  38  48  52  51  64  73  79
#     4  10  17  24  34  37  42  49  60  67  66  75
#
# _framework density 26.316047000000001
#
# number of rings (size 3 to 8) (size 9 to 14) (size 15 to 20)
#    0.000    1.714    8.571    0.000    4.000    0.000 
#    0.000    0.000    0.000    0.000    0.000    0.000 
#    0.000    0.000    0.000    0.000    0.000    0.000 
#
# Total GULP energy -78051.742431 kJ/mol
# GULP energy per Si atom -5575.124459 kJ/mol
# Density = 2.625615 g / cm^3
# Si number density = 26.316047 Si / 1000 Ang^3
#
#
#
# Elastic Constant Matrix: (Units=GPa)
#
#
# Indices 1 2 3 4 5 6 
#
# 1 39.3922 47.1180 92.9595 0.0000 12.9938 0.0000
# 2 47.1180 203.8722 42.7300 0.0000 28.7773 0.0000
# 3 92.9595 42.7300 50.4432 0.0000 26.4542 0.0000
# 4 0.0000 0.0000 0.0000 11.2808 0.0000 45.2716
# 5 12.9938 28.7773 26.4542 0.0000 61.5159 0.0000
# 6 0.0000 0.0000 0.0000 45.2716 0.0000 9.1730
#
#
#
# Elastic Compliance Matrix: (Units=1/GPa)
#
#
# Indices 1 2 3 4 5 6 
#
# 1 -0.006132 -0.000987 0.014481 0.000000 -0.004470 0.000000
# 2 -0.000987 0.005835 -0.002327 0.000000 -0.001521 0.000000
# 3 0.014481 -0.002327 -0.004981 0.000000 0.000172 0.000000
# 4 0.000000 0.000000 0.000000 -0.004714 0.000000 0.023263
# 5 -0.004470 -0.001521 0.000172 0.000000 0.017838 0.000000
# 6 0.000000 0.000000 0.000000 0.023263 0.000000 -0.005797
#
#
# Mechanical properties :
#
#
# Convention : Reuss Voigt Hill
#
# Bulk Modulus (GPa) = 58.62839 73.25808 65.94324
# Shear Modulus (GPa) = -342.49390 23.78728 -159.35331
#
# Velocity S-wave (km/s) = -11.42055 3.00977 -7.79007
# Velocity P-wave (km/s) = 12.31171 6.32270 7.47000
#
# Compressibility (1/GPa) = 0.01705658
#
# Stress axis : x y z
#
# Youngs Moduli (GPa) = -163.07675 171.36506 -200.76674
#
# Poissons Ratio (x) = 0.16911 2.90729
# Poissons Ratio (y) = -0.16093 -0.46720
# Poissons Ratio (z) = 2.36151 0.39878
#
# Static dielectric constant tensor:
#      x y z
#    x 2.128680 0.000000 -0.037470 
#    y 0.000000 2.176810 0.000000 
#    z -0.037470 0.000000 2.050870 
# 
# From -- ./inp_files/15979.got.cif
#   From: 2010.05.17/outbox.cif.g08.bks.cpg/sg4_8_cif.got.tgz:15979.got - 2010.06.03 18:43:04.
