data_PCOD9114974
_publ_section_title
;
Structure prediction by ZEFSAII (Michael W. Deem and Ramdas Pophale) SiO2 
 PCOD9114974
Probable space group: P 21
;
_chemical_formula_sum "Si O2"
_cell_formula_units_Z 16
_cell_length_a 17.752123
_cell_length_b 5.971804
_cell_length_c 5.689098
_cell_angle_alpha 90.000000
_cell_angle_beta 99.175049
_cell_angle_gamma 90.000000
_cell_volume 595.397429
_symmetry_space_group_name_H-M "P 21"
_symmetry_group_IT_number 4
_symmetry_cell_setting 'monoclinic'
loop_
_space_group_symop_operation_xyz
x,y,z
-x,1/2+y,-z
loop_
_atom_site_type_symbol
_atom_site_label
_atom_site_fract_x
_atom_site_fract_y
_atom_site_fract_z
Si Si1 0.450520 0.793850 0.662479
Si Si2 0.167825 0.554791 0.365759
Si Si3 0.316390 0.793713 0.217311
Si Si4 0.578448 0.808227 0.347895
Si Si5 0.083270 0.060554 0.831596
Si Si6 0.768001 0.314688 0.216831
Si Si7 0.264087 0.183144 0.412066
Si Si8 0.970253 0.378587 0.706293
O O1 0.388197 0.765168 0.417981
O O2 0.531884 0.805448 0.570900
O O3 0.448139 0.544689 0.782726
O O4 0.434924 0.049522 0.752067
O O5 0.238686 0.662041 0.253597
O O6 0.190887 0.604759 0.645583
O O7 0.183096 0.296194 0.330108
O O8 0.087740 0.668332 0.281309
O O9 0.299924 0.060853 0.207276
O O10 0.311225 0.741807 0.940873
O O11 0.668608 0.827685 0.443435
O O12 0.166964 0.956344 0.884791
O O13 0.049340 0.952929 0.569699
O O14 0.046743 0.022738 0.070780
O O15 0.059135 0.314385 0.764854
O O16 0.748213 0.480585 0.417348
#
# Coordination Sequence:
#
# PCOD9114974 Si02
#       8
#     2   2   2   2   2   2   2   2
#     4   9  17  31  59  89 124 166 220 269 333 402
#     4  10  21  39  60  87 118 162 211 263 324 396
#     4  10  19  38  60  86 121 158 209 267 320 397
#     4   9  17  32  57  91 122 169 218 270 330 406
#     4  11  24  43  64  95 130 169 217 273 334 407
#     4  10  23  39  59  88 126 158 210 272 327 392
#     4  10  21  36  62  87 117 167 212 263 329 396
#     4  11  24  42  65  93 130 171 215 273 337 404
#
# _framework density 26.872807000000002
#
# number of rings (size 3 to 8) (size 9 to 14) (size 15 to 20)
#    0.000    2.000    2.500    0.750    1.750    2.000 
#    0.000    0.000    2.750    0.000    0.000    0.000 
#    0.000    0.000    0.000    0.000    0.000    0.000 
#
# Total GULP energy -89121.037158 kJ/mol
# GULP energy per Si atom -5570.064822 kJ/mol
# Density = 2.681164 g / cm^3
# Si number density = 26.872807 Si / 1000 Ang^3
#
#
#
# Elastic Constant Matrix: (Units=GPa)
#
#
# Indices 1 2 3 4 5 6 
#
# 1 84.4111 45.2469 13.5591 0.0000 7.2574 0.0000
# 2 45.2469 125.0040 33.3145 0.0000 -3.5517 0.0000
# 3 13.5591 33.3145 91.2660 0.0000 31.3386 0.0000
# 4 0.0000 0.0000 0.0000 10.8475 0.0000 -2.0193
# 5 7.2574 -3.5517 31.3386 0.0000 36.0150 0.0000
# 6 0.0000 0.0000 0.0000 -2.0193 0.0000 58.1030
#
#
#
# Elastic Compliance Matrix: (Units=1/GPa)
#
#
# Indices 1 2 3 4 5 6 
#
# 1 0.015317 -0.006166 0.001774 0.000000 -0.005238 0.000000
# 2 -0.006166 0.012103 -0.006187 0.000000 0.007819 0.000000
# 3 0.001774 -0.006187 0.018944 0.000000 -0.017452 0.000000
# 4 0.000000 0.000000 0.000000 0.092788 0.000000 0.003225
# 5 -0.005238 0.007819 -0.017452 0.000000 0.044779 0.000000
# 6 0.000000 0.000000 0.000000 0.003225 0.000000 0.017323
#
#
# Mechanical properties :
#
#
# Convention : Reuss Voigt Hill
#
# Bulk Modulus (GPa) = 39.67229 53.88025 46.77627
# Shear Modulus (GPa) = 21.66251 34.89713 28.27982
#
# Velocity S-wave (km/s) = 2.84229 3.60752 3.24753
# Velocity P-wave (km/s) = 5.05634 6.11931 5.61304
#
# Compressibility (1/GPa) = 0.02520651
#
# Stress axis : x y z
#
# Youngs Moduli (GPa) = 65.28569 82.62740 52.78594
#
# Poissons Ratio (x) = 0.50947 -0.09362
# Poissons Ratio (y) = 0.40254 0.32657
# Poissons Ratio (z) = -0.11579 0.51119
#
# Static dielectric constant tensor:
#      x y z
#    x 2.091890 0.000000 -0.119900 
#    y 0.000000 2.250460 0.000000 
#    z -0.119900 0.000000 2.224520 
# 
# From -- ./inp_files/4240.got.cif
#   From: 2010.05.17/outbox.cif.g08.bks.cpg/sg4_3_cif.got.tgz:4240.got - 2010.06.03 18:43:04.
