data_PCOD9114624
_publ_section_title
;
Structure prediction by ZEFSAII (Michael W. Deem and Ramdas Pophale) SiO2 
 PCOD9114624
Probable space group: P 21
;
_chemical_formula_sum "Si O2"
_cell_formula_units_Z 16
_cell_length_a 6.907888
_cell_length_b 9.326803
_cell_length_c 14.343479
_cell_angle_alpha 90.000000
_cell_angle_beta 40.270210
_cell_angle_gamma 90.000000
_cell_volume 597.350652
_symmetry_space_group_name_H-M "P 21"
_symmetry_group_IT_number 4
_symmetry_cell_setting 'monoclinic'
loop_
_space_group_symop_operation_xyz
x,y,z
-x,1/2+y,-z
loop_
_atom_site_type_symbol
_atom_site_label
_atom_site_fract_x
_atom_site_fract_y
_atom_site_fract_z
Si Si1 0.698071 0.489580 0.021128
Si Si2 0.075149 0.959914 0.519251
Si Si3 0.757166 0.767099 0.762408
Si Si4 0.036400 0.732473 0.853433
Si Si5 0.377896 0.969893 0.238712
Si Si6 0.320097 0.263563 0.463679
Si Si7 0.850386 0.041739 0.919344
Si Si8 0.951734 0.820668 0.252582
O O1 0.843872 0.640710 0.000242
O O2 0.971839 0.437010 0.854853
O O3 0.558665 0.353745 0.128971
O O4 0.404286 0.517955 0.066160
O O5 0.360353 0.915935 0.350502
O O6 0.013921 0.874983 0.635971
O O7 0.807079 0.894489 0.552551
O O8 0.098805 0.125725 0.538569
O O9 0.809450 0.619303 0.687680
O O10 0.810949 0.721620 0.848057
O O11 0.368712 0.703684 0.692379
O O12 0.046216 0.902331 0.863707
O O13 0.229454 0.856508 0.222816
O O14 0.663315 0.037615 0.084113
O O15 0.313334 0.314445 0.574087
O O16 0.026230 0.175346 0.814170
#
# Coordination Sequence:
#
# PCOD9114624 Si02
#       8
#     2   2   2   2   2   2   2   2
#     4  10  18  34  64  95 128 166 210 272 331 377
#     4  11  24  44  66  88 132 189 213 254 354 407
#     4  11  20  39  69  95 130 179 219 266 336 400
#     4  11  23  39  65 103 133 157 225 293 315 369
#     4  10  19  37  65  93 133 171 225 263 312 417
#     4  11  25  43  63  93 135 171 223 279 324 402
#     4  10  18  36  62  97 129 172 207 267 332 378
#     4  10  19  34  60  94 126 169 214 264 328 374
#
# _framework density 26.784939000000001
#
# number of rings (size 3 to 8) (size 9 to 14) (size 15 to 20)
#    0.000    1.500    5.000    3.000    0.000    3.000 
#    0.000    2.500    0.000    0.000    0.000    0.000 
#    0.000    0.000    0.000    0.000    0.000    0.000 
#
# Total GULP energy -89190.980463 kJ/mol
# GULP energy per Si atom -5574.436279 kJ/mol
# Density = 2.672398 g / cm^3
# Si number density = 26.784939 Si / 1000 Ang^3
#
#
#
# Elastic Constant Matrix: (Units=GPa)
#
#
# Indices 1 2 3 4 5 6 
#
# 1 60.2869 14.6401 15.6366 0.0000 -16.0601 0.0000
# 2 14.6401 135.3111 41.8976 0.0000 -15.3675 0.0000
# 3 15.6366 41.8976 125.7437 0.0000 -2.4963 0.0000
# 4 0.0000 0.0000 0.0000 48.1057 0.0000 0.7389
# 5 -16.0601 -15.3675 -2.4963 0.0000 39.5329 0.0000
# 6 0.0000 0.0000 0.0000 0.7389 0.0000 22.3578
#
#
#
# Elastic Compliance Matrix: (Units=1/GPa)
#
#
# Indices 1 2 3 4 5 6 
#
# 1 0.019251 -0.000603 -0.002045 0.000000 0.007457 0.000000
# 2 -0.000603 0.008640 -0.002745 0.000000 0.002940 0.000000
# 3 -0.002045 -0.002745 0.009095 0.000000 -0.001324 0.000000
# 4 0.000000 0.000000 0.000000 0.020798 0.000000 -0.000687
# 5 0.007457 0.002940 -0.001324 0.000000 0.029384 0.000000
# 6 0.000000 0.000000 0.000000 -0.000687 0.000000 0.044750
#
#
# Mechanical properties :
#
#
# Convention : Reuss Voigt Hill
#
# Bulk Modulus (GPa) = 38.16862 51.74336 44.95599
# Shear Modulus (GPa) = 33.01699 38.61045 35.81372
#
# Velocity S-wave (km/s) = 3.51475 3.80083 3.66058
# Velocity P-wave (km/s) = 5.54547 6.21464 5.88957
#
# Compressibility (1/GPa) = 0.02619954
#
# Stress axis : x y z
#
# Youngs Moduli (GPa) = 51.94624 115.74621 109.94493
#
# Poissons Ratio (x) = 0.06976 0.22484
# Poissons Ratio (y) = 0.03131 0.30184
# Poissons Ratio (z) = 0.10623 0.31777
#
# Static dielectric constant tensor:
#      x y z
#    x 2.178270 0.000000 0.000760 
#    y 0.000000 2.207120 0.000000 
#    z 0.000760 0.000000 2.182660 
# 
# From -- ./inp_files/14967.got.cif
#   From: 2010.05.17/outbox.cif.g08.bks.cpg/sg4_8_cif.got.tgz:14967.got - 2010.06.03 18:43:04.
