data_PCOD9114680
_publ_section_title
;
Structure prediction by ZEFSAII (Michael W. Deem and Ramdas Pophale) SiO2 
 PCOD9114680
Probable space group: P 21
;
_chemical_formula_sum "Si O2"
_cell_formula_units_Z 16
_cell_length_a 9.582295
_cell_length_b 18.007403
_cell_length_c 5.198422
_cell_angle_alpha 90.000000
_cell_angle_beta 121.106754
_cell_angle_gamma 90.000000
_cell_volume 768.016439
_symmetry_space_group_name_H-M "P 21"
_symmetry_group_IT_number 4
_symmetry_cell_setting 'monoclinic'
loop_
_space_group_symop_operation_xyz
x,y,z
-x,1/2+y,-z
loop_
_atom_site_type_symbol
_atom_site_label
_atom_site_fract_x
_atom_site_fract_y
_atom_site_fract_z
Si Si1 0.565056 0.970840 0.728869
Si Si2 0.855525 0.432171 0.107760
Si Si3 0.461541 0.685607 0.954398
Si Si4 0.778617 0.067407 0.281096
Si Si5 0.539426 0.359870 0.999409
Si Si6 0.205391 0.418750 0.423303
Si Si7 0.110372 0.032551 0.359228
Si Si8 0.406500 0.112482 0.409032
O O1 0.445588 0.910933 0.733124
O O2 0.724294 0.924798 0.795842
O O3 0.485882 0.029189 0.455041
O O4 0.625122 0.027730 0.000547
O O5 0.692301 0.383526 0.969360
O O6 0.841809 0.493958 0.323205
O O7 0.026944 0.387534 0.311523
O O8 0.883507 0.471053 0.859417
O O9 0.288969 0.647457 0.711871
O O10 0.457772 0.773648 0.937568
O O11 0.585210 0.651968 0.858657
O O12 0.502278 0.661963 0.287462
O O13 0.817414 0.006586 0.533086
O O14 0.932346 0.066737 0.239437
O O15 0.361586 0.382470 0.713840
O O16 0.233587 0.094667 0.373313
#
# Coordination Sequence:
#
# PCOD9114680 Si02
#       8
#     2   2   2   2   2   2   2   2
#     4  10  18  38  65  87 119 167 214 264 313 372
#     4  11  23  39  66 101 121 159 219 271 317 375
#     4  11  25  41  59  92 131 173 208 259 333 393
#     4   9  20  37  60  90 121 162 208 265 316 370
#     4  11  25  40  63  94 132 176 209 269 331 388
#     4  10  20  39  66  91 125 164 217 268 315 374
#     4  11  21  38  67  96 121 156 218 277 308 370
#     4  11  22  40  64  91 124 167 219 261 317 386
#
# _framework density 20.832885000000001
#
# number of rings (size 3 to 8) (size 9 to 14) (size 15 to 20)
#    0.000    1.500    3.750    1.500    3.500    0.000 
#    2.250    0.000    0.000    0.000    0.000    0.000 
#    0.000    0.000    0.000    0.000    0.000    0.000 
#
# Total GULP energy -89139.338885 kJ/mol
# GULP energy per Si atom -5571.208680 kJ/mol
# Density = 2.078547 g / cm^3
# Si number density = 20.832885 Si / 1000 Ang^3
#
#
#
# Elastic Constant Matrix: (Units=GPa)
#
#
# Indices 1 2 3 4 5 6 
#
# 1 154.9112 41.6633 14.4308 0.0000 10.7259 0.0000
# 2 41.6633 103.9244 10.9475 0.0000 10.9758 0.0000
# 3 14.4308 10.9475 48.4276 0.0000 -2.3820 0.0000
# 4 0.0000 0.0000 0.0000 12.1717 0.0000 -3.5156
# 5 10.7259 10.9758 -2.3820 0.0000 35.2666 0.0000
# 6 0.0000 0.0000 0.0000 -3.5156 0.0000 19.6511
#
#
#
# Elastic Compliance Matrix: (Units=1/GPa)
#
#
# Indices 1 2 3 4 5 6 
#
# 1 0.007430 -0.002636 -0.001694 0.000000 -0.001554 0.000000
# 2 -0.002636 0.011173 -0.001878 0.000000 -0.002802 0.000000
# 3 -0.001694 -0.001878 0.021705 0.000000 0.002566 0.000000
# 4 0.000000 0.000000 0.000000 0.086635 0.000000 0.015499
# 5 -0.001554 -0.002802 0.002566 0.000000 0.029873 0.000000
# 6 0.000000 0.000000 0.000000 0.015499 0.000000 0.053661
#
#
# Mechanical properties :
#
#
# Convention : Reuss Voigt Hill
#
# Bulk Modulus (GPa) = 35.85438 49.03848 42.44643
# Shear Modulus (GPa) = 21.53402 29.43264 25.48333
#
# Velocity S-wave (km/s) = 3.21854 3.76280 3.50126
# Velocity P-wave (km/s) = 5.57313 6.51677 6.06334
#
# Compressibility (1/GPa) = 0.02789060
#
# Stress axis : x y z
#
# Youngs Moduli (GPa) = 134.59525 89.50178 46.07219
#
# Poissons Ratio (x) = 0.23592 0.07807
# Poissons Ratio (y) = 0.35479 0.08653
# Poissons Ratio (z) = 0.22807 0.16809
#
# Static dielectric constant tensor:
#      x y z
#    x 1.837070 0.000000 0.036270 
#    y 0.000000 1.725400 0.000000 
#    z 0.036270 0.000000 1.873350 
# 
# From -- ./inp_files/1522.got.cif
#   From: 2010.05.17/outbox.cif.g08.bks.cpg/sg4_1_cif.got.tgz:1522.got - 2010.06.03 18:43:04.
