data_PCOD9114647
_publ_section_title
;
Structure prediction by ZEFSAII (Michael W. Deem and Ramdas Pophale) SiO2 
 PCOD9114647
Probable space group: P 21
;
_chemical_formula_sum "Si O2"
_cell_formula_units_Z 16
_cell_length_a 16.739170
_cell_length_b 5.642315
_cell_length_c 25.316477
_cell_angle_alpha 90.000000
_cell_angle_beta 16.051201
_cell_angle_gamma 90.000000
_cell_volume 661.125289
_symmetry_space_group_name_H-M "P 21"
_symmetry_group_IT_number 4
_symmetry_cell_setting 'monoclinic'
loop_
_space_group_symop_operation_xyz
x,y,z
-x,1/2+y,-z
loop_
_atom_site_type_symbol
_atom_site_label
_atom_site_fract_x
_atom_site_fract_y
_atom_site_fract_z
Si Si1 0.602480 0.899750 0.855339
Si Si2 0.179343 0.353916 0.740454
Si Si3 0.582611 0.612648 0.126766
Si Si4 0.862558 0.672408 0.783586
Si Si5 0.134375 0.505162 0.126967
Si Si6 0.404320 0.506576 0.489335
Si Si7 0.629123 0.738928 0.211768
Si Si8 0.672413 0.235877 0.238057
O O1 0.838905 0.759920 0.738965
O O2 0.652198 0.002337 0.764913
O O3 0.355212 0.710462 0.000433
O O4 0.445701 0.082984 0.996298
O O5 0.291430 0.514378 0.621203
O O6 0.399840 0.243587 0.642569
O O7 0.117517 0.112897 0.746896
O O8 0.862286 0.440887 0.960556
O O9 0.494438 0.717233 0.238794
O O10 0.713114 0.815783 0.007020
O O11 0.112690 0.490767 0.639472
O O12 0.954249 0.889575 0.762242
O O13 0.586813 0.279498 0.353768
O O14 0.568026 0.483231 0.277577
O O15 0.560308 0.995215 0.281843
O O16 0.979956 0.740121 0.985070
#
# Coordination Sequence:
#
# PCOD9114647 Si02
#       8
#     2   2   2   2   2   2   2   2
#     4  10  20  34  61  90 126 173 220 262 326 400
#     4  11  24  36  57  97 138 177 200 261 346 417
#     4  10  22  38  63  94 124 170 224 276 326 386
#     4  11  20  37  56  89 134 172 213 261 331 406
#     4  10  18  36  57  87 126 170 208 266 314 403
#     4  12  24  38  59  99 141 173 214 267 345 408
#     4  10  23  44  66  90 129 178 230 275 317 392
#     4  10  25  41  65  94 132 179 221 272 327 398
#
# _framework density 24.201162
#
# number of rings (size 3 to 8) (size 9 to 14) (size 15 to 20)
#    0.000    1.500    5.000    1.500   10.500    1.000 
#    0.000    0.000    0.000    0.000    3.250    0.000 
#    0.000    0.000    0.000    0.000    0.000    0.000 
#
# Total GULP energy -89283.948836 kJ/mol
# GULP energy per Si atom -5580.246802 kJ/mol
# Density = 2.414608 g / cm^3
# Si number density = 24.201162 Si / 1000 Ang^3
#
#
#
# Elastic Constant Matrix: (Units=GPa)
#
#
# Indices 1 2 3 4 5 6 
#
# 1 150.3416 53.4440 16.1886 0.0000 4.0558 0.0000
# 2 53.4440 98.6907 2.6914 0.0000 6.2990 0.0000
# 3 16.1886 2.6914 19.2904 0.0000 3.3548 0.0000
# 4 0.0000 0.0000 0.0000 12.2318 0.0000 0.8289
# 5 4.0558 6.2990 3.3548 0.0000 28.3733 0.0000
# 6 0.0000 0.0000 0.0000 0.8289 0.0000 47.9624
#
#
#
# Elastic Compliance Matrix: (Units=1/GPa)
#
#
# Indices 1 2 3 4 5 6 
#
# 1 0.009092 -0.004769 -0.007068 0.000000 0.000595 0.000000
# 2 -0.004769 0.012801 0.002646 0.000000 -0.002473 0.000000
# 3 -0.007068 0.002646 0.058532 0.000000 -0.006498 0.000000
# 4 0.000000 0.000000 0.000000 0.081850 0.000000 -0.001415
# 5 0.000595 -0.002473 -0.006498 0.000000 0.036477 0.000000
# 6 0.000000 0.000000 0.000000 -0.001415 0.000000 0.020874
#
#
# Mechanical properties :
#
#
# Convention : Reuss Voigt Hill
#
# Bulk Modulus (GPa) = 16.11786 45.88561 31.00174
# Shear Modulus (GPa) = 19.32836 30.78007 25.05421
#
# Velocity S-wave (km/s) = 2.82911 3.57016 3.22102
# Velocity P-wave (km/s) = 4.16488 5.99966 5.16441
#
# Compressibility (1/GPa) = 0.06204296
#
# Stress axis : x y z
#
# Youngs Moduli (GPa) = 109.99017 78.12057 17.08477
#
# Poissons Ratio (x) = 0.37253 0.12075
# Poissons Ratio (y) = 0.52451 -0.04521
# Poissons Ratio (z) = 0.77740 -0.20671
#
# Static dielectric constant tensor:
#      x y z
#    x 2.065710 0.000000 -0.002080 
#    y 0.000000 2.022510 0.000000 
#    z -0.002080 0.000000 1.933750 
# 
# From -- ./inp_files/12488.got.cif
#   From: 2010.05.17/outbox.cif.g08.bks.cpg/sg4_7_cif.got.tgz:12488.got - 2010.06.03 18:43:04.
