data_PCOD9114393
_publ_section_title
;
Structure prediction by ZEFSAII (Michael W. Deem and Ramdas Pophale) SiO2 
 PCOD9114393
Probable space group: P 2
;
_chemical_formula_sum "Si O2"
_cell_formula_units_Z 10
_cell_length_a 13.232055
_cell_length_b 5.021986
_cell_length_c 7.134984
_cell_angle_alpha 90.000000
_cell_angle_beta 125.971411
_cell_angle_gamma 90.000000
_cell_volume 383.716790
_symmetry_space_group_name_H-M "P 2"
_symmetry_group_IT_number 3
_symmetry_cell_setting 'monoclinic'
loop_
_space_group_symop_operation_xyz
x,y,z
-x,y,-z
loop_
_atom_site_type_symbol
_atom_site_label
_atom_site_fract_x
_atom_site_fract_y
_atom_site_fract_z
Si Si1 0.380354 0.787580 0.999858
Si Si2 0.479895 0.277771 0.268825
Si Si3 0.140931 0.528529 0.699968
Si Si4 0.764708 0.187753 0.512430
Si Si5 0.145744 0.685580 0.145926
O O1 0.422801 0.570345 0.198623
O O2 0.376833 0.079795 0.076873
O O3 0.500000 0.774585 0.000000
O O4 0.257267 0.705722 0.755258
O O5 0.500000 0.194199 0.500000
O O6 0.615435 0.238342 0.321119
O O7 0.160057 0.591129 0.943358
O O8 0.000000 0.610676 0.500000
O O9 0.163393 0.251528 0.608276
O O10 0.818849 0.426583 0.697882
O O11 0.000000 0.756340 0.000000
O O12 0.785106 0.930412 0.670837
#
# Coordination Sequence:
#
# PCOD9114393 Si02
#       5
#     2   2   2   2   2
#     4  12  26  48  75 115 154 201 275 327 403 508
#     4  12  25  48  78 110 157 206 263 345 411 487
#     4  12  28  53  83 120 167 228 270 352 429 496
#     4  12  27  51  80 119 163 217 280 345 422 502
#     4  12  27  51  76 122 167 214 282 343 413 520
#
# _framework density 26.060887999999998
#
# number of rings (size 3 to 8) (size 9 to 14) (size 15 to 20)
#    0.000    0.000    4.000    5.400    0.000    1.600 
#    0.000    0.000    0.000    0.000    0.000    0.000 
#    0.000    0.000    0.000    0.000    0.000    0.000 
#
# Total GULP energy -55875.355298 kJ/mol
# GULP energy per Si atom -5587.535530 kJ/mol
# Density = 2.600157 g / cm^3
# Si number density = 26.060888 Si / 1000 Ang^3
#
#
#
# Elastic Constant Matrix: (Units=GPa)
#
#
# Indices 1 2 3 4 5 6 
#
# 1 127.8643 22.5962 60.4889 0.0000 -10.7333 0.0000
# 2 22.5962 97.7746 53.5082 0.0000 -17.7913 0.0000
# 3 60.4889 53.5082 186.2173 0.0000 -3.0559 0.0000
# 4 0.0000 0.0000 0.0000 52.3078 0.0000 2.0942
# 5 -10.7333 -17.7913 -3.0559 0.0000 61.1105 0.0000
# 6 0.0000 0.0000 0.0000 2.0942 0.0000 21.1666
#
#
#
# Elastic Compliance Matrix: (Units=1/GPa)
#
#
# Indices 1 2 3 4 5 6 
#
# 1 0.009383 -0.000304 -0.002937 0.000000 0.001413 0.000000
# 2 -0.000304 0.012877 -0.003544 0.000000 0.003518 0.000000
# 3 -0.002937 -0.003544 0.007323 0.000000 -0.001181 0.000000
# 4 0.000000 0.000000 0.000000 0.019194 0.000000 -0.001899
# 5 0.001413 0.003518 -0.001181 0.000000 0.017577 0.000000
# 6 0.000000 0.000000 0.000000 -0.001899 0.000000 0.047432
#
#
# Mechanical properties :
#
#
# Convention : Reuss Voigt Hill
#
# Bulk Modulus (GPa) = 62.44822 76.11585 69.28203
# Shear Modulus (GPa) = 37.68079 45.26784 41.47431
#
# Velocity S-wave (km/s) = 3.80659 4.17226 3.99361
# Velocity P-wave (km/s) = 6.58290 7.24435 6.92153
#
# Compressibility (1/GPa) = 0.01601327
#
# Stress axis : x y z
#
# Youngs Moduli (GPa) = 106.58033 77.65519 136.55474
#
# Poissons Ratio (x) = 0.02360 0.40109
# Poissons Ratio (y) = 0.03239 0.48392
# Poissons Ratio (z) = 0.31305 0.27519
#
# Static dielectric constant tensor:
#      x y z
#    x 2.217940 0.000000 -0.057340 
#    y 0.000000 2.118060 0.000000 
#    z -0.057340 0.000000 2.044730 
# 
# From -- ./inp_files/8414.got.cif
#   From: 2010.05.17/outbox.cif.g08.bks.cpg/sg3_5_cif.got.tgz:8414.got - 2010.06.03 18:33:08.
