data_PCOD9114638
_publ_section_title
;
Structure prediction by ZEFSAII (Michael W. Deem and Ramdas Pophale) SiO2 
 PCOD9114638
Probable space group: P 21
;
_chemical_formula_sum "Si O2"
_cell_formula_units_Z 16
_cell_length_a 10.066740
_cell_length_b 7.005040
_cell_length_c 9.197677
_cell_angle_alpha 90.000000
_cell_angle_beta 120.313847
_cell_angle_gamma 90.000000
_cell_volume 559.920131
_symmetry_space_group_name_H-M "P 21"
_symmetry_group_IT_number 4
_symmetry_cell_setting 'monoclinic'
loop_
_space_group_symop_operation_xyz
x,y,z
-x,1/2+y,-z
loop_
_atom_site_type_symbol
_atom_site_label
_atom_site_fract_x
_atom_site_fract_y
_atom_site_fract_z
Si Si1 0.146644 0.196680 0.634729
Si Si2 0.325779 0.461009 0.534334
Si Si3 0.562085 0.386301 0.411394
Si Si4 0.938640 0.067180 0.258250
Si Si5 0.205263 0.969382 0.221452
Si Si6 0.094786 0.537255 0.169478
Si Si7 0.260368 0.051210 0.959261
Si Si8 0.676600 0.961103 0.945539
O O1 0.282634 0.322128 0.640049
O O2 0.070850 0.340664 0.710729
O O3 0.218398 0.019401 0.765663
O O4 0.014967 0.150062 0.444863
O O5 0.437038 0.374289 0.472712
O O6 0.381615 0.675179 0.601223
O O7 0.161906 0.483174 0.362264
O O8 0.702492 0.482966 0.573292
O O9 0.473973 0.496395 0.233071
O O10 0.055733 0.094406 0.188887
O O11 0.763960 0.108004 0.102234
O O12 0.151824 0.751769 0.177998
O O13 0.327550 0.987175 0.154138
O O14 0.189797 0.421287 0.100578
O O15 0.912692 0.523261 0.070961
O O16 0.344714 0.256345 0.991326
#
# Coordination Sequence:
#
# PCOD9114638 Si02
#       8
#     2   2   2   2   2   2   2   2
#     4  11  25  41  66 107 153 183 233 309 377 431
#     4  10  23  40  68 100 147 190 236 294 370 430
#     4  10  23  41  70 105 138 189 251 300 352 442
#     4  11  24  42  69 106 141 189 243 294 377 431
#     4  11  22  39  70 101 138 185 241 293 350 439
#     4  10  18  35  61 103 132 168 231 292 344 413
#     4  11  20  39  65 101 136 181 233 292 360 423
#     4  10  21  37  67 101 133 181 240 296 346 423
#
# _framework density 28.575503999999999
#
# number of rings (size 3 to 8) (size 9 to 14) (size 15 to 20)
#    0.000    1.500    3.750    1.500    7.000    2.000 
#    0.000    0.000   16.500    0.000    0.000    0.000 
#    0.000    0.000    0.000    0.000    0.000    0.000 
#
# Total GULP energy -89314.577102 kJ/mol
# GULP energy per Si atom -5582.161069 kJ/mol
# Density = 2.851047 g / cm^3
# Si number density = 28.575504 Si / 1000 Ang^3
#
#
#
# Elastic Constant Matrix: (Units=GPa)
#
#
# Indices 1 2 3 4 5 6 
#
# 1 56.1395 5.4315 4.6765 0.0000 -13.8801 0.0000
# 2 5.4315 73.8385 24.5155 0.0000 -7.2360 0.0000
# 3 4.6765 24.5155 169.6570 0.0000 -9.1426 0.0000
# 4 0.0000 0.0000 0.0000 53.3441 0.0000 -4.6687
# 5 -13.8801 -7.2360 -9.1426 0.0000 47.8675 0.0000
# 6 0.0000 0.0000 0.0000 -4.6687 0.0000 34.4007
#
#
#
# Elastic Compliance Matrix: (Units=1/GPa)
#
#
# Indices 1 2 3 4 5 6 
#
# 1 0.019247 -0.000845 -0.000116 0.000000 0.005431 0.000000
# 2 -0.000845 0.014414 -0.001976 0.000000 0.001556 0.000000
# 3 -0.000116 -0.001976 0.006229 0.000000 0.000858 0.000000
# 4 0.000000 0.000000 0.000000 0.018972 0.000000 0.002575
# 5 0.005431 0.001556 0.000858 0.000000 0.022865 0.000000
# 6 0.000000 0.000000 0.000000 0.002575 0.000000 0.029419
#
#
# Mechanical properties :
#
#
# Convention : Reuss Voigt Hill
#
# Bulk Modulus (GPa) = 29.39717 40.98688 35.19203
# Shear Modulus (GPa) = 38.95391 44.78990 41.87190
#
# Velocity S-wave (km/s) = 3.69615 3.96336 3.83209
# Velocity P-wave (km/s) = 5.34090 5.94297 5.64996
#
# Compressibility (1/GPa) = 0.03401688
#
# Stress axis : x y z
#
# Youngs Moduli (GPa) = 51.95621 69.37841 160.53622
#
# Poissons Ratio (x) = 0.05863 0.01858
# Poissons Ratio (y) = 0.04391 0.31716
# Poissons Ratio (z) = 0.00601 0.13707
#
# Static dielectric constant tensor:
#      x y z
#    x 2.204000 0.000000 0.046220 
#    y 0.000000 2.349710 0.000000 
#    z 0.046220 0.000000 2.582880 
# 
# From -- ./inp_files/7882.got.cif
#   From: 2010.05.17/outbox.cif.g08.bks.cpg/sg4_4_cif.got.tgz:7882.got - 2010.06.03 18:43:04.
