data_PCOD9114561
_publ_section_title
;
Structure prediction by ZEFSAII (Michael W. Deem and Ramdas Pophale) SiO2 
 PCOD9114561
Probable space group: P 21
;
_chemical_formula_sum "Si O2"
_cell_formula_units_Z 16
_cell_length_a 9.424986
_cell_length_b 19.615851
_cell_length_c 9.798285
_cell_angle_alpha 90.000000
_cell_angle_beta 149.805027
_cell_angle_gamma 90.000000
_cell_volume 911.082419
_symmetry_space_group_name_H-M "P 21"
_symmetry_group_IT_number 4
_symmetry_cell_setting 'monoclinic'
loop_
_space_group_symop_operation_xyz
x,y,z
-x,1/2+y,-z
loop_
_atom_site_type_symbol
_atom_site_label
_atom_site_fract_x
_atom_site_fract_y
_atom_site_fract_z
Si Si1 0.406082 0.233820 0.372899
Si Si2 0.523853 0.018104 0.542776
Si Si3 0.899919 0.454732 0.020082
Si Si4 0.000178 0.173280 0.230292
Si Si5 0.428367 0.089445 0.740966
Si Si6 0.741856 0.126856 0.514391
Si Si7 0.685585 0.563844 0.048603
Si Si8 0.853575 0.297658 0.954566
O O1 0.603979 0.200490 0.424183
O O2 0.605923 0.265509 0.656394
O O3 0.215459 0.172792 0.280451
O O4 0.155772 0.286224 0.128945
O O5 0.431234 0.037218 0.617454
O O6 0.670015 0.083004 0.590349
O O7 0.768114 0.961586 0.732891
O O8 0.261305 0.993693 0.235274
O O9 0.811375 0.496211 0.082218
O O10 0.810338 0.376310 0.949276
O O11 0.188706 0.146482 0.510951
O O12 0.731695 0.125766 0.992308
O O13 0.893104 0.251226 0.124000
O O14 0.377033 0.056337 0.844634
O O15 0.074571 0.121771 0.771159
O O16 0.587373 0.088369 0.261906
#
# Coordination Sequence:
#
# PCOD9114561 Si02
#       8
#     2   2   2   2   2   2   2   2
#     4  10  18  31  57  83  99 136 172 237 258 304
#     4  10  19  31  55  76 105 136 178 219 258 314
#     4  10  21  35  53  80 105 146 181 218 264 319
#     4  10  19  31  56  82 103 138 176 229 263 310
#     4  12  20  35  54  85 110 137 180 221 274 323
#     4  10  18  35  51  80 106 134 170 220 277 308
#     4  10  23  33  53  80 117 140 167 221 276 320
#     4  10  18  33  53  84 103 137 186 227 254 320
#
# _framework density 17.561527000000002
#
# number of rings (size 3 to 8) (size 9 to 14) (size 15 to 20)
#    0.750    1.000    2.500    3.000    3.500    0.000 
#    0.000    0.000    0.000    9.000    0.000    0.000 
#    0.000    0.000    0.000    0.000    0.000    0.000 
#
# Total GULP energy -89098.204058 kJ/mol
# GULP energy per Si atom -5568.637754 kJ/mol
# Density = 1.752156 g / cm^3
# Si number density = 17.561527 Si / 1000 Ang^3
#
#
#
# Elastic Constant Matrix: (Units=GPa)
#
#
# Indices 1 2 3 4 5 6 
#
# 1 81.6932 34.3796 22.4627 0.0000 -24.3291 0.0000
# 2 34.3796 61.8625 7.9576 0.0000 -5.5519 0.0000
# 3 22.4627 7.9576 81.9431 0.0000 6.0156 0.0000
# 4 0.0000 0.0000 0.0000 20.1698 0.0000 3.8370
# 5 -24.3291 -5.5519 6.0156 0.0000 25.4011 0.0000
# 6 0.0000 0.0000 0.0000 3.8370 0.0000 12.8199
#
#
#
# Elastic Compliance Matrix: (Units=1/GPa)
#
#
# Indices 1 2 3 4 5 6 
#
# 1 0.026799 -0.011610 -0.008057 0.000000 0.025038 0.000000
# 2 -0.011610 0.021813 0.001558 0.000000 -0.006721 0.000000
# 3 -0.008057 0.001558 0.015064 0.000000 -0.010944 0.000000
# 4 0.000000 0.000000 0.000000 0.052572 0.000000 -0.015735
# 5 0.025038 -0.006721 -0.010944 0.000000 0.064473 0.000000
# 6 0.000000 0.000000 0.000000 -0.015735 0.000000 0.082713
#
#
# Mechanical properties :
#
#
# Convention : Reuss Voigt Hill
#
# Bulk Modulus (GPa) = 36.41873 39.45540 37.93707
# Shear Modulus (GPa) = 16.19145 22.39144 19.29145
#
# Velocity S-wave (km/s) = 3.03971 3.57463 3.31797
# Velocity P-wave (km/s) = 5.75349 6.28912 6.02726
#
# Compressibility (1/GPa) = 0.02745840
#
# Stress axis : x y z
#
# Youngs Moduli (GPa) = 37.31524 45.84351 66.38193
#
# Poissons Ratio (x) = 0.53223 0.53483
# Poissons Ratio (y) = 0.43322 -0.10339
# Poissons Ratio (z) = 0.30064 -0.07140
#
# Static dielectric constant tensor:
#      x y z
#    x 1.601570 0.000000 0.015190 
#    y 0.000000 1.620430 0.000000 
#    z 0.015190 0.000000 1.621370 
# 
# From -- ./inp_files/2109.got.cif
#   From: 2010.05.17/outbox.cif.g08.bks.cpg/sg4_2_cif.got.tgz:2109.got - 2010.06.03 18:43:04.
