data_PCOD9114873
_publ_section_title
;
Structure prediction by ZEFSAII (Michael W. Deem and Ramdas Pophale) SiO2 
 PCOD9114873
Probable space group: P 21
;
_chemical_formula_sum "Si O2"
_cell_formula_units_Z 12
_cell_length_a 11.995518
_cell_length_b 5.120833
_cell_length_c 10.534608
_cell_angle_alpha 90.000000
_cell_angle_beta 94.888449
_cell_angle_gamma 90.000000
_cell_volume 644.755969
_symmetry_space_group_name_H-M "P 21"
_symmetry_group_IT_number 4
_symmetry_cell_setting 'monoclinic'
loop_
_space_group_symop_operation_xyz
x,y,z
-x,1/2+y,-z
loop_
_atom_site_type_symbol
_atom_site_label
_atom_site_fract_x
_atom_site_fract_y
_atom_site_fract_z
Si Si1 0.976977 0.019110 0.076868
Si Si2 0.891577 0.719466 0.666657
Si Si3 0.357284 0.201819 0.434299
Si Si4 0.395887 0.698126 0.611515
Si Si5 0.194297 0.572486 0.743232
Si Si6 0.070830 0.070645 0.614218
O O1 0.055407 0.090663 0.204130
O O2 0.851443 0.060428 0.118206
O O3 0.003963 0.228190 0.970602
O O4 0.758392 0.699140 0.652345
O O5 0.929514 0.585793 0.537681
O O6 0.946389 0.009605 0.655997
O O7 0.364092 0.973255 0.541825
O O8 0.470282 0.182845 0.362694
O O9 0.362551 0.476505 0.507143
O O10 0.324261 0.621132 0.727966
O O11 0.137206 0.817731 0.668634
O O12 0.140957 0.314915 0.673513
#
# Coordination Sequence:
#
# PCOD9114873 Si02
#       6
#     2   2   2   2   2   2
#     4  11  25  38  52  77 109 156 195 230 276 324
#     4  11  21  37  56  83 119 144 184 235 282 349
#     4  10  21  32  58  84 121 143 178 227 284 352
#     4  10  19  36  53  89 115 147 178 223 290 344
#     4  11  20  38  58  79 119 144 186 230 282 349
#     4  11  22  31  57  90 107 148 175 229 302 340
#
# _framework density 18.611688999999998
#
# number of rings (size 3 to 8) (size 9 to 14) (size 15 to 20)
#    0.000    1.333    3.333    4.000    0.000    5.333 
#    0.000    0.000    0.000    2.000    0.000    0.000 
#    0.000    0.000    0.000    0.000    0.000    0.000 
#
# Total GULP energy -66962.862845 kJ/mol
# GULP energy per Si atom -5580.238570 kJ/mol
# Density = 1.856933 g / cm^3
# Si number density = 18.611689 Si / 1000 Ang^3
#
#
#
# Elastic Constant Matrix: (Units=GPa)
#
#
# Indices 1 2 3 4 5 6 
#
# 1 143.8414 -3.9476 16.0158 0.0000 -10.5019 0.0000
# 2 -3.9476 96.8577 -0.6226 0.0000 7.1512 0.0000
# 3 16.0158 -0.6226 46.5720 0.0000 -6.3476 0.0000
# 4 0.0000 0.0000 0.0000 25.6516 0.0000 -3.0152
# 5 -10.5019 7.1512 -6.3476 0.0000 27.2415 0.0000
# 6 0.0000 0.0000 0.0000 -3.0152 0.0000 23.1807
#
#
#
# Elastic Compliance Matrix: (Units=1/GPa)
#
#
# Indices 1 2 3 4 5 6 
#
# 1 0.007370 0.000117 -0.002220 0.000000 0.002293 0.000000
# 2 0.000117 0.010533 -0.000279 0.000000 -0.002785 0.000000
# 3 -0.002220 -0.000279 0.022851 0.000000 0.004542 0.000000
# 4 0.000000 0.000000 0.000000 0.039589 0.000000 0.005150
# 5 0.002293 -0.002785 0.004542 0.000000 0.039382 0.000000
# 6 0.000000 0.000000 0.000000 0.005150 0.000000 0.043809
#
#
# Mechanical properties :
#
#
# Convention : Reuss Voigt Hill
#
# Bulk Modulus (GPa) = 27.78632 34.46249 31.12440
# Shear Modulus (GPa) = 27.73221 33.60313 30.66767
#
# Velocity S-wave (km/s) = 3.86429 4.25371 4.06367
# Velocity P-wave (km/s) = 5.90528 6.53316 6.22714
#
# Compressibility (1/GPa) = 0.03598894
#
# Stress axis : x y z
#
# Youngs Moduli (GPa) = 135.68602 94.93958 43.76176
#
# Poissons Ratio (x) = -0.01109 0.09717
# Poissons Ratio (y) = -0.01585 0.01221
# Poissons Ratio (z) = 0.30127 0.02648
#
# Static dielectric constant tensor:
#      x y z
#    x 1.729390 0.000000 -0.048060 
#    y 0.000000 1.696170 0.000000 
#    z -0.048060 0.000000 1.627150 
# 
# From -- ./inp_files/7380.got.cif
#   From: 2010.05.17/outbox.cif.g08.bks.cpg/sg4_4_cif.got.tgz:7380.got - 2010.06.03 18:43:04.
