data_PCOD9114037
_publ_section_title
;
Structure prediction by ZEFSAII (Michael W. Deem and Ramdas Pophale) SiO2 
 PCOD9114037
Probable space group: P 2
;
_chemical_formula_sum "Si O2"
_cell_formula_units_Z 13
_cell_length_a 7.629774
_cell_length_b 5.573804
_cell_length_c 12.224865
_cell_angle_alpha 90.000000
_cell_angle_beta 68.878951
_cell_angle_gamma 90.000000
_cell_volume 484.959928
_symmetry_space_group_name_H-M "P 2"
_symmetry_group_IT_number 3
_symmetry_cell_setting 'monoclinic'
loop_
_space_group_symop_operation_xyz
x,y,z
-x,y,-z
loop_
_atom_site_type_symbol
_atom_site_label
_atom_site_fract_x
_atom_site_fract_y
_atom_site_fract_z
Si Si1 0.457838 0.681640 0.621852
Si Si2 0.000000 0.872966 0.000000
Si Si3 0.159193 0.327217 0.709966
Si Si4 0.789867 0.278777 0.535478
Si Si5 0.352685 0.955999 0.240977
Si Si6 0.166960 0.563104 0.128038
Si Si7 0.328227 0.240399 0.910579
O O1 0.500000 0.816792 0.500000
O O2 0.249971 0.580300 0.656144
O O3 0.614427 0.463546 0.589494
O O4 0.484184 0.824652 0.726141
O O5 0.181011 0.036299 0.978663
O O6 0.997796 0.702814 0.104898
O O7 0.204729 0.179949 0.590595
O O8 0.939863 0.349203 0.785269
O O9 0.266177 0.276546 0.798567
O O10 0.765407 0.079632 0.635269
O O11 0.000000 0.391301 0.500000
O O12 0.458835 0.149571 0.141381
O O13 0.259125 0.748953 0.190080
O O14 0.291289 0.463058 0.999556
#
# Coordination Sequence:
#
# PCOD9114037 Si02
#       7
#     2   1   2   2   2   2   2
#     4  10  24  46  76 115 155 205 261 332 408 482
#     4  12  24  48  80 118 142 228 270 316 416 480
#     4  11  22  51  81 103 164 200 268 333 395 478
#     4  11  26  45  75 117 154 208 253 342 409 467
#     4  12  29  47  80 115 162 206 270 331 412 488
#     4  12  27  52  77 121 162 209 272 336 401 484
#     4  12  26  50  79 114 157 217 269 340 392 477
#
# _framework density 26.806338
#
# number of rings (size 3 to 8) (size 9 to 14) (size 15 to 20)
#    0.000    0.615    4.615    1.846    4.308    4.923 
#    2.769    0.000    0.000    0.000    0.000    0.000 
#    0.000    0.000    0.000    0.000    0.000    0.000 
#
# Total GULP energy -72792.309814 kJ/mol
# GULP energy per Si atom -5599.408447 kJ/mol
# Density = 2.674533 g / cm^3
# Si number density = 26.806338 Si / 1000 Ang^3
#
#
#
# Elastic Constant Matrix: (Units=GPa)
#
#
# Indices 1 2 3 4 5 6 
#
# 1 126.5095 33.2207 56.1646 0.0000 -9.7970 0.0000
# 2 33.2207 75.5717 75.2438 0.0000 -1.0677 0.0000
# 3 56.1646 75.2438 207.6149 0.0000 0.9299 0.0000
# 4 0.0000 0.0000 0.0000 25.8972 0.0000 2.6035
# 5 -9.7970 -1.0677 0.9299 0.0000 55.5109 0.0000
# 6 0.0000 0.0000 0.0000 2.6035 0.0000 45.3254
#
#
#
# Elastic Compliance Matrix: (Units=1/GPa)
#
#
# Indices 1 2 3 4 5 6 
#
# 1 0.009416 -0.002460 -0.001663 0.000000 0.001642 0.000000
# 2 -0.002460 0.021361 -0.007077 0.000000 0.000095 0.000000
# 3 -0.001663 -0.007077 0.007834 0.000000 -0.000561 0.000000
# 4 0.000000 0.000000 0.000000 0.038839 0.000000 -0.002231
# 5 0.001642 0.000095 -0.000561 0.000000 0.018316 0.000000
# 6 0.000000 0.000000 0.000000 -0.002231 0.000000 0.022191
#
#
# Mechanical properties :
#
#
# Convention : Reuss Voigt Hill
#
# Bulk Modulus (GPa) = 61.68530 82.10603 71.89566
# Shear Modulus (GPa) = 34.30310 41.68447 37.99378
#
# Velocity S-wave (km/s) = 3.58112 3.94766 3.76885
# Velocity P-wave (km/s) = 6.33724 7.17457 6.76887
#
# Compressibility (1/GPa) = 0.01621132
#
# Stress axis : x y z
#
# Youngs Moduli (GPa) = 106.20141 46.81375 127.65355
#
# Poissons Ratio (x) = 0.11517 0.21228
# Poissons Ratio (y) = 0.26128 0.90335
# Poissons Ratio (z) = 0.17661 0.33128
#
# Static dielectric constant tensor:
#      x y z
#    x 2.094790 0.000000 -0.016840 
#    y 0.000000 2.195570 0.000000 
#    z -0.016840 0.000000 2.211140 
# 
# From -- ./inp_files/10212.got.cif
#   From: 2010.05.17/outbox.cif.g08.bks.cpg/sg3_6_cif.got.tgz:10212.got - 2010.06.03 18:33:08.
