data_PCOD9114485
_publ_section_title
;
Structure prediction by ZEFSAII (Michael W. Deem and Ramdas Pophale) SiO2 
 PCOD9114485
Probable space group: P 21
;
_chemical_formula_sum "Si O2"
_cell_formula_units_Z 12
_cell_length_a 13.175120
_cell_length_b 4.903544
_cell_length_c 10.319139
_cell_angle_alpha 90.000000
_cell_angle_beta 136.087552
_cell_angle_gamma 90.000000
_cell_volume 462.371576
_symmetry_space_group_name_H-M "P 21"
_symmetry_group_IT_number 4
_symmetry_cell_setting 'monoclinic'
loop_
_space_group_symop_operation_xyz
x,y,z
-x,1/2+y,-z
loop_
_atom_site_type_symbol
_atom_site_label
_atom_site_fract_x
_atom_site_fract_y
_atom_site_fract_z
Si Si1 0.807967 0.125000 0.267814
Si Si2 0.583299 0.115762 0.397192
Si Si3 0.935571 0.809933 0.995848
Si Si4 0.684694 0.394676 0.718736
Si Si5 0.444357 0.641486 0.152564
Si Si6 0.022746 0.128570 0.676314
O O1 0.863092 0.174384 0.465187
O O2 0.918454 0.323072 0.289412
O O3 0.645446 0.169995 0.063541
O O4 0.857334 0.816561 0.285788
O O5 0.706305 0.252892 0.599047
O O6 0.502794 0.342969 0.236878
O O7 0.477417 0.023960 0.418528
O O8 0.579799 0.848445 0.303156
O O9 0.968982 0.729019 0.171706
O O10 0.049564 0.629958 0.015307
O O11 0.786615 0.659803 0.821848
O O12 0.673477 0.220703 0.842494
#
# Coordination Sequence:
#
# PCOD9114485 Si02
#       6
#     2   2   2   2   2   2
#     4  10  18  32  58  77 107 140 173 257 269 316
#     4  10  19  29  54  77 107 135 168 247 275 316
#     4  12  26  36  53  77 120 166 178 210 261 351
#     4  10  20  33  52  76 113 137 187 215 281 324
#     4  10  17  29  50  81 103 129 166 226 298 308
#     4  10  20  35  51  78 106 147 196 211 280 317
#
# _framework density 25.953151999999999
#
# number of rings (size 3 to 8) (size 9 to 14) (size 15 to 20)
#    1.000    0.667    3.333    3.000    2.333    0.000 
#    0.000    0.000    0.000    0.000    0.000    4.667 
#    0.000    0.000    0.000    0.000    0.000    0.000 
#
# Total GULP energy -67003.467899 kJ/mol
# GULP energy per Si atom -5583.622325 kJ/mol
# Density = 2.589408 g / cm^3
# Si number density = 25.953152 Si / 1000 Ang^3
#
#
#
# Elastic Constant Matrix: (Units=GPa)
#
#
# Indices 1 2 3 4 5 6 
#
# 1 18.9493 -16.4810 -1.1758 0.0000 -6.4274 0.0000
# 2 -16.4810 100.0018 5.2028 0.0000 -1.8860 0.0000
# 3 -1.1758 5.2028 167.2436 0.0000 -19.9344 0.0000
# 4 0.0000 0.0000 0.0000 38.9365 0.0000 3.4514
# 5 -6.4274 -1.8860 -19.9344 0.0000 28.6169 0.0000
# 6 0.0000 0.0000 0.0000 3.4514 0.0000 24.0184
#
#
#
# Elastic Compliance Matrix: (Units=1/GPa)
#
#
# Indices 1 2 3 4 5 6 
#
# 1 0.069053 0.011600 0.002251 0.000000 0.017842 0.000000
# 2 0.011600 0.011971 0.000124 0.000000 0.003481 0.000000
# 3 0.002251 0.000124 0.006601 0.000000 0.005112 0.000000
# 4 0.000000 0.000000 0.000000 0.026014 0.000000 -0.003738
# 5 0.017842 0.003481 0.005112 0.000000 0.042742 0.000000
# 6 0.000000 0.000000 0.000000 -0.003738 0.000000 0.042172
#
#
# Mechanical properties :
#
#
# Convention : Reuss Voigt Hill
#
# Bulk Modulus (GPa) = 8.65247 29.03186 18.84216
# Shear Modulus (GPa) = 23.90895 38.22425 31.06660
#
# Velocity S-wave (km/s) = 3.03848 3.84189 3.46356
# Velocity P-wave (km/s) = 3.95612 5.55794 4.82398
#
# Compressibility (1/GPa) = 0.11557400
#
# Stress axis : x y z
#
# Youngs Moduli (GPa) = 14.48169 83.53711 151.50231
#
# Poissons Ratio (x) = -0.96901 -0.34107
# Poissons Ratio (y) = -0.16798 -0.01879
# Poissons Ratio (z) = -0.03260 -0.01036
#
# Static dielectric constant tensor:
#      x y z
#    x 2.172240 0.000000 0.092760 
#    y 0.000000 2.022280 0.000000 
#    z 0.092760 0.000000 2.106190 
# 
# From -- ./inp_files/12812.got.cif
#   From: 2010.05.17/outbox.cif.g08.bks.cpg/sg4_7_cif.got.tgz:12812.got - 2010.06.03 18:43:04.
