data_PCOD9114712
_publ_section_title
;
Structure prediction by ZEFSAII (Michael W. Deem and Ramdas Pophale) SiO2 
 PCOD9114712
Probable space group: P 21
;
_chemical_formula_sum "Si O2"
_cell_formula_units_Z 14
_cell_length_a 14.064534
_cell_length_b 7.581384
_cell_length_c 8.159032
_cell_angle_alpha 90.000000
_cell_angle_beta 137.653244
_cell_angle_gamma 90.000000
_cell_volume 586.036659
_symmetry_space_group_name_H-M "P 21"
_symmetry_group_IT_number 4
_symmetry_cell_setting 'monoclinic'
loop_
_space_group_symop_operation_xyz
x,y,z
-x,1/2+y,-z
loop_
_atom_site_type_symbol
_atom_site_label
_atom_site_fract_x
_atom_site_fract_y
_atom_site_fract_z
Si Si1 0.269911 0.949360 0.171675
Si Si2 0.323468 0.336374 0.105387
Si Si3 0.334743 0.594379 0.411137
Si Si4 0.991827 0.898704 0.263438
Si Si5 0.720991 0.343230 0.189292
Si Si6 0.993994 0.092344 0.975786
Si Si7 0.487377 0.136497 0.061084
O O1 0.342845 0.804395 0.382214
O O2 0.325501 0.148893 0.209438
O O3 0.265713 0.864196 0.987029
O O4 0.112926 0.973650 0.040965
O O5 0.367334 0.486246 0.288885
O O6 0.414988 0.302845 0.060737
O O7 0.161070 0.381664 0.849311
O O8 0.172807 0.556136 0.254042
O O9 0.433010 0.539996 0.686398
O O10 0.123718 0.835943 0.536692
O O11 0.980780 0.771447 0.091743
O O12 0.017942 0.083774 0.203326
O O13 0.610428 0.192500 0.096175
O O14 0.642236 0.517243 0.160185
#
# Coordination Sequence:
#
# PCOD9114712 Si02
#       7
#     2   2   2   2   2   2   2
#     4  10  22  43  69 101 139 180 230 289 342 409
#     4   9  24  42  69 103 127 179 244 274 346 416
#     4  11  22  44  74  99 135 184 234 292 339 426
#     4  10  20  44  67  95 135 172 230 288 335 410
#     4  11  25  47  64 102 145 179 227 297 352 413
#     4  10  18  41  67 101 121 178 229 278 339 406
#     4  11  25  47  64 103 140 188 228 284 363 414
#
# _framework density 23.889289999999999
#
# number of rings (size 3 to 8) (size 9 to 14) (size 15 to 20)
#    0.000    1.714    2.857    0.000    6.000    0.000 
#   28.286    0.000    0.000    0.000    0.000    0.000 
#    0.000    0.000    0.000    0.000    0.000    0.000 
#
# Total GULP energy -78182.285961 kJ/mol
# GULP energy per Si atom -5584.448997 kJ/mol
# Density = 2.383492 g / cm^3
# Si number density = 23.889290 Si / 1000 Ang^3
#
#
#
# Elastic Constant Matrix: (Units=GPa)
#
#
# Indices 1 2 3 4 5 6 
#
# 1 76.9202 -7.1349 9.3215 0.0000 26.2130 0.0000
# 2 -7.1349 77.7230 14.6984 0.0000 -0.4836 0.0000
# 3 9.3215 14.6984 50.3988 0.0000 24.5510 0.0000
# 4 0.0000 0.0000 0.0000 28.1027 0.0000 7.2848
# 5 26.2130 -0.4836 24.5510 0.0000 28.5881 0.0000
# 6 0.0000 0.0000 0.0000 7.2848 0.0000 37.8989
#
#
#
# Elastic Compliance Matrix: (Units=1/GPa)
#
#
# Indices 1 2 3 4 5 6 
#
# 1 0.021299 -0.000033 0.009600 0.000000 -0.027775 0.000000
# 2 -0.000033 0.014302 -0.007388 0.000000 0.006617 0.000000
# 3 0.009600 -0.007388 0.042241 0.000000 -0.045204 0.000000
# 4 0.000000 0.000000 0.000000 0.037450 0.000000 -0.007198
# 5 -0.027775 0.006617 -0.045204 0.000000 0.099379 0.000000
# 6 0.000000 0.000000 0.000000 -0.007198 0.000000 0.027770
#
#
# Mechanical properties :
#
#
# Convention : Reuss Voigt Hill
#
# Bulk Modulus (GPa) = 12.16548 26.53467 19.35007
# Shear Modulus (GPa) = 18.83363 31.46174 25.14769
#
# Velocity S-wave (km/s) = 2.81084 3.63296 3.24802
# Velocity P-wave (km/s) = 3.95448 5.35997 4.70995
#
# Compressibility (1/GPa) = 0.08219983
#
# Stress axis : x y z
#
# Youngs Moduli (GPa) = 46.95030 69.92251 23.67354
#
# Poissons Ratio (x) = 0.00231 -0.22727
# Poissons Ratio (y) = 0.00155 0.17491
# Poissons Ratio (z) = -0.45074 0.51661
#
# Static dielectric constant tensor:
#      x y z
#    x 1.892950 0.000000 0.032740 
#    y 0.000000 2.133030 0.000000 
#    z 0.032740 0.000000 1.887280 
# 
# From -- ./inp_files/9193.got.cif
#   From: 2010.05.17/outbox.cif.g08.bks.cpg/sg4_5_cif.got.tgz:9193.got - 2010.06.03 18:43:04.
