data_PCOD9114678
_publ_section_title
;
Structure prediction by ZEFSAII (Michael W. Deem and Ramdas Pophale) SiO2 
 PCOD9114678
Probable space group: P 21
;
_chemical_formula_sum "Si O2"
_cell_formula_units_Z 16
_cell_length_a 8.345789
_cell_length_b 17.314601
_cell_length_c 5.222063
_cell_angle_alpha 90.000000
_cell_angle_beta 115.879460
_cell_angle_gamma 90.000000
_cell_volume 678.932540
_symmetry_space_group_name_H-M "P 21"
_symmetry_group_IT_number 4
_symmetry_cell_setting 'monoclinic'
loop_
_space_group_symop_operation_xyz
x,y,z
-x,1/2+y,-z
loop_
_atom_site_type_symbol
_atom_site_label
_atom_site_fract_x
_atom_site_fract_y
_atom_site_fract_z
Si Si1 0.010888 0.540330 0.185204
Si Si2 0.620597 0.668292 0.311714
Si Si3 0.311454 0.018543 0.361059
Si Si4 0.395107 0.333822 0.798731
Si Si5 0.565140 0.088071 0.200832
Si Si6 0.813111 0.977673 0.178019
Si Si7 0.360040 0.850951 0.527279
Si Si8 0.767277 0.189344 0.674832
O O1 0.072232 0.516661 0.512481
O O2 0.074986 0.628285 0.149819
O O3 0.104365 0.485019 0.041112
O O4 0.808585 0.520384 0.976938
O O5 0.724619 0.598785 0.516604
O O6 0.695100 0.753272 0.346139
O O7 0.418273 0.678026 0.289988
O O8 0.594796 0.639919 0.005380
O O9 0.511070 0.033944 0.397584
O O10 0.286294 0.938427 0.491491
O O11 0.246232 0.394203 0.775100
O O12 0.509081 0.356364 0.627841
O O13 0.530042 0.328897 0.138428
O O14 0.633037 0.028839 0.039989
O O15 0.711842 0.151103 0.367227
O O16 0.221783 0.781473 0.360218
#
# Coordination Sequence:
#
# PCOD9114678 Si02
#       8
#     2   2   2   2   2   2   2   2
#     4  11  25  41  62  91 132 171 203 246 327 382
#     4  10  20  38  66  90 124 158 218 265 314 366
#     4  11  25  39  62  97 127 173 205 266 313 386
#     4  11  22  39  66  99 117 159 216 275 307 363
#     4  10  18  38  64  89 117 158 214 255 306 358
#     4  11  22  41  65  88 123 163 212 255 304 381
#     4  11  22  38  65  95 123 158 218 265 317 363
#     4   9  20  38  60  91 121 164 208 259 306 381
#
# _framework density 23.566405
#
# number of rings (size 3 to 8) (size 9 to 14) (size 15 to 20)
#    0.000    1.500    3.750    1.500    3.500    0.000 
#    2.250    0.000    0.000    0.000    0.000    0.000 
#    0.000    0.000    0.000    0.000    0.000    0.000 
#
# Total GULP energy -89134.910743 kJ/mol
# GULP energy per Si atom -5570.931921 kJ/mol
# Density = 2.351277 g / cm^3
# Si number density = 23.566405 Si / 1000 Ang^3
#
#
#
# Elastic Constant Matrix: (Units=GPa)
#
#
# Indices 1 2 3 4 5 6 
#
# 1 34.7056 12.7658 1.3578 0.0000 -11.5764 0.0000
# 2 12.7658 175.1498 18.9099 0.0000 10.3711 0.0000
# 3 1.3578 18.9099 95.4688 0.0000 -7.2571 0.0000
# 4 0.0000 0.0000 0.0000 31.9072 0.0000 -6.2360
# 5 -11.5764 10.3711 -7.2571 0.0000 23.0044 0.0000
# 6 0.0000 0.0000 0.0000 -6.2360 0.0000 18.7899
#
#
#
# Elastic Compliance Matrix: (Units=1/GPa)
#
#
# Indices 1 2 3 4 5 6 
#
# 1 0.037390 -0.004194 0.001919 0.000000 0.021312 0.000000
# 2 -0.004194 0.006524 -0.001656 0.000000 -0.005574 0.000000
# 3 0.001919 -0.001656 0.011174 0.000000 0.005237 0.000000
# 4 0.000000 0.000000 0.000000 0.033515 0.000000 0.011123
# 5 0.021312 -0.005574 0.005237 0.000000 0.058360 0.000000
# 6 0.000000 0.000000 0.000000 0.011123 0.000000 0.056911
#
#
# Mechanical properties :
#
#
# Convention : Reuss Voigt Hill
#
# Bulk Modulus (GPa) = 21.17534 41.26570 31.22052
# Shear Modulus (GPa) = 21.98002 32.89301 27.43651
#
# Velocity S-wave (km/s) = 3.05730 3.74004 3.41577
# Velocity P-wave (km/s) = 4.63332 6.01655 5.36967
#
# Compressibility (1/GPa) = 0.04722475
#
# Stress axis : x y z
#
# Youngs Moduli (GPa) = 26.74478 153.28002 89.49727
#
# Poissons Ratio (x) = 0.64291 -0.17175
# Poissons Ratio (y) = 0.11218 0.14824
# Poissons Ratio (z) = -0.05132 0.25388
#
# Static dielectric constant tensor:
#      x y z
#    x 2.018360 0.000000 0.028200 
#    y 0.000000 1.942500 0.000000 
#    z 0.028200 0.000000 1.957210 
# 
# From -- ./inp_files/2000.got.cif
#   From: 2010.05.17/outbox.cif.g08.bks.cpg/sg4_1_cif.got.tgz:2000.got - 2010.06.03 18:43:04.
