data_PCOD9114073
_publ_section_title
;
Structure prediction by ZEFSAII (Michael W. Deem and Ramdas Pophale) SiO2 
 PCOD9114073
Probable space group: P 2
;
_chemical_formula_sum "Si O2"
_cell_formula_units_Z 15
_cell_length_a 8.308319
_cell_length_b 5.549728
_cell_length_c 14.761078
_cell_angle_alpha 90.000000
_cell_angle_beta 67.258806
_cell_angle_gamma 90.000000
_cell_volume 627.706312
_symmetry_space_group_name_H-M "P 2"
_symmetry_group_IT_number 3
_symmetry_cell_setting 'monoclinic'
loop_
_space_group_symop_operation_xyz
x,y,z
-x,y,-z
loop_
_atom_site_type_symbol
_atom_site_label
_atom_site_fract_x
_atom_site_fract_y
_atom_site_fract_z
Si Si1 0.932351 0.160830 0.868570
Si Si2 0.129436 0.659586 0.226184
Si Si3 0.419861 0.366673 0.235490
Si Si4 0.500000 0.390995 0.500000
Si Si5 0.182552 0.758059 0.595424
Si Si6 0.319604 0.051395 0.404353
Si Si7 0.719584 0.082596 0.094629
Si Si8 0.625203 0.742213 0.263539
O O1 0.921376 0.419014 0.820083
O O2 0.119661 0.171810 0.877479
O O3 0.899463 0.919298 0.814934
O O4 0.790538 0.120885 0.978967
O O5 0.326347 0.588585 0.207826
O O6 0.012174 0.669600 0.343166
O O7 0.278269 0.221112 0.327097
O O8 0.527968 0.199310 0.144777
O O9 0.579420 0.464534 0.262487
O O10 0.328500 0.556523 0.542785
O O11 0.456241 0.209546 0.430344
O O12 0.247474 0.825265 0.683428
O O13 0.193891 0.946338 0.509833
O O14 0.438201 0.845007 0.335506
O O15 0.690988 0.826258 0.151084
#
# Coordination Sequence:
#
# PCOD9114073 Si02
#       8
#     2   2   2   1   2   2   2   2
#     4  11  27  51  76 114 146 199 264 318 382 449
#     4  12  30  48  74 113 162 200 246 319 394 469
#     4  11  26  47  71 108 158 200 247 313 403 465
#     4  12  20  38  68 106 134 186 264 314 368 430
#     4  12  22  41  73 104 145 194 260 318 367 448
#     4  11  22  39  70 103 139 191 258 307 371 446
#     4  10  25  45  81 107 147 196 262 323 374 460
#     4  11  20  41  70 107 134 196 246 319 361 453
#
# _framework density 23.896526999999999
#
# number of rings (size 3 to 8) (size 9 to 14) (size 15 to 20)
#    0.000    0.800    5.333    0.800    9.333    1.600 
#    0.000    4.000    0.000    0.000    0.000    0.000 
#    0.000    0.000    0.000    0.000    0.000    0.000 
#
# Total GULP energy -83562.372391 kJ/mol
# GULP energy per Si atom -5570.824826 kJ/mol
# Density = 2.384214 g / cm^3
# Si number density = 23.896527 Si / 1000 Ang^3
#
#
#
# Elastic Constant Matrix: (Units=GPa)
#
#
# Indices 1 2 3 4 5 6 
#
# 1 74.4341 23.7068 23.4818 0.0000 -5.6793 0.0000
# 2 23.7068 91.8795 57.4233 0.0000 -5.3753 0.0000
# 3 23.4818 57.4233 108.8639 0.0000 -22.1397 0.0000
# 4 0.0000 0.0000 0.0000 29.1365 0.0000 0.1247
# 5 -5.6793 -5.3753 -22.1397 0.0000 24.6155 0.0000
# 6 0.0000 0.0000 0.0000 0.1247 0.0000 36.0568
#
#
#
# Elastic Compliance Matrix: (Units=1/GPa)
#
#
# Indices 1 2 3 4 5 6 
#
# 1 0.014910 -0.002902 -0.001364 0.000000 0.001579 0.000000
# 2 -0.002902 0.017339 -0.009652 0.000000 -0.005564 0.000000
# 3 -0.001364 -0.009652 0.017230 0.000000 0.013075 0.000000
# 4 0.000000 0.000000 0.000000 0.034322 0.000000 -0.000119
# 5 0.001579 -0.005564 0.013075 0.000000 0.051534 0.000000
# 6 0.000000 0.000000 0.000000 -0.000119 0.000000 0.027734
#
#
# Mechanical properties :
#
#
# Convention : Reuss Voigt Hill
#
# Bulk Modulus (GPa) = 46.20326 53.82237 50.01282
# Shear Modulus (GPa) = 25.23736 29.33281 27.28508
#
# Velocity S-wave (km/s) = 3.25331 3.50736 3.38272
# Velocity P-wave (km/s) = 5.78694 6.24292 6.01925
#
# Compressibility (1/GPa) = 0.02164349
#
# Stress axis : x y z
#
# Youngs Moduli (GPa) = 67.06985 57.67267 58.03829
#
# Poissons Ratio (x) = 0.16737 0.07916
# Poissons Ratio (y) = 0.19465 0.56016
# Poissons Ratio (z) = 0.09148 0.55664
#
# Static dielectric constant tensor:
#      x y z
#    x 1.962970 0.000000 0.006910 
#    y 0.000000 1.982770 0.000000 
#    z 0.006910 0.000000 1.986930 
# 
# From -- ./inp_files/13358.got.cif
#   From: 2010.05.17/outbox.cif.g08.bks.cpg/sg3_7_cif.got.tgz:13358.got - 2010.06.03 18:33:08.
