data_PCOD9114531
_publ_section_title
;
Structure prediction by ZEFSAII (Michael W. Deem and Ramdas Pophale) SiO2 
 PCOD9114531
Probable space group: P 21
;
_chemical_formula_sum "Si O2"
_cell_formula_units_Z 14
_cell_length_a 13.257156
_cell_length_b 5.010039
_cell_length_c 15.334164
_cell_angle_alpha 90.000000
_cell_angle_beta 134.733815
_cell_angle_gamma 90.000000
_cell_volume 723.510573
_symmetry_space_group_name_H-M "P 21"
_symmetry_group_IT_number 4
_symmetry_cell_setting 'monoclinic'
loop_
_space_group_symop_operation_xyz
x,y,z
-x,1/2+y,-z
loop_
_atom_site_type_symbol
_atom_site_label
_atom_site_fract_x
_atom_site_fract_y
_atom_site_fract_z
Si Si1 0.895979 0.975910 0.737991
Si Si2 0.971244 0.759624 0.599136
Si Si3 0.595468 0.798639 0.062628
Si Si4 0.192963 0.567643 0.063537
Si Si5 0.850170 0.759252 0.337305
Si Si6 0.861422 0.464983 0.812050
Si Si7 0.771649 0.558456 0.010167
O O1 0.899212 0.849446 0.644551
O O2 0.820736 0.763687 0.757505
O O3 0.841234 0.276019 0.715108
O O4 0.060973 0.019410 0.866968
O O5 0.871025 0.785513 0.453593
O O6 0.039959 0.466372 0.640879
O O7 0.100542 0.964580 0.660133
O O8 0.694863 0.817543 0.207677
O O9 0.471911 0.582697 0.999005
O O10 0.694028 0.684843 0.045087
O O11 0.025305 0.519393 0.940973
O O12 0.197136 0.763251 0.149597
O O13 0.248892 0.267595 0.082540
O O14 0.730698 0.258090 0.960731
#
# Coordination Sequence:
#
# PCOD9114531 Si02
#       7
#     2   2   2   2   2   2   2
#     4  10  18  28  49  72 102 130 168 202 250 320
#     4  10  19  34  54  76 103 134 177 211 257 328
#     4  12  24  37  53  75 105 138 186 224 254 298
#     4  10  18  30  43  67 100 135 168 197 248 315
#     4  10  21  35  53  74 101 139 175 219 263 299
#     4  10  18  27  43  71 101 133 161 202 247 307
#     4  10  20  31  49  65  98 139 173 205 251 307
#
# _framework density 19.350097999999999
#
# number of rings (size 3 to 8) (size 9 to 14) (size 15 to 20)
#    0.000    1.714    1.429    6.000    4.000    0.000 
#    0.000    0.000    0.000    0.000    0.000    0.000 
#    0.000   22.857    0.000    0.000    0.000    0.000 
#
# Total GULP energy -77961.233730 kJ/mol
# GULP energy per Si atom -5568.659552 kJ/mol
# Density = 1.930606 g / cm^3
# Si number density = 19.350098 Si / 1000 Ang^3
#
#
#
# Elastic Constant Matrix: (Units=GPa)
#
#
# Indices 1 2 3 4 5 6 
#
# 1 34.3478 8.7949 -2.3703 0.0000 -17.7193 0.0000
# 2 8.7949 86.6724 -9.9945 0.0000 -7.5390 0.0000
# 3 -2.3703 -9.9945 54.2415 0.0000 -5.1585 0.0000
# 4 0.0000 0.0000 0.0000 17.4340 0.0000 -4.6227
# 5 -17.7193 -7.5390 -5.1585 0.0000 16.9364 0.0000
# 6 0.0000 0.0000 0.0000 -4.6227 0.0000 28.6893
#
#
#
# Elastic Compliance Matrix: (Units=1/GPa)
#
#
# Indices 1 2 3 4 5 6 
#
# 1 0.068242 0.000768 0.010243 0.000000 0.074858 0.000000
# 2 0.000768 0.012439 0.003016 0.000000 0.007259 0.000000
# 3 0.010243 0.003016 0.021200 0.000000 0.018516 0.000000
# 4 0.000000 0.000000 0.000000 0.059919 0.000000 0.009655
# 5 0.074858 0.007259 0.018516 0.000000 0.146234 0.000000
# 6 0.000000 0.000000 0.000000 0.009655 0.000000 0.036412
#
#
# Mechanical properties :
#
#
# Convention : Reuss Voigt Hill
#
# Bulk Modulus (GPa) = 7.69623 18.68021 13.18822
# Shear Modulus (GPa) = 13.90031 24.53403 19.21717
#
# Velocity S-wave (km/s) = 2.68313 3.56462 3.15482
# Velocity P-wave (km/s) = 3.68577 5.15915 4.48340
#
# Compressibility (1/GPa) = 0.12993377
#
# Stress axis : x y z
#
# Youngs Moduli (GPa) = 14.65380 80.39254 47.16921
#
# Poissons Ratio (x) = -0.06173 -0.48314
# Poissons Ratio (y) = -0.01125 -0.14226
# Poissons Ratio (z) = -0.15009 -0.24245
#
# Static dielectric constant tensor:
#      x y z
#    x 1.753350 0.000000 -0.053900 
#    y 0.000000 1.684410 0.000000 
#    z -0.053900 0.000000 1.658650 
# 
# From -- ./inp_files/12762.got.cif
#   From: 2010.05.17/outbox.cif.g08.bks.cpg/sg4_7_cif.got.tgz:12762.got - 2010.06.03 18:43:04.
