data_PCOD9114525
_publ_section_title
;
Structure prediction by ZEFSAII (Michael W. Deem and Ramdas Pophale) SiO2 
 PCOD9114525
Probable space group: P 21
;
_chemical_formula_sum "Si O2"
_cell_formula_units_Z 16
_cell_length_a 18.304523
_cell_length_b 11.795555
_cell_length_c 7.746788
_cell_angle_alpha 90.000000
_cell_angle_beta 29.823726
_cell_angle_gamma 90.000000
_cell_volume 831.851816
_symmetry_space_group_name_H-M "P 21"
_symmetry_group_IT_number 4
_symmetry_cell_setting 'monoclinic'
loop_
_space_group_symop_operation_xyz
x,y,z
-x,1/2+y,-z
loop_
_atom_site_type_symbol
_atom_site_label
_atom_site_fract_x
_atom_site_fract_y
_atom_site_fract_z
Si Si1 0.745054 0.205000 0.171139
Si Si2 0.539158 0.834697 0.848602
Si Si3 0.001845 0.565911 0.212207
Si Si4 0.292109 0.557171 0.440703
Si Si5 0.247966 0.913656 0.642499
Si Si6 0.344371 0.694058 0.011416
Si Si7 0.791013 0.664948 0.384980
Si Si8 0.944259 0.321342 0.278410
O O1 0.903187 0.141263 0.851002
O O2 0.672456 0.157000 0.496349
O O3 0.762752 0.339372 0.162039
O O4 0.651472 0.170355 0.198416
O O5 0.641113 0.734389 0.712900
O O6 0.645400 0.941990 0.611863
O O7 0.405255 0.883333 0.236198
O O8 0.465031 0.783491 0.829059
O O9 0.115088 0.554807 0.816098
O O10 0.858529 0.625353 0.430130
O O11 0.973332 0.437065 0.323289
O O12 0.348833 0.589347 0.135906
O O13 0.125386 0.862259 0.762491
O O14 0.231001 0.048903 0.678058
O O15 0.184123 0.749201 0.371319
O O16 0.911231 0.747604 0.051388
#
# Coordination Sequence:
#
# PCOD9114525 Si02
#       8
#     2   2   2   2   2   2   2   2
#     4  10  20  42  60  85 127 158 201 256 309 355
#     4  11  21  38  62  90 122 163 205 250 307 370
#     4   9  18  35  61  88 116 155 194 259 299 349
#     4  10  19  39  62  84 119 160 198 249 305 356
#     4  10  21  35  58  91 121 158 201 247 306 361
#     4  11  22  40  63  89 124 164 199 252 316 368
#     4  11  18  34  68  86 116 165 206 243 310 363
#     4  10  17  37  60  87 117 153 204 246 300 366
#
# _framework density 19.234195
#
# number of rings (size 3 to 8) (size 9 to 14) (size 15 to 20)
#    0.750    1.000    6.250    0.750    0.000    0.000 
#    6.750    0.000    2.750    0.000    0.000    0.000 
#    0.000    0.000    0.000    0.000    0.000    0.000 
#
# Total GULP energy -89099.687430 kJ/mol
# GULP energy per Si atom -5568.730464 kJ/mol
# Density = 1.919042 g / cm^3
# Si number density = 19.234195 Si / 1000 Ang^3
#
#
#
# Elastic Constant Matrix: (Units=GPa)
#
#
# Indices 1 2 3 4 5 6 
#
# 1 65.4808 18.2028 19.3928 0.0000 -17.7097 0.0000
# 2 18.2028 110.1663 32.2661 0.0000 -23.3014 0.0000
# 3 19.3928 32.2661 61.3330 0.0000 -26.6795 0.0000
# 4 0.0000 0.0000 0.0000 33.1525 0.0000 -13.7371
# 5 -17.7097 -23.3014 -26.6795 0.0000 19.4036 0.0000
# 6 0.0000 0.0000 0.0000 -13.7371 0.0000 16.1172
#
#
#
# Elastic Compliance Matrix: (Units=1/GPa)
#
#
# Indices 1 2 3 4 5 6 
#
# 1 0.020743 0.000762 0.004165 0.000000 0.025574 0.000000
# 2 0.000762 0.012196 0.000041 0.000000 0.015397 0.000000
# 3 0.004165 0.000041 0.041406 0.000000 0.060783 0.000000
# 4 0.000000 0.000000 0.000000 0.046633 0.000000 0.039746
# 5 0.025574 0.015397 0.060783 0.000000 0.176944 0.000000
# 6 0.000000 0.000000 0.000000 0.039746 0.000000 0.095922
#
#
# Mechanical properties :
#
#
# Convention : Reuss Voigt Hill
#
# Bulk Modulus (GPa) = 11.86512 41.85595 26.86053
# Shear Modulus (GPa) = 12.13584 24.87590 18.50587
#
# Velocity S-wave (km/s) = 2.51460 3.60017 3.10519
# Velocity P-wave (km/s) = 3.82271 6.25221 5.18185
#
# Compressibility (1/GPa) = 0.08428063
#
# Stress axis : x y z
#
# Youngs Moduli (GPa) = 48.20917 81.99356 24.15087
#
# Poissons Ratio (x) = -0.06247 -0.10059
# Poissons Ratio (y) = -0.03673 -0.00099
# Poissons Ratio (z) = -0.20079 -0.00334
#
# Static dielectric constant tensor:
#      x y z
#    x 1.691120 0.000000 0.000990 
#    y 0.000000 1.733130 0.000000 
#    z 0.000990 0.000000 1.686570 
# 
# From -- ./inp_files/9721.got.cif
#   From: 2010.05.17/outbox.cif.g08.bks.cpg/sg4_5_cif.got.tgz:9721.got - 2010.06.03 18:43:04.
