data_PCOD9114290
_publ_section_title
;
Structure prediction by ZEFSAII (Michael W. Deem and Ramdas Pophale) SiO2 
 PCOD9114290
Probable space group: P 2
;
_chemical_formula_sum "Si O2"
_cell_formula_units_Z 13
_cell_length_a 13.628107
_cell_length_b 5.102459
_cell_length_c 19.320521
_cell_angle_alpha 90.000000
_cell_angle_beta 22.204171
_cell_angle_gamma 90.000000
_cell_volume 507.715232
_symmetry_space_group_name_H-M "P 2"
_symmetry_group_IT_number 3
_symmetry_cell_setting 'monoclinic'
loop_
_space_group_symop_operation_xyz
x,y,z
-x,y,-z
loop_
_atom_site_type_symbol
_atom_site_label
_atom_site_fract_x
_atom_site_fract_y
_atom_site_fract_z
Si Si1 0.280298 0.330740 0.011244
Si Si2 0.979616 0.725061 0.396722
Si Si3 0.674875 0.163388 0.256042
Si Si4 0.815709 0.941775 0.355009
Si Si5 0.685662 0.203738 0.640043
Si Si6 0.500000 0.591089 0.000000
Si Si7 0.923284 0.666965 0.156224
O O1 0.546575 0.231450 0.804198
O O2 0.332494 0.429405 0.054435
O O3 0.189831 0.555491 0.015232
O O4 0.052724 0.116445 0.169970
O O5 0.880466 0.797275 0.384304
O O6 0.857595 0.452184 0.502905
O O7 0.864732 0.951402 0.518809
O O8 0.289609 0.735579 0.185129
O O9 0.547913 0.160756 0.263194
O O10 0.803160 0.438875 0.188762
O O11 0.430399 0.117983 0.466575
O O12 0.876318 0.933646 0.144542
O O13 0.773041 0.722705 0.325604
#
# Coordination Sequence:
#
# PCOD9114290 Si02
#       7
#     2   2   2   2   2   1   2
#     4  12  29  51  76 116 154 201 260 320 381 452
#     4  11  26  50  81 111 150 199 257 313 389 451
#     4  11  25  42  74 107 156 199 247 302 385 439
#     4  11  25  45  76 110 154 196 261 311 364 455
#     4  11  28  52  74 115 160 196 244 318 388 472
#     4  12  26  54  86 108 146 202 264 330 376 444
#     4  12  25  43  73 112 148 201 256 304 364 460
#
# _framework density 25.604901999999999
#
# number of rings (size 3 to 8) (size 9 to 14) (size 15 to 20)
#    0.000    0.615    3.077    4.154    6.462    3.692 
#    2.769    3.077    0.000    0.000    0.000    0.000 
#    0.000    0.000    0.000    0.000    0.000    0.000 
#
# Total GULP energy -72854.505866 kJ/mol
# GULP energy per Si atom -5604.192759 kJ/mol
# Density = 2.554662 g / cm^3
# Si number density = 25.604902 Si / 1000 Ang^3
#
#
#
# Elastic Constant Matrix: (Units=GPa)
#
#
# Indices 1 2 3 4 5 6 
#
# 1 103.2805 25.0776 15.2006 0.0000 -4.7746 0.0000
# 2 25.0776 125.0073 43.0268 0.0000 -10.9730 0.0000
# 3 15.2006 43.0268 169.2809 0.0000 9.6324 0.0000
# 4 0.0000 0.0000 0.0000 32.2432 0.0000 -1.2670
# 5 -4.7746 -10.9730 9.6324 0.0000 39.9917 0.0000
# 6 0.0000 0.0000 0.0000 -1.2670 0.0000 -55.0436
#
#
#
# Elastic Compliance Matrix: (Units=1/GPa)
#
#
# Indices 1 2 3 4 5 6 
#
# 1 0.010234 -0.001803 -0.000509 0.000000 0.000850 0.000000
# 2 -0.001803 0.009450 -0.002408 0.000000 0.002958 0.000000
# 3 -0.000509 -0.002408 0.006698 0.000000 -0.002335 0.000000
# 4 0.000000 0.000000 0.000000 0.030986 0.000000 -0.000713
# 5 0.000850 0.002958 -0.002335 0.000000 0.026481 0.000000
# 6 0.000000 0.000000 0.000000 -0.000713 0.000000 -0.018151
#
#
# Mechanical properties :
#
#
# Convention : Reuss Voigt Hill
#
# Bulk Modulus (GPa) = 59.02806 62.68651 60.85729
# Shear Modulus (GPa) = 61.89162 24.38915 43.14039
#
# Velocity S-wave (km/s) = 4.92181 3.08964 4.10914
# Velocity P-wave (km/s) = 7.44328 6.10436 6.80682
#
# Compressibility (1/GPa) = 0.01694109
#
# Stress axis : x y z
#
# Youngs Moduli (GPa) = 97.70937 105.82198 149.29784
#
# Poissons Ratio (x) = 0.19083 0.07599
# Poissons Ratio (y) = 0.17620 0.35955
# Poissons Ratio (z) = 0.04973 0.25485
#
# Static dielectric constant tensor:
#      x y z
#    x 2.023850 0.000000 -0.102980 
#    y 0.000000 2.016430 0.000000 
#    z -0.102980 0.000000 2.159560 
# 
# From -- ./inp_files/15978.got.cif
#   From: 2010.05.17/outbox.cif.g08.bks.cpg/sg3_8_cif.got.tgz:15978.got - 2010.06.03 18:33:08.
