data_PCOD9114274
_publ_section_title
;
Structure prediction by ZEFSAII (Michael W. Deem and Ramdas Pophale) SiO2 
 PCOD9114274
Probable space group: P 2
;
_chemical_formula_sum "Si O2"
_cell_formula_units_Z 10
_cell_length_a 15.537669
_cell_length_b 5.612875
_cell_length_c 4.817024
_cell_angle_alpha 90.000000
_cell_angle_beta 73.460066
_cell_angle_gamma 90.000000
_cell_volume 402.714469
_symmetry_space_group_name_H-M "P 2"
_symmetry_group_IT_number 3
_symmetry_cell_setting 'monoclinic'
loop_
_space_group_symop_operation_xyz
x,y,z
-x,y,-z
loop_
_atom_site_type_symbol
_atom_site_label
_atom_site_fract_x
_atom_site_fract_y
_atom_site_fract_z
Si Si1 0.500000 0.758250 0.000000
Si Si2 0.793129 0.088057 0.648567
Si Si3 0.500000 0.089567 0.500000
Si Si4 0.787122 0.749952 0.167787
Si Si5 0.058556 0.436696 0.692840
Si Si6 0.350099 0.426507 0.391144
O O1 0.415483 0.604822 0.170994
O O2 0.530127 0.923401 0.222862
O O3 0.884464 0.236589 0.524412
O O4 0.715396 0.283952 0.757955
O O5 0.772343 0.982593 0.366862
O O6 0.794529 0.863253 0.855235
O O7 0.417963 0.247545 0.475529
O O8 0.876166 0.619915 0.205460
O O9 0.708800 0.569608 0.329841
O O10 0.000000 0.553613 0.500000
O O11 0.000000 0.330971 0.000000
#
# Coordination Sequence:
#
# PCOD9114274 Si02
#       6
#     1   2   1   2   2   2
#     4  12  28  48  74 108 146 194 250 308 368 430
#     4  11  26  47  74 108 148 195 243 299 369 438
#     4  12  28  48  74 108 146 194 250 308 368 430
#     4  11  26  47  74 108 148 195 243 299 369 438
#     4  11  24  46  75 110 150 190 243 304 362 439
#     4  11  28  48  73 108 150 194 251 308 362 435
#
# _framework density 24.831488
#
# number of rings (size 3 to 8) (size 9 to 14) (size 15 to 20)
#    0.000    0.800    0.000    4.800    0.000   24.000 
#    0.000    0.000    0.000    0.000    0.000    0.000 
#    0.000    0.000    0.000    0.000    0.000    0.000 
#
# Total GULP energy -56068.018898 kJ/mol
# GULP energy per Si atom -5606.801890 kJ/mol
# Density = 2.477497 g / cm^3
# Si number density = 24.831488 Si / 1000 Ang^3
#
#
#
# Elastic Constant Matrix: (Units=GPa)
#
#
# Indices 1 2 3 4 5 6 
#
# 1 139.5624 59.9553 72.3457 0.0000 -21.8227 0.0000
# 2 59.9553 112.8205 44.5905 0.0000 -16.5292 0.0000
# 3 72.3457 44.5905 124.0509 0.0000 0.2156 0.0000
# 4 0.0000 0.0000 0.0000 47.2875 0.0000 17.9577
# 5 -21.8227 -16.5292 0.2156 0.0000 29.4955 0.0000
# 6 0.0000 0.0000 0.0000 17.9577 0.0000 61.3636
#
#
#
# Elastic Compliance Matrix: (Units=1/GPa)
#
#
# Indices 1 2 3 4 5 6 
#
# 1 0.013209 -0.003262 -0.006545 0.000000 0.007993 0.000000
# 2 -0.003262 0.012242 -0.002506 0.000000 0.004465 0.000000
# 3 -0.006545 -0.002506 0.012790 0.000000 -0.006340 0.000000
# 4 0.000000 0.000000 0.000000 0.023791 0.000000 -0.006962
# 5 0.007993 0.004465 -0.006340 0.000000 0.042366 0.000000
# 6 0.000000 0.000000 0.000000 -0.006962 0.000000 0.018334
#
#
# Mechanical properties :
#
#
# Convention : Reuss Voigt Hill
#
# Bulk Modulus (GPa) = 73.44515 81.13520 77.29018
# Shear Modulus (GPa) = 32.91760 40.93214 36.92487
#
# Velocity S-wave (km/s) = 3.64488 4.06445 3.86037
# Velocity P-wave (km/s) = 6.88151 7.40078 7.14587
#
# Compressibility (1/GPa) = 0.01361560
#
# Stress axis : x y z
#
# Youngs Moduli (GPa) = 75.70613 81.68879 78.18712
#
# Poissons Ratio (x) = 0.26645 0.51172
# Poissons Ratio (y) = 0.24694 0.19592
# Poissons Ratio (z) = 0.49548 0.20469
#
# Static dielectric constant tensor:
#      x y z
#    x 1.994800 0.000000 -0.023590 
#    y 0.000000 1.937040 0.000000 
#    z -0.023590 0.000000 1.916170 
# 
# From -- ./inp_files/2634.got.cif
#   From: 2010.05.17/outbox.cif.g08.bks.cpg/sg3_2_cif.got.tgz:2634.got - 2010.06.03 18:33:08.
