data_PCOD9114141
_publ_section_title
;
Structure prediction by ZEFSAII (Michael W. Deem and Ramdas Pophale) SiO2 
 PCOD9114141
Probable space group: P 2
;
_chemical_formula_sum "Si O2"
_cell_formula_units_Z 13
_cell_length_a 6.725068
_cell_length_b 7.662537
_cell_length_c 9.389437
_cell_angle_alpha 90.000000
_cell_angle_beta 106.465320
_cell_angle_gamma 90.000000
_cell_volume 464.005961
_symmetry_space_group_name_H-M "P 2"
_symmetry_group_IT_number 3
_symmetry_cell_setting 'monoclinic'
loop_
_space_group_symop_operation_xyz
x,y,z
-x,y,-z
loop_
_atom_site_type_symbol
_atom_site_label
_atom_site_fract_x
_atom_site_fract_y
_atom_site_fract_z
Si Si1 0.775722 0.693240 0.030321
Si Si2 0.775722 0.107377 0.030321
Si Si3 0.546916 0.589177 0.712410
Si Si4 0.546915 0.211440 0.712410
Si Si5 0.500000 0.900308 0.500000
Si Si6 0.023978 0.687044 0.341739
Si Si7 0.976022 0.113573 0.658261
O O1 0.827363 0.642026 0.202961
O O2 0.606120 0.613915 0.890673
O O3 0.000000 0.666376 0.000000
O O4 0.737365 0.900308 0.021842
O O5 0.606120 0.186702 0.890673
O O6 0.000000 0.134240 0.000000
O O7 0.827363 0.158591 0.202961
O O8 0.454473 0.400309 0.666555
O O9 0.444994 0.749452 0.609195
O O10 0.776774 0.599087 0.686914
O O11 0.776773 0.201530 0.686913
O O12 0.444992 0.051165 0.609194
O O13 0.000000 0.641428 0.500000
O O14 0.065581 0.900309 0.339658
O O15 0.000000 0.159190 0.500000
#
# Coordination Sequence:
#
# PCOD9114141 Si02
#       7
#     2   2   2   2   1   2   2
#     4   8  14  29  51  77 107 135 166 212 265 313
#     4   8  14  29  51  77 107 135 166 212 265 313
#     4  11  21  34  56  80 104 139 178 218 261 307
#     4  11  21  34  56  80 104 139 178 218 261 307
#     4  12  22  40  52  72 106 144 184 228 242 304
#     4   9  17  32  56  84 112 138 164 210 274 322
#     4   9  17  32  56  84 112 138 164 210 274 322
#
# _framework density 28.016881000000001
#
# number of rings (size 3 to 8) (size 9 to 14) (size 15 to 20)
#    0.000    2.462    3.077    2.308    0.000    6.154 
#    0.000    0.000    0.000    3.692    0.000    4.308 
#    0.000    0.000    0.000    0.000    0.000    0.000 
#
# Total GULP energy -72658.569539 kJ/mol
# GULP energy per Si atom -5589.120734 kJ/mol
# Density = 2.795311 g / cm^3
# Si number density = 28.016881 Si / 1000 Ang^3
#
#
#
# Elastic Constant Matrix: (Units=GPa)
#
#
# Indices 1 2 3 4 5 6 
#
# 1 88.2061 11.0443 42.0613 0.0000 6.5018 0.0000
# 2 11.0443 197.8886 82.5161 0.0000 12.5534 0.0000
# 3 42.0613 82.5161 274.0297 0.0000 -30.5128 0.0000
# 4 0.0000 0.0000 0.0000 9.3747 0.0000 3.0427
# 5 6.5018 12.5534 -30.5128 0.0000 51.9967 0.0000
# 6 0.0000 0.0000 0.0000 3.0427 0.0000 23.7316
#
#
#
# Elastic Compliance Matrix: (Units=1/GPa)
#
#
# Indices 1 2 3 4 5 6 
#
# 1 0.012673 0.000514 -0.002450 0.000000 -0.003147 0.000000
# 2 0.000514 0.006144 -0.002248 0.000000 -0.002867 0.000000
# 3 -0.002450 -0.002248 0.005132 0.000000 0.003861 0.000000
# 4 0.000000 0.000000 0.000000 0.111301 0.000000 -0.014270
# 5 -0.003147 -0.002867 0.003861 0.000000 0.022583 0.000000
# 6 0.000000 0.000000 0.000000 -0.014270 0.000000 0.043968
#
#
# Mechanical properties :
#
#
# Convention : Reuss Voigt Hill
#
# Bulk Modulus (GPa) = 64.18356 92.37423 78.27889
# Shear Modulus (GPa) = 23.21649 45.32079 34.26864
#
# Velocity S-wave (km/s) = 2.88177 4.02633 3.50114
# Velocity P-wave (km/s) = 5.83365 7.39308 6.65917
#
# Compressibility (1/GPa) = 0.01558031
#
# Stress axis : x y z
#
# Youngs Moduli (GPa) = 78.90700 162.76060 194.84631
#
# Poissons Ratio (x) = -0.08368 0.47745
# Poissons Ratio (y) = -0.04057 0.43806
# Poissons Ratio (z) = 0.19336 0.36592
#
# Static dielectric constant tensor:
#      x y z
#    x 2.439450 0.000000 0.053890 
#    y 0.000000 2.065510 0.000000 
#    z 0.053890 0.000000 2.230810 
# 
# From -- ./inp_files/7055.got.cif
#   From: 2010.05.17/outbox.cif.g08.bks.cpg/sg3_4_cif.got.tgz:7055.got - 2010.06.03 18:33:08.
