data_PCOD9114821
_publ_section_title
;
Structure prediction by ZEFSAII (Michael W. Deem and Ramdas Pophale) SiO2 
 PCOD9114821
Probable space group: P 21
;
_chemical_formula_sum "Si O2"
_cell_formula_units_Z 14
_cell_length_a 5.666924
_cell_length_b 7.030532
_cell_length_c 15.490242
_cell_angle_alpha 90.000000
_cell_angle_beta 77.704637
_cell_angle_gamma 90.000000
_cell_volume 602.998545
_symmetry_space_group_name_H-M "P 21"
_symmetry_group_IT_number 4
_symmetry_cell_setting 'monoclinic'
loop_
_space_group_symop_operation_xyz
x,y,z
-x,1/2+y,-z
loop_
_atom_site_type_symbol
_atom_site_label
_atom_site_fract_x
_atom_site_fract_y
_atom_site_fract_z
Si Si1 0.075360 0.535560 0.149527
Si Si2 0.385279 0.068282 0.925334
Si Si3 0.686222 0.428186 0.880626
Si Si4 0.955518 0.620197 0.341007
Si Si5 0.231601 0.028069 0.310378
Si Si6 0.541180 0.846271 0.413077
Si Si7 0.882900 0.113010 0.481587
O O1 0.837532 0.484985 0.112923
O O2 0.031119 0.495567 0.253996
O O3 0.348490 0.471201 0.105707
O O4 0.104393 0.766109 0.133980
O O5 0.451092 0.287318 0.894535
O O6 0.318196 0.042601 0.030482
O O7 0.716526 0.558167 0.793732
O O8 0.674600 0.675188 0.354039
O O9 0.112898 0.815063 0.319444
O O10 0.995553 0.565888 0.436711
O O11 0.472886 0.003912 0.348135
O O12 0.055628 0.146887 0.386261
O O13 0.727138 0.930904 0.466070
O O14 0.310360 0.773505 0.481291
#
# Coordination Sequence:
#
# PCOD9114821 Si02
#       7
#     2   2   2   2   2   2   2
#     4   9  21  35  62  88 115 152 194 241 294 349
#     4  10  21  37  64  89 115 155 196 246 292 353
#     4   9  21  37  65  83 119 150 198 242 297 350
#     4   9  18  34  57  83 111 152 201 232 284 352
#     4   9  18  36  56  86 110 155 195 234 289 352
#     4  10  19  34  60  80 116 155 194 239 288 345
#     4  10  20  33  58  85 116 149 200 240 284 355
#
# _framework density 23.217303000000001
#
# number of rings (size 3 to 8) (size 9 to 14) (size 15 to 20)
#    0.857    1.714    0.000    1.714    4.000    0.000 
#    0.000    0.000   18.857    0.000    0.000    0.000 
#    0.000    0.000    0.000    0.000    0.000    0.000 
#
# Total GULP energy -78006.781728 kJ/mol
# GULP energy per Si atom -5571.912981 kJ/mol
# Density = 2.316446 g / cm^3
# Si number density = 23.217303 Si / 1000 Ang^3
#
#
#
# Elastic Constant Matrix: (Units=GPa)
#
#
# Indices 1 2 3 4 5 6 
#
# 1 125.8342 5.7730 65.9553 0.0000 4.8397 0.0000
# 2 5.7730 34.4352 27.0371 0.0000 -2.0226 0.0000
# 3 65.9553 27.0371 212.4968 0.0000 -0.1759 0.0000
# 4 0.0000 0.0000 0.0000 29.3713 0.0000 3.4396
# 5 4.8397 -2.0226 -0.1759 0.0000 20.3968 0.0000
# 6 0.0000 0.0000 0.0000 3.4396 0.0000 14.2381
#
#
#
# Elastic Compliance Matrix: (Units=1/GPa)
#
#
# Indices 1 2 3 4 5 6 
#
# 1 0.009612 0.000668 -0.003070 0.000000 -0.002241 0.000000
# 2 0.000668 0.032515 -0.004342 0.000000 0.003028 0.000000
# 3 -0.003070 -0.004342 0.006212 0.000000 0.000351 0.000000
# 4 0.000000 0.000000 0.000000 0.035038 0.000000 -0.008465
# 5 -0.002241 0.003028 0.000351 0.000000 0.049862 0.000000
# 6 0.000000 0.000000 0.000000 -0.008465 0.000000 0.072279
#
#
# Mechanical properties :
#
#
# Convention : Reuss Voigt Hill
#
# Bulk Modulus (GPa) = 28.69471 63.36634 46.03053
# Shear Modulus (GPa) = 21.68044 31.06796 26.37420
#
# Velocity S-wave (km/s) = 3.05914 3.66203 3.37407
# Velocity P-wave (km/s) = 4.98636 6.72551 5.92015
#
# Compressibility (1/GPa) = 0.03484963
#
# Stress axis : x y z
#
# Youngs Moduli (GPa) = 104.03981 30.75503 160.98985
#
# Poissons Ratio (x) = -0.02053 0.49425
# Poissons Ratio (y) = -0.06945 0.69898
# Poissons Ratio (z) = 0.31941 0.13353
#
# Static dielectric constant tensor:
#      x y z
#    x 1.929870 0.000000 -0.005530 
#    y 0.000000 1.963280 0.000000 
#    z -0.005530 0.000000 1.874000 
# 
# From -- ./inp_files/2819.got.cif
#   From: 2010.05.17/outbox.cif.g08.bks.cpg/sg4_2_cif.got.tgz:2819.got - 2010.06.03 18:43:04.
