data_PCOD9114008
_publ_section_title
;
Structure prediction by ZEFSAII (Michael W. Deem and Ramdas Pophale) SiO2 
 PCOD9114008
Probable space group: P 2
;
_chemical_formula_sum "Si O2"
_cell_formula_units_Z 13
_cell_length_a 17.166013
_cell_length_b 5.210072
_cell_length_c 9.096984
_cell_angle_alpha 90.000000
_cell_angle_beta 39.984915
_cell_angle_gamma 90.000000
_cell_volume 522.807471
_symmetry_space_group_name_H-M "P 2"
_symmetry_group_IT_number 3
_symmetry_cell_setting 'monoclinic'
loop_
_space_group_symop_operation_xyz
x,y,z
-x,y,-z
loop_
_atom_site_type_symbol
_atom_site_label
_atom_site_fract_x
_atom_site_fract_y
_atom_site_fract_z
Si Si1 0.025915 0.482030 0.725482
Si Si2 0.263427 0.743509 0.393422
Si Si3 0.815498 0.857039 0.979259
Si Si4 0.416968 0.831740 0.874754
Si Si5 0.446832 0.334407 0.240670
Si Si6 0.870955 0.083155 0.196492
Si Si7 0.000000 0.097901 0.500000
O O1 0.125656 0.694627 0.543865
O O2 0.081255 0.330932 0.784826
O O3 0.038586 0.280681 0.576356
O O4 0.891795 0.606967 0.923384
O O5 0.345364 0.828258 0.137096
O O6 0.321937 0.489718 0.383833
O O7 0.237060 0.956846 0.554516
O O8 0.679519 0.836744 0.117828
O O9 0.891424 0.941433 0.727537
O O10 0.827502 0.067490 0.091443
O O11 0.482657 0.559122 0.775675
O O12 0.511841 0.067850 0.742351
O O13 0.500000 0.304772 0.000000
O O14 0.000000 0.926083 0.000000
#
# Coordination Sequence:
#
# PCOD9114008 Si02
#       7
#     2   2   2   2   2   2   1
#     4  12  25  43  73 105 151 206 249 329 390 479
#     4  11  25  46  77 109 150 198 263 322 387 469
#     4  12  27  45  67 113 151 202 254 322 394 476
#     4  11  25  46  75 112 147 194 262 330 384 452
#     4  10  24  44  76 110 143 195 263 323 382 446
#     4  12  26  45  69 105 158 204 252 309 401 484
#     4  12  24  40  68 108 150 186 250 314 392 450
#
# _framework density 24.865752000000001
#
# number of rings (size 3 to 8) (size 9 to 14) (size 15 to 20)
#    0.000    0.615    3.077    4.615   15.077    0.000 
#    0.000    0.769    0.000    0.000    0.000    0.000 
#    0.000    0.000    0.000    0.000    0.000    0.000 
#
# Total GULP energy -72581.361387 kJ/mol
# GULP energy per Si atom -5583.181645 kJ/mol
# Density = 2.480916 g / cm^3
# Si number density = 24.865752 Si / 1000 Ang^3
#
#
#
# Elastic Constant Matrix: (Units=GPa)
#
#
# Indices 1 2 3 4 5 6 
#
# 1 193.0566 66.1397 33.8533 0.0000 -16.4059 0.0000
# 2 66.1397 155.1810 21.0656 0.0000 -0.6125 0.0000
# 3 33.8533 21.0656 60.9656 0.0000 2.3344 0.0000
# 4 0.0000 0.0000 0.0000 -0.2853 0.0000 -0.7110
# 5 -16.4059 -0.6125 2.3344 0.0000 44.7050 0.0000
# 6 0.0000 0.0000 0.0000 -0.7110 0.0000 24.2942
#
#
#
# Elastic Compliance Matrix: (Units=1/GPa)
#
#
# Indices 1 2 3 4 5 6 
#
# 1 0.006775 -0.002469 -0.003009 0.000000 0.002610 0.000000
# 2 -0.002469 0.007663 -0.001249 0.000000 -0.000736 0.000000
# 3 -0.003009 -0.001249 0.018585 0.000000 -0.002092 0.000000
# 4 0.000000 0.000000 0.000000 -3.266320 0.000000 -0.095594
# 5 0.002610 -0.000736 -0.002092 0.000000 0.023426 0.000000
# 6 0.000000 0.000000 0.000000 -0.095594 0.000000 0.038364
#
#
# Mechanical properties :
#
#
# Convention : Reuss Voigt Hill
#
# Bulk Modulus (GPa) = 51.09842 72.36894 61.73368
# Shear Modulus (GPa) = -1.58653 32.95242 15.68294
#
# Velocity S-wave (km/s) = -0.79964 3.64430 2.51411
# Velocity P-wave (km/s) = 4.44317 6.84653 5.77134
#
# Compressibility (1/GPa) = 0.01957008
#
# Stress axis : x y z
#
# Youngs Moduli (GPa) = 147.60110 130.49832 53.80667
#
# Poissons Ratio (x) = 0.32218 0.16190
# Poissons Ratio (y) = 0.36440 0.06719
# Poissons Ratio (z) = 0.44412 0.16296
#
# Static dielectric constant tensor:
#      x y z
#    x 1.995780 0.000000 -0.046420 
#    y 0.000000 2.049470 0.000000 
#    z -0.046420 0.000000 2.062860 
# 
# From -- ./inp_files/8239.got.cif
#   From: 2010.05.17/outbox.cif.g08.bks.cpg/sg3_5_cif.got.tgz:8239.got - 2010.06.03 18:33:08.
