data_PCOD9114151
_publ_section_title
;
Structure prediction by ZEFSAII (Michael W. Deem and Ramdas Pophale) SiO2 
 PCOD9114151
Probable space group: P 2
;
_chemical_formula_sum "Si O2"
_cell_formula_units_Z 16
_cell_length_a 8.758617
_cell_length_b 9.517912
_cell_length_c 12.405819
_cell_angle_alpha 90.000000
_cell_angle_beta 54.702329
_cell_angle_gamma 90.000000
_cell_volume 844.070149
_symmetry_space_group_name_H-M "P 2"
_symmetry_group_IT_number 3
_symmetry_cell_setting 'monoclinic'
loop_
_space_group_symop_operation_xyz
x,y,z
-x,y,-z
loop_
_atom_site_type_symbol
_atom_site_label
_atom_site_fract_x
_atom_site_fract_y
_atom_site_fract_z
Si Si1 0.322510 0.668530 0.641271
Si Si2 0.435250 0.984759 0.643315
Si Si3 0.808429 0.482190 0.108824
Si Si4 0.306181 0.492959 0.091989
Si Si5 0.957797 0.666067 0.640359
Si Si6 0.918508 0.169535 0.142083
Si Si7 0.297372 0.176013 0.130082
Si Si8 0.193578 0.970990 0.363308
O O1 0.500000 0.618911 0.500000
O O2 0.357355 0.827221 0.664909
O O3 0.293858 0.571190 0.757804
O O4 0.150801 0.676076 0.627567
O O5 0.500000 0.035752 0.500000
O O6 0.625626 0.970398 0.633829
O O7 0.266236 0.084800 0.749409
O O8 0.856426 0.330244 0.141069
O O9 0.733420 0.461046 0.018323
O O10 0.000000 0.561766 0.000000
O O11 0.166738 0.574544 0.226815
O O12 0.329125 0.341134 0.138351
O O13 0.500000 0.575336 0.000000
O O14 0.857001 0.816595 0.662863
O O15 0.000000 0.613276 0.500000
O O16 0.102632 0.170219 0.142015
O O17 0.000000 0.104092 0.000000
O O18 0.250157 0.080836 0.250001
O O19 0.500000 0.127852 0.000000
O O20 0.000000 0.015316 0.500000
#
# Coordination Sequence:
#
# PCOD9114151 Si02
#       8
#     2   2   2   2   2   2   2   2
#     4  11  23  41  67  92 126 166 211 259 313 373
#     4  11  24  42  64  92 122 167 212 258 311 370
#     4  11  22  44  64  94 128 164 211 258 311 373
#     4  11  25  41  67  93 129 166 207 258 316 375
#     4  11  23  43  63  94 129 165 208 262 313 375
#     4  11  21  41  65  90 126 161 207 257 308 367
#     4  11  22  41  63  93 126 163 203 256 313 369
#     4  11  24  42  63  90 128 163 209 260 312 374
#
# _framework density 18.955772
#
# number of rings (size 3 to 8) (size 9 to 14) (size 15 to 20)
#    0.000    1.000    3.750    5.250    5.250    2.000 
#    2.250    2.500    0.000    0.000    0.000    0.000 
#    0.000    0.000    0.000    0.000    0.000    0.000 
#
# Total GULP energy -89106.804455 kJ/mol
# GULP energy per Si atom -5569.175278 kJ/mol
# Density = 1.891263 g / cm^3
# Si number density = 18.955772 Si / 1000 Ang^3
#
#
#
# Elastic Constant Matrix: (Units=GPa)
#
#
# Indices 1 2 3 4 5 6 
#
# 1 155.7101 46.8340 84.3674 0.0000 -10.6077 0.0000
# 2 46.8340 62.1485 92.9681 0.0000 -10.7228 0.0000
# 3 84.3674 92.9681 190.6583 0.0000 -20.2113 0.0000
# 4 0.0000 0.0000 0.0000 34.8749 0.0000 -8.8686
# 5 -10.6077 -10.7228 -20.2113 0.0000 40.2662 0.0000
# 6 0.0000 0.0000 0.0000 -8.8686 0.0000 20.1507
#
#
#
# Elastic Compliance Matrix: (Units=1/GPa)
#
#
# Indices 1 2 3 4 5 6 
#
# 1 0.008591 -0.002894 -0.002358 0.000000 0.000309 0.000000
# 2 -0.002894 0.060513 -0.028094 0.000000 0.001251 0.000000
# 3 -0.002358 -0.028094 0.020204 0.000000 0.002038 0.000000
# 4 0.000000 0.000000 0.000000 0.032288 0.000000 0.014210
# 5 0.000309 0.001251 0.002038 0.000000 0.026272 0.000000
# 6 0.000000 0.000000 0.000000 0.014210 0.000000 0.055880
#
#
# Mechanical properties :
#
#
# Convention : Reuss Voigt Hill
#
# Bulk Modulus (GPa) = 44.21563 95.20621 69.71092
# Shear Modulus (GPa) = 17.98706 31.34820 24.66763
#
# Velocity S-wave (km/s) = 3.08376 4.07105 3.61130
# Velocity P-wave (km/s) = 6.00464 8.51072 7.36506
#
# Compressibility (1/GPa) = 0.02261644
#
# Stress axis : x y z
#
# Youngs Moduli (GPa) = 116.39899 16.52543 49.49627
#
# Poissons Ratio (x) = 0.04782 0.11671
# Poissons Ratio (y) = 0.33682 1.39055
# Poissons Ratio (z) = 0.27445 0.46427
#
# Static dielectric constant tensor:
#      x y z
#    x 1.929000 0.000000 0.029550 
#    y 0.000000 1.643130 0.000000 
#    z 0.029550 0.000000 1.692490 
# 
# From -- ./inp_files/10519.got.cif
#   From: 2010.05.17/outbox.cif.g08.bks.cpg/sg3_6_cif.got.tgz:10519.got - 2010.06.03 18:33:08.
