data_PCOD9114000
_publ_section_title
;
Structure prediction by ZEFSAII (Michael W. Deem and Ramdas Pophale) SiO2 
 PCOD9114000
Probable space group: P 2
;
_chemical_formula_sum "Si O2"
_cell_formula_units_Z 10
_cell_length_a 9.667468
_cell_length_b 5.154320
_cell_length_c 18.543263
_cell_angle_alpha 90.000000
_cell_angle_beta 27.853766
_cell_angle_gamma 90.000000
_cell_volume 431.706382
_symmetry_space_group_name_H-M "P 2"
_symmetry_group_IT_number 3
_symmetry_cell_setting 'monoclinic'
loop_
_space_group_symop_operation_xyz
x,y,z
-x,y,-z
loop_
_atom_site_type_symbol
_atom_site_label
_atom_site_fract_x
_atom_site_fract_y
_atom_site_fract_z
Si Si1 0.147710 0.131700 0.295707
Si Si2 0.816205 0.108848 0.014202
Si Si3 0.032347 0.931202 0.770418
Si Si4 0.138234 0.625110 0.514051
Si Si5 0.239232 0.433013 0.729419
O O1 0.532055 0.131946 0.814019
O O2 0.020877 0.419142 0.360473
O O3 0.156089 0.036972 0.208999
O O4 0.935160 0.919543 0.430860
O O5 0.977706 0.364976 0.906911
O O6 0.854977 0.921897 0.927485
O O7 0.000000 0.031131 0.000000
O O8 0.158236 0.644491 0.706370
O O9 0.279370 0.152017 0.673373
O O10 0.481493 0.550889 0.358665
O O11 0.000000 0.576975 0.500000
#
# Coordination Sequence:
#
# PCOD9114000 Si02
#       5
#     2   2   2   2   2
#     4  12  26  44  73 104 136 184 227 292 339 410
#     4  10  25  45  73  97 140 180 233 278 346 405
#     4  10  24  44  71 100 138 174 237 276 346 402
#     4  12  27  44  71 102 144 177 234 281 352 407
#     4  10  24  44  69  96 140 178 228 278 340 410
#
# _framework density 23.163891
#
# number of rings (size 3 to 8) (size 9 to 14) (size 15 to 20)
#    1.200    0.000    0.000    4.800    5.600    5.600 
#    3.600    0.000    0.000    0.000    0.000    0.000 
#    0.000    0.000    0.000    0.000    0.000    0.000 
#
# Total GULP energy -55826.549039 kJ/mol
# GULP energy per Si atom -5582.654904 kJ/mol
# Density = 2.311117 g / cm^3
# Si number density = 23.163891 Si / 1000 Ang^3
#
#
#
# Elastic Constant Matrix: (Units=GPa)
#
#
# Indices 1 2 3 4 5 6 
#
# 1 139.1756 23.4272 19.1218 0.0000 2.3423 0.0000
# 2 23.4272 67.3154 20.1091 0.0000 -7.8149 0.0000
# 3 19.1218 20.1091 34.0893 0.0000 -1.8679 0.0000
# 4 0.0000 0.0000 0.0000 23.8191 0.0000 0.6676
# 5 2.3423 -7.8149 -1.8679 0.0000 50.5054 0.0000
# 6 0.0000 0.0000 0.0000 0.6676 0.0000 25.6364
#
#
#
# Elastic Compliance Matrix: (Units=1/GPa)
#
#
# Indices 1 2 3 4 5 6 
#
# 1 0.007980 -0.001843 -0.003432 0.000000 -0.000782 0.000000
# 2 -0.001843 0.018754 -0.009886 0.000000 0.002622 0.000000
# 3 -0.003432 -0.009886 0.037092 0.000000 0.000001 0.000000
# 4 0.000000 0.000000 0.000000 0.042014 0.000000 -0.001094
# 5 -0.000782 0.002622 0.000001 0.000000 0.020242 0.000000
# 6 0.000000 0.000000 0.000000 -0.001094 0.000000 0.039035
#
#
# Mechanical properties :
#
#
# Convention : Reuss Voigt Hill
#
# Bulk Modulus (GPa) = 29.84658 40.65516 35.25087
# Shear Modulus (GPa) = 24.20058 31.85366 28.02712
#
# Velocity S-wave (km/s) = 3.23577 3.71232 3.48221
# Velocity P-wave (km/s) = 5.18394 5.99702 5.60524
#
# Compressibility (1/GPa) = 0.03350468
#
# Stress axis : x y z
#
# Youngs Moduli (GPa) = 125.31219 53.32109 26.96031
#
# Poissons Ratio (x) = 0.09826 0.09253
# Poissons Ratio (y) = 0.23092 0.26652
# Poissons Ratio (z) = 0.43008 0.52712
#
# Static dielectric constant tensor:
#      x y z
#    x 1.851740 0.000000 -0.003950 
#    y 0.000000 1.856320 0.000000 
#    z -0.003950 0.000000 1.934330 
# 
# From -- ./inp_files/13095.got.cif
#   From: 2010.05.17/outbox.cif.g08.bks.cpg/sg3_7_cif.got.tgz:13095.got - 2010.06.03 18:33:08.
