data_PCOD9114541
_publ_section_title
;
Structure prediction by ZEFSAII (Michael W. Deem and Ramdas Pophale) SiO2 
 PCOD9114541
Probable space group: P 21
;
_chemical_formula_sum "Si O2"
_cell_formula_units_Z 14
_cell_length_a 12.722734
_cell_length_b 5.448487
_cell_length_c 18.564079
_cell_angle_alpha 90.000000
_cell_angle_beta 23.721571
_cell_angle_gamma 90.000000
_cell_volume 517.692282
_symmetry_space_group_name_H-M "P 21"
_symmetry_group_IT_number 4
_symmetry_cell_setting 'monoclinic'
loop_
_space_group_symop_operation_xyz
x,y,z
-x,1/2+y,-z
loop_
_atom_site_type_symbol
_atom_site_label
_atom_site_fract_x
_atom_site_fract_y
_atom_site_fract_z
Si Si1 0.974576 0.995440 0.859585
Si Si2 0.533508 0.480851 0.365227
Si Si3 0.244602 0.328189 0.299372
Si Si4 0.535813 0.478246 0.631045
Si Si5 0.324018 0.829394 0.296908
Si Si6 0.332334 0.487137 0.095098
Si Si7 0.088411 0.996141 0.014312
O O1 0.858345 0.988266 0.853297
O O2 0.883247 0.750360 0.959544
O O3 0.285898 0.982526 0.677769
O O4 0.889486 0.248187 0.952599
O O5 0.374128 0.730297 0.463760
O O6 0.367468 0.236934 0.459443
O O7 0.724646 0.489884 0.173575
O O8 0.413158 0.550878 0.226132
O O9 0.165062 0.424108 0.271493
O O10 0.989151 0.291546 0.507647
O O11 0.374999 0.059679 0.212614
O O12 0.595836 0.436309 0.676620
O O13 0.219091 0.492885 0.817028
O O14 0.467742 0.751919 0.026656
#
# Coordination Sequence:
#
# PCOD9114541 Si02
#       7
#     2   2   2   2   2   2   2
#     4  10  20  34  48  70 110 141 170 221 272 322
#     4  10  19  30  49  78 108 139 176 224 277 322
#     4  10  23  40  57  83 113 149 192 233 283 323
#     4  10  18  29  51  79 101 130 177 225 274 327
#     4  10  21  39  62  82 110 147 191 245 275 315
#     4  12  26  39  57  84 115 154 191 223 277 350
#     4  10  19  31  50  76 107 142 177 221 278 323
#
# _framework density 27.043092000000001
#
# number of rings (size 3 to 8) (size 9 to 14) (size 15 to 20)
#    0.000    1.714    0.000    6.857    0.000    9.143 
#    0.000    0.000    0.000    6.857    0.000    0.000 
#    0.000    0.000    0.000    0.000    0.000    0.000 
#
# Total GULP energy -78397.102117 kJ/mol
# GULP energy per Si atom -5599.793008 kJ/mol
# Density = 2.698154 g / cm^3
# Si number density = 27.043092 Si / 1000 Ang^3
#
#
#
# Elastic Constant Matrix: (Units=GPa)
#
#
# Indices 1 2 3 4 5 6 
#
# 1 214.8633 98.9891 6.0057 0.0000 5.0821 0.0000
# 2 98.9891 307.9418 23.3379 0.0000 -0.0840 0.0000
# 3 6.0057 23.3379 44.2260 0.0000 -5.7199 0.0000
# 4 0.0000 0.0000 0.0000 31.3409 0.0000 -1.7866
# 5 5.0821 -0.0840 -5.7199 0.0000 25.1723 0.0000
# 6 0.0000 0.0000 0.0000 -1.7866 0.0000 53.6452
#
#
#
# Elastic Compliance Matrix: (Units=1/GPa)
#
#
# Indices 1 2 3 4 5 6 
#
# 1 0.005494 -0.001770 0.000045 0.000000 -0.001105 0.000000
# 2 -0.001770 0.003957 -0.001854 0.000000 -0.000051 0.000000
# 3 0.000045 -0.001854 0.024296 0.000000 0.005505 0.000000
# 4 0.000000 0.000000 0.000000 0.031968 0.000000 0.001065
# 5 -0.001105 -0.000051 0.005505 0.000000 0.041200 0.000000
# 6 0.000000 0.000000 0.000000 0.001065 0.000000 0.018676
#
#
# Mechanical properties :
#
#
# Convention : Reuss Voigt Hill
#
# Bulk Modulus (GPa) = 37.61044 91.52185 64.56615
# Shear Modulus (GPa) = 35.30764 51.27823 43.29293
#
# Velocity S-wave (km/s) = 3.61724 4.35922 4.00545
# Velocity P-wave (km/s) = 5.60211 7.69763 6.73191
#
# Compressibility (1/GPa) = 0.02658837
#
# Stress axis : x y z
#
# Youngs Moduli (GPa) = 182.00318 252.72805 41.15986
#
# Poissons Ratio (x) = 0.44731 -0.00185
# Poissons Ratio (y) = 0.32213 0.07632
# Poissons Ratio (z) = -0.00818 0.46861
#
# Static dielectric constant tensor:
#      x y z
#    x 2.116690 0.000000 -0.023600 
#    y 0.000000 2.167440 0.000000 
#    z -0.023600 0.000000 2.164730 
# 
# From -- ./inp_files/14759.got.cif
#   From: 2010.05.17/outbox.cif.g08.bks.cpg/sg4_8_cif.got.tgz:14759.got - 2010.06.03 18:43:04.
