data_PCOD9114511
_publ_section_title
;
Structure prediction by ZEFSAII (Michael W. Deem and Ramdas Pophale) SiO2 
 PCOD9114511
Probable space group: P 21
;
_chemical_formula_sum "Si O2"
_cell_formula_units_Z 16
_cell_length_a 9.234369
_cell_length_b 19.876478
_cell_length_c 4.918084
_cell_angle_alpha 90.000000
_cell_angle_beta 116.464058
_cell_angle_gamma 90.000000
_cell_volume 808.108188
_symmetry_space_group_name_H-M "P 21"
_symmetry_group_IT_number 4
_symmetry_cell_setting 'monoclinic'
loop_
_space_group_symop_operation_xyz
x,y,z
-x,1/2+y,-z
loop_
_atom_site_type_symbol
_atom_site_label
_atom_site_fract_x
_atom_site_fract_y
_atom_site_fract_z
Si Si1 0.508757 0.914160 0.706279
Si Si2 0.061928 0.932456 0.846776
Si Si3 0.768874 0.088610 0.549844
Si Si4 0.693986 0.944393 0.363746
Si Si5 0.018005 0.613649 0.802249
Si Si6 0.739639 0.310999 0.242217
Si Si7 0.209317 0.003636 0.477330
Si Si8 0.785450 0.222906 0.788472
O O1 0.565890 0.906082 0.446547
O O2 0.405223 0.853486 0.744546
O O3 0.393510 0.979929 0.621326
O O4 0.662138 0.925851 0.027251
O O5 0.143719 0.863601 0.812651
O O6 0.142240 0.989014 0.720910
O O7 0.873450 0.930040 0.619010
O O8 0.115268 0.952108 0.195075
O O9 0.889194 0.108390 0.405651
O O10 0.689818 0.157971 0.587594
O O11 0.666948 0.024587 0.378333
O O12 0.878630 0.068078 0.900251
O O13 0.843707 0.579288 0.639835
O O14 0.051533 0.687478 0.953930
O O15 0.816663 0.271963 0.562886
O O16 0.698525 0.258452 0.968275
#
# Coordination Sequence:
#
# PCOD9114511 Si02
#       8
#     2   2   2   2   2   2   2   2
#     4  11  25  34  58  87 130 151 181 241 301 346
#     4  11  21  34  62  81 116 149 194 237 278 343
#     4  10  19  33  59  88 107 143 191 251 275 337
#     4  12  21  39  56  92 118 152 193 236 300 347
#     4  10  17  33  58  89 104 141 189 254 277 323
#     4  11  21  38  55  88 113 154 196 235 284 345
#     4  11  19  38  55  91 114 146 184 243 300 331
#     4  10  19  35  59  86 108 148 202 245 269 342
#
# _framework density 19.799329
#
# number of rings (size 3 to 8) (size 9 to 14) (size 15 to 20)
#    0.750    0.500    3.750    5.250    0.000    0.000 
#    0.000    0.000    0.000    6.000    0.000    0.000 
#    0.000    0.000    0.000    0.000    0.000    0.000 
#
# Total GULP energy -89148.044131 kJ/mol
# GULP energy per Si atom -5571.752758 kJ/mol
# Density = 1.975427 g / cm^3
# Si number density = 19.799329 Si / 1000 Ang^3
#
#
#
# Elastic Constant Matrix: (Units=GPa)
#
#
# Indices 1 2 3 4 5 6 
#
# 1 41.3874 -2.2095 2.8970 0.0000 -7.6536 0.0000
# 2 -2.2095 66.4740 4.2341 0.0000 -7.6554 0.0000
# 3 2.8970 4.2341 63.4559 0.0000 -13.9971 0.0000
# 4 0.0000 0.0000 0.0000 32.0518 0.0000 -5.3272
# 5 -7.6536 -7.6554 -13.9971 0.0000 30.1646 0.0000
# 6 0.0000 0.0000 0.0000 -5.3272 0.0000 12.5011
#
#
#
# Elastic Compliance Matrix: (Units=1/GPa)
#
#
# Indices 1 2 3 4 5 6 
#
# 1 0.025529 0.001640 0.000274 0.000000 0.007020 0.000000
# 2 0.001640 0.015604 -0.000168 0.000000 0.004298 0.000000
# 3 0.000274 -0.000168 0.017561 0.000000 0.008176 0.000000
# 4 0.000000 0.000000 0.000000 0.033578 0.000000 0.014309
# 5 0.007020 0.004298 0.008176 0.000000 0.039817 0.000000
# 6 0.000000 0.000000 0.000000 0.014309 0.000000 0.086091
#
#
# Mechanical properties :
#
#
# Convention : Reuss Voigt Hill
#
# Bulk Modulus (GPa) = 16.08131 20.12893 18.10512
# Shear Modulus (GPa) = 21.23899 26.03653 23.63776
#
# Velocity S-wave (km/s) = 3.27878 3.63026 3.45899
# Velocity P-wave (km/s) = 4.74064 5.26880 5.01168
#
# Compressibility (1/GPa) = 0.06218400
#
# Stress axis : x y z
#
# Youngs Moduli (GPa) = 39.17176 64.08752 56.94413
#
# Poissons Ratio (x) = -0.10508 -0.01558
# Poissons Ratio (y) = -0.06423 0.00956
# Poissons Ratio (z) = -0.01072 0.01076
#
# Static dielectric constant tensor:
#      x y z
#    x 1.688850 0.000000 0.003760 
#    y 0.000000 1.769520 0.000000 
#    z 0.003760 0.000000 1.705540 
# 
# From -- ./inp_files/2215.got.cif
#   From: 2010.05.17/outbox.cif.g08.bks.cpg/sg4_2_cif.got.tgz:2215.got - 2010.06.03 18:43:04.
