data_PCOD9114991
_publ_section_title
;
Structure prediction by ZEFSAII (Michael W. Deem and Ramdas Pophale) SiO2 
 PCOD9114991
Probable space group: P 21
;
_chemical_formula_sum "Si O2"
_cell_formula_units_Z 16
_cell_length_a 11.581563
_cell_length_b 12.249368
_cell_length_c 7.979423
_cell_angle_alpha 90.000000
_cell_angle_beta 39.396702
_cell_angle_gamma 90.000000
_cell_volume 718.474379
_symmetry_space_group_name_H-M "P 21"
_symmetry_group_IT_number 4
_symmetry_cell_setting 'monoclinic'
loop_
_space_group_symop_operation_xyz
x,y,z
-x,1/2+y,-z
loop_
_atom_site_type_symbol
_atom_site_label
_atom_site_fract_x
_atom_site_fract_y
_atom_site_fract_z
Si Si1 0.574682 0.945030 0.299563
Si Si2 0.339856 0.302889 0.500512
Si Si3 0.474469 0.221868 0.810131
Si Si4 0.025085 0.157129 0.003009
Si Si5 0.162356 0.981812 0.647231
Si Si6 0.333818 0.676712 0.757695
Si Si7 0.133765 0.753236 0.500461
Si Si8 0.170177 0.191382 0.395379
O O1 0.635764 0.911727 0.418564
O O2 0.608523 0.840111 0.146509
O O3 0.359124 0.962524 0.511438
O O4 0.668652 0.058693 0.154534
O O5 0.209848 0.221970 0.756495
O O6 0.543670 0.255206 0.269766
O O7 0.255971 0.289355 0.411418
O O8 0.556880 0.173081 0.544546
O O9 0.649884 0.235324 0.733621
O O10 0.311797 0.163780 0.087927
O O11 0.040286 0.031312 0.932121
O O12 0.867115 0.211922 0.066755
O O13 0.958488 0.170761 0.264509
O O14 0.164881 0.083234 0.515434
O O15 0.103075 0.873041 0.617774
O O16 0.024202 0.730626 0.454872
#
# Coordination Sequence:
#
# PCOD9114991 Si02
#       8
#     2   2   2   2   2   2   2   2
#     4  10  19  41  65  86 121 163 218 259 304 373
#     4  10  22  40  59  94 123 159 211 261 311 372
#     4   9  22  39  62  89 127 164 207 258 315 370
#     4  10  21  38  67  91 120 161 216 265 306 370
#     4  10  23  43  66  93 125 173 216 259 322 379
#     4  10  19  38  64  92 115 162 215 259 305 368
#     4  10  22  43  60  94 130 165 206 264 318 380
#     4  11  22  42  63  89 135 167 197 265 329 380
#
# _framework density 22.269407999999999
#
# number of rings (size 3 to 8) (size 9 to 14) (size 15 to 20)
#    0.000    2.000    2.500    2.250    3.500    2.000 
#    9.000    0.000    0.000    0.000    0.000    0.000 
#    0.000    0.000    0.000    0.000    0.000    0.000 
#
# Total GULP energy -89278.326261 kJ/mol
# GULP energy per Si atom -5579.895391 kJ/mol
# Density = 2.221872 g / cm^3
# Si number density = 22.269408 Si / 1000 Ang^3
#
#
#
# Elastic Constant Matrix: (Units=GPa)
#
#
# Indices 1 2 3 4 5 6 
#
# 1 146.2324 10.5730 21.1955 0.0000 -24.1753 0.0000
# 2 10.5730 66.6789 4.6429 0.0000 -1.5219 0.0000
# 3 21.1955 4.6429 43.2371 0.0000 -4.8487 0.0000
# 4 0.0000 0.0000 0.0000 19.5485 0.0000 -0.2882
# 5 -24.1753 -1.5219 -4.8487 0.0000 35.7896 0.0000
# 6 0.0000 0.0000 0.0000 -0.2882 0.0000 34.3837
#
#
#
# Elastic Compliance Matrix: (Units=1/GPa)
#
#
# Indices 1 2 3 4 5 6 
#
# 1 0.008233 -0.000955 -0.003365 0.000000 0.005064 0.000000
# 2 -0.000955 0.015228 -0.001185 0.000000 -0.000158 0.000000
# 3 -0.003365 -0.001185 0.025025 0.000000 0.001067 0.000000
# 4 0.000000 0.000000 0.000000 0.051161 0.000000 0.000429
# 5 0.005064 -0.000158 0.001067 0.000000 0.031500 0.000000
# 6 0.000000 0.000000 0.000000 0.000429 0.000000 0.029087
#
#
# Mechanical properties :
#
#
# Convention : Reuss Voigt Hill
#
# Bulk Modulus (GPa) = 26.68479 36.55237 31.61858
# Shear Modulus (GPa) = 27.21311 32.59348 29.90329
#
# Velocity S-wave (km/s) = 3.49950 3.82985 3.66839
# Velocity P-wave (km/s) = 5.32329 6.00053 5.67202
#
# Compressibility (1/GPa) = 0.03747453
#
# Stress axis : x y z
#
# Youngs Moduli (GPa) = 121.46938 65.67017 39.96035
#
# Poissons Ratio (x) = 0.06275 0.13447
# Poissons Ratio (y) = 0.11606 0.04733
# Poissons Ratio (z) = 0.40877 0.07779
#
# Static dielectric constant tensor:
#      x y z
#    x 1.868240 0.000000 0.021120 
#    y 0.000000 1.827490 0.000000 
#    z 0.021120 0.000000 1.866130 
# 
# From -- ./inp_files/8293.got.cif
#   From: 2010.05.17/outbox.cif.g08.bks.cpg/sg4_5_cif.got.tgz:8293.got - 2010.06.03 18:43:04.
