data_PCOD9114131
_publ_section_title
;
Structure prediction by ZEFSAII (Michael W. Deem and Ramdas Pophale) SiO2 
 PCOD9114131
Probable space group: P 2
;
_chemical_formula_sum "Si O2"
_cell_formula_units_Z 14
_cell_length_a 15.761027
_cell_length_b 8.160803
_cell_length_c 14.352073
_cell_angle_alpha 90.000000
_cell_angle_beta 17.824911
_cell_angle_gamma 90.000000
_cell_volume 565.078110
_symmetry_space_group_name_H-M "P 2"
_symmetry_group_IT_number 3
_symmetry_cell_setting 'monoclinic'
loop_
_space_group_symop_operation_xyz
x,y,z
-x,y,-z
loop_
_atom_site_type_symbol
_atom_site_label
_atom_site_fract_x
_atom_site_fract_y
_atom_site_fract_z
Si Si1 0.440932 0.755590 0.865537
Si Si2 0.084363 0.913427 0.516129
Si Si3 0.209315 0.379490 0.854495
Si Si4 0.464939 0.822268 0.633107
Si Si5 0.316858 0.206136 0.363359
Si Si6 0.069066 0.035547 0.801962
Si Si7 0.808929 0.422942 0.910742
O O1 0.545946 0.750568 0.648795
O O2 0.283560 0.585329 0.045323
O O3 0.692632 0.791447 0.671170
O O4 0.207049 0.896019 0.123923
O O5 0.000000 0.871613 0.500000
O O6 0.235707 0.091116 0.361723
O O7 0.500000 0.359375 0.500000
O O8 0.232013 0.451844 0.934973
O O9 0.076606 0.201731 0.014336
O O10 0.000000 0.464010 0.000000
O O11 0.500000 0.723317 0.500000
O O12 0.684408 0.970444 0.391502
O O13 0.158001 0.893159 0.966410
O O14 0.618247 0.273278 0.073482
O O15 0.216657 0.087040 0.551709
O O16 0.121807 0.365755 0.568824
#
# Coordination Sequence:
#
# PCOD9114131 Si02
#       7
#     2   2   2   2   2   2   2
#     4  12  25  48  66 104 144 178 222 280 339 414
#     4  12  26  48  78 101 129 175 228 285 351 410
#     4  11  21  35  57  93 133 180 236 280 319 392
#     4  12  22  35  60  94 135 181 222 268 325 386
#     4  11  21  43  69 100 128 171 226 283 338 396
#     4  11  20  35  58  92 131 170 224 285 320 371
#     4  11  25  40  68  94 139 184 213 276 352 389
#
# _framework density 24.775338000000001
#
# number of rings (size 3 to 8) (size 9 to 14) (size 15 to 20)
#    0.000    0.571    2.857    8.143    0.000    0.571 
#    0.000    5.714    0.000    0.000    0.000    0.000 
#    0.000    0.000    0.000    0.000    0.000    0.000 
#
# Total GULP energy -78383.822321 kJ/mol
# GULP energy per Si atom -5598.844451 kJ/mol
# Density = 2.471895 g / cm^3
# Si number density = 24.775338 Si / 1000 Ang^3
#
#
#
# Elastic Constant Matrix: (Units=GPa)
#
#
# Indices 1 2 3 4 5 6 
#
# 1 132.6421 23.2728 20.8236 0.0000 -24.3055 0.0000
# 2 23.2728 76.6102 1.9373 0.0000 -11.9007 0.0000
# 3 20.8236 1.9373 103.6842 0.0000 -29.6759 0.0000
# 4 0.0000 0.0000 0.0000 33.1471 0.0000 -16.4139
# 5 -24.3055 -11.9007 -29.6759 0.0000 40.2916 0.0000
# 6 0.0000 0.0000 0.0000 -16.4139 0.0000 14.5391
#
#
#
# Elastic Compliance Matrix: (Units=1/GPa)
#
#
# Indices 1 2 3 4 5 6 
#
# 1 0.008757 -0.001973 -0.000477 0.000000 0.004348 0.000000
# 2 -0.001973 0.014233 0.001258 0.000000 0.003940 0.000000
# 3 -0.000477 0.001258 0.012343 0.000000 0.009175 0.000000
# 4 0.000000 0.000000 0.000000 0.068415 0.000000 0.077238
# 5 0.004348 0.003940 0.009175 0.000000 0.035363 0.000000
# 6 0.000000 0.000000 0.000000 0.077238 0.000000 0.155978
#
#
# Mechanical properties :
#
#
# Convention : Reuss Voigt Hill
#
# Bulk Modulus (GPa) = 30.35025 45.00046 37.67535
# Shear Modulus (GPa) = 16.20977 35.38907 25.79942
#
# Velocity S-wave (km/s) = 2.56065 3.78352 3.23047
# Velocity P-wave (km/s) = 4.58468 6.10651 5.39948
#
# Compressibility (1/GPa) = 0.03294866
#
# Stress axis : x y z
#
# Youngs Moduli (GPa) = 114.19533 70.26099 81.01815
#
# Poissons Ratio (x) = 0.13860 0.03867
# Poissons Ratio (y) = 0.22527 -0.10192
# Poissons Ratio (z) = 0.05451 -0.08839
#
# Static dielectric constant tensor:
#      x y z
#    x 2.045310 0.000000 0.025150 
#    y 0.000000 1.981220 0.000000 
#    z 0.025150 0.000000 1.935560 
# 
# From -- ./inp_files/13980.got.cif
#   From: 2010.05.17/outbox.cif.g08.bks.cpg/sg3_7_cif.got.tgz:13980.got - 2010.06.03 18:33:08.
