data_PCOD9114486
_publ_section_title
;
Structure prediction by ZEFSAII (Michael W. Deem and Ramdas Pophale) SiO2 
 PCOD9114486
Probable space group: P 21
;
_chemical_formula_sum "Si O2"
_cell_formula_units_Z 16
_cell_length_a 11.639360
_cell_length_b 7.768122
_cell_length_c 6.755463
_cell_angle_alpha 90.000000
_cell_angle_beta 78.930089
_cell_angle_gamma 90.000000
_cell_volume 599.436928
_symmetry_space_group_name_H-M "P 21"
_symmetry_group_IT_number 4
_symmetry_cell_setting 'monoclinic'
loop_
_space_group_symop_operation_xyz
x,y,z
-x,1/2+y,-z
loop_
_atom_site_type_symbol
_atom_site_label
_atom_site_fract_x
_atom_site_fract_y
_atom_site_fract_z
Si Si1 0.902092 0.585930 0.447779
Si Si2 0.638116 0.047659 0.315968
Si Si3 0.423240 0.876008 0.816680
Si Si4 0.111749 0.480072 0.654125
Si Si5 0.165535 0.569843 0.059422
Si Si6 0.771055 0.716451 0.825142
Si Si7 0.467145 0.240283 0.847926
Si Si8 0.848409 0.436348 0.070904
O O1 0.896206 0.776702 0.363543
O O2 0.788375 0.596438 0.627443
O O3 0.016012 0.567055 0.547114
O O4 0.908419 0.450825 0.266050
O O5 0.752719 0.044197 0.417679
O O6 0.575166 0.867289 0.309293
O O7 0.554636 0.211466 0.328753
O O8 0.705307 0.066559 0.080467
O O9 0.497416 0.049912 0.760577
O O10 0.438332 0.829515 0.043423
O O11 0.288719 0.921728 0.819732
O O12 0.088436 0.513775 0.895117
O O13 0.177408 0.411124 0.208016
O O14 0.133724 0.772532 0.082450
O O15 0.849267 0.617339 0.960075
O O16 0.641515 0.719331 0.959387
#
# Coordination Sequence:
#
# PCOD9114486 Si02
#       8
#     2   2   2   2   2   2   2   2
#     4  12  23  43  67  91 131 174 214 268 323 391
#     4   8  17  34  54  86 116 152 207 255 300 372
#     4  10  17  29  62  89 118 166 203 257 315 378
#     4  10  21  40  61  88 123 172 210 253 328 384
#     4   8  17  40  59  85 125 156 200 261 306 367
#     4  10  22  41  62  95 126 165 213 268 317 377
#     4  10  17  32  59  93 122 158 210 252 319 379
#     4  10  20  41  64  89 131 165 213 262 314 384
#
# _framework density 26.691714999999999
#
# number of rings (size 3 to 8) (size 9 to 14) (size 15 to 20)
#    0.750    1.500    2.500    1.500    0.000    0.000 
#    9.000    0.000    2.750    0.000    0.000    0.000 
#    0.000    0.000    0.000    0.000    0.000    0.000 
#
# Total GULP energy -89276.392054 kJ/mol
# GULP energy per Si atom -5579.774503 kJ/mol
# Density = 2.663096 g / cm^3
# Si number density = 26.691715 Si / 1000 Ang^3
#
#
#
# Elastic Constant Matrix: (Units=GPa)
#
#
# Indices 1 2 3 4 5 6 
#
# 1 80.7417 19.8933 29.5622 0.0000 23.4593 0.0000
# 2 19.8933 167.4090 25.4478 0.0000 17.7251 0.0000
# 3 29.5622 25.4478 85.6734 0.0000 -5.9975 0.0000
# 4 0.0000 0.0000 0.0000 32.4750 0.0000 16.5158
# 5 23.4593 17.7251 -5.9975 0.0000 39.7415 0.0000
# 6 0.0000 0.0000 0.0000 16.5158 0.0000 34.4822
#
#
#
# Elastic Compliance Matrix: (Units=1/GPa)
#
#
# Indices 1 2 3 4 5 6 
#
# 1 0.018535 0.000192 -0.007302 0.000000 -0.012129 0.000000
# 2 0.000192 0.006661 -0.002285 0.000000 -0.003429 0.000000
# 3 -0.007302 -0.002285 0.015406 0.000000 0.007654 0.000000
# 4 0.000000 0.000000 0.000000 0.040709 0.000000 -0.019498
# 5 -0.012129 -0.003429 0.007654 0.000000 0.035006 0.000000
# 6 0.000000 0.000000 0.000000 -0.019498 0.000000 0.038340
#
#
# Mechanical properties :
#
#
# Convention : Reuss Voigt Hill
#
# Bulk Modulus (GPa) = 45.84454 53.73676 49.79065
# Shear Modulus (GPa) = 27.66740 38.60115 33.13428
#
# Velocity S-wave (km/s) = 3.22305 3.80700 3.52713
# Velocity P-wave (km/s) = 5.57347 6.28493 5.93986
#
# Compressibility (1/GPa) = 0.02181285
#
# Stress axis : x y z
#
# Youngs Moduli (GPa) = 53.95108 150.12883 64.90912
#
# Poissons Ratio (x) = -0.02875 0.47395
# Poissons Ratio (y) = -0.01033 0.14829
# Poissons Ratio (z) = 0.39393 0.34299
#
# Static dielectric constant tensor:
#      x y z
#    x 2.135320 0.000000 -0.083150 
#    y 0.000000 2.148470 0.000000 
#    z -0.083150 0.000000 2.166020 
# 
# From -- ./inp_files/7693.got.cif
#   From: 2010.05.17/outbox.cif.g08.bks.cpg/sg4_4_cif.got.tgz:7693.got - 2010.06.03 18:43:04.
