data_PCOD9114855
_publ_section_title
;
Structure prediction by ZEFSAII (Michael W. Deem and Ramdas Pophale) SiO2 
 PCOD9114855
Probable space group: P 21
;
_chemical_formula_sum "Si O2"
_cell_formula_units_Z 14
_cell_length_a 11.392700
_cell_length_b 6.976203
_cell_length_c 12.052162
_cell_angle_alpha 90.000000
_cell_angle_beta 35.376606
_cell_angle_gamma 90.000000
_cell_volume 554.562525
_symmetry_space_group_name_H-M "P 21"
_symmetry_group_IT_number 4
_symmetry_cell_setting 'monoclinic'
loop_
_space_group_symop_operation_xyz
x,y,z
-x,1/2+y,-z
loop_
_atom_site_type_symbol
_atom_site_label
_atom_site_fract_x
_atom_site_fract_y
_atom_site_fract_z
Si Si1 0.764882 0.690830 0.810651
Si Si2 0.303286 0.571871 0.756165
Si Si3 0.820984 0.061693 0.917767
Si Si4 0.287741 0.010734 0.828290
Si Si5 0.491896 0.396614 0.148301
Si Si6 0.916343 0.111149 0.278548
Si Si7 0.242209 0.047085 0.619267
O O1 0.708806 0.784038 0.735302
O O2 0.978389 0.590680 0.680801
O O3 0.766463 0.882013 0.884874
O O4 0.583776 0.548573 0.988759
O O5 0.250792 0.795191 0.813922
O O6 0.254451 0.511274 0.668051
O O7 0.539074 0.556835 0.602849
O O8 0.181147 0.485076 0.953035
O O9 0.659330 0.228912 0.028589
O O10 0.043495 0.151719 0.726080
O O11 0.491919 0.005471 0.745695
O O12 0.283049 0.115483 0.714614
O O13 0.109706 0.073544 0.047908
O O14 0.831257 0.328249 0.343768
#
# Coordination Sequence:
#
# PCOD9114855 Si02
#       7
#     2   2   2   2   2   2   2
#     4  10  19  35  62  93 117 169 228 261 325 393
#     4  10  20  38  62  92 129 168 209 263 339 400
#     4  10  20  38  66  88 132 166 206 284 332 388
#     4   9  19  38  58  91 129 163 212 267 325 391
#     4  10  19  35  62  93 117 169 228 261 325 393
#     4   9  19  38  58  91 129 163 212 267 325 391
#     4  10  20  38  62  92 129 168 209 263 339 400
#
# _framework density 25.245125999999999
#
# number of rings (size 3 to 8) (size 9 to 14) (size 15 to 20)
#    0.000    2.286    2.857    0.000    0.000    0.000 
#   30.857    0.000    0.000   13.714    0.000    0.000 
#    0.000    0.000    0.000    0.000    0.000    0.000 
#
# Total GULP energy -78009.434554 kJ/mol
# GULP energy per Si atom -5572.102468 kJ/mol
# Density = 2.518767 g / cm^3
# Si number density = 25.245126 Si / 1000 Ang^3
#
#
#
# Elastic Constant Matrix: (Units=GPa)
#
#
# Indices 1 2 3 4 5 6 
#
# 1 154.3784 26.9309 24.2346 0.0000 -25.8799 0.0000
# 2 26.9309 80.1616 22.6439 0.0000 -9.0258 0.0000
# 3 24.2346 22.6439 58.5203 0.0000 -22.9423 0.0000
# 4 0.0000 0.0000 0.0000 16.2377 0.0000 -5.8989
# 5 -25.8799 -9.0258 -22.9423 0.0000 27.9484 0.0000
# 6 0.0000 0.0000 0.0000 -5.8989 0.0000 44.5046
#
#
#
# Elastic Compliance Matrix: (Units=1/GPa)
#
#
# Indices 1 2 3 4 5 6 
#
# 1 0.007941 -0.001938 0.000146 0.000000 0.006847 0.000000
# 2 -0.001938 0.014479 -0.005412 0.000000 -0.001561 0.000000
# 3 0.000146 -0.005412 0.027263 0.000000 0.020767 0.000000
# 4 0.000000 0.000000 0.000000 0.064701 0.000000 0.008576
# 5 0.006847 -0.001561 0.020767 0.000000 0.058663 0.000000
# 6 0.000000 0.000000 0.000000 0.008576 0.000000 0.023606
#
#
# Mechanical properties :
#
#
# Convention : Reuss Voigt Hill
#
# Bulk Modulus (GPa) = 28.34930 48.96435 38.65683
# Shear Modulus (GPa) = 22.43966 32.35486 27.39726
#
# Velocity S-wave (km/s) = 2.98463 3.58387 3.29789
# Velocity P-wave (km/s) = 4.80950 6.04675 5.46326
#
# Compressibility (1/GPa) = 0.03527424
#
# Stress axis : x y z
#
# Youngs Moduli (GPa) = 125.93586 69.06630 36.67916
#
# Poissons Ratio (x) = 0.13385 -0.00534
# Poissons Ratio (y) = 0.24406 0.19851
# Poissons Ratio (z) = -0.01834 0.37379
#
# Static dielectric constant tensor:
#      x y z
#    x 2.157940 0.000000 -0.007210 
#    y 0.000000 2.086870 0.000000 
#    z -0.007210 0.000000 2.020110 
# 
# From -- ./inp_files/10792.got.cif
#   From: 2010.05.17/outbox.cif.g08.bks.cpg/sg4_6_cif.got.tgz:10792.got - 2010.06.03 18:43:04.
