data_PCOD9114798
_publ_section_title
;
Structure prediction by ZEFSAII (Michael W. Deem and Ramdas Pophale) SiO2 
 PCOD9114798
Probable space group: P 21
;
_chemical_formula_sum "Si O2"
_cell_formula_units_Z 16
_cell_length_a 14.334928
_cell_length_b 8.089553
_cell_length_c 22.404943
_cell_angle_alpha 90.000000
_cell_angle_beta 163.187694
_cell_angle_gamma 90.000000
_cell_volume 751.481577
_symmetry_space_group_name_H-M "P 21"
_symmetry_group_IT_number 4
_symmetry_cell_setting 'monoclinic'
loop_
_space_group_symop_operation_xyz
x,y,z
-x,1/2+y,-z
loop_
_atom_site_type_symbol
_atom_site_label
_atom_site_fract_x
_atom_site_fract_y
_atom_site_fract_z
Si Si1 0.215301 0.282320 0.632190
Si Si2 0.839037 0.451033 0.637400
Si Si3 0.664127 0.125057 0.362107
Si Si4 0.596122 0.917978 0.428377
Si Si5 0.840537 0.888043 0.955626
Si Si6 0.284436 0.080719 0.556407
Si Si7 0.534882 0.129225 0.500052
Si Si8 0.186105 0.607391 0.948446
O O1 0.286734 0.458969 0.646526
O O2 0.167702 0.149750 0.548927
O O3 0.903456 0.263757 0.482656
O O4 0.524370 0.228306 0.860071
O O5 0.859954 0.449500 0.579159
O O6 0.773732 0.275896 0.629743
O O7 0.533552 0.562675 0.475232
O O8 0.143818 0.536896 0.856142
O O9 0.313445 0.207753 0.145185
O O10 0.732715 0.064241 0.470918
O O11 0.748233 0.746111 0.503323
O O12 0.621998 0.971502 0.512470
O O13 0.220896 0.897617 0.180163
O O14 0.639418 0.009090 0.788876
O O15 0.775245 0.955194 0.982274
O O16 0.170933 0.179729 0.255966
#
# Coordination Sequence:
#
# PCOD9114798 Si02
#       8
#     2   2   2   2   2   2   2   2
#     4  10  21  40  56  89 114 160 205 240 295 364
#     4  10  19  34  54  83 117 163 193 255 302 358
#     4  11  22  36  66  85 124 159 199 250 302 357
#     4  10  20  35  55  92 116 149 198 254 300 359
#     4  10  19  35  55  90 117 148 194 251 302 351
#     4  10  20  32  56  79 117 151 194 241 294 355
#     4   9  19  33  54  83 119 154 202 244 311 351
#     4   8  20  35  54  81 122 152 199 247 292 357
#
# _framework density 21.291274000000001
#
# number of rings (size 3 to 8) (size 9 to 14) (size 15 to 20)
#    0.750    1.500    0.000    3.750    0.000    5.000 
#    0.000    0.000    0.000   13.500    0.000    0.000 
#    0.000    0.000    0.000    0.000    0.000    0.000 
#
# Total GULP energy -89116.770453 kJ/mol
# GULP energy per Si atom -5569.798153 kJ/mol
# Density = 2.124281 g / cm^3
# Si number density = 21.291274 Si / 1000 Ang^3
#
#
#
# Elastic Constant Matrix: (Units=GPa)
#
#
# Indices 1 2 3 4 5 6 
#
# 1 81.1322 17.7686 13.7059 0.0000 -13.9937 0.0000
# 2 17.7686 86.3660 -0.3346 0.0000 1.8488 0.0000
# 3 13.7059 -0.3346 25.2268 0.0000 -9.9213 0.0000
# 4 0.0000 0.0000 0.0000 24.3991 0.0000 0.7579
# 5 -13.9937 1.8488 -9.9213 0.0000 29.3376 0.0000
# 6 0.0000 0.0000 0.0000 0.7579 0.0000 36.0108
#
#
#
# Elastic Compliance Matrix: (Units=1/GPa)
#
#
# Indices 1 2 3 4 5 6 
#
# 1 0.014971 -0.003217 -0.006100 0.000000 0.005281 0.000000
# 2 -0.003217 0.012286 0.001157 0.000000 -0.001917 0.000000
# 3 -0.006100 0.001157 0.048209 0.000000 0.013321 0.000000
# 4 0.000000 0.000000 0.000000 0.041012 0.000000 -0.000863
# 5 0.005281 -0.001917 0.013321 0.000000 0.041230 0.000000
# 6 0.000000 0.000000 0.000000 -0.000863 0.000000 0.027788
#
#
# Mechanical properties :
#
#
# Convention : Reuss Voigt Hill
#
# Bulk Modulus (GPa) = 16.90735 28.33386 22.62061
# Shear Modulus (GPa) = 22.57017 28.72184 25.64601
#
# Velocity S-wave (km/s) = 3.25940 3.67685 3.47440
# Velocity P-wave (km/s) = 4.70352 5.60020 5.17133
#
# Compressibility (1/GPa) = 0.05914587
#
# Stress axis : x y z
#
# Youngs Moduli (GPa) = 66.79397 81.39359 20.74321
#
# Poissons Ratio (x) = 0.26183 0.12653
# Poissons Ratio (y) = 0.21487 -0.02399
# Poissons Ratio (z) = 0.40743 -0.09414
#
# Static dielectric constant tensor:
#      x y z
#    x 1.784070 0.000000 0.008050 
#    y 0.000000 1.841990 0.000000 
#    z 0.008050 0.000000 1.745130 
# 
# From -- ./inp_files/16167.got.cif
#   From: 2010.05.17/outbox.cif.g08.bks.cpg/sg4_9_cif.got.tgz:16167.got - 2010.06.03 18:43:04.
