data_PCOD9114760
_publ_section_title
;
Structure prediction by ZEFSAII (Michael W. Deem and Ramdas Pophale) SiO2 
 PCOD9114760
Probable space group: P 21
;
_chemical_formula_sum "Si O2"
_cell_formula_units_Z 16
_cell_length_a 20.809481
_cell_length_b 5.514135
_cell_length_c 13.302454
_cell_angle_alpha 90.000000
_cell_angle_beta 22.499344
_cell_angle_gamma 90.000000
_cell_volume 584.114605
_symmetry_space_group_name_H-M "P 21"
_symmetry_group_IT_number 4
_symmetry_cell_setting 'monoclinic'
loop_
_space_group_symop_operation_xyz
x,y,z
-x,1/2+y,-z
loop_
_atom_site_type_symbol
_atom_site_label
_atom_site_fract_x
_atom_site_fract_y
_atom_site_fract_z
Si Si1 0.969353 0.679400 0.762035
Si Si2 0.636174 0.991475 0.539578
Si Si3 0.243080 0.305762 0.446946
Si Si4 0.506554 0.989175 0.349448
Si Si5 0.704499 0.337703 0.167645
Si Si6 0.212104 0.208546 0.269546
Si Si7 0.845424 0.223029 0.714766
Si Si8 0.057551 0.569265 0.030772
O O1 0.112848 0.506580 0.598195
O O2 0.053799 0.763661 0.537519
O O3 0.793104 0.561146 0.987823
O O4 0.924455 0.849190 0.919021
O O5 0.621935 0.935311 0.678393
O O6 0.585515 0.738238 0.556778
O O7 0.546065 0.243191 0.633880
O O8 0.837158 0.031771 0.222568
O O9 0.280320 0.185839 0.285121
O O10 0.138509 0.130206 0.673677
O O11 0.685618 0.119737 0.115737
O O12 0.455098 0.922971 0.539213
O O13 0.833722 0.271888 0.069227
O O14 0.255830 0.472745 0.158959
O O15 0.005178 0.228620 0.559974
O O16 0.260406 0.970441 0.137006
#
# Coordination Sequence:
#
# PCOD9114760 Si02
#       8
#     2   2   2   2   2   2   2   2
#     4  10  19  33  52  81 107 146 176 230 279 328
#     4  11  25  35  51  78 110 154 190 218 268 331
#     4  10  22  33  51  75 117 151 184 214 268 339
#     4  11  23  38  54  75 105 147 191 237 270 320
#     4  10  21  36  54  75 104 143 188 236 283 308
#     4   9  17  31  49  74 105 152 170 218 265 326
#     4   9  17  30  50  75 110 134 182 216 274 329
#     4  10  20  32  51  75 106 145 183 225 269 319
#
# _framework density 27.391888000000002
#
# number of rings (size 3 to 8) (size 9 to 14) (size 15 to 20)
#    0.000    2.000    2.500    1.500    5.250    0.000 
#    0.000    0.000    0.000    0.000    0.000    0.000 
#    3.750    0.000    1.000    0.000    0.000    0.000 
#
# Total GULP energy -89283.644497 kJ/mol
# GULP energy per Si atom -5580.227781 kJ/mol
# Density = 2.732954 g / cm^3
# Si number density = 27.391888 Si / 1000 Ang^3
#
#
#
# Elastic Constant Matrix: (Units=GPa)
#
#
# Indices 1 2 3 4 5 6 
#
# 1 157.0511 49.2882 13.1900 0.0000 -0.2497 0.0000
# 2 49.2882 195.8070 16.8195 0.0000 -3.8186 0.0000
# 3 13.1900 16.8195 47.4919 0.0000 -7.0142 0.0000
# 4 0.0000 0.0000 0.0000 24.5628 0.0000 -0.6674
# 5 -0.2497 -3.8186 -7.0142 0.0000 15.2622 0.0000
# 6 0.0000 0.0000 0.0000 -0.6674 0.0000 46.3674
#
#
#
# Elastic Compliance Matrix: (Units=1/GPa)
#
#
# Indices 1 2 3 4 5 6 
#
# 1 0.007012 -0.001655 -0.001508 0.000000 -0.000992 0.000000
# 2 -0.001655 0.005661 -0.001438 0.000000 0.000729 0.000000
# 3 -0.001508 -0.001438 0.023524 0.000000 0.010427 0.000000
# 4 0.000000 0.000000 0.000000 0.040728 0.000000 0.000586
# 5 -0.000992 0.000729 0.010427 0.000000 0.070479 0.000000
# 6 0.000000 0.000000 0.000000 0.000586 0.000000 0.021575
#
#
# Mechanical properties :
#
#
# Convention : Reuss Voigt Hill
#
# Bulk Modulus (GPa) = 37.04213 62.10506 49.57360
# Shear Modulus (GPa) = 26.71231 38.64195 32.67713
#
# Velocity S-wave (km/s) = 3.12619 3.76001 3.45766
# Velocity P-wave (km/s) = 5.15589 6.44766 5.83761
#
# Compressibility (1/GPa) = 0.02699628
#
# Stress axis : x y z
#
# Youngs Moduli (GPa) = 142.61762 176.63695 42.50945
#
# Poissons Ratio (x) = 0.29230 0.06410
# Poissons Ratio (y) = 0.23601 0.06112
# Poissons Ratio (z) = 0.21505 0.25397
#
# Static dielectric constant tensor:
#      x y z
#    x 2.159990 0.000000 0.110880 
#    y 0.000000 2.324830 0.000000 
#    z 0.110880 0.000000 2.296150 
# 
# From -- ./inp_files/12442.got.cif
#   From: 2010.05.17/outbox.cif.g08.bks.cpg/sg4_7_cif.got.tgz:12442.got - 2010.06.03 18:43:04.
