data_PCOD9114491
_publ_section_title
;
Structure prediction by ZEFSAII (Michael W. Deem and Ramdas Pophale) SiO2 
 PCOD9114491
Probable space group: P 21
;
_chemical_formula_sum "Si O2"
_cell_formula_units_Z 16
_cell_length_a 7.527086
_cell_length_b 5.514488
_cell_length_c 16.361290
_cell_angle_alpha 90.000000
_cell_angle_beta 111.764797
_cell_angle_gamma 90.000000
_cell_volume 630.712628
_symmetry_space_group_name_H-M "P 21"
_symmetry_group_IT_number 4
_symmetry_cell_setting 'monoclinic'
loop_
_space_group_symop_operation_xyz
x,y,z
-x,1/2+y,-z
loop_
_atom_site_type_symbol
_atom_site_label
_atom_site_fract_x
_atom_site_fract_y
_atom_site_fract_z
Si Si1 0.427285 0.985370 0.091412
Si Si2 0.559386 0.985367 0.420571
Si Si3 0.506410 0.485367 0.326135
Si Si4 0.924701 0.485366 0.094244
Si Si5 0.895940 0.485367 0.655015
Si Si6 0.150342 0.485367 0.379432
Si Si7 0.879629 0.485366 0.845272
Si Si8 0.384267 0.985370 0.843952
O O1 0.540596 0.735282 0.103151
O O2 0.341835 0.985369 0.168777
O O3 0.540593 0.235460 0.103150
O O4 0.249677 0.985368 0.999313
O O5 0.588093 0.236094 0.377172
O O6 0.332319 0.985367 0.403581
O O7 0.691778 0.985368 0.522304
O O8 0.588093 0.734640 0.377173
O O9 0.280825 0.485367 0.317750
O O10 0.545555 0.485369 0.236721
O O11 0.838201 0.485367 0.171271
O O12 0.037725 0.234942 0.104402
O O13 0.037728 0.735788 0.104403
O O14 0.969498 0.230980 0.634920
O O15 0.915723 0.485367 0.755654
O O16 0.969498 0.739754 0.634920
#
# Coordination Sequence:
#
# PCOD9114491 Si02
#       8
#     2   2   2   2   2   2   2   2
#     4  12  23  43  67  91 118 160 215 266 300 355
#     4  10  18  30  52  86 117 144 190 256 302 335
#     4  10  18  30  49  80 114 146 182 235 301 352
#     4  12  26  43  61  91 127 167 203 250 317 375
#     4  10  18  30  50  79 114 150 186 234 298 353
#     4  10  17  30  51  86 117 144 190 256 301 335
#     4  12  24  41  63  91 127 165 205 253 308 370
#     4  12  24  41  65  92 124 162 207 258 309 365
#
# _framework density 25.368130000000001
#
# number of rings (size 3 to 8) (size 9 to 14) (size 15 to 20)
#    0.000    1.000    0.000   12.000    0.000    0.000 
#    0.000    0.000    0.000    0.000    0.000   29.750 
#    0.000    0.000    0.000    0.000    0.000    0.000 
#
# Total GULP energy -89640.622324 kJ/mol
# GULP energy per Si atom -5602.538895 kJ/mol
# Density = 2.531039 g / cm^3
# Si number density = 25.368130 Si / 1000 Ang^3
#
#
#
# Elastic Constant Matrix: (Units=GPa)
#
#
# Indices 1 2 3 4 5 6 
#
# 1 71.7132 38.9262 -0.4170 0.0000 -7.8165 0.0000
# 2 38.9262 308.6015 56.2899 0.0000 -1.5068 0.0000
# 3 -0.4170 56.2899 81.7834 0.0000 -6.7632 0.0000
# 4 0.0000 0.0000 0.0000 -2.0243 0.0000 35.0955
# 5 -7.8165 -1.5068 -6.7632 0.0000 14.4627 0.0000
# 6 0.0000 0.0000 0.0000 35.0955 0.0000 16.3559
#
#
#
# Elastic Compliance Matrix: (Units=1/GPa)
#
#
# Indices 1 2 3 4 5 6 
#
# 1 0.016384 -0.002495 0.002613 0.000000 0.009817 0.000000
# 2 -0.002495 0.004096 -0.003025 0.000000 -0.002336 0.000000
# 3 0.002613 -0.003025 0.014993 0.000000 0.008108 0.000000
# 4 0.000000 0.000000 0.000000 -0.012932 0.000000 0.027748
# 5 0.009817 -0.002336 0.008108 0.000000 0.077997 0.000000
# 6 0.000000 0.000000 0.000000 0.027748 0.000000 0.001600
#
#
# Mechanical properties :
#
#
# Convention : Reuss Voigt Hill
#
# Bulk Modulus (GPa) = 33.71746 72.41070 53.06408
# Shear Modulus (GPa) = 42.43066 30.24547 36.33807
#
# Velocity S-wave (km/s) = 4.09418 3.45666 3.78885
# Velocity P-wave (km/s) = 5.97242 6.67363 6.33274
#
# Compressibility (1/GPa) = 0.02965822
#
# Stress axis : x y z
#
# Youngs Moduli (GPa) = 61.03488 244.17043 66.69704
#
# Poissons Ratio (x) = 0.60928 -0.17427
# Poissons Ratio (y) = 0.15230 0.20174
# Poissons Ratio (z) = -0.15947 0.73856
#
# Static dielectric constant tensor:
#      x y z
#    x 1.940280 0.000000 -0.025580 
#    y 0.000000 2.097180 0.000000 
#    z -0.025580 0.000000 2.017340 
# 
# From -- ./inp_files/14811.got.cif
#   From: 2010.05.17/outbox.cif.g08.bks.cpg/sg4_8_cif.got.tgz:14811.got - 2010.06.03 18:43:04.
