data_PCOD9114424
_publ_section_title
;
Structure prediction by ZEFSAII (Michael W. Deem and Ramdas Pophale) SiO2 
 PCOD9114424
Probable space group: P 2
;
_chemical_formula_sum "Si O2"
_cell_formula_units_Z 13
_cell_length_a 24.000000
_cell_length_b 6.000000
_cell_length_c 21.000000
_cell_angle_alpha 90.000000
_cell_angle_beta 10.000000
_cell_angle_gamma 90.000000
_cell_volume 525.112089
_symmetry_space_group_name_H-M "P 2"
_symmetry_group_IT_number 3
_symmetry_cell_setting 'monoclinic'
loop_
_space_group_symop_operation_xyz
x,y,z
-x,y,-z
loop_
_atom_site_type_symbol
_atom_site_label
_atom_site_fract_x
_atom_site_fract_y
_atom_site_fract_z
Si Si1 0.631816 0.970630 0.105391
Si Si2 0.581928 0.158832 0.528942
Si Si3 0.215576 0.171124 0.202050
Si Si4 0.874147 0.451065 0.032325
Si Si5 0.000000 0.779439 0.000000
Si Si6 0.718705 0.457893 0.696784
Si Si7 0.889051 0.653905 0.365505
O O1 0.356573 0.805047 0.395620
O O2 0.548918 0.157272 0.250389
O O3 0.857751 0.824657 0.893702
O O4 0.749031 0.047269 0.904235
O O5 0.372311 0.257339 0.708454
O O6 0.729410 0.925634 0.340741
O O7 0.859173 0.332734 0.226453
O O8 0.000000 0.063506 0.500000
O O9 0.040832 0.396895 0.372919
O O10 0.536812 0.231893 0.878799
O O11 0.830388 0.655372 0.130621
O O12 0.976389 0.507926 0.843951
O O13 0.768826 0.558708 0.569628
O O14 0.500000 0.563267 0.000000
#
# Coordination Sequence:
#
# PCOD9114424 Si02
#       7
#     2   2   2   2   1   2   2
#     4  12  24  43  69 101 142 183 238 297 347 431
#     4  12  28  51  78 106 146 195 235 302 374 432
#     4  10  21  39  64  96 136 183 235 289 349 421
#     4  12  28  51  78 106 146 195 235 302 374 432
#     4  12  30  54  76 116 148 182 262 306 364 464
#     4  10  21  39  64  96 136 183 235 289 349 421
#     4  12  24  43  69 101 142 183 238 297 347 431
#
# _framework density 24.756619000000001
#
# number of rings (size 3 to 8) (size 9 to 14) (size 15 to 20)
#    0.000    0.615    1.538    6.000    0.000    4.923 
#    0.000    0.000    0.000    0.000    0.000    0.000 
#    0.000    0.000    0.000    0.000    0.000    0.000 
#
# Total GULP energy -72377.130838 kJ/mol
# GULP energy per Si atom -5567.471603 kJ/mol
# Density = 2.470027 g / cm^3
# Si number density = 24.756619 Si / 1000 Ang^3
#
#
#
# Elastic Constant Matrix: (Units=GPa)
#
#
# Indices 1 2 3 4 5 6 
#
# 1 352.2068 84.0706 124.8927 0.0000 -42.7869 0.0000
# 2 84.0706 68.8552 62.9342 0.0000 -22.3598 0.0000
# 3 124.8927 62.9342 115.6364 0.0000 -49.0870 0.0000
# 4 0.0000 0.0000 0.0000 123.4519 0.0000 -68.0059
# 5 -42.7869 -22.3598 -49.0870 0.0000 100.9127 0.0000
# 6 0.0000 0.0000 0.0000 -68.0059 0.0000 106.3758
#
#
#
# Elastic Compliance Matrix: (Units=1/GPa)
#
#
# Indices 1 2 3 4 5 6 
#
# 1 0.004785 -0.002164 -0.004200 0.000000 -0.000494 0.000000
# 2 -0.002164 0.030076 -0.014609 0.000000 -0.001359 0.000000
# 3 -0.004200 -0.014609 0.023950 0.000000 0.006632 0.000000
# 4 0.000000 0.000000 0.000000 0.012504 0.000000 0.007994
# 5 -0.000494 -0.001359 0.006632 0.000000 0.012625 0.000000
# 6 0.000000 0.000000 0.000000 0.007994 0.000000 0.014511
#
#
# Mechanical properties :
#
#
# Convention : Reuss Voigt Hill
#
# Bulk Modulus (GPa) = 59.29004 120.05482 89.67243
# Shear Modulus (GPa) = 34.24217 83.80147 59.02182
#
# Velocity S-wave (km/s) = 3.72311 5.82440 4.88800
# Velocity P-wave (km/s) = 6.51792 9.68663 8.25573
#
# Compressibility (1/GPa) = 0.01686624
#
# Stress axis : x y z
#
# Youngs Moduli (GPa) = 208.98108 33.24859 41.75382
#
# Poissons Ratio (x) = 0.07195 0.17536
# Poissons Ratio (y) = 0.45225 0.60997
# Poissons Ratio (z) = 0.87770 0.48572
#
# Static dielectric constant tensor:
#      x y z
#    x 1.609960 0.000000 -0.114140 
#    y 0.000000 2.292980 0.000000 
#    z -0.114140 0.000000 1.933690 
# 
# From -- ./inp_files/16143.got.cif
#   From: 2010.05.17/outbox.ucp.g08.bks.cvg/sg3_9_cif.got.tgz:16143.got - 2010.06.11 12:50:29.
