data_PCOD9114447
_publ_section_title
;
Structure prediction by ZEFSAII (Michael W. Deem and Ramdas Pophale) SiO2 
 PCOD9114447
Probable space group: P 21
;
_chemical_formula_sum "Si O2"
_cell_formula_units_Z 16
_cell_length_a 12.657116
_cell_length_b 5.179909
_cell_length_c 26.794527
_cell_angle_alpha 90.000000
_cell_angle_beta 33.404136
_cell_angle_gamma 90.000000
_cell_volume 967.147371
_symmetry_space_group_name_H-M "P 21"
_symmetry_group_IT_number 4
_symmetry_cell_setting 'monoclinic'
loop_
_space_group_symop_operation_xyz
x,y,z
-x,1/2+y,-z
loop_
_atom_site_type_symbol
_atom_site_label
_atom_site_fract_x
_atom_site_fract_y
_atom_site_fract_z
Si Si1 0.231714 0.498780 0.438809
Si Si2 0.537003 0.622703 0.099889
Si Si3 0.626945 0.087921 0.508721
Si Si4 0.837868 0.864696 0.785591
Si Si5 0.223692 0.000491 0.377066
Si Si6 0.628470 0.663460 0.959412
Si Si7 0.591281 0.630054 0.801131
Si Si8 0.243272 0.086165 0.597763
O O1 0.352222 0.540390 0.441092
O O2 0.266486 0.221828 0.400530
O O3 0.005560 0.513088 0.542371
O O4 0.265981 0.722188 0.384374
O O5 0.330359 0.577240 0.154338
O O6 0.497582 0.922496 0.010183
O O7 0.529801 0.894804 0.129165
O O8 0.680812 0.607939 0.996433
O O9 0.410500 0.070958 0.573257
O O10 0.745288 0.867481 0.431983
O O11 0.704354 0.370392 0.464120
O O12 0.798065 0.720263 0.853346
O O13 0.778645 0.678083 0.762718
O O14 0.040268 0.999961 0.699711
O O15 0.337163 0.064537 0.282005
O O16 0.532956 0.389647 0.141140
#
# Coordination Sequence:
#
# PCOD9114447 Si02
#       8
#     2   2   2   2   2   2   2   2
#     4  10  20  32  47  61  91 119 151 199 237 261
#     4   9  18  27  42  65  94 130 137 188 223 274
#     4  10  21  36  47  65  95 122 156 203 228 264
#     4   9  20  26  49  66  95 126 155 183 223 278
#     4  10  20  30  45  68  83 119 161 188 228 283
#     4  10  16  29  41  64  97 128 150 174 231 280
#     4  10  18  28  43  65  93 118 156 182 220 273
#     4  10  21  32  50  70  88 124 164 187 228 271
#
# _framework density 16.543496999999999
#
# number of rings (size 3 to 8) (size 9 to 14) (size 15 to 20)
#    0.750    1.500    1.250    2.250    3.500    1.000 
#    0.000    0.000    0.000    0.000    0.000    0.000 
#    0.000    4.000    0.000    0.500    0.500    0.000 
#
# Total GULP energy -89089.280885 kJ/mol
# GULP energy per Si atom -5568.080055 kJ/mol
# Density = 1.650584 g / cm^3
# Si number density = 16.543497 Si / 1000 Ang^3
#
#
#
# Elastic Constant Matrix: (Units=GPa)
#
#
# Indices 1 2 3 4 5 6 
#
# 1 27.7218 -8.1828 10.5965 0.0000 10.1339 0.0000
# 2 -8.1828 57.2779 -16.5217 0.0000 -7.1188 0.0000
# 3 10.5965 -16.5217 41.5851 0.0000 12.0850 0.0000
# 4 0.0000 0.0000 0.0000 21.8975 0.0000 2.4924
# 5 10.1339 -7.1188 12.0850 0.0000 15.5042 0.0000
# 6 0.0000 0.0000 0.0000 2.4924 0.0000 10.4203
#
#
#
# Elastic Compliance Matrix: (Units=1/GPa)
#
#
# Indices 1 2 3 4 5 6 
#
# 1 0.048224 0.002504 -0.003190 0.000000 -0.027884 0.000000
# 2 0.002504 0.020024 0.006621 0.000000 0.002397 0.000000
# 3 -0.003190 0.006621 0.033616 0.000000 -0.021077 0.000000
# 4 0.000000 0.000000 0.000000 0.046945 0.000000 -0.011229
# 5 -0.027884 0.002397 -0.021077 0.000000 0.100253 0.000000
# 6 0.000000 0.000000 0.000000 -0.011229 0.000000 0.098652
#
#
# Mechanical properties :
#
#
# Convention : Reuss Voigt Hill
#
# Bulk Modulus (GPa) = 8.79251 10.92987 9.86119
# Shear Modulus (GPa) = 13.37766 18.94392 16.16079
#
# Velocity S-wave (km/s) = 2.84674 3.38760 3.12888
# Velocity P-wave (km/s) = 4.01641 4.68211 4.36198
#
# Compressibility (1/GPa) = 0.11373311
#
# Stress axis : x y z
#
# Youngs Moduli (GPa) = 20.73639 49.93973 29.74796
#
# Poissons Ratio (x) = -0.12503 0.09490
# Poissons Ratio (y) = -0.05192 -0.19696
# Poissons Ratio (z) = 0.06615 -0.33066
#
# Static dielectric constant tensor:
#      x y z
#    x 1.537280 0.000000 0.021170 
#    y 0.000000 1.576200 0.000000 
#    z 0.021170 0.000000 1.572790 
# 
# From -- ./inp_files/15671.got.cif
#   From: 2010.05.17/outbox.cif.g08.bks.cpg/sg4_8_cif.got.tgz:15671.got - 2010.06.03 18:43:04.
