data_PCOD9114926
_publ_section_title
;
Structure prediction by ZEFSAII (Michael W. Deem and Ramdas Pophale) SiO2 
 PCOD9114926
Probable space group: P 21
;
_chemical_formula_sum "Si O2"
_cell_formula_units_Z 14
_cell_length_a 5.254429
_cell_length_b 13.281029
_cell_length_c 10.060194
_cell_angle_alpha 90.000000
_cell_angle_beta 132.725687
_cell_angle_gamma 90.000000
_cell_volume 515.728026
_symmetry_space_group_name_H-M "P 21"
_symmetry_group_IT_number 4
_symmetry_cell_setting 'monoclinic'
loop_
_space_group_symop_operation_xyz
x,y,z
-x,1/2+y,-z
loop_
_atom_site_type_symbol
_atom_site_label
_atom_site_fract_x
_atom_site_fract_y
_atom_site_fract_z
Si Si1 0.015520 0.121970 0.069557
Si Si2 0.796002 0.749535 0.417175
Si Si3 0.755508 0.792985 0.680995
Si Si4 0.550930 0.958035 0.261075
Si Si5 0.511610 0.891583 0.962219
Si Si6 0.714190 0.431705 0.396100
Si Si7 0.245987 0.180176 0.877825
O O1 0.256802 0.215814 0.200475
O O2 0.017652 0.124552 0.908380
O O3 0.646173 0.144708 0.005189
O O4 0.225456 0.023258 0.189869
O O5 0.702320 0.721367 0.533286
O O6 0.527756 0.837934 0.279486
O O7 0.136609 0.816916 0.559678
O O8 0.860284 0.678891 0.315170
O O9 0.133744 0.841527 0.833922
O O10 0.552317 0.900380 0.583702
O O11 0.935076 0.990671 0.448614
O O12 0.557071 0.962277 0.104098
O O13 0.502467 0.946969 0.815620
O O14 0.759940 0.796923 0.077161
#
# Coordination Sequence:
#
# PCOD9114926 Si02
#       7
#     2   2   2   2   2   2   2
#     4  11  23  40  62  93 128 163 205 269 318 358
#     4   8  20  37  61  89 116 166 211 246 301 389
#     4  10  19  36  69  86 124 162 217 257 308 370
#     4   9  21  40  61  86 127 160 210 256 324 361
#     4   9  18  40  59  87 119 164 209 249 299 387
#     4   9  18  36  62  88 114 161 212 248 302 374
#     4  10  21  39  62  89 122 166 208 251 310 377
#
# _framework density 27.146089
#
# number of rings (size 3 to 8) (size 9 to 14) (size 15 to 20)
#    0.857    1.714    1.429    0.000    2.000    1.143 
#    7.714    0.000    0.000    0.000    0.000    0.000 
#    0.000    0.000    0.000    0.000    0.000    0.000 
#
# Total GULP energy -77989.363077 kJ/mol
# GULP energy per Si atom -5570.668791 kJ/mol
# Density = 2.708430 g / cm^3
# Si number density = 27.146089 Si / 1000 Ang^3
#
#
#
# Elastic Constant Matrix: (Units=GPa)
#
#
# Indices 1 2 3 4 5 6 
#
# 1 64.6099 22.6172 19.2384 0.0000 -1.4720 0.0000
# 2 22.6172 67.4707 16.0037 0.0000 -3.4254 0.0000
# 3 19.2384 16.0037 151.6292 0.0000 -26.2107 0.0000
# 4 0.0000 0.0000 0.0000 28.0239 0.0000 -1.2906
# 5 -1.4720 -3.4254 -26.2107 0.0000 40.7081 0.0000
# 6 0.0000 0.0000 0.0000 -1.2906 0.0000 39.1795
#
#
#
# Elastic Compliance Matrix: (Units=1/GPa)
#
#
# Indices 1 2 3 4 5 6 
#
# 1 0.017983 -0.005638 -0.001864 0.000000 -0.001024 0.000000
# 2 -0.005638 0.016972 -0.000973 0.000000 0.000598 0.000000
# 3 -0.001864 -0.000973 0.007774 0.000000 0.004856 0.000000
# 4 0.000000 0.000000 0.000000 0.035738 0.000000 0.001177
# 5 -0.001024 0.000598 0.004856 0.000000 0.027705 0.000000
# 6 0.000000 0.000000 0.000000 0.001177 0.000000 0.025562
#
#
# Mechanical properties :
#
#
# Convention : Reuss Voigt Hill
#
# Bulk Modulus (GPa) = 38.78966 44.38094 41.58530
# Shear Modulus (GPa) = 31.79132 36.63901 34.21517
#
# Velocity S-wave (km/s) = 3.42588 3.67781 3.55408
# Velocity P-wave (km/s) = 5.47440 5.86681 5.67400
#
# Compressibility (1/GPa) = 0.02578007
#
# Stress axis : x y z
#
# Youngs Moduli (GPa) = 55.60892 58.91969 128.64173
#
# Poissons Ratio (x) = 0.33219 0.23973
# Poissons Ratio (y) = 0.31353 0.12512
# Poissons Ratio (z) = 0.10363 0.05731
#
# Static dielectric constant tensor:
#      x y z
#    x 2.651020 0.000000 -0.050950 
#    y 0.000000 2.202760 0.000000 
#    z -0.050950 0.000000 2.142540 
# 
# From -- ./inp_files/1631.got.cif
#   From: 2010.05.17/outbox.cif.g08.bks.cpg/sg4_1_cif.got.tgz:1631.got - 2010.06.03 18:43:04.
