data_PCOD9114238
_publ_section_title
;
Structure prediction by ZEFSAII (Michael W. Deem and Ramdas Pophale) SiO2 
 PCOD9114238
Probable space group: P 2
;
_chemical_formula_sum "Si O2"
_cell_formula_units_Z 10
_cell_length_a 5.898863
_cell_length_b 7.743478
_cell_length_c 10.213118
_cell_angle_alpha 90.000000
_cell_angle_beta 114.639251
_cell_angle_gamma 90.000000
_cell_volume 424.036329
_symmetry_space_group_name_H-M "P 2"
_symmetry_group_IT_number 3
_symmetry_cell_setting 'monoclinic'
loop_
_space_group_symop_operation_xyz
x,y,z
-x,y,-z
loop_
_atom_site_type_symbol
_atom_site_label
_atom_site_fract_x
_atom_site_fract_y
_atom_site_fract_z
Si Si1 0.268134 0.287990 0.344404
Si Si2 0.710060 0.677646 0.658843
Si Si3 0.288403 0.729899 0.056784
Si Si4 0.060275 0.968161 0.661504
Si Si5 0.424294 0.107640 0.120089
O O1 0.500000 0.265220 0.500000
O O2 0.189146 0.485817 0.341163
O O3 0.324704 0.236395 0.206954
O O4 0.069882 0.149758 0.342441
O O5 0.500000 0.719774 0.500000
O O6 0.594599 0.678135 0.775121
O O7 0.927370 0.819627 0.712768
O O8 0.263834 0.939449 0.041442
O O9 0.500000 0.680430 0.000000
O O10 0.000000 0.660490 0.000000
O O11 0.343449 0.010179 0.757061
O O12 0.000000 0.915078 0.500000
O O13 0.500000 0.193201 0.000000
#
# Coordination Sequence:
#
# PCOD9114238 Si02
#       5
#     2   2   2   2   2
#     4  11  24  45  67 104 138 180 241 297 357 431
#     4  11  24  44  72 104 138 182 245 295 361 431
#     4  11  24  46  72 108 145 189 237 297 363 434
#     4  12  23  44  73  99 139 190 237 297 366 426
#     4  11  24  42  72  99 138 185 234 291 360 432
#
# _framework density 23.582885999999998
#
# number of rings (size 3 to 8) (size 9 to 14) (size 15 to 20)
#    0.000    0.800    4.000    4.200    0.000    1.600 
#   10.800    0.000    0.000    0.000    0.000    0.000 
#    0.000    0.000    0.000    0.000    0.000    0.000 
#
# Total GULP energy -55885.744116 kJ/mol
# GULP energy per Si atom -5588.574412 kJ/mol
# Density = 2.352921 g / cm^3
# Si number density = 23.582886 Si / 1000 Ang^3
#
#
#
# Elastic Constant Matrix: (Units=GPa)
#
#
# Indices 1 2 3 4 5 6 
#
# 1 95.1089 11.0348 20.2910 0.0000 6.5283 0.0000
# 2 11.0348 76.1063 -31.2525 0.0000 17.8719 0.0000
# 3 20.2910 -31.2525 118.8990 0.0000 -23.9491 0.0000
# 4 0.0000 0.0000 0.0000 58.0013 0.0000 -51.8522
# 5 6.5283 17.8719 -23.9491 0.0000 40.6784 0.0000
# 6 0.0000 0.0000 0.0000 -51.8522 0.0000 59.3104
#
#
#
# Elastic Compliance Matrix: (Units=1/GPa)
#
#
# Indices 1 2 3 4 5 6 
#
# 1 0.011642 -0.002348 -0.003146 0.000000 -0.002689 0.000000
# 2 -0.002348 0.016061 0.003718 0.000000 -0.004491 0.000000
# 3 -0.003146 0.003718 0.011002 0.000000 0.005349 0.000000
# 4 0.000000 0.000000 0.000000 0.078930 0.000000 0.069004
# 5 -0.002689 -0.004491 0.005349 0.000000 0.030137 0.000000
# 6 0.000000 0.000000 0.000000 0.069004 0.000000 0.077188
#
#
# Mechanical properties :
#
#
# Convention : Reuss Voigt Hill
#
# Bulk Modulus (GPa) = 28.44689 32.25122 30.34906
# Shear Modulus (GPa) = 20.81340 50.93409 35.87374
#
# Velocity S-wave (km/s) = 2.97402 4.65240 3.90446
# Velocity P-wave (km/s) = 4.88690 6.52419 5.76398
#
# Compressibility (1/GPa) = 0.03515323
#
# Stress axis : x y z
#
# Youngs Moduli (GPa) = 85.89292 62.26150 90.89296
#
# Poissons Ratio (x) = 0.14622 0.28592
# Poissons Ratio (y) = 0.20171 -0.33793
# Poissons Ratio (z) = 0.27019 -0.23148
#
# Static dielectric constant tensor:
#      x y z
#    x 1.916770 0.000000 -0.010550 
#    y 0.000000 1.858230 0.000000 
#    z -0.010550 0.000000 1.983540 
# 
# From -- ./inp_files/3118.got.cif
#   From: 2010.05.17/outbox.cif.g08.bks.cpg/sg3_2_cif.got.tgz:3118.got - 2010.06.03 18:33:08.
