data_PCOD9114327
_publ_section_title
;
Structure prediction by ZEFSAII (Michael W. Deem and Ramdas Pophale) SiO2 
 PCOD9114327
Probable space group: P 2
;
_chemical_formula_sum "Si O2"
_cell_formula_units_Z 12
_cell_length_a 15.478820
_cell_length_b 5.312501
_cell_length_c 9.206498
_cell_angle_alpha 90.000000
_cell_angle_beta 38.530082
_cell_angle_gamma 90.000000
_cell_volume 471.593063
_symmetry_space_group_name_H-M "P 2"
_symmetry_group_IT_number 3
_symmetry_cell_setting 'monoclinic'
loop_
_space_group_symop_operation_xyz
x,y,z
-x,y,-z
loop_
_atom_site_type_symbol
_atom_site_label
_atom_site_fract_x
_atom_site_fract_y
_atom_site_fract_z
Si Si1 0.321147 0.640960 0.923716
Si Si2 0.645112 0.955189 0.842414
Si Si3 0.500000 0.311897 0.500000
Si Si4 0.224681 0.987253 0.801875
Si Si5 0.864968 0.349335 0.609890
Si Si6 0.187778 0.663593 0.571848
Si Si7 0.000000 0.294935 0.000000
O O1 0.455056 0.494161 0.690000
O O2 0.243872 0.757780 0.887016
O O3 0.354207 0.862580 0.992990
O O4 0.226276 0.451372 0.137635
O O5 0.668016 0.714473 0.705928
O O6 0.771439 0.144802 0.651927
O O7 0.500000 0.081027 0.000000
O O8 0.365642 0.147319 0.634768
O O9 0.199058 0.889743 0.672443
O O10 0.082682 0.138894 0.014224
O O11 0.899502 0.585193 0.458531
O O12 0.000000 0.229399 0.500000
O O13 0.122829 0.455573 0.765106
#
# Coordination Sequence:
#
# PCOD9114327 Si02
#       7
#     2   2   1   2   2   2   1
#     4  11  28  50  78 115 156 202 263 324 389 466
#     4  11  28  51  81 114 158 209 263 321 389 464
#     4  12  28  50  82 118 152 204 264 326 392 460
#     4  12  28  49  83 117 154 201 263 326 395 461
#     4  11  28  51  81 114 158 209 262 320 392 467
#     4  11  28  50  74 119 156 200 257 322 387 461
#     4  12  28  48  84 116 156 198 260 328 396 462
#
# _framework density 25.445665999999999
#
# number of rings (size 3 to 8) (size 9 to 14) (size 15 to 20)
#    0.000    0.667    0.000    4.000   18.667    5.333 
#    0.000    0.000    0.000    0.000    0.000    0.000 
#    0.000    0.000    0.000    0.000    0.000    0.000 
#
# Total GULP energy -67034.646016 kJ/mol
# GULP energy per Si atom -5586.220501 kJ/mol
# Density = 2.538775 g / cm^3
# Si number density = 25.445666 Si / 1000 Ang^3
#
#
#
# Elastic Constant Matrix: (Units=GPa)
#
#
# Indices 1 2 3 4 5 6 
#
# 1 131.1323 57.6838 61.9672 0.0000 -14.8635 0.0000
# 2 57.6838 91.3240 38.9932 0.0000 -0.9056 0.0000
# 3 61.9672 38.9932 83.5377 0.0000 19.1922 0.0000
# 4 0.0000 0.0000 0.0000 30.9539 0.0000 -2.3229
# 5 -14.8635 -0.9056 19.1922 0.0000 53.6236 0.0000
# 6 0.0000 0.0000 0.0000 -2.3229 0.0000 36.8398
#
#
#
# Elastic Compliance Matrix: (Units=1/GPa)
#
#
# Indices 1 2 3 4 5 6 
#
# 1 0.016509 -0.005320 -0.011761 0.000000 0.008696 0.000000
# 2 -0.005320 0.015770 -0.003418 0.000000 0.000015 0.000000
# 3 -0.011761 -0.003418 0.025118 0.000000 -0.012307 0.000000
# 4 0.000000 0.000000 0.000000 0.032460 0.000000 0.002047
# 5 0.008696 0.000015 -0.012307 0.000000 0.025464 0.000000
# 6 0.000000 0.000000 0.000000 0.002047 0.000000 0.027274
#
#
# Mechanical properties :
#
#
# Convention : Reuss Voigt Hill
#
# Bulk Modulus (GPa) = 60.97960 69.25360 65.11660
# Shear Modulus (GPa) = 26.44677 34.10679 30.27678
#
# Velocity S-wave (km/s) = 3.22738 3.66509 3.45318
# Velocity P-wave (km/s) = 6.15667 6.72204 6.44556
#
# Compressibility (1/GPa) = 0.01639893
#
# Stress axis : x y z
#
# Youngs Moduli (GPa) = 60.57130 63.41150 39.81250
#
# Poissons Ratio (x) = 0.33736 0.46823
# Poissons Ratio (y) = 0.32225 0.13608
# Poissons Ratio (z) = 0.71238 0.21674
#
# Static dielectric constant tensor:
#      x y z
#    x 1.957760 0.000000 -0.009490 
#    y 0.000000 2.065580 0.000000 
#    z -0.009490 0.000000 1.988350 
# 
# From -- ./inp_files/7930.got.cif
#   From: 2010.05.17/outbox.cif.g08.bks.cpg/sg3_4_cif.got.tgz:7930.got - 2010.06.03 18:33:08.
