data_PCOD9114406
_publ_section_title
;
Structure prediction by ZEFSAII (Michael W. Deem and Ramdas Pophale) SiO2 
 PCOD9114406
Probable space group: P 2
;
_chemical_formula_sum "Si O2"
_cell_formula_units_Z 12
_cell_length_a 18.436343
_cell_length_b 5.046705
_cell_length_c 8.078943
_cell_angle_alpha 90.000000
_cell_angle_beta 41.895917
_cell_angle_gamma 90.000000
_cell_volume 501.961414
_symmetry_space_group_name_H-M "P 2"
_symmetry_group_IT_number 3
_symmetry_cell_setting 'monoclinic'
loop_
_space_group_symop_operation_xyz
x,y,z
-x,y,-z
loop_
_atom_site_type_symbol
_atom_site_label
_atom_site_fract_x
_atom_site_fract_y
_atom_site_fract_z
Si Si1 0.068476 0.563800 0.219900
Si Si2 0.728505 0.133583 0.731355
Si Si3 0.556851 0.494697 0.142035
Si Si4 0.979756 0.069003 0.221728
Si Si5 0.696783 0.800950 0.124321
Si Si6 0.403062 0.986166 0.368583
O O1 0.190670 0.653870 0.036808
O O2 0.000000 0.613482 0.500000
O O3 0.058723 0.255583 0.194183
O O4 0.011175 0.762230 0.188140
O O5 0.857448 0.134594 0.485673
O O6 0.705755 0.982737 0.944116
O O7 0.674625 0.010961 0.658066
O O8 0.666421 0.414811 0.855752
O O9 0.483137 0.738061 0.211152
O O10 0.480157 0.240531 0.258040
O O11 0.605760 0.583054 0.234794
O O12 0.000000 0.148407 0.000000
O O13 0.662478 0.949447 0.349346
#
# Coordination Sequence:
#
# PCOD9114406 Si02
#       6
#     2   2   2   2   2   2
#     4  12  26  50  78 111 151 200 257 317 391 465
#     4  12  29  51  80 114 155 211 259 319 397 462
#     4  12  29  50  78 115 156 203 262 317 385 464
#     4  12  28  51  79 114 154 200 260 326 389 465
#     4  12  29  50  81 113 157 207 259 324 393 463
#     4  12  31  49  78 117 158 205 263 320 383 471
#
# _framework density 23.906220000000001
#
# number of rings (size 3 to 8) (size 9 to 14) (size 15 to 20)
#    0.000    0.000    3.333    4.000   11.667    1.333 
#    0.000    0.000    0.000    0.000    0.000    0.000 
#    0.000    0.000    0.000    0.000    0.000    0.000 
#
# Total GULP energy -67274.076652 kJ/mol
# GULP energy per Si atom -5606.173054 kJ/mol
# Density = 2.385181 g / cm^3
# Si number density = 23.906220 Si / 1000 Ang^3
#
#
#
# Elastic Constant Matrix: (Units=GPa)
#
#
# Indices 1 2 3 4 5 6 
#
# 1 114.5503 19.0787 57.6649 0.0000 16.4830 0.0000
# 2 19.0787 113.5450 24.9985 0.0000 6.3485 0.0000
# 3 57.6649 24.9985 126.1548 0.0000 17.4807 0.0000
# 4 0.0000 0.0000 0.0000 36.0700 0.0000 6.0529
# 5 16.4830 6.3485 17.4807 0.0000 38.2555 0.0000
# 6 0.0000 0.0000 0.0000 6.0529 0.0000 43.4668
#
#
#
# Elastic Compliance Matrix: (Units=1/GPa)
#
#
# Indices 1 2 3 4 5 6 
#
# 1 0.011664 -0.000750 -0.004808 0.000000 -0.002704 0.000000
# 2 -0.000750 0.009277 -0.001417 0.000000 -0.000569 0.000000
# 3 -0.004808 -0.001417 0.010767 0.000000 -0.002613 0.000000
# 4 0.000000 0.000000 0.000000 0.028387 0.000000 -0.003953
# 5 -0.002704 -0.000569 -0.002613 0.000000 0.028594 0.000000
# 6 0.000000 0.000000 0.000000 -0.003953 0.000000 0.023557
#
#
# Mechanical properties :
#
#
# Convention : Reuss Voigt Hill
#
# Bulk Modulus (GPa) = 56.31095 61.97048 59.14071
# Shear Modulus (GPa) = 37.84559 40.39233 39.11896
#
# Velocity S-wave (km/s) = 3.98312 4.11495 4.04957
# Velocity P-wave (km/s) = 6.69027 6.96819 6.83064
#
# Compressibility (1/GPa) = 0.01775854
#
# Stress axis : x y z
#
# Youngs Moduli (GPa) = 85.73099 107.79567 92.87213
#
# Poissons Ratio (x) = 0.08086 0.44657
# Poissons Ratio (y) = 0.06431 0.13156
# Poissons Ratio (z) = 0.41223 0.15270
#
# Static dielectric constant tensor:
#      x y z
#    x 1.778780 0.000000 0.003540 
#    y 0.000000 1.908380 0.000000 
#    z 0.003540 0.000000 1.871150 
# 
# From -- ./inp_files/8787.got.cif
#   From: 2010.05.17/outbox.cif.g08.bks.cpg/sg3_5_cif.got.tgz:8787.got - 2010.06.03 18:33:08.
