data_PCOD9114143
_publ_section_title
;
Structure prediction by ZEFSAII (Michael W. Deem and Ramdas Pophale) SiO2 
 PCOD9114143
Probable space group: P 2
;
_chemical_formula_sum "Si O2"
_cell_formula_units_Z 10
_cell_length_a 8.945139
_cell_length_b 11.441124
_cell_length_c 7.470976
_cell_angle_alpha 90.000000
_cell_angle_beta 34.395627
_cell_angle_gamma 90.000000
_cell_volume 431.924459
_symmetry_space_group_name_H-M "P 2"
_symmetry_group_IT_number 3
_symmetry_cell_setting 'monoclinic'
loop_
_space_group_symop_operation_xyz
x,y,z
-x,y,-z
loop_
_atom_site_type_symbol
_atom_site_label
_atom_site_fract_x
_atom_site_fract_y
_atom_site_fract_z
Si Si1 0.629884 0.461770 0.059405
Si Si2 0.533425 0.986860 0.248611
Si Si3 0.884674 0.598581 0.315523
Si Si4 0.253263 0.223263 0.874171
Si Si5 0.966361 0.862484 0.249563
O O1 0.384693 0.524113 0.404688
O O2 0.761555 0.345827 0.011264
O O3 0.500000 0.430171 0.000000
O O4 0.873013 0.550519 0.806634
O O5 0.500000 0.981146 0.500000
O O6 0.665807 0.112450 0.084936
O O7 0.239240 0.958722 0.476691
O O8 0.737961 0.889165 0.979436
O O9 0.849485 0.734525 0.397433
O O10 0.000000 0.591622 0.000000
O O11 0.500000 0.239410 0.500000
O O12 0.000000 0.197906 0.000000
O O13 0.000000 0.872568 0.000000
#
# Coordination Sequence:
#
# PCOD9114143 Si02
#       5
#     2   2   2   2   2
#     4  12  25  40  58  84 122 160 197 244 297 345
#     4   9  16  29  51  84 115 140 177 235 293 336
#     4  11  22  39  63  89 116 153 200 244 288 349
#     4  11  21  36  60  86 114 150 196 242 285 345
#     4   9  17  30  53  85 114 139 179 237 290 335
#
# _framework density 23.152197000000001
#
# number of rings (size 3 to 8) (size 9 to 14) (size 15 to 20)
#    0.000    1.600    0.000    8.400    0.000    3.200 
#    0.000    0.000    0.000    7.200    0.000    0.000 
#    0.000    0.000    0.000    0.000    0.000    0.000 
#
# Total GULP energy -55860.391369 kJ/mol
# GULP energy per Si atom -5586.039137 kJ/mol
# Density = 2.309950 g / cm^3
# Si number density = 23.152197 Si / 1000 Ang^3
#
#
#
# Elastic Constant Matrix: (Units=GPa)
#
#
# Indices 1 2 3 4 5 6 
#
# 1 36.3093 9.8698 15.5576 0.0000 -7.9936 0.0000
# 2 9.8698 136.7015 47.8660 0.0000 -11.6222 0.0000
# 3 15.5576 47.8660 107.1355 0.0000 -32.7104 0.0000
# 4 0.0000 0.0000 0.0000 21.5609 0.0000 -23.9835
# 5 -7.9936 -11.6222 -32.7104 0.0000 31.9408 0.0000
# 6 0.0000 0.0000 0.0000 -23.9835 0.0000 3.3099
#
#
#
# Elastic Compliance Matrix: (Units=1/GPa)
#
#
# Indices 1 2 3 4 5 6 
#
# 1 0.029875 -0.000874 -0.002564 0.000000 0.004533 0.000000
# 2 -0.000874 0.008728 -0.004175 0.000000 -0.001319 0.000000
# 3 -0.002564 -0.004175 0.015876 0.000000 0.014098 0.000000
# 4 0.000000 0.000000 0.000000 -0.006569 0.000000 -0.047601
# 5 0.004533 -0.001319 0.014098 0.000000 0.046400 0.000000
# 6 0.000000 0.000000 0.000000 -0.047601 0.000000 -0.042793
#
#
# Mechanical properties :
#
#
# Convention : Reuss Voigt Hill
#
# Bulk Modulus (GPa) = 25.47556 47.41479 36.44518
# Shear Modulus (GPa) = 62.63500 25.15250 43.89375
#
# Velocity S-wave (km/s) = 5.20695 3.29963 4.35889
# Velocity P-wave (km/s) = 6.86856 5.91953 6.41163
#
# Compressibility (1/GPa) = 0.03925331
#
# Stress axis : x y z
#
# Youngs Moduli (GPa) = 33.47258 114.57162 62.98837
#
# Poissons Ratio (x) = 0.10012 0.16149
# Poissons Ratio (y) = 0.02925 0.26299
# Poissons Ratio (z) = 0.08582 0.47837
#
# Static dielectric constant tensor:
#      x y z
#    x 1.907350 0.000000 0.037780 
#    y 0.000000 1.899190 0.000000 
#    z 0.037780 0.000000 1.815730 
# 
# From -- ./inp_files/5694.got.cif
#   From: 2010.05.17/outbox.cif.g08.bks.cpg/sg3_3_cif.got.tgz:5694.got - 2010.06.03 18:33:08.
