data_PCOD9114730
_publ_section_title
;
Structure prediction by ZEFSAII (Michael W. Deem and Ramdas Pophale) SiO2 
 PCOD9114730
Probable space group: P 21
;
_chemical_formula_sum "Si O2"
_cell_formula_units_Z 12
_cell_length_a 17.219385
_cell_length_b 5.111622
_cell_length_c 10.667090
_cell_angle_alpha 90.000000
_cell_angle_beta 143.785500
_cell_angle_gamma 90.000000
_cell_volume 554.715201
_symmetry_space_group_name_H-M "P 21"
_symmetry_group_IT_number 4
_symmetry_cell_setting 'monoclinic'
loop_
_space_group_symop_operation_xyz
x,y,z
-x,1/2+y,-z
loop_
_atom_site_type_symbol
_atom_site_label
_atom_site_fract_x
_atom_site_fract_y
_atom_site_fract_z
Si Si1 0.347379 0.772780 0.441965
Si Si2 0.332657 0.539847 0.830826
Si Si3 0.070607 0.424043 0.637305
Si Si4 0.395985 0.030030 0.254607
Si Si5 0.227739 0.552186 0.053866
Si Si6 0.635748 0.540602 0.285412
O O1 0.464283 0.571300 0.628293
O O2 0.236691 0.633391 0.212458
O O3 0.308423 0.940826 0.510006
O O4 0.418194 0.958509 0.430269
O O5 0.214438 0.456991 0.765192
O O6 0.317940 0.832901 0.759437
O O7 0.331036 0.332157 0.714057
O O8 0.476724 0.515172 0.080200
O O9 0.021154 0.131900 0.552539
O O10 0.089168 0.509320 0.806270
O O11 0.307890 0.286753 0.139157
O O12 0.308067 0.789838 0.093420
#
# Coordination Sequence:
#
# PCOD9114730 Si02
#       6
#     2   2   2   2   2   2
#     4  10  20  32  58  91 124 162 192 253 317 370
#     4  10  23  40  58  94 124 171 200 243 312 383
#     4  12  25  43  67  87 120 168 221 273 292 352
#     4  10  19  31  53  93 125 155 193 249 318 374
#     4  10  21  35  55  89 118 153 204 266 306 350
#     4  10  22  37  63  90 135 159 192 244 323 403
#
# _framework density 21.632721
#
# number of rings (size 3 to 8) (size 9 to 14) (size 15 to 20)
#    1.000    0.667    1.667    3.000    2.333    4.000 
#    0.000    0.000    0.000    4.000    0.000    0.000 
#    0.000    0.000    0.000    0.000    0.000    0.000 
#
# Total GULP energy -67006.127847 kJ/mol
# GULP energy per Si atom -5583.843987 kJ/mol
# Density = 2.158348 g / cm^3
# Si number density = 21.632721 Si / 1000 Ang^3
#
#
#
# Elastic Constant Matrix: (Units=GPa)
#
#
# Indices 1 2 3 4 5 6 
#
# 1 41.7059 -6.0793 2.2521 0.0000 -7.4245 0.0000
# 2 -6.0793 89.3589 0.8295 0.0000 -1.1368 0.0000
# 3 2.2521 0.8295 54.8853 0.0000 -23.6262 0.0000
# 4 0.0000 0.0000 0.0000 35.2818 0.0000 -3.3923
# 5 -7.4245 -1.1368 -23.6262 0.0000 25.1628 0.0000
# 6 0.0000 0.0000 0.0000 -3.3923 0.0000 24.7560
#
#
#
# Elastic Compliance Matrix: (Units=1/GPa)
#
#
# Indices 1 2 3 4 5 6 
#
# 1 0.026063 0.001882 0.003775 0.000000 0.011319 0.000000
# 2 0.001882 0.011333 0.000354 0.000000 0.001400 0.000000
# 3 0.003775 0.000354 0.031127 0.000000 0.030356 0.000000
# 4 0.000000 0.000000 0.000000 0.028722 0.000000 0.003936
# 5 0.011319 0.001400 0.030356 0.000000 0.071646 0.000000
# 6 0.000000 0.000000 0.000000 0.003936 0.000000 0.040934
#
#
# Mechanical properties :
#
#
# Convention : Reuss Voigt Hill
#
# Bulk Modulus (GPa) = 12.41548 19.99496 16.20522
# Shear Modulus (GPa) = 22.25676 29.63664 25.94670
#
# Velocity S-wave (km/s) = 3.21104 3.70535 3.46702
# Velocity P-wave (km/s) = 4.41581 5.25064 4.85122
#
# Compressibility (1/GPa) = 0.08054460
#
# Stress axis : x y z
#
# Youngs Moduli (GPa) = 38.36860 88.23484 32.12686
#
# Poissons Ratio (x) = -0.16607 -0.12127
# Poissons Ratio (y) = -0.07221 -0.01137
# Poissons Ratio (z) = -0.14483 -0.03124
#
# Static dielectric constant tensor:
#      x y z
#    x 1.807730 0.000000 -0.067220 
#    y 0.000000 1.804620 0.000000 
#    z -0.067220 0.000000 1.842200 
# 
# From -- ./inp_files/12829.got.cif
#   From: 2010.05.17/outbox.cif.g08.bks.cpg/sg4_7_cif.got.tgz:12829.got - 2010.06.03 18:43:04.
