data_PCOD9114106
_publ_section_title
;
Structure prediction by ZEFSAII (Michael W. Deem and Ramdas Pophale) SiO2 
 PCOD9114106
Probable space group: P 2
;
_chemical_formula_sum "Si O2"
_cell_formula_units_Z 10
_cell_length_a 19.433170
_cell_length_b 4.889571
_cell_length_c 5.514237
_cell_angle_alpha 90.000000
_cell_angle_beta 46.426470
_cell_angle_gamma 90.000000
_cell_volume 379.605467
_symmetry_space_group_name_H-M "P 2"
_symmetry_group_IT_number 3
_symmetry_cell_setting 'monoclinic'
loop_
_space_group_symop_operation_xyz
x,y,z
-x,y,-z
loop_
_atom_site_type_symbol
_atom_site_label
_atom_site_fract_x
_atom_site_fract_y
_atom_site_fract_z
Si Si1 0.444153 0.682580 0.387497
Si Si2 0.210606 0.494484 0.435776
Si Si3 0.842209 0.985348 0.125962
Si Si4 0.320631 0.211172 0.788084
Si Si5 0.024756 0.611899 0.675668
O O1 0.500000 0.598041 0.500000
O O2 0.374221 0.431817 0.493740
O O3 0.385104 0.944686 0.623549
O O4 0.500000 0.745700 0.000000
O O5 0.217330 0.729844 0.620064
O O6 0.137910 0.634523 0.418004
O O7 0.162648 0.225953 0.666339
O O8 0.301959 0.375115 0.081674
O O9 0.783169 0.116987 0.050885
O O10 0.948042 0.860728 0.838877
O O11 0.000000 0.437453 0.500000
O O12 0.000000 0.504980 0.000000
#
# Coordination Sequence:
#
# PCOD9114106 Si02
#       5
#     2   2   2   2   2
#     4  12  30  54  84 123 160 205 264 348 432 506
#     4  11  27  49  76 116 161 219 273 338 394 483
#     4  11  27  49  76 116 161 219 273 338 394 483
#     4  12  28  50  87 116 160 214 272 339 414 500
#     4  10  26  48  70 110 158 210 266 320 384 454
#
# _framework density 26.343143999999999
#
# number of rings (size 3 to 8) (size 9 to 14) (size 15 to 20)
#    0.000    0.800    0.000    3.600   22.400    7.200 
#    0.000    0.000    0.000    0.000    0.000    0.000 
#    0.000    0.000    0.000    0.000    0.000    0.000 
#
# Total GULP energy -55878.083643 kJ/mol
# GULP energy per Si atom -5587.808364 kJ/mol
# Density = 2.628319 g / cm^3
# Si number density = 26.343144 Si / 1000 Ang^3
#
#
#
# Elastic Constant Matrix: (Units=GPa)
#
#
# Indices 1 2 3 4 5 6 
#
# 1 103.6596 25.6332 29.1844 0.0000 16.3088 0.0000
# 2 25.6332 178.7911 56.6646 0.0000 -16.8503 0.0000
# 3 29.1844 56.6646 136.7887 0.0000 11.3660 0.0000
# 4 0.0000 0.0000 0.0000 -808.3225 0.0000 -637.3260
# 5 16.3088 -16.8503 11.3660 0.0000 38.7839 0.0000
# 6 0.0000 0.0000 0.0000 -637.3260 0.0000 -417.7150
#
#
#
# Elastic Compliance Matrix: (Units=1/GPa)
#
#
# Indices 1 2 3 4 5 6 
#
# 1 0.011221 -0.001683 -0.001275 0.000000 -0.005076 0.000000
# 2 -0.001683 0.007244 -0.003036 0.000000 0.004745 0.000000
# 3 -0.001275 -0.003036 0.009127 0.000000 -0.003458 0.000000
# 4 0.000000 0.000000 0.000000 0.006095 0.000000 -0.009299
# 5 -0.005076 0.004745 -0.003458 0.000000 0.030993 0.000000
# 6 0.000000 0.000000 0.000000 -0.009299 0.000000 0.011794
#
#
# Mechanical properties :
#
#
# Convention : Reuss Voigt Hill
#
# Bulk Modulus (GPa) = 64.08559 71.35599 67.72079
# Shear Modulus (GPa) = 53.38281 -216.93359 -81.77539
#
# Velocity S-wave (km/s) = 4.50648 -9.08449 -5.57761
# Velocity P-wave (km/s) = 7.17342 9.10447 3.96443
#
# Compressibility (1/GPa) = 0.01560413
#
# Stress axis : x y z
#
# Youngs Moduli (GPa) = 89.12091 138.05042 109.55912
#
# Poissons Ratio (x) = 0.23234 0.13969
# Poissons Ratio (y) = 0.14999 0.33261
# Poissons Ratio (z) = 0.11363 0.41910
#
# Static dielectric constant tensor:
#      x y z
#    x 3.488420 0.000000 -1.410410 
#    y 0.000000 1.983060 0.000000 
#    z -1.410410 0.000000 3.746830 
# 
# From -- ./inp_files/3779.got.cif
#   From: 2010.05.17/outbox.cif.g08.bks.cpg/sg3_2_cif.got.tgz:3779.got - 2010.06.03 18:33:08.
