data_PCOD9114543
_publ_section_title
;
Structure prediction by ZEFSAII (Michael W. Deem and Ramdas Pophale) SiO2 
 PCOD9114543
Probable space group: P 21
;
_chemical_formula_sum "Si O2"
_cell_formula_units_Z 16
_cell_length_a 7.443596
_cell_length_b 5.535963
_cell_length_c 20.336531
_cell_angle_alpha 90.000000
_cell_angle_beta 46.536177
_cell_angle_gamma 90.000000
_cell_volume 608.240186
_symmetry_space_group_name_H-M "P 21"
_symmetry_group_IT_number 4
_symmetry_cell_setting 'monoclinic'
loop_
_space_group_symop_operation_xyz
x,y,z
-x,1/2+y,-z
loop_
_atom_site_type_symbol
_atom_site_label
_atom_site_fract_x
_atom_site_fract_y
_atom_site_fract_z
Si Si1 0.786837 0.725070 0.384728
Si Si2 0.175782 0.720823 0.661401
Si Si3 0.366507 0.753932 0.218393
Si Si4 0.860411 0.244434 0.053805
Si Si5 0.666879 0.749789 0.707129
Si Si6 0.924515 0.741332 0.865472
Si Si7 0.853119 0.711983 0.523544
Si Si8 0.520322 0.518029 0.054827
O O1 0.798888 0.717786 0.459970
O O2 0.685928 0.476168 0.381020
O O3 0.069236 0.743946 0.286029
O O4 0.672178 0.978089 0.391105
O O5 0.956101 0.738926 0.660922
O O6 0.040076 0.697920 0.765634
O O7 0.420513 0.513042 0.246876
O O8 0.499227 0.724139 0.115208
O O9 0.434221 0.001257 0.236512
O O10 0.610095 0.290062 0.076025
O O11 0.871666 0.258254 0.129762
O O12 0.014015 0.489191 0.995624
O O13 0.653133 0.731097 0.632358
O O14 0.753616 0.977958 0.902664
O O15 0.718889 0.560596 0.948067
O O16 0.984217 0.454182 0.504593
#
# Coordination Sequence:
#
# PCOD9114543 Si02
#       8
#     2   2   2   2   2   2   2   2
#     4  10  18  30  44  75 108 145 181 232 275 337
#     4  10  19  31  47  72 107 138 184 234 272 325
#     4  10  19  31  47  72 107 138 184 234 272 325
#     4  10  24  44  58  84 116 146 202 250 276 344
#     4  10  18  30  44  75 108 145 181 232 275 337
#     4  11  23  37  61  86 113 160 194 237 294 342
#     4  12  16  26  44  66 108 154 172 220 296 326
#     4  11  23  37  61  86 113 160 194 237 294 342
#
# _framework density 26.305399000000001
#
# number of rings (size 3 to 8) (size 9 to 14) (size 15 to 20)
#    0.000    1.500    7.500    0.750    3.500    4.000 
#    0.000    0.000    0.000    0.000    0.000    0.000 
#    0.000    6.000    0.000    0.000    0.000    0.000 
#
# Total GULP energy -89536.560992 kJ/mol
# GULP energy per Si atom -5596.035062 kJ/mol
# Density = 2.624553 g / cm^3
# Si number density = 26.305399 Si / 1000 Ang^3
#
#
#
# Elastic Constant Matrix: (Units=GPa)
#
#
# Indices 1 2 3 4 5 6 
#
# 1 74.5942 29.7315 31.2896 0.0000 5.6630 0.0000
# 2 29.7315 238.4646 68.2490 0.0000 14.7606 0.0000
# 3 31.2896 68.2490 151.3896 0.0000 40.8249 0.0000
# 4 0.0000 0.0000 0.0000 49.8466 0.0000 2.3872
# 5 5.6630 14.7606 40.8249 0.0000 47.0976 0.0000
# 6 0.0000 0.0000 0.0000 2.3872 0.0000 30.8711
#
#
#
# Elastic Compliance Matrix: (Units=1/GPa)
#
#
# Indices 1 2 3 4 5 6 
#
# 1 0.014975 -0.001108 -0.002876 0.000000 0.001039 0.000000
# 2 -0.001108 0.004905 -0.002093 0.000000 0.000410 0.000000
# 3 -0.002876 -0.002093 0.010275 0.000000 -0.007905 0.000000
# 4 0.000000 0.000000 0.000000 0.020136 0.000000 -0.001557
# 5 0.001039 0.000410 -0.007905 0.000000 0.027831 0.000000
# 6 0.000000 0.000000 0.000000 -0.001557 0.000000 0.032513
#
#
# Mechanical properties :
#
#
# Convention : Reuss Voigt Hill
#
# Bulk Modulus (GPa) = 55.55138 80.33207 67.94172
# Shear Modulus (GPa) = 38.82286 47.90827 43.36557
#
# Velocity S-wave (km/s) = 3.84585 4.27222 4.06463
# Velocity P-wave (km/s) = 6.39409 7.41218 6.92188
#
# Compressibility (1/GPa) = 0.01800135
#
# Stress axis : x y z
#
# Youngs Moduli (GPa) = 66.77804 203.86148 97.32328
#
# Poissons Ratio (x) = 0.22595 0.27987
# Poissons Ratio (y) = 0.07401 0.20369
# Poissons Ratio (z) = 0.19203 0.42666
#
# Static dielectric constant tensor:
#      x y z
#    x 2.077510 0.000000 -0.046450 
#    y 0.000000 2.122410 0.000000 
#    z -0.046450 0.000000 2.057030 
# 
# From -- ./inp_files/8646.got.cif
#   From: 2010.05.17/outbox.cif.g08.bks.cpg/sg4_5_cif.got.tgz:8646.got - 2010.06.03 18:43:04.
