data_PCOD9114961
_publ_section_title
;
Structure prediction by ZEFSAII (Michael W. Deem and Ramdas Pophale) SiO2 
 PCOD9114961
Probable space group: P 21
;
_chemical_formula_sum "Si O2"
_cell_formula_units_Z 16
_cell_length_a 25.893334
_cell_length_b 5.247029
_cell_length_c 9.129129
_cell_angle_alpha 90.000000
_cell_angle_beta 38.968909
_cell_angle_gamma 90.000000
_cell_volume 780.030171
_symmetry_space_group_name_H-M "P 21"
_symmetry_group_IT_number 4
_symmetry_cell_setting 'monoclinic'
loop_
_space_group_symop_operation_xyz
x,y,z
-x,1/2+y,-z
loop_
_atom_site_type_symbol
_atom_site_label
_atom_site_fract_x
_atom_site_fract_y
_atom_site_fract_z
Si Si1 0.916222 0.021120 0.497475
Si Si2 0.792844 0.342810 0.954698
Si Si3 0.283780 0.032867 0.157728
Si Si4 0.205296 0.535165 0.462946
Si Si5 0.230855 0.501689 0.748650
Si Si6 0.078341 0.225285 0.230717
Si Si7 0.423843 0.825472 0.028112
Si Si8 0.604337 0.817581 0.713421
O O1 0.835035 0.136467 0.754577
O O2 0.882795 0.956502 0.411559
O O3 0.994734 0.203562 0.325422
O O4 0.941811 0.806696 0.557845
O O5 0.742911 0.524603 0.954078
O O6 0.871002 0.468012 0.860368
O O7 0.742487 0.224070 0.198597
O O8 0.265467 0.311484 0.266573
O O9 0.372983 0.910624 0.996568
O O10 0.227473 0.821769 0.363538
O O11 0.209607 0.551340 0.627323
O O12 0.310905 0.325520 0.561044
O O13 0.147041 0.398347 0.003799
O O14 0.400754 0.052497 0.190023
O O15 0.400182 0.558175 0.161099
O O16 0.522098 0.832872 0.797263
#
# Coordination Sequence:
#
# PCOD9114961 Si02
#       8
#     2   2   2   2   2   2   2   2
#     4  10  21  41  60  86 114 165 221 249 305 389
#     4  10  23  37  63  84 121 164 206 256 319 375
#     4  11  20  40  65  92 119 167 217 250 307 395
#     4  11  23  39  65  91 125 161 210 269 312 374
#     4  11  24  39  59  96 124 163 200 279 329 366
#     4  11  21  39  62  83 121 164 209 259 317 378
#     4  10  19  37  65  92 120 166 210 255 306 390
#     4  10  21  36  63  94 126 158 207 261 319 377
#
# _framework density 20.512027
#
# number of rings (size 3 to 8) (size 9 to 14) (size 15 to 20)
#    0.000    1.500    5.000    0.000    3.500    0.000 
#    2.250    0.000    2.750    0.000    0.000    0.000 
#    0.000    0.000    0.000    0.000    0.000    0.000 
#
# Total GULP energy -89100.261302 kJ/mol
# GULP energy per Si atom -5568.766331 kJ/mol
# Density = 2.046534 g / cm^3
# Si number density = 20.512027 Si / 1000 Ang^3
#
#
#
# Elastic Constant Matrix: (Units=GPa)
#
#
# Indices 1 2 3 4 5 6 
#
# 1 105.7968 2.6571 52.8227 0.0000 -16.0655 0.0000
# 2 2.6571 76.1549 7.4501 0.0000 8.0791 0.0000
# 3 52.8227 7.4501 55.7836 0.0000 3.4554 0.0000
# 4 0.0000 0.0000 0.0000 18.1213 0.0000 -7.0241
# 5 -16.0655 8.0791 3.4554 0.0000 33.1972 0.0000
# 6 0.0000 0.0000 0.0000 -7.0241 0.0000 27.0268
#
#
#
# Elastic Compliance Matrix: (Units=1/GPa)
#
#
# Indices 1 2 3 4 5 6 
#
# 1 0.022502 -0.000021 -0.022122 0.000000 0.013197 0.000000
# 2 -0.000021 0.013624 -0.001604 0.000000 -0.003159 0.000000
# 3 -0.022122 -0.001604 0.039985 0.000000 -0.014477 0.000000
# 4 0.000000 0.000000 0.000000 0.061366 0.000000 0.015949
# 5 0.013197 -0.003159 -0.014477 0.000000 0.038785 0.000000
# 6 0.000000 0.000000 0.000000 0.015949 0.000000 0.041145
#
#
# Mechanical properties :
#
#
# Convention : Reuss Voigt Hill
#
# Bulk Modulus (GPa) = 34.94449 40.39946 37.67197
# Shear Modulus (GPa) = 18.21887 27.32277 22.77082
#
# Velocity S-wave (km/s) = 2.98351 3.65367 3.33546
# Velocity P-wave (km/s) = 5.37973 6.12677 5.76536
#
# Compressibility (1/GPa) = 0.02861682
#
# Stress axis : x y z
#
# Youngs Moduli (GPa) = 44.44065 73.40047 25.00915
#
# Poissons Ratio (x) = 0.00154 0.55326
# Poissons Ratio (y) = 0.00093 0.04011
# Poissons Ratio (z) = 0.98313 0.11773
#
# Static dielectric constant tensor:
#      x y z
#    x 1.812470 0.000000 -0.021770 
#    y 0.000000 1.836790 0.000000 
#    z -0.021770 0.000000 1.767720 
# 
# From -- ./inp_files/8683.got.cif
#   From: 2010.05.17/outbox.cif.g08.bks.cpg/sg4_5_cif.got.tgz:8683.got - 2010.06.03 18:43:04.
