data_PCOD9114544
_publ_section_title
;
Structure prediction by ZEFSAII (Michael W. Deem and Ramdas Pophale) SiO2 
 PCOD9114544
Probable space group: P 21
;
_chemical_formula_sum "Si O2"
_cell_formula_units_Z 16
_cell_length_a 10.318433
_cell_length_b 5.424857
_cell_length_c 14.219952
_cell_angle_alpha 90.000000
_cell_angle_beta 120.437424
_cell_angle_gamma 90.000000
_cell_volume 686.277259
_symmetry_space_group_name_H-M "P 21"
_symmetry_group_IT_number 4
_symmetry_cell_setting 'monoclinic'
loop_
_space_group_symop_operation_xyz
x,y,z
-x,1/2+y,-z
loop_
_atom_site_type_symbol
_atom_site_label
_atom_site_fract_x
_atom_site_fract_y
_atom_site_fract_z
Si Si1 0.986998 0.599160 0.209850
Si Si2 0.645478 0.112965 0.229422
Si Si3 0.013533 0.611673 0.564895
Si Si4 0.311241 0.114199 0.540600
Si Si5 0.176585 0.098162 0.251688
Si Si6 0.288270 0.113237 0.763371
Si Si7 0.087668 0.174016 0.018138
Si Si8 0.479866 0.614503 0.610845
O O1 0.075891 0.340699 0.237047
O O2 0.878783 0.623071 0.078483
O O3 0.882391 0.611460 0.262546
O O4 0.096050 0.836464 0.243019
O O5 0.630360 0.368436 0.171887
O O6 0.545707 0.113426 0.285825
O O7 0.823624 0.112320 0.327037
O O8 0.630219 0.857653 0.171795
O O9 0.856479 0.606030 0.562936
O O10 0.001956 0.364031 0.499128
O O11 0.296145 0.113446 0.651250
O O12 0.393815 0.368156 0.547690
O O13 0.399795 0.865815 0.550267
O O14 0.346031 0.110523 0.350188
O O15 0.195670 0.115077 0.144142
O O16 0.040767 0.462152 0.010269
#
# Coordination Sequence:
#
# PCOD9114544 Si02
#       8
#     2   2   2   2   2   2   2   2
#     4  10  19  32  50  72  94 125 158 196 235 275
#     4  10  19  30  48  74  94 123 152 196 239 277
#     4  12  16  30  48  74  96 116 162 198 238 264
#     4  10  19  30  48  74  94 123 152 196 239 277
#     4  10  19  32  50  72  94 125 158 196 235 275
#     4  10  18  30  46  70 100 120 152 194 240 278
#     4   8  16  30  48  68  90 116 162 202 226 258
#     4  10  18  30  46  70 100 120 152 194 240 278
#
# _framework density 23.314194000000001
#
# number of rings (size 3 to 8) (size 9 to 14) (size 15 to 20)
#    0.000    2.000    5.000    1.500    0.000    0.000 
#    0.000    0.000    0.000    6.000    0.000   29.750 
#    0.000    0.000    0.000    0.000    0.000    0.000 
#
# Total GULP energy -89355.960167 kJ/mol
# GULP energy per Si atom -5584.747510 kJ/mol
# Density = 2.326113 g / cm^3
# Si number density = 23.314194 Si / 1000 Ang^3
#
#
#
# Elastic Constant Matrix: (Units=GPa)
#
#
# Indices 1 2 3 4 5 6 
#
# 1 134.2303 45.8707 19.3086 0.0000 -1.3024 0.0000
# 2 45.8707 223.0989 21.9236 0.0000 -0.3850 0.0000
# 3 19.3086 21.9236 54.3198 0.0000 -15.5449 0.0000
# 4 0.0000 0.0000 0.0000 18.2488 0.0000 -0.0455
# 5 -1.3024 -0.3850 -15.5449 0.0000 19.6644 0.0000
# 6 0.0000 0.0000 0.0000 -0.0455 0.0000-1711.5761
#
#
#
# Elastic Compliance Matrix: (Units=1/GPa)
#
#
# Indices 1 2 3 4 5 6 
#
# 1 0.008338 -0.001434 -0.002889 0.000000 -0.001759 0.000000
# 2 -0.001434 0.004964 -0.001930 0.000000 -0.001523 0.000000
# 3 -0.002889 -0.001930 0.026041 0.000000 0.020356 0.000000
# 4 0.000000 0.000000 0.000000 0.054798 0.000000 -0.000001
# 5 -0.001759 -0.001523 0.020356 0.000000 0.066799 0.000000
# 6 0.000000 0.000000 0.000000 -0.000001 0.000000 -0.000584
#
#
# Mechanical properties :
#
#
# Convention : Reuss Voigt Hill
#
# Bulk Modulus (GPa) = 37.25998 65.09497 51.17748
# Shear Modulus (GPa) = 27.50177 -313.09618 -142.79721
#
# Velocity S-wave (km/s) = 3.43828 -11.60111 -7.83467
# Velocity P-wave (km/s) = 5.63726 12.30717 7.73588
#
# Compressibility (1/GPa) = 0.02683845
#
# Stress axis : x y z
#
# Youngs Moduli (GPa) = 119.92917 201.44701 38.40142
#
# Poissons Ratio (x) = 0.28879 0.11094
# Poissons Ratio (y) = 0.17193 0.07411
# Poissons Ratio (z) = 0.34646 0.38877
#
# Static dielectric constant tensor:
#      x y z
#    x 1.936030 0.000000 -0.101800 
#    y 0.000000 1.912130 0.000000 
#    z -0.101800 0.000000 1.931290 
# 
# From -- ./inp_files/8657.got.cif
#   From: 2010.05.17/outbox.cif.g08.bks.cpg/sg4_5_cif.got.tgz:8657.got - 2010.06.03 18:43:04.
