data_PCOD9114911
_publ_section_title
;
Structure prediction by ZEFSAII (Michael W. Deem and Ramdas Pophale) SiO2 
 PCOD9114911
Probable space group: P 21
;
_chemical_formula_sum "Si O2"
_cell_formula_units_Z 12
_cell_length_a 7.682217
_cell_length_b 8.131685
_cell_length_c 8.889518
_cell_angle_alpha 90.000000
_cell_angle_beta 117.682421
_cell_angle_gamma 90.000000
_cell_volume 491.758247
_symmetry_space_group_name_H-M "P 21"
_symmetry_group_IT_number 4
_symmetry_cell_setting 'monoclinic'
loop_
_space_group_symop_operation_xyz
x,y,z
-x,1/2+y,-z
loop_
_atom_site_type_symbol
_atom_site_label
_atom_site_fract_x
_atom_site_fract_y
_atom_site_fract_z
Si Si1 0.413687 0.150580 0.403514
Si Si2 0.117698 0.839141 0.827842
Si Si3 0.635302 0.442017 0.355473
Si Si4 0.012961 0.296808 0.676818
Si Si5 0.973133 0.520849 0.913099
Si Si6 0.179425 0.469388 0.495275
O O1 0.459029 0.325511 0.342740
O O2 0.236385 0.072501 0.239346
O O3 0.612589 0.047370 0.451614
O O4 0.400711 0.121808 0.581832
O O5 0.297650 0.893526 0.788671
O O6 0.124870 0.663583 0.918809
O O7 0.920796 0.826911 0.644887
O O8 0.062160 0.976118 0.928665
O O9 0.818728 0.379745 0.528270
O O10 0.026770 0.347032 0.854666
O O11 0.980984 0.113130 0.605747
O O12 0.180957 0.399657 0.662531
#
# Coordination Sequence:
#
# PCOD9114911 Si02
#       6
#     2   2   2   2   2   2
#     4  10  20  38  62  89 117 148 194 250 293 338
#     4  11  23  40  59  86 121 160 198 237 293 361
#     4   9  20  37  59  86 116 150 195 241 289 346
#     4   9  18  34  59  87 114 154 198 237 288 353
#     4  11  22  39  59  83 119 157 197 245 295 348
#     4  10  19  36  62  89 117 153 198 244 290 348
#
# _framework density 24.402232999999999
#
# number of rings (size 3 to 8) (size 9 to 14) (size 15 to 20)
#    0.000    2.000    0.000    5.000    0.000    2.667 
#    0.000   15.000    0.000    0.000    0.000    0.000 
#    0.000    0.000    0.000    0.000    0.000    0.000 
#
# Total GULP energy -66801.155408 kJ/mol
# GULP energy per Si atom -5566.762951 kJ/mol
# Density = 2.434669 g / cm^3
# Si number density = 24.402233 Si / 1000 Ang^3
#
#
#
# Elastic Constant Matrix: (Units=GPa)
#
#
# Indices 1 2 3 4 5 6 
#
# 1 88.4176 29.9661 33.2417 0.0000 -36.3544 0.0000
# 2 29.9661 79.4198 29.6659 0.0000 -18.7218 0.0000
# 3 33.2417 29.6659 97.8640 0.0000 -54.2051 0.0000
# 4 0.0000 0.0000 0.0000 30.4697 0.0000 -11.1474
# 5 -36.3544 -18.7218 -54.2051 0.0000 39.7855 0.0000
# 6 0.0000 0.0000 0.0000 -11.1474 0.0000 35.2738
#
#
#
# Elastic Compliance Matrix: (Units=1/GPa)
#
#
# Indices 1 2 3 4 5 6 
#
# 1 0.024611 -0.005522 0.017650 0.000000 0.043938 0.000000
# 2 -0.005522 0.015547 -0.006438 0.000000 -0.006500 0.000000
# 3 0.017650 -0.006438 0.054731 0.000000 0.087666 0.000000
# 4 0.000000 0.000000 0.000000 0.037110 0.000000 0.011728
# 5 0.043938 -0.006500 0.087666 0.000000 0.181664 0.000000
# 6 0.000000 0.000000 0.000000 0.011728 0.000000 0.032056
#
#
# Mechanical properties :
#
#
# Convention : Reuss Voigt Hill
#
# Bulk Modulus (GPa) = 9.40983 50.16097 29.78540
# Shear Modulus (GPa) = 13.52223 32.62764 23.07493
#
# Velocity S-wave (km/s) = 2.35657 3.66057 3.07841
# Velocity P-wave (km/s) = 3.35694 6.20217 4.98678
#
# Compressibility (1/GPa) = 0.10627184
#
# Stress axis : x y z
#
# Youngs Moduli (GPa) = 40.63181 64.32097 18.27110
#
# Poissons Ratio (x) = 0.35515 -0.32249
# Poissons Ratio (y) = 0.22435 0.11763
# Poissons Ratio (z) = -0.71717 0.41409
#
# Static dielectric constant tensor:
#      x y z
#    x 2.072590 0.000000 -0.101410 
#    y 0.000000 2.163720 0.000000 
#    z -0.101410 0.000000 1.898380 
# 
# From -- ./inp_files/5340.got.cif
#   From: 2010.05.17/outbox.cif.g08.bks.cpg/sg4_3_cif.got.tgz:5340.got - 2010.06.03 18:43:04.
