data_PCOD9114944
_publ_section_title
;
Structure prediction by ZEFSAII (Michael W. Deem and Ramdas Pophale) SiO2 
 PCOD9114944
Probable space group: P 21
;
_chemical_formula_sum "Si O2"
_cell_formula_units_Z 16
_cell_length_a 25.001933
_cell_length_b 4.926537
_cell_length_c 32.118144
_cell_angle_alpha 90.000000
_cell_angle_beta 10.923761
_cell_angle_gamma 90.000000
_cell_volume 749.688882
_symmetry_space_group_name_H-M "P 21"
_symmetry_group_IT_number 4
_symmetry_cell_setting 'monoclinic'
loop_
_space_group_symop_operation_xyz
x,y,z
-x,1/2+y,-z
loop_
_atom_site_type_symbol
_atom_site_label
_atom_site_fract_x
_atom_site_fract_y
_atom_site_fract_z
Si Si1 0.188313 0.072380 0.349712
Si Si2 0.805535 0.847646 0.503519
Si Si3 0.287460 0.300034 0.007253
Si Si4 0.121879 0.524755 0.959153
Si Si5 0.628537 0.524928 0.276580
Si Si6 0.653891 0.589721 0.864901
Si Si7 0.023549 0.305140 0.721823
Si Si8 0.585105 0.847145 0.184322
O O1 0.418569 0.930902 0.202861
O O2 0.324976 0.132181 0.200437
O O3 0.056289 0.346709 0.468606
O O4 0.643713 0.588459 0.645275
O O5 0.580706 0.089661 0.670884
O O6 0.055751 0.960707 0.340718
O O7 0.927777 0.778926 0.364651
O O8 0.292319 0.269802 0.954037
O O9 0.224798 0.016907 0.077811
O O10 0.052541 0.516258 0.200921
O O11 0.320105 0.327046 0.779696
O O12 0.185126 0.450863 0.958177
O O13 0.219179 0.826486 0.873112
O O14 0.805912 0.488431 0.183473
O O15 0.307003 0.434305 0.524331
O O16 0.414743 0.370559 0.059580
#
# Coordination Sequence:
#
# PCOD9114944 Si02
#       8
#     2   2   2   2   2   2   2   2
#     4  12  24  44  63  85 119 166 206 243 303 368
#     4  12  23  39  66  87 117 157 213 248 294 359
#     4  12  26  39  61  90 129 156 196 253 311 362
#     4  10  19  37  61  92 117 156 203 251 284 353
#     4  10  20  36  63  90 120 154 203 245 296 354
#     4  12  24  41  61  90 120 155 201 258 306 351
#     4  12  22  41  59  93 122 160 194 252 311 355
#     4  12  22  41  60  93 118 160 202 252 293 354
#
# _framework density 21.342185000000001
#
# number of rings (size 3 to 8) (size 9 to 14) (size 15 to 20)
#    0.000    0.500    2.500    7.500    0.000    0.000 
#    0.000    1.250    0.000    0.000    0.000    0.000 
#    0.000    0.000    0.000    0.000    0.000    0.000 
#
# Total GULP energy -89620.212782 kJ/mol
# GULP energy per Si atom -5601.263299 kJ/mol
# Density = 2.129361 g / cm^3
# Si number density = 21.342185 Si / 1000 Ang^3
#
#
#
# Elastic Constant Matrix: (Units=GPa)
#
#
# Indices 1 2 3 4 5 6 
#
# 1 90.9081 -20.9509 25.7242 0.0002 10.0057 -0.0019
# 2 -20.9509 71.7343 3.5923 -0.0001 10.8549 -0.0001
# 3 25.7242 3.5923 30.5720 0.0011 -5.7042 -0.0022
# 4 0.0002 -0.0001 0.0011 26.9908 -0.0003 -7.0442
# 5 10.0057 10.8549 -5.7042 -0.0003 35.2734 0.0012
# 6 -0.0019 -0.0001 -0.0022 -7.0442 0.0012 21.4335
#
#
#
# Elastic Compliance Matrix: (Units=1/GPa)
#
#
# Indices 1 2 3 4 5 6 
#
# 1 0.019835 0.008519 -0.019828 0.000001 -0.011455 0.000001
# 2 0.008519 0.018489 -0.011191 0.000000 -0.009916 0.000000
# 3 -0.019828 -0.011191 0.054031 -0.000001 0.017806 0.000002
# 4 0.000001 0.000000 -0.000001 0.040526 -0.000001 0.013319
# 5 -0.011455 -0.009916 0.017806 -0.000001 0.037530 -0.000001
# 6 0.000001 0.000000 0.000002 0.013319 -0.000001 0.051033
#
#
# Mechanical properties :
#
#
# Convention : Reuss Voigt Hill
#
# Bulk Modulus (GPa) = 21.11685 23.32728 22.22207
# Shear Modulus (GPa) = 17.71612 29.06279 23.38945
#
# Velocity S-wave (km/s) = 2.88427 3.69420 3.31407
# Velocity P-wave (km/s) = 4.58344 5.39907 5.00789
#
# Compressibility (1/GPa) = 0.04735554
#
# Stress axis : x y z
#
# Youngs Moduli (GPa) = 50.41617 54.08487 18.50803
#
# Poissons Ratio (x) = -0.46076 0.36698
# Poissons Ratio (y) = -0.42951 0.20713
# Poissons Ratio (z) = 0.99965 0.60527
#
# Static dielectric constant tensor:
#      x y z
#    x 1.746710 0.000000 -0.039700 
#    y 0.000000 1.748420 0.000000 
#    z -0.039700 0.000000 1.779880 
# 
# From -- ./inp_files/15863.got.cif
#   From: 2010.05.17/outbox.cif.g08.bks.cpg/sg4_8_cif.got.tgz:15863.got - 2010.06.03 18:43:04.
