data_PCOD9114061
_publ_section_title
;
Structure prediction by ZEFSAII (Michael W. Deem and Ramdas Pophale) SiO2 
 PCOD9114061
Probable space group: P 2
;
_chemical_formula_sum "Si O2"
_cell_formula_units_Z 14
_cell_length_a 16.242054
_cell_length_b 8.535197
_cell_length_c 5.255952
_cell_angle_alpha 90.000000
_cell_angle_beta 126.572801
_cell_angle_gamma 90.000000
_cell_volume 585.161498
_symmetry_space_group_name_H-M "P 2"
_symmetry_group_IT_number 3
_symmetry_cell_setting 'monoclinic'
loop_
_space_group_symop_operation_xyz
x,y,z
-x,y,-z
loop_
_atom_site_type_symbol
_atom_site_label
_atom_site_fract_x
_atom_site_fract_y
_atom_site_fract_z
Si Si1 0.835580 0.686400 0.742893
Si Si2 0.335218 0.146091 0.811450
Si Si3 0.614454 0.783181 0.107865
Si Si4 0.832530 0.368850 0.477858
Si Si5 0.711124 0.588277 0.902458
Si Si6 0.000000 0.175860 0.500000
Si Si7 0.000000 0.955161 0.000000
Si Si8 0.395002 0.308025 0.436025
O O1 0.717723 0.722173 0.441163
O O2 0.874900 0.513366 0.726295
O O3 0.815592 0.671631 0.008590
O O4 0.905508 0.832311 0.796666
O O5 0.223263 0.212879 0.515678
O O6 0.403909 0.221370 0.716949
O O7 0.362829 0.965989 0.856484
O O8 0.349261 0.195591 0.132201
O O9 0.500000 0.750248 0.000000
O O10 0.628580 0.707501 0.855543
O O11 0.909591 0.294515 0.416103
O O12 0.742009 0.464423 0.174901
O O13 0.668290 0.464357 0.623379
O O14 0.015227 0.064933 0.777647
O O15 0.500000 0.361105 0.500000
#
# Coordination Sequence:
#
# PCOD9114061 Si02
#       8
#     2   2   2   2   2   1   1   2
#     4  11  26  48  73 109 152 201 255 311 385 456
#     4  11  24  45  66 104 140 194 242 307 374 438
#     4  11  26  44  71 107 155 201 255 315 387 447
#     4  10  25  46  75 102 148 192 259 305 378 449
#     4  10  25  42  69 104 143 201 245 317 365 457
#     4  12  30  50  80 118 146 200 250 322 388 458
#     4  12  32  48  82 114 162 194 250 320 396 454
#     4  11  23  41  68  95 141 184 251 298 363 436
#
# _framework density 23.925021000000001
#
# number of rings (size 3 to 8) (size 9 to 14) (size 15 to 20)
#    0.000    1.143    1.429    2.143   14.000    1.143 
#    0.000    0.000    0.000    0.000    0.000    0.000 
#    0.000    0.000    0.000    0.000    0.000    0.000 
#
# Total GULP energy -78004.659525 kJ/mol
# GULP energy per Si atom -5571.761395 kJ/mol
# Density = 2.387057 g / cm^3
# Si number density = 23.925021 Si / 1000 Ang^3
#
#
#
# Elastic Constant Matrix: (Units=GPa)
#
#
# Indices 1 2 3 4 5 6 
#
# 1 148.6236 80.4261 44.6591 0.0000 -13.8892 0.0000
# 2 80.4261 152.6139 51.2486 0.0000 -10.8658 0.0000
# 3 44.6591 51.2486 55.3968 0.0000 -2.7943 0.0000
# 4 0.0000 0.0000 0.0000 -2.7427 0.0000 -10.0786
# 5 -13.8892 -10.8658 -2.7943 0.0000 32.2570 0.0000
# 6 0.0000 0.0000 0.0000 -10.0786 0.0000 45.0256
#
#
#
# Elastic Compliance Matrix: (Units=1/GPa)
#
#
# Indices 1 2 3 4 5 6 
#
# 1 0.010444 -0.003659 -0.004891 0.000000 0.002841 0.000000
# 2 -0.003659 0.010984 -0.007136 0.000000 0.001506 0.000000
# 3 -0.004891 -0.007136 0.028493 0.000000 -0.002041 0.000000
# 4 0.000000 0.000000 0.000000 -0.200053 0.000000 -0.044780
# 5 0.002841 0.001506 -0.002041 0.000000 0.032555 0.000000
# 6 0.000000 0.000000 0.000000 -0.044780 0.000000 0.012186
#
#
# Mechanical properties :
#
#
# Convention : Reuss Voigt Hill
#
# Bulk Modulus (GPa) = 53.91096 78.81133 66.36115
# Shear Modulus (GPa) = -73.70734 26.92801 -23.38966
#
# Velocity S-wave (km/s) = -5.55648 3.35851 -3.13009
# Velocity P-wave (km/s) = 4.31089 6.93195 3.83850
#
# Compressibility (1/GPa) = 0.01854910
#
# Stress axis : x y z
#
# Youngs Moduli (GPa) = 95.75283 91.03885 35.09602
#
# Poissons Ratio (x) = 0.33311 0.17165
# Poissons Ratio (y) = 0.35036 0.25045
# Poissons Ratio (z) = 0.46832 0.64966
#
# Static dielectric constant tensor:
#      x y z
#    x 2.137530 0.000000 -0.085560 
#    y 0.000000 1.917010 0.000000 
#    z -0.085560 0.000000 2.184320 
# 
# From -- ./inp_files/3109.got.cif
#   From: 2010.05.17/outbox.cif.g08.bks.cpg/sg3_2_cif.got.tgz:3109.got - 2010.06.03 18:33:08.
