data_PCOD9114067
_publ_section_title
;
Structure prediction by ZEFSAII (Michael W. Deem and Ramdas Pophale) SiO2 
 PCOD9114067
Probable space group: P 2
;
_chemical_formula_sum "Si O2"
_cell_formula_units_Z 15
_cell_length_a 20.963113
_cell_length_b 6.755999
_cell_length_c 15.201771
_cell_angle_alpha 90.000000
_cell_angle_beta 162.774898
_cell_angle_gamma 90.000000
_cell_volume 637.553849
_symmetry_space_group_name_H-M "P 2"
_symmetry_group_IT_number 3
_symmetry_cell_setting 'monoclinic'
loop_
_space_group_symop_operation_xyz
x,y,z
-x,y,-z
loop_
_atom_site_type_symbol
_atom_site_label
_atom_site_fract_x
_atom_site_fract_y
_atom_site_fract_z
Si Si1 0.404356 0.671060 0.470646
Si Si2 0.053852 0.315075 0.765857
Si Si3 0.997639 0.640017 0.835436
Si Si4 0.233875 0.336844 0.351792
Si Si5 0.782903 0.963812 0.441122
Si Si6 0.701399 0.847128 0.144744
Si Si7 0.407646 0.029978 0.172436
Si Si8 0.000000 0.493242 0.500000
O O1 0.500000 0.683377 0.500000
O O2 0.391187 0.451369 0.491652
O O3 0.517826 0.827590 0.683101
O O4 0.153173 0.705562 0.118952
O O5 0.022591 0.382719 0.623363
O O6 0.092410 0.497076 0.883283
O O7 0.249189 0.158577 0.024215
O O8 0.842141 0.194590 0.519848
O O9 0.814945 0.502374 0.638758
O O10 0.928376 0.838434 0.697276
O O11 0.373319 0.148468 0.562733
O O12 0.000000 0.288387 0.000000
O O13 0.827293 0.901677 0.398871
O O14 0.545547 0.886539 0.153162
O O15 0.788233 0.632718 0.231512
O O16 0.722505 0.984500 0.087836
#
# Coordination Sequence:
#
# PCOD9114067 Si02
#       8
#     2   2   2   2   2   2   2   1
#     4  11  25  43  68 102 141 188 237 298 373 438
#     4  12  26  44  75 106 147 190 252 304 374 436
#     4  11  24  46  72 100 147 188 242 299 371 432
#     4  10  25  45  70 107 145 191 247 303 364 445
#     4  11  24  48  70 108 139 198 237 311 359 455
#     4  11  25  46  75 101 149 188 248 292 388 431
#     4  12  26  43  74 106 144 194 242 307 370 444
#     4  12  26  48  76 108 152 198 240 330 370 442
#
# _framework density 23.527425000000001
#
# number of rings (size 3 to 8) (size 9 to 14) (size 15 to 20)
#    0.000    0.800    1.333    4.800    5.600    7.467 
#    4.800    0.000    0.000    0.000    0.000    0.000 
#    0.000    0.000    0.000    0.000    0.000    0.000 
#
# Total GULP energy -83841.860093 kJ/mol
# GULP energy per Si atom -5589.457340 kJ/mol
# Density = 2.347388 g / cm^3
# Si number density = 23.527425 Si / 1000 Ang^3
#
#
#
# Elastic Constant Matrix: (Units=GPa)
#
#
# Indices 1 2 3 4 5 6 
#
# 1 90.2175 12.5795 18.0731 0.0000 11.5832 0.0000
# 2 12.5795 56.8122 26.5613 0.0000 9.1642 0.0000
# 3 18.0731 26.5613 61.2276 0.0000 11.4959 0.0000
# 4 0.0000 0.0000 0.0000 42.2896 0.0000 0.8263
# 5 11.5832 9.1642 11.4959 0.0000 41.3131 0.0000
# 6 0.0000 0.0000 0.0000 0.8263 0.0000 32.6742
#
#
#
# Elastic Compliance Matrix: (Units=1/GPa)
#
#
# Indices 1 2 3 4 5 6 
#
# 1 0.012072 -0.001041 -0.002659 0.000000 -0.002414 0.000000
# 2 -0.001041 0.022389 -0.008998 0.000000 -0.002171 0.000000
# 3 -0.002659 -0.008998 0.021636 0.000000 -0.003279 0.000000
# 4 0.000000 0.000000 0.000000 0.023658 0.000000 -0.000598
# 5 -0.002414 -0.002171 -0.003279 0.000000 0.026276 0.000000
# 6 0.000000 0.000000 0.000000 -0.000598 0.000000 0.030620
#
#
# Mechanical properties :
#
#
# Convention : Reuss Voigt Hill
#
# Bulk Modulus (GPa) = 32.57001 35.85391 34.21196
# Shear Modulus (GPa) = 29.02230 33.32494 31.17362
#
# Velocity S-wave (km/s) = 3.51601 3.76763 3.64399
# Velocity P-wave (km/s) = 5.50968 5.84799 5.68135
#
# Compressibility (1/GPa) = 0.03070310
#
# Stress axis : x y z
#
# Youngs Moduli (GPa) = 82.83646 44.66432 46.21836
#
# Poissons Ratio (x) = 0.04648 0.12288
# Poissons Ratio (y) = 0.08620 0.41587
# Poissons Ratio (z) = 0.22024 0.40189
#
# Static dielectric constant tensor:
#      x y z
#    x 1.917560 0.000000 0.051570 
#    y 0.000000 1.855770 0.000000 
#    z 0.051570 0.000000 1.983990 
# 
# From -- ./inp_files/14324.got.cif
#   From: 2010.05.17/outbox.cif.g08.bks.cpg/sg3_8_cif.got.tgz:14324.got - 2010.06.03 18:33:08.
