data_PCOD9114278
_publ_section_title
;
Structure prediction by ZEFSAII (Michael W. Deem and Ramdas Pophale) SiO2 
 PCOD9114278
Probable space group: P 2
;
_chemical_formula_sum "Si O2"
_cell_formula_units_Z 15
_cell_length_a 19.422657
_cell_length_b 6.240728
_cell_length_c 5.157550
_cell_angle_alpha 90.000000
_cell_angle_beta 85.425055
_cell_angle_gamma 90.000000
_cell_volume 623.162638
_symmetry_space_group_name_H-M "P 2"
_symmetry_group_IT_number 3
_symmetry_cell_setting 'monoclinic'
loop_
_space_group_symop_operation_xyz
x,y,z
-x,y,-z
loop_
_atom_site_type_symbol
_atom_site_label
_atom_site_fract_x
_atom_site_fract_y
_atom_site_fract_z
Si Si1 0.883341 0.431710 0.003987
Si Si2 0.243609 0.146867 0.900415
Si Si3 0.000000 0.155811 0.000000
Si Si4 0.328915 0.485986 0.227319
Si Si5 0.202983 0.766891 0.296931
Si Si6 0.632082 0.109927 0.471758
Si Si7 0.929870 0.804451 0.358900
Si Si8 0.419281 0.855975 0.009405
O O1 0.825521 0.276026 0.136889
O O2 0.915536 0.588951 0.205252
O O3 0.843100 0.581949 0.820448
O O4 0.946087 0.300882 0.859654
O O5 0.287306 0.087969 0.632922
O O6 0.291066 0.307499 0.060400
O O7 0.227320 0.937848 0.075591
O O8 0.048255 0.001646 0.824106
O O9 0.270267 0.637660 0.374568
O O10 0.372423 0.356724 0.430659
O O11 0.375064 0.637623 0.030547
O O12 0.144196 0.865737 0.496049
O O13 0.605804 0.975724 0.723257
O O14 0.594577 0.012688 0.230390
O O15 0.000000 0.769823 0.500000
O O16 0.500000 0.808382 0.000000
#
# Coordination Sequence:
#
# PCOD9114278 Si02
#       8
#     2   2   1   2   2   2   2   2
#     4  11  25  43  69 101 143 193 253 317 396 476
#     4  11  24  47  76 115 147 198 260 330 398 472
#     4  12  26  44  62  96 144 194 254 316 386 476
#     4  11  25  47  81 115 157 205 267 329 400 482
#     4  11  24  47  74 108 148 192 254 328 398 467
#     4  12  25  51  79 117 160 209 264 327 394 477
#     4  12  25  43  66  97 144 197 250 323 388 474
#     4  12  29  52  79 117 168 211 265 329 396 479
#
# _framework density 24.070761999999998
#
# number of rings (size 3 to 8) (size 9 to 14) (size 15 to 20)
#    0.000    0.533    2.667    4.800    1.867    8.533 
#    2.400    1.333    0.000    0.000    0.000    0.000 
#    0.000    0.000    0.000    0.000    0.000    0.000 
#
# Total GULP energy -83973.857012 kJ/mol
# GULP energy per Si atom -5598.257134 kJ/mol
# Density = 2.401598 g / cm^3
# Si number density = 24.070762 Si / 1000 Ang^3
#
#
#
# Elastic Constant Matrix: (Units=GPa)
#
#
# Indices 1 2 3 4 5 6 
#
# 1 143.1650 66.4773 29.7865 0.0000 -12.7041 0.0000
# 2 66.4773 128.5777 44.6202 0.0000 -8.2955 0.0000
# 3 29.7865 44.6202 103.8798 0.0000 -11.7048 0.0000
# 4 0.0000 0.0000 0.0000 0.9182 0.0000 -13.1861
# 5 -12.7041 -8.2955 -11.7048 0.0000 40.8600 0.0000
# 6 0.0000 0.0000 0.0000 -13.1861 0.0000 31.1303
#
#
#
# Elastic Compliance Matrix: (Units=1/GPa)
#
#
# Indices 1 2 3 4 5 6 
#
# 1 0.009366 -0.004541 -0.000528 0.000000 0.001839 0.000000
# 2 -0.004541 0.011364 -0.003594 0.000000 -0.000134 0.000000
# 3 -0.000528 -0.003594 0.011595 0.000000 0.002428 0.000000
# 4 0.000000 0.000000 0.000000 -0.214266 0.000000 -0.090758
# 5 0.001839 -0.000134 0.002428 0.000000 0.025714 0.000000
# 6 0.000000 0.000000 0.000000 -0.090758 0.000000 -0.006320
#
#
# Mechanical properties :
#
#
# Convention : Reuss Voigt Hill
#
# Bulk Modulus (GPa) = 66.66971 73.04339 69.85655
# Shear Modulus (GPa) = -35.65799 30.23095 -2.71352
#
# Velocity S-wave (km/s) = -3.85305 3.54774 -1.06290
# Velocity P-wave (km/s) = 2.82186 6.86972 5.25147
#
# Compressibility (1/GPa) = 0.01499931
#
# Stress axis : x y z
#
# Youngs Moduli (GPa) = 106.76392 87.99956 86.24141
#
# Poissons Ratio (x) = 0.39958 0.04555
# Poissons Ratio (y) = 0.48479 0.30997
# Poissons Ratio (z) = 0.05638 0.31629
#
# Static dielectric constant tensor:
#      x y z
#    x 1.939830 0.000000 0.044580 
#    y 0.000000 1.945210 0.000000 
#    z 0.044580 0.000000 2.019760 
# 
# From -- ./inp_files/3892.got.cif
#   From: 2010.05.17/outbox.cif.g08.bks.cpg/sg3_2_cif.got.tgz:3892.got - 2010.06.03 18:33:08.
