data_PCOD9114123
_publ_section_title
;
Structure prediction by ZEFSAII (Michael W. Deem and Ramdas Pophale) SiO2 
 PCOD9114123
Probable space group: P 2
;
_chemical_formula_sum "Si O2"
_cell_formula_units_Z 10
_cell_length_a 11.615080
_cell_length_b 5.053114
_cell_length_c 7.602117
_cell_angle_alpha 90.000000
_cell_angle_beta 117.527106
_cell_angle_gamma 90.000000
_cell_volume 395.674222
_symmetry_space_group_name_H-M "P 2"
_symmetry_group_IT_number 3
_symmetry_cell_setting 'monoclinic'
loop_
_space_group_symop_operation_xyz
x,y,z
-x,y,-z
loop_
_atom_site_type_symbol
_atom_site_label
_atom_site_fract_x
_atom_site_fract_y
_atom_site_fract_z
Si Si1 0.231858 0.352410 0.091647
Si Si2 0.676924 0.760149 0.418342
Si Si3 0.154218 0.854247 0.807341
Si Si4 0.483968 0.258709 0.774852
Si Si5 0.901506 0.975922 0.775674
O O1 0.385761 0.369386 0.224198
O O2 0.146299 0.268259 0.200954
O O3 0.176677 0.584786 0.932369
O O4 0.220427 0.088083 0.964417
O O5 0.558789 0.969259 0.321333
O O6 0.769299 0.816350 0.650202
O O7 0.768890 0.827473 0.318357
O O8 0.372599 0.465401 0.643686
O O9 0.003381 0.938151 0.691215
O O10 0.500000 0.259490 0.000000
O O11 0.000000 0.890999 0.000000
#
# Coordination Sequence:
#
# PCOD9114123 Si02
#       5
#     2   2   2   2   2
#     4  11  24  44  71 103 147 192 229 306 372 425
#     4  12  24  43  76 109 139 197 248 301 363 439
#     4  11  22  44  73 103 142 192 247 296 359 435
#     4  12  23  44  75 108 145 182 252 306 361 433
#     4  10  27  46  67 103 151 190 237 297 367 431
#
# _framework density 25.273315
#
# number of rings (size 3 to 8) (size 9 to 14) (size 15 to 20)
#    0.000    0.800    4.000    2.400    0.000   14.400 
#    0.000    8.000    0.000    0.000    0.000    0.000 
#    0.000    0.000    0.000    0.000    0.000    0.000 
#
# Total GULP energy -55964.148665 kJ/mol
# GULP energy per Si atom -5596.414866 kJ/mol
# Density = 2.521579 g / cm^3
# Si number density = 25.273315 Si / 1000 Ang^3
#
#
#
# Elastic Constant Matrix: (Units=GPa)
#
#
# Indices 1 2 3 4 5 6 
#
# 1 143.1927 -1.4591 12.0569 0.0000 -0.0009 0.0000
# 2 -1.4591 119.7772 26.1928 0.0000 -3.7927 0.0000
# 3 12.0569 26.1928 122.1716 0.0000 15.2866 0.0000
# 4 0.0000 0.0000 0.0000 13.3886 0.0000 7.4085
# 5 -0.0009 -3.7927 15.2866 0.0000 38.6315 0.0000
# 6 0.0000 0.0000 0.0000 7.4085 0.0000 38.8181
#
#
#
# Elastic Compliance Matrix: (Units=1/GPa)
#
#
# Indices 1 2 3 4 5 6 
#
# 1 0.007053 0.000271 -0.000797 0.000000 0.000342 0.000000
# 2 0.000271 0.008876 -0.002145 0.000000 0.001720 0.000000
# 3 -0.000797 -0.002145 0.009206 0.000000 -0.003853 0.000000
# 4 0.000000 0.000000 0.000000 0.083509 0.000000 -0.015938
# 5 0.000342 0.001720 -0.003853 0.000000 0.027579 0.000000
# 6 0.000000 0.000000 0.000000 -0.015938 0.000000 0.028803
#
#
# Mechanical properties :
#
#
# Convention : Reuss Voigt Hill
#
# Bulk Modulus (GPa) = 50.52209 50.96918 50.74563
# Shear Modulus (GPa) = 28.25403 41.39104 34.82253
#
# Velocity S-wave (km/s) = 3.34719 4.05129 3.71595
# Velocity P-wave (km/s) = 5.91370 6.48806 6.20753
#
# Compressibility (1/GPa) = 0.01979332
#
# Stress axis : x y z
#
# Youngs Moduli (GPa) = 141.77425 112.66796 108.62646
#
# Poissons Ratio (x) = -0.03054 0.08658
# Poissons Ratio (y) = -0.03843 0.23299
# Poissons Ratio (z) = 0.11300 0.24166
#
# Static dielectric constant tensor:
#      x y z
#    x 2.111880 0.000000 -0.070950 
#    y 0.000000 1.928330 0.000000 
#    z -0.070950 0.000000 2.056250 
# 
# From -- ./inp_files/6483.got.cif
#   From: 2010.05.17/outbox.cif.g08.bks.cpg/sg3_4_cif.got.tgz:6483.got - 2010.06.03 18:33:08.
