data_PCOD9114940
_publ_section_title
;
Structure prediction by ZEFSAII (Michael W. Deem and Ramdas Pophale) SiO2 
 PCOD9114940
Probable space group: P 21
;
_chemical_formula_sum "Si O2"
_cell_formula_units_Z 16
_cell_length_a 10.520530
_cell_length_b 9.155202
_cell_length_c 15.834667
_cell_angle_alpha 90.000000
_cell_angle_beta 25.292005
_cell_angle_gamma 90.000000
_cell_volume 651.595323
_symmetry_space_group_name_H-M "P 21"
_symmetry_group_IT_number 4
_symmetry_cell_setting 'monoclinic'
loop_
_space_group_symop_operation_xyz
x,y,z
-x,1/2+y,-z
loop_
_atom_site_type_symbol
_atom_site_label
_atom_site_fract_x
_atom_site_fract_y
_atom_site_fract_z
Si Si1 0.060954 0.242410 0.250725
Si Si2 0.571914 0.902186 0.241630
Si Si3 0.911115 0.162355 0.514829
Si Si4 0.649548 0.889866 0.774168
Si Si5 0.883481 0.555137 0.933099
Si Si6 0.196779 0.972116 0.832004
Si Si7 0.604312 0.738343 0.383955
Si Si8 0.501596 0.675485 0.616528
O O1 0.979010 0.124608 0.374901
O O2 0.736969 0.296384 0.415440
O O3 0.762562 0.862995 0.801978
O O4 0.222838 0.170561 0.074308
O O5 0.338282 0.790454 0.342781
O O6 0.733310 0.826659 0.226596
O O7 0.409952 0.047502 0.373320
O O8 0.851086 0.946616 0.016769
O O9 0.793824 0.031490 0.641951
O O10 0.211401 0.250123 0.357648
O O11 0.295734 0.910240 0.985715
O O12 0.800490 0.561352 0.081716
O O13 0.232955 0.593222 0.725787
O O14 0.354727 0.816902 0.746884
O O15 0.357850 0.071626 0.667550
O O16 0.708898 0.738926 0.417691
#
# Coordination Sequence:
#
# PCOD9114940 Si02
#       8
#     2   2   2   2   2   2   2   2
#     4   8  20  39  63  88 124 169 213 265 324 371
#     4  10  19  37  60  91 132 164 207 265 322 388
#     4   9  20  38  63  93 126 171 218 262 323 384
#     4  10  20  40  66  93 122 174 222 264 325 375
#     4  10  20  39  63  91 132 164 209 267 326 380
#     4  11  21  34  65  98 124 171 214 262 325 392
#     4  10  19  38  60  89 127 172 209 260 329 382
#     4  10  21  35  62  95 133 165 208 265 324 394
#
# _framework density 24.555118
#
# number of rings (size 3 to 8) (size 9 to 14) (size 15 to 20)
#    0.750    1.500    0.000    4.500    0.000    1.000 
#    2.250    0.000    8.250    0.000    0.000    0.000 
#    0.000    0.000    0.000    0.000    0.000    0.000 
#
# Total GULP energy -89101.276578 kJ/mol
# GULP energy per Si atom -5568.829786 kJ/mol
# Density = 2.449923 g / cm^3
# Si number density = 24.555118 Si / 1000 Ang^3
#
#
#
# Elastic Constant Matrix: (Units=GPa)
#
#
# Indices 1 2 3 4 5 6 
#
# 1 80.2650 36.4655 33.1999 0.0000 9.6750 0.0000
# 2 36.4655 86.4201 22.7557 0.0000 20.8334 0.0000
# 3 33.1999 22.7557 83.6217 0.0000 14.3496 0.0000
# 4 0.0000 0.0000 0.0000 41.0992 0.0000 7.1605
# 5 9.6750 20.8334 14.3496 0.0000 37.2018 0.0000
# 6 0.0000 0.0000 0.0000 7.1605 0.0000 48.0118
#
#
#
# Elastic Compliance Matrix: (Units=1/GPa)
#
#
# Indices 1 2 3 4 5 6 
#
# 1 0.017361 -0.006149 -0.005393 0.000000 0.001008 0.000000
# 2 -0.006149 0.016071 -0.000709 0.000000 -0.007127 0.000000
# 3 -0.005393 -0.000709 0.014975 0.000000 -0.003977 0.000000
# 4 0.000000 0.000000 0.000000 0.024980 0.000000 -0.003726
# 5 0.001008 -0.007127 -0.003977 0.000000 0.032143 0.000000
# 6 0.000000 0.000000 0.000000 -0.003726 0.000000 0.021384
#
#
# Mechanical properties :
#
#
# Convention : Reuss Voigt Hill
#
# Bulk Modulus (GPa) = 41.83034 48.34987 45.09011
# Shear Modulus (GPa) = 31.37073 35.78827 33.57950
#
# Velocity S-wave (km/s) = 3.57818 3.82182 3.70201
# Velocity P-wave (km/s) = 5.84324 6.26164 6.05605
#
# Compressibility (1/GPa) = 0.02390610
#
# Stress axis : x y z
#
# Youngs Moduli (GPa) = 57.59968 62.22479 66.77813
#
# Poissons Ratio (x) = 0.38261 0.36011
# Poissons Ratio (y) = 0.35417 0.04735
# Poissons Ratio (z) = 0.31061 0.04412
#
# Static dielectric constant tensor:
#      x y z
#    x 2.049210 0.000000 -0.009860 
#    y 0.000000 2.012480 0.000000 
#    z -0.009860 0.000000 2.004010 
# 
# From -- ./inp_files/14469.got.cif
#   From: 2010.05.17/outbox.cif.g08.bks.cpg/sg4_8_cif.got.tgz:14469.got - 2010.06.03 18:43:04.
