data_PCOD9114833
_publ_section_title
;
Structure prediction by ZEFSAII (Michael W. Deem and Ramdas Pophale) SiO2 
 PCOD9114833
Probable space group: P 21
;
_chemical_formula_sum "Si O2"
_cell_formula_units_Z 14
_cell_length_a 5.469425
_cell_length_b 7.139797
_cell_length_c 15.859927
_cell_angle_alpha 90.000000
_cell_angle_beta 56.713636
_cell_angle_gamma 90.000000
_cell_volume 517.729353
_symmetry_space_group_name_H-M "P 21"
_symmetry_group_IT_number 4
_symmetry_cell_setting 'monoclinic'
loop_
_space_group_symop_operation_xyz
x,y,z
-x,1/2+y,-z
loop_
_atom_site_type_symbol
_atom_site_label
_atom_site_fract_x
_atom_site_fract_y
_atom_site_fract_z
Si Si1 0.071371 0.956120 0.950597
Si Si2 0.413609 0.403969 0.344749
Si Si3 0.521114 0.122002 0.098775
Si Si4 0.736956 0.830809 0.159713
Si Si5 0.577457 0.449933 0.628037
Si Si6 0.972976 0.823552 0.729845
Si Si7 0.812092 0.996538 0.438581
O O1 0.253103 0.769260 0.899300
O O2 0.255151 0.130796 0.885074
O O3 0.021659 0.927962 0.061966
O O4 0.734004 0.018297 0.990411
O O5 0.234185 0.438895 0.293869
O O6 0.286945 0.521073 0.446280
O O7 0.761271 0.433834 0.278949
O O8 0.389457 0.177411 0.366569
O O9 0.220259 0.233147 0.158494
O O10 0.470688 0.950239 0.171262
O O11 0.684938 0.864348 0.266499
O O12 0.474475 0.411156 0.552587
O O13 0.890412 0.380227 0.602048
O O14 0.102290 0.664029 0.641944
#
# Coordination Sequence:
#
# PCOD9114833 Si02
#       7
#     2   2   2   2   2   2   2
#     4   8  16  28  60  90 122 162 204 252 308 382
#     4  10  19  35  57  82 113 156 209 247 314 363
#     4   9  15  33  57  89 124 161 204 253 314 374
#     4   9  15  33  57  89 124 161 204 253 314 374
#     4  10  20  35  59  84 116 163 196 259 309 366
#     4  10  20  35  59  84 116 163 196 259 309 366
#     4  10  19  35  57  82 113 156 209 247 314 363
#
# _framework density 27.041156000000001
#
# number of rings (size 3 to 8) (size 9 to 14) (size 15 to 20)
#    0.857    1.714    2.857    0.857    0.000    0.000 
#    0.000    8.571    0.000   24.000    0.000    0.000 
#    0.000    0.000    0.000    0.000    0.000    0.000 
#
# Total GULP energy -77955.069453 kJ/mol
# GULP energy per Si atom -5568.219247 kJ/mol
# Density = 2.697961 g / cm^3
# Si number density = 27.041156 Si / 1000 Ang^3
#
#
#
# Elastic Constant Matrix: (Units=GPa)
#
#
# Indices 1 2 3 4 5 6 
#
# 1 146.1278 6.4211 23.2867 0.0000 -5.3964 0.0000
# 2 6.4211 122.7658 33.8518 0.0000 -1.2748 0.0000
# 3 23.2867 33.8518 86.5499 0.0000 -21.5401 0.0000
# 4 0.0000 0.0000 0.0000 36.4634 0.0000 5.7946
# 5 -5.3964 -1.2748 -21.5401 0.0000 38.9988 0.0000
# 6 0.0000 0.0000 0.0000 5.7946 0.0000 14.3376
#
#
#
# Elastic Compliance Matrix: (Units=1/GPa)
#
#
# Indices 1 2 3 4 5 6 
#
# 1 0.007154 0.000184 -0.002027 0.000000 -0.000124 0.000000
# 2 0.000184 0.009263 -0.004163 0.000000 -0.001971 0.000000
# 3 -0.002027 -0.004163 0.015795 0.000000 0.008308 0.000000
# 4 0.000000 0.000000 0.000000 0.029307 0.000000 -0.011845
# 5 -0.000124 -0.001971 0.008308 0.000000 0.030149 0.000000
# 6 0.000000 0.000000 0.000000 -0.011845 0.000000 0.074534
#
#
# Mechanical properties :
#
#
# Convention : Reuss Voigt Hill
#
# Bulk Modulus (GPa) = 49.50818 53.61808 51.56313
# Shear Modulus (GPa) = 27.03450 37.41890 32.22670
#
# Velocity S-wave (km/s) = 3.16532 3.72395 3.45594
# Velocity P-wave (km/s) = 5.63091 6.19369 5.91899
#
# Compressibility (1/GPa) = 0.02019868
#
# Stress axis : x y z
#
# Youngs Moduli (GPa) = 139.78656 107.95083 63.30976
#
# Poissons Ratio (x) = -0.01982 0.12835
# Poissons Ratio (y) = -0.02566 0.26357
# Poissons Ratio (z) = 0.28340 0.44942
#
# Static dielectric constant tensor:
#      x y z
#    x 2.195280 0.000000 -0.039970 
#    y 0.000000 2.151240 0.000000 
#    z -0.039970 0.000000 2.180840 
# 
# From -- ./inp_files/14707.got.cif
#   From: 2010.05.17/outbox.cif.g08.bks.cpg/sg4_8_cif.got.tgz:14707.got - 2010.06.03 18:43:04.
