data_PCOD9114250
_publ_section_title
;
Structure prediction by ZEFSAII (Michael W. Deem and Ramdas Pophale) SiO2 
 PCOD9114250
Probable space group: P 2
;
_chemical_formula_sum "Si O2"
_cell_formula_units_Z 14
_cell_length_a 16.833740
_cell_length_b 6.753581
_cell_length_c 6.761886
_cell_angle_alpha 90.000000
_cell_angle_beta 115.807162
_cell_angle_gamma 90.000000
_cell_volume 692.074154
_symmetry_space_group_name_H-M "P 2"
_symmetry_group_IT_number 3
_symmetry_cell_setting 'monoclinic'
loop_
_space_group_symop_operation_xyz
x,y,z
-x,y,-z
loop_
_atom_site_type_symbol
_atom_site_label
_atom_site_fract_x
_atom_site_fract_y
_atom_site_fract_z
Si Si1 0.609115 0.097200 0.318226
Si Si2 0.500000 0.404963 0.000000
Si Si3 0.201838 0.575819 0.911978
Si Si4 0.796264 0.245474 0.405678
Si Si5 0.907350 0.854184 0.482234
Si Si6 0.500000 0.882693 0.500000
Si Si7 0.904306 0.531413 0.807362
Si Si8 0.613579 0.751007 0.987237
O O1 0.530340 0.254482 0.201862
O O2 0.702400 0.207282 0.408485
O O3 0.583232 0.996783 0.495324
O O4 0.610240 0.933017 0.140402
O O5 0.418102 0.549422 0.943854
O O6 0.216923 0.370184 0.810520
O O7 0.126907 0.691961 0.709908
O O8 0.165951 0.549548 0.092322
O O9 0.289615 0.708528 0.991015
O O10 0.863613 0.370646 0.613845
O O11 0.839088 0.032490 0.417438
O O12 0.914019 0.737120 0.696771
O O13 0.000000 0.930036 0.500000
O O14 0.543261 0.775365 0.734431
O O15 0.000000 0.477094 0.000000
#
# Coordination Sequence:
#
# PCOD9114250 Si02
#       8
#     2   1   2   2   2   1   2   2
#     4  12  25  47  65 106 137 174 231 277 333 404
#     4  12  22  46  70  90 138 182 214 282 338 384
#     4  11  25  45  69  97 139 178 220 283 335 395
#     4  11  27  42  73  99 136 179 226 277 335 406
#     4  11  24  44  70  98 136 185 217 272 345 399
#     4  12  26  42  72 100 136 176 228 276 330 410
#     4  11  26  45  66 107 138 170 230 279 330 407
#     4  12  25  45  69  99 139 177 223 282 340 392
#
# _framework density 20.229047999999999
#
# number of rings (size 3 to 8) (size 9 to 14) (size 15 to 20)
#    0.000    0.571    7.143    0.000    4.000    5.714 
#    0.000    0.000    0.000    0.000    0.000    0.000 
#    0.000    0.000    0.000    0.000    0.000    0.000 
#
# Total GULP energy -78166.006617 kJ/mol
# GULP energy per Si atom -5583.286187 kJ/mol
# Density = 2.018301 g / cm^3
# Si number density = 20.229048 Si / 1000 Ang^3
#
#
#
# Elastic Constant Matrix: (Units=GPa)
#
#
# Indices 1 2 3 4 5 6 
#
# 1 88.9443 4.2102 4.5629 0.0000 -8.0460 0.0000
# 2 4.2102 77.2235 23.4287 0.0000 -3.9086 0.0000
# 3 4.5629 23.4287 67.2495 0.0000 -11.5726 0.0000
# 4 0.0000 0.0000 0.0000 11.3254 0.0000 11.6330
# 5 -8.0460 -3.9086 -11.5726 0.0000 36.2401 0.0000
# 6 0.0000 0.0000 0.0000 11.6330 0.0000 33.6692
#
#
#
# Elastic Compliance Matrix: (Units=1/GPa)
#
#
# Indices 1 2 3 4 5 6 
#
# 1 0.011495 -0.000441 -0.000207 0.000000 0.002439 0.000000
# 2 -0.000441 0.014497 -0.005046 0.000000 -0.000146 0.000000
# 3 -0.000207 -0.005046 0.017502 0.000000 0.004999 0.000000
# 4 0.000000 0.000000 0.000000 0.136873 0.000000 -0.047291
# 5 0.002439 -0.000146 0.004999 0.000000 0.029716 0.000000
# 6 0.000000 0.000000 0.000000 -0.047291 0.000000 0.046040
#
#
# Mechanical properties :
#
#
# Convention : Reuss Voigt Hill
#
# Bulk Modulus (GPa) = 31.14488 33.09121 32.11804
# Shear Modulus (GPa) = 17.97196 29.66130 23.81663
#
# Velocity S-wave (km/s) = 2.98388 3.83335 3.43497
# Velocity P-wave (km/s) = 5.22503 5.99888 5.62527
#
# Compressibility (1/GPa) = 0.03210801
#
# Stress axis : x y z
#
# Youngs Moduli (GPa) = 86.99393 68.98040 57.13603
#
# Poissons Ratio (x) = 0.03039 0.01182
# Poissons Ratio (y) = 0.03832 0.28829
# Poissons Ratio (z) = 0.01799 0.34805
#
# Static dielectric constant tensor:
#      x y z
#    x 1.722930 0.000000 0.010590 
#    y 0.000000 1.694670 0.000000 
#    z 0.010590 0.000000 1.687020 
# 
# From -- ./inp_files/3566.got.cif
#   From: 2010.05.17/outbox.cif.g08.bks.cpg/sg3_2_cif.got.tgz:3566.got - 2010.06.03 18:33:08.
