data_PCOD9114792
_publ_section_title
;
Structure prediction by ZEFSAII (Michael W. Deem and Ramdas Pophale) SiO2 
 PCOD9114792
Probable space group: P 21
;
_chemical_formula_sum "Si O2"
_cell_formula_units_Z 14
_cell_length_a 15.482068
_cell_length_b 5.309398
_cell_length_c 9.823873
_cell_angle_alpha 90.000000
_cell_angle_beta 57.499578
_cell_angle_gamma 90.000000
_cell_volume 681.058074
_symmetry_space_group_name_H-M "P 21"
_symmetry_group_IT_number 4
_symmetry_cell_setting 'monoclinic'
loop_
_space_group_symop_operation_xyz
x,y,z
-x,1/2+y,-z
loop_
_atom_site_type_symbol
_atom_site_label
_atom_site_fract_x
_atom_site_fract_y
_atom_site_fract_z
Si Si1 0.713093 0.520490 0.485072
Si Si2 0.085357 0.683095 0.742444
Si Si3 0.285655 0.242719 0.809248
Si Si4 0.843542 0.241418 0.028200
Si Si5 0.945952 0.028402 0.694545
Si Si6 0.495228 0.791613 0.412775
Si Si7 0.854503 0.792621 0.529767
O O1 0.813770 0.353386 0.370918
O O2 0.703954 0.707645 0.363597
O O3 0.610534 0.356170 0.573742
O O4 0.745913 0.667314 0.592671
O O5 0.079214 0.691660 0.910510
O O6 0.113398 0.430220 0.638198
O O7 0.985904 0.803325 0.757247
O O8 0.233190 0.503765 0.893594
O O9 0.402889 0.236832 0.760433
O O10 0.218068 0.001814 0.907803
O O11 0.902079 0.228920 0.836907
O O12 0.861076 0.969087 0.654297
O O13 0.049729 0.105444 0.528129
O O14 0.481332 0.546291 0.520020
#
# Coordination Sequence:
#
# PCOD9114792 Si02
#       7
#     2   2   2   2   2   2   2
#     4   9  20  34  59  91 120 162 197 262 313 362
#     4  10  21  37  56  83 125 156 211 253 305 366
#     4  10  20  38  57  93 128 154 204 259 315 376
#     4  11  24  38  60  90 126 167 203 259 315 365
#     4  11  25  36  61  85 123 175 210 256 309 369
#     4  10  19  33  62  95 129 159 201 262 327 369
#     4  11  21  40  55  87 125 161 216 255 300 377
#
# _framework density 20.556249000000001
#
# number of rings (size 3 to 8) (size 9 to 14) (size 15 to 20)
#    0.000    1.714    2.857    2.571    6.000    0.000 
#    0.000    0.000    0.000    0.000    3.714    0.000 
#    0.000    0.000    0.000    0.000    0.000    0.000 
#
# Total GULP energy -78124.025606 kJ/mol
# GULP energy per Si atom -5580.287543 kJ/mol
# Density = 2.050946 g / cm^3
# Si number density = 20.556249 Si / 1000 Ang^3
#
#
#
# Elastic Constant Matrix: (Units=GPa)
#
#
# Indices 1 2 3 4 5 6 
#
# 1 109.9826 33.3332 31.7524 0.0000 2.8177 0.0000
# 2 33.3332 92.1488 9.7347 0.0000 -5.0168 0.0000
# 3 31.7524 9.7347 52.7037 0.0000 9.4528 0.0000
# 4 0.0000 0.0000 0.0000 27.3082 0.0000 -6.2276
# 5 2.8177 -5.0168 9.4528 0.0000 24.3351 0.0000
# 6 0.0000 0.0000 0.0000 -6.2276 0.0000 38.4417
#
#
#
# Elastic Compliance Matrix: (Units=1/GPa)
#
#
# Indices 1 2 3 4 5 6 
#
# 1 0.012125 -0.003653 -0.006711 0.000000 0.000450 0.000000
# 2 -0.003653 0.012421 -0.000676 0.000000 0.003246 0.000000
# 3 -0.006711 -0.000676 0.024752 0.000000 -0.008977 0.000000
# 4 0.000000 0.000000 0.000000 0.038024 0.000000 0.006160
# 5 0.000450 0.003246 -0.008977 0.000000 0.045197 0.000000
# 6 0.000000 0.000000 0.000000 0.006160 0.000000 0.027011
#
#
# Mechanical properties :
#
#
# Convention : Reuss Voigt Hill
#
# Bulk Modulus (GPa) = 36.73841 44.94176 40.84009
# Shear Modulus (GPa) = 26.22137 30.01799 28.11968
#
# Velocity S-wave (km/s) = 3.57542 3.82551 3.70258
# Velocity P-wave (km/s) = 5.91234 6.43607 6.17976
#
# Compressibility (1/GPa) = 0.02721947
#
# Stress axis : x y z
#
# Youngs Moduli (GPa) = 82.47133 80.50595 40.40034
#
# Poissons Ratio (x) = 0.29406 0.27114
# Poissons Ratio (y) = 0.30124 0.02731
# Poissons Ratio (z) = 0.55348 0.05441
#
# Static dielectric constant tensor:
#      x y z
#    x 1.782370 0.000000 0.002340 
#    y 0.000000 1.826950 0.000000 
#    z 0.002340 0.000000 1.743490 
# 
# From -- ./inp_files/8910.got.cif
#   From: 2010.05.17/outbox.cif.g08.bks.cpg/sg4_5_cif.got.tgz:8910.got - 2010.06.03 18:43:04.
