data_PCOD9114064
_publ_section_title
;
Structure prediction by ZEFSAII (Michael W. Deem and Ramdas Pophale) SiO2 
 PCOD9114064
Probable space group: P 2
;
_chemical_formula_sum "Si O2"
_cell_formula_units_Z 11
_cell_length_a 15.290904
_cell_length_b 6.016299
_cell_length_c 7.924383
_cell_angle_alpha 90.000000
_cell_angle_beta 141.965769
_cell_angle_gamma 90.000000
_cell_volume 449.160863
_symmetry_space_group_name_H-M "P 2"
_symmetry_group_IT_number 3
_symmetry_cell_setting 'monoclinic'
loop_
_space_group_symop_operation_xyz
x,y,z
-x,y,-z
loop_
_atom_site_type_symbol
_atom_site_label
_atom_site_fract_x
_atom_site_fract_y
_atom_site_fract_z
Si Si1 0.377099 0.393010 0.719584
Si Si2 0.871498 0.073790 0.541851
Si Si3 0.505687 0.028728 0.693013
Si Si4 0.786618 0.773462 0.714193
Si Si5 0.000000 0.379021 0.500000
Si Si6 0.794114 0.762309 0.116935
O O1 0.267779 0.225884 0.645109
O O2 0.266673 0.536923 0.439715
O O3 0.488457 0.234086 0.791430
O O4 0.500000 0.541387 0.000000
O O5 0.993944 0.242518 0.667267
O O6 0.874774 0.910892 0.707870
O O7 0.857263 0.926388 0.352814
O O8 0.500000 0.134866 0.500000
O O9 0.361116 0.900607 0.499671
O O10 0.631066 0.845764 0.881056
O O11 0.839068 0.773420 0.987905
O O12 0.857116 0.526883 0.272795
#
# Coordination Sequence:
#
# PCOD9114064 Si02
#       6
#     2   2   2   2   1   2
#     4  11  22  40  74 108 140 183 230 291 368 427
#     4  11  25  48  69 103 144 192 240 291 352 422
#     4   9  21  40  69 107 146 181 227 297 366 430
#     4  10  25  43  73 108 144 182 237 304 365 421
#     4  12  28  46  78 100 140 206 246 288 346 424
#     4  11  24  49  70 104 147 189 244 294 357 426
#
# _framework density 24.490113999999998
#
# number of rings (size 3 to 8) (size 9 to 14) (size 15 to 20)
#    0.000    1.455    1.818    1.636    5.091    6.545 
#    0.000   13.636    0.000    0.000    0.000    0.000 
#    0.000    0.000    0.000    0.000    0.000    0.000 
#
# Total GULP energy -61279.227141 kJ/mol
# GULP energy per Si atom -5570.838831 kJ/mol
# Density = 2.443437 g / cm^3
# Si number density = 24.490114 Si / 1000 Ang^3
#
#
#
# Elastic Constant Matrix: (Units=GPa)
#
#
# Indices 1 2 3 4 5 6 
#
# 1 168.6294 66.7173 54.2899 0.0000 -9.8729 0.0000
# 2 66.7173 91.6899 29.9859 0.0000 -19.1091 0.0000
# 3 54.2899 29.9859 88.0789 0.0000 -16.4312 0.0000
# 4 0.0000 0.0000 0.0000 3.6797 0.0000 -4.4320
# 5 -9.8729 -19.1091 -16.4312 0.0000 33.7775 0.0000
# 6 0.0000 0.0000 0.0000 -4.4320 0.0000 49.3020
#
#
#
# Elastic Compliance Matrix: (Units=1/GPa)
#
#
# Indices 1 2 3 4 5 6 
#
# 1 0.009595 -0.006142 -0.004342 0.000000 -0.002782 0.000000
# 2 -0.006142 0.017170 -0.000641 0.000000 0.007607 0.000000
# 3 -0.004342 -0.000641 0.015335 0.000000 0.005828 0.000000
# 4 0.000000 0.000000 0.000000 0.304756 0.000000 0.027396
# 5 -0.002782 0.007607 0.005828 0.000000 0.035931 0.000000
# 6 0.000000 0.000000 0.000000 0.027396 0.000000 0.022746
#
#
# Mechanical properties :
#
#
# Convention : Reuss Voigt Hill
#
# Bulk Modulus (GPa) = 50.37520 72.26495 61.32007
# Shear Modulus (GPa) = 11.51012 30.51218 21.01115
#
# Velocity S-wave (km/s) = 2.17028 3.53356 2.93225
# Velocity P-wave (km/s) = 5.18598 6.79852 6.04625
#
# Compressibility (1/GPa) = 0.01985104
#
# Stress axis : x y z
#
# Youngs Moduli (GPa) = 104.21888 58.24075 65.20823
#
# Poissons Ratio (x) = 0.35769 0.28316
# Poissons Ratio (y) = 0.64007 0.04179
# Poissons Ratio (z) = 0.45257 0.03732
#
# Static dielectric constant tensor:
#      x y z
#    x 1.999960 0.000000 -0.024190 
#    y 0.000000 2.102360 0.000000 
#    z -0.024190 0.000000 1.760910 
# 
# From -- ./inp_files/8006.got.cif
#   From: 2010.05.17/outbox.cif.g08.bks.cpg/sg3_5_cif.got.tgz:8006.got - 2010.06.03 18:33:08.
