data_PCOD9114660
_publ_section_title
;
Structure prediction by ZEFSAII (Michael W. Deem and Ramdas Pophale) SiO2 
 PCOD9114660
Probable space group: P 21
;
_chemical_formula_sum "Si O2"
_cell_formula_units_Z 14
_cell_length_a 13.238828
_cell_length_b 7.943562
_cell_length_c 9.426120
_cell_angle_alpha 90.000000
_cell_angle_beta 148.708798
_cell_angle_gamma 90.000000
_cell_volume 514.860556
_symmetry_space_group_name_H-M "P 21"
_symmetry_group_IT_number 4
_symmetry_cell_setting 'monoclinic'
loop_
_space_group_symop_operation_xyz
x,y,z
-x,1/2+y,-z
loop_
_atom_site_type_symbol
_atom_site_label
_atom_site_fract_x
_atom_site_fract_y
_atom_site_fract_z
Si Si1 0.266221 0.818890 0.732751
Si Si2 0.662810 0.470745 0.911971
Si Si3 0.353835 0.717211 0.547360
Si Si4 0.077653 0.126269 0.318749
Si Si5 0.837979 0.766494 0.313856
Si Si6 0.308736 0.449092 0.108075
Si Si7 0.898744 0.642936 0.977204
O O1 0.380851 0.716830 0.751375
O O2 0.185592 0.974470 0.534479
O O3 0.060226 0.748894 0.533609
O O4 0.377087 0.828795 0.018115
O O5 0.748418 0.604626 0.128969
O O6 0.466603 0.555422 0.618406
O O7 0.819990 0.483273 0.973651
O O8 0.466811 0.882215 0.620482
O O9 0.126672 0.686283 0.256620
O O10 0.150345 0.278504 0.504230
O O11 0.146283 0.131844 0.241660
O O12 0.840524 0.101241 0.033542
O O13 0.741115 0.921439 0.118274
O O14 0.207604 0.300770 0.078309
#
# Coordination Sequence:
#
# PCOD9114660 Si02
#       7
#     2   2   2   2   2   2   2
#     4  10  18  37  59  80 111 149 186 237 278 319
#     4   9  20  35  58  82 108 147 190 228 276 338
#     4  10  18  38  57  76 115 147 179 235 285 319
#     4  10  19  34  61  83 106 155 184 225 292 325
#     4   8  16  34  57  79 106 141 189 227 267 331
#     4   9  20  38  56  80 114 144 190 234 273 337
#     4  10  19  38  56  76 118 149 176 232 281 337
#
# _framework density 27.191825999999999
#
# number of rings (size 3 to 8) (size 9 to 14) (size 15 to 20)
#    0.000    2.857    4.286    0.000    0.000    2.286 
#   10.286    0.000    0.000    0.000    0.000    0.000 
#    0.000    0.000    0.000    0.000    0.000    0.000 
#
# Total GULP energy -78007.077778 kJ/mol
# GULP energy per Si atom -5571.934127 kJ/mol
# Density = 2.712994 g / cm^3
# Si number density = 27.191826 Si / 1000 Ang^3
#
#
#
# Elastic Constant Matrix: (Units=GPa)
#
#
# Indices 1 2 3 4 5 6 
#
# 1 187.3390 27.9928 91.8466 0.0000 -6.2507 0.0000
# 2 27.9928 44.7872 24.1770 0.0000 -9.2260 0.0000
# 3 91.8466 24.1770 107.5590 0.0000 8.4745 0.0000
# 4 0.0000 0.0000 0.0000 24.2148 0.0000 -5.0317
# 5 -6.2507 -9.2260 8.4745 0.0000 60.6642 0.0000
# 6 0.0000 0.0000 0.0000 -5.0317 0.0000 17.6363
#
#
#
# Elastic Compliance Matrix: (Units=1/GPa)
#
#
# Indices 1 2 3 4 5 6 
#
# 1 0.009501 -0.001235 -0.007986 0.000000 0.001907 0.000000
# 2 -0.001235 0.026979 -0.005383 0.000000 0.004728 0.000000
# 3 -0.007986 -0.005383 0.017650 0.000000 -0.004107 0.000000
# 4 0.000000 0.000000 0.000000 0.043900 0.000000 0.012525
# 5 0.001907 0.004728 -0.004107 0.000000 0.017973 0.000000
# 6 0.000000 0.000000 0.000000 0.012525 0.000000 0.060274
#
#
# Mechanical properties :
#
#
# Convention : Reuss Voigt Hill
#
# Bulk Modulus (GPa) = 40.12200 69.74646 54.93423
# Shear Modulus (GPa) = 23.38715 33.54765 28.46740
#
# Velocity S-wave (km/s) = 2.93589 3.51627 3.23911
# Velocity P-wave (km/s) = 5.12639 6.49546 5.85111
#
# Compressibility (1/GPa) = 0.02492398
#
# Stress axis : x y z
#
# Youngs Moduli (GPa) = 105.24787 37.06586 56.65660
#
# Poissons Ratio (x) = 0.04576 0.45247
# Poissons Ratio (y) = 0.12994 0.30496
# Poissons Ratio (z) = 0.84052 0.19951
#
# Static dielectric constant tensor:
#      x y z
#    x 2.156150 0.000000 -0.042570 
#    y 0.000000 2.583300 0.000000 
#    z -0.042570 0.000000 2.174440 
# 
# From -- ./inp_files/8377.got.cif
#   From: 2010.05.17/outbox.cif.g08.bks.cpg/sg4_5_cif.got.tgz:8377.got - 2010.06.03 18:43:04.
