data_PCOD9114596
_publ_section_title
;
Structure prediction by ZEFSAII (Michael W. Deem and Ramdas Pophale) SiO2 
 PCOD9114596
Probable space group: P 21
;
_chemical_formula_sum "Si O2"
_cell_formula_units_Z 16
_cell_length_a 5.133394
_cell_length_b 8.057658
_cell_length_c 18.208192
_cell_angle_alpha 90.000000
_cell_angle_beta 64.548156
_cell_angle_gamma 90.000000
_cell_volume 680.052462
_symmetry_space_group_name_H-M "P 21"
_symmetry_group_IT_number 4
_symmetry_cell_setting 'monoclinic'
loop_
_space_group_symop_operation_xyz
x,y,z
-x,1/2+y,-z
loop_
_atom_site_type_symbol
_atom_site_label
_atom_site_fract_x
_atom_site_fract_y
_atom_site_fract_z
Si Si1 0.139699 0.781860 0.184294
Si Si2 0.168243 0.572293 0.319428
Si Si3 0.212531 0.396522 0.447816
Si Si4 0.606934 0.668446 0.456963
Si Si5 0.635454 0.394368 0.612185
Si Si6 0.249098 0.687498 0.933777
Si Si7 0.610388 0.833687 0.008065
Si Si8 0.572487 0.997545 0.222844
O O1 0.142096 0.619506 0.237164
O O2 0.353554 0.760210 0.089955
O O3 0.300378 0.924976 0.211248
O O4 0.829552 0.856972 0.197669
O O5 0.295974 0.420470 0.351776
O O6 0.298868 0.736876 0.342226
O O7 0.851560 0.557324 0.391891
O O8 0.328660 0.562716 0.473941
O O9 0.354605 0.233473 0.466232
O O10 0.889419 0.396548 0.521556
O O11 0.630838 0.834717 0.404768
O O12 0.539864 0.530635 0.681734
O O13 0.319384 0.516832 0.969345
O O14 0.311317 0.646843 0.840983
O O15 0.467402 0.819803 0.944526
O O16 0.913203 0.737161 0.979363
#
# Coordination Sequence:
#
# PCOD9114596 Si02
#       8
#     2   2   2   2   2   2   2   2
#     4  10  19  35  60  91 116 151 209 256 292 350
#     4   9  18  32  53  81 112 148 202 253 290 342
#     4  10  20  32  54  82 116 150 194 250 306 354
#     4  10  18  34  54  80 110 152 192 250 300 350
#     4   9  18  32  53  81 112 148 202 253 290 342
#     4  11  22  39  64  94 128 163 205 257 314 375
#     4  11  22  39  64  94 128 163 205 257 314 375
#     4  10  19  35  60  91 116 151 209 256 292 350
#
# _framework density 23.527594000000001
#
# number of rings (size 3 to 8) (size 9 to 14) (size 15 to 20)
#    0.000    2.000    1.250    4.500    0.000    0.000 
#    0.000    0.000    2.750    9.000    0.000    0.000 
#    0.000    0.000    0.000    0.000    0.000    0.000 
#
# Total GULP energy -89081.921143 kJ/mol
# GULP energy per Si atom -5567.620071 kJ/mol
# Density = 2.347404 g / cm^3
# Si number density = 23.527594 Si / 1000 Ang^3
#
#
#
# Elastic Constant Matrix: (Units=GPa)
#
#
# Indices 1 2 3 4 5 6 
#
# 1 85.1528 6.4258 6.6975 0.0000 -5.4290 0.0000
# 2 6.4258 38.3918 3.7096 0.0000 -3.9940 0.0000
# 3 6.6975 3.7096 64.5762 0.0000 3.6467 0.0000
# 4 0.0000 0.0000 0.0000 35.4953 0.0000 4.0887
# 5 -5.4290 -3.9940 3.6467 0.0000 28.4089 0.0000
# 6 0.0000 0.0000 0.0000 4.0887 0.0000 35.4958
#
#
#
# Elastic Compliance Matrix: (Units=1/GPa)
#
#
# Indices 1 2 3 4 5 6 
#
# 1 0.012114 -0.001670 -0.001287 0.000000 0.002246 0.000000
# 2 -0.001670 0.026860 -0.001576 0.000000 0.003660 0.000000
# 3 -0.001287 -0.001576 0.015851 0.000000 -0.002502 0.000000
# 4 0.000000 0.000000 0.000000 0.028552 0.000000 -0.003289
# 5 0.002246 0.003660 -0.002502 0.000000 0.036465 0.000000
# 6 0.000000 0.000000 0.000000 -0.003289 0.000000 0.028551
#
#
# Mechanical properties :
#
#
# Convention : Reuss Voigt Hill
#
# Bulk Modulus (GPa) = 21.85412 24.64297 23.24855
# Shear Modulus (GPa) = 28.94996 31.29920 30.12458
#
# Velocity S-wave (km/s) = 3.51161 3.65131 3.58214
# Velocity P-wave (km/s) = 5.07452 5.31723 5.19729
#
# Compressibility (1/GPa) = 0.04575796
#
# Stress axis : x y z
#
# Youngs Moduli (GPa) = 82.54910 37.23048 63.08765
#
# Poissons Ratio (x) = 0.06216 0.08121
# Poissons Ratio (y) = 0.13782 0.09946
# Poissons Ratio (z) = 0.10626 0.05869
#
# Static dielectric constant tensor:
#      x y z
#    x 2.002800 0.000000 0.049390 
#    y 0.000000 1.975000 0.000000 
#    z 0.049390 0.000000 1.938100 
# 
# From -- ./inp_files/4023.got.cif
#   From: 2010.05.17/outbox.cif.g08.bks.cpg/sg4_3_cif.got.tgz:4023.got - 2010.06.03 18:43:04.
