data_PCOD9114309
_publ_section_title
;
Structure prediction by ZEFSAII (Michael W. Deem and Ramdas Pophale) SiO2 
 PCOD9114309
Probable space group: P 2
;
_chemical_formula_sum "Si O2"
_cell_formula_units_Z 12
_cell_length_a 20.888182
_cell_length_b 5.107281
_cell_length_c 8.008221
_cell_angle_alpha 90.000000
_cell_angle_beta 139.683056
_cell_angle_gamma 90.000000
_cell_volume 552.765580
_symmetry_space_group_name_H-M "P 2"
_symmetry_group_IT_number 3
_symmetry_cell_setting 'monoclinic'
loop_
_space_group_symop_operation_xyz
x,y,z
-x,y,-z
loop_
_atom_site_type_symbol
_atom_site_label
_atom_site_fract_x
_atom_site_fract_y
_atom_site_fract_z
Si Si1 0.599162 0.811980 0.442715
Si Si2 0.081374 0.112960 0.525014
Si Si3 0.079704 0.605094 0.302384
Si Si4 0.695472 0.994889 0.964808
Si Si5 0.539680 0.310747 0.823956
Si Si6 0.305102 0.633591 0.702340
O O1 0.528635 0.563185 0.334522
O O2 0.661347 0.776126 0.398230
O O3 0.528636 0.062199 0.278825
O O4 0.331905 0.848793 0.259199
O O5 0.059902 0.398520 0.409445
O O6 0.193376 0.103022 0.816819
O O7 0.000000 0.044265 0.500000
O O8 0.076880 0.897904 0.369466
O O9 0.191497 0.548547 0.464224
O O10 0.000000 0.572869 0.000000
O O11 0.687127 0.810574 0.113499
O O12 0.613086 0.221278 0.821665
O O13 0.618468 0.394837 0.122170
#
# Coordination Sequence:
#
# PCOD9114309 Si02
#       6
#     2   2   2   2   2   2
#     4  12  30  42  76 106 144 196 244 282 360 434
#     4  11  25  48  76 106 142 185 235 302 365 426
#     4  11  25  48  76 106 142 185 235 302 365 426
#     4  11  27  48  72 107 146 190 237 305 352 429
#     4  12  26  46  70 108 146 190 240 294 350 426
#     4  11  27  48  72 107 146 190 237 305 352 429
#
# _framework density 21.709019000000001
#
# number of rings (size 3 to 8) (size 9 to 14) (size 15 to 20)
#    0.000    0.667    3.333    2.000   11.667    0.000 
#    3.000    0.000    0.000    0.000    0.000    0.000 
#    0.000    0.000    0.000    0.000    0.000    0.000 
#
# Total GULP energy -67201.392452 kJ/mol
# GULP energy per Si atom -5600.116038 kJ/mol
# Density = 2.165961 g / cm^3
# Si number density = 21.709019 Si / 1000 Ang^3
#
#
#
# Elastic Constant Matrix: (Units=GPa)
#
#
# Indices 1 2 3 4 5 6 
#
# 1 111.4308 11.7346 60.8780 0.0000 -13.3567 0.0000
# 2 11.7346 91.0054 23.5546 0.0000 -6.1169 0.0000
# 3 60.8780 23.5546 136.9690 0.0000 -4.1947 0.0000
# 4 0.0000 0.0000 0.0000 19.4782 0.0000 -10.7764
# 5 -13.3567 -6.1169 -4.1947 0.0000 21.8302 0.0000
# 6 0.0000 0.0000 0.0000 -10.7764 0.0000 25.7446
#
#
#
# Elastic Compliance Matrix: (Units=1/GPa)
#
#
# Indices 1 2 3 4 5 6 
#
# 1 0.012778 0.000238 -0.005511 0.000000 0.006826 0.000000
# 2 0.000238 0.011685 -0.002022 0.000000 0.003031 0.000000
# 3 -0.005511 -0.002022 0.010037 0.000000 -0.002010 0.000000
# 4 0.000000 0.000000 0.000000 0.066812 0.000000 0.027967
# 5 0.006826 0.003031 -0.002010 0.000000 0.050448 0.000000
# 6 0.000000 0.000000 0.000000 0.027967 0.000000 0.050550
#
#
# Mechanical properties :
#
#
# Convention : Reuss Voigt Hill
#
# Bulk Modulus (GPa) = 50.23109 59.08216 54.65662
# Shear Modulus (GPa) = 22.36762 29.62646 25.99704
#
# Velocity S-wave (km/s) = 3.21337 3.69820 3.46428
# Velocity P-wave (km/s) = 6.07916 6.74612 6.42131
#
# Compressibility (1/GPa) = 0.01990799
#
# Stress axis : x y z
#
# Youngs Moduli (GPa) = 78.25715 85.58087 99.63401
#
# Poissons Ratio (x) = -0.02033 0.54912
# Poissons Ratio (y) = -0.01859 0.20148
# Poissons Ratio (z) = 0.43130 0.17306
#
# Static dielectric constant tensor:
#      x y z
#    x 1.775090 0.000000 -0.028300 
#    y 0.000000 1.816170 0.000000 
#    z -0.028300 0.000000 1.776580 
# 
# From -- ./inp_files/9273.got.cif
#   From: 2010.05.17/outbox.cif.g08.bks.cpg/sg3_5_cif.got.tgz:9273.got - 2010.06.03 18:33:08.
