data_PCOD9114579
_publ_section_title
;
Structure prediction by ZEFSAII (Michael W. Deem and Ramdas Pophale) SiO2 
 PCOD9114579
Probable space group: P 21
;
_chemical_formula_sum "Si O2"
_cell_formula_units_Z 16
_cell_length_a 9.451764
_cell_length_b 7.749552
_cell_length_c 19.462765
_cell_angle_alpha 90.000000
_cell_angle_beta 149.378416
_cell_angle_gamma 90.000000
_cell_volume 726.145488
_symmetry_space_group_name_H-M "P 21"
_symmetry_group_IT_number 4
_symmetry_cell_setting 'monoclinic'
loop_
_space_group_symop_operation_xyz
x,y,z
-x,1/2+y,-z
loop_
_atom_site_type_symbol
_atom_site_label
_atom_site_fract_x
_atom_site_fract_y
_atom_site_fract_z
Si Si1 0.382579 0.460900 0.605875
Si Si2 0.388753 0.596928 0.179930
Si Si3 0.164065 0.070973 0.115216
Si Si4 0.086305 0.973040 0.368606
Si Si5 0.447766 0.939180 0.108822
Si Si6 0.892064 0.596821 0.473833
Si Si7 0.544363 0.720091 0.558259
Si Si8 0.119081 0.414755 0.185877
O O1 0.677698 0.446760 0.766653
O O2 0.220860 0.281862 0.547851
O O3 0.437985 0.555332 0.557744
O O4 0.202248 0.596619 0.575124
O O5 0.436799 0.769981 0.154382
O O6 0.697026 0.536768 0.329009
O O7 0.251371 0.573802 0.199142
O O8 0.145943 0.510294 0.032910
O O9 0.335428 0.080704 0.115994
O O10 0.157910 0.252091 0.151024
O O11 0.267443 0.813836 0.416440
O O12 0.761103 0.966486 0.215732
O O13 0.110074 0.972932 0.461247
O O14 0.239107 0.143636 0.405183
O O15 0.215230 0.931867 0.951967
O O16 0.713572 0.857506 0.676649
#
# Coordination Sequence:
#
# PCOD9114579 Si02
#       8
#     2   2   2   2   2   2   2   2
#     4  11  22  37  59  91 124 155 211 255 310 359
#     4  10  18  32  59  91 119 151 199 255 311 357
#     4   9  18  33  56  89 121 153 190 261 310 350
#     4  12  24  42  61  87 127 168 208 251 305 369
#     4  10  19  38  61  90 122 157 201 260 306 360
#     4  12  21  35  60  92 120 160 203 260 301 362
#     4  11  24  43  60  87 122 172 206 250 308 371
#     4   9  20  36  62  89 123 156 204 250 311 370
#
# _framework density 22.034151999999999
#
# number of rings (size 3 to 8) (size 9 to 14) (size 15 to 20)
#    0.000    1.500    3.750    2.250    1.750    0.000 
#    0.000    1.250    2.750    1.500    0.000    0.000 
#    0.000    0.000    0.000    0.000    0.000    0.000 
#
# Total GULP energy -89152.075474 kJ/mol
# GULP energy per Si atom -5572.004717 kJ/mol
# Density = 2.198400 g / cm^3
# Si number density = 22.034152 Si / 1000 Ang^3
#
#
#
# Elastic Constant Matrix: (Units=GPa)
#
#
# Indices 1 2 3 4 5 6 
#
# 1 46.5359 6.1810 -3.6115 0.0000 11.7713 0.0000
# 2 6.1810 65.2473 11.3174 0.0000 9.2005 0.0000
# 3 -3.6115 11.3174 104.2010 0.0000 17.7011 0.0000
# 4 0.0000 0.0000 0.0000 26.4451 0.0000 6.1572
# 5 11.7713 9.2005 17.7011 0.0000 19.6852 0.0000
# 6 0.0000 0.0000 0.0000 6.1572 0.0000 33.2885
#
#
#
# Elastic Compliance Matrix: (Units=1/GPa)
#
#
# Indices 1 2 3 4 5 6 
#
# 1 0.026888 -0.000517 0.004341 0.000000 -0.019741 0.000000
# 2 -0.000517 0.016446 -0.000650 0.000000 -0.006793 0.000000
# 3 0.004341 -0.000650 0.012048 0.000000 -0.013126 0.000000
# 4 0.000000 0.000000 0.000000 0.039516 0.000000 -0.007309
# 5 -0.019741 -0.006793 -0.013126 0.000000 0.077582 0.000000
# 6 0.000000 0.000000 0.000000 -0.007309 0.000000 0.031392
#
#
# Mechanical properties :
#
#
# Convention : Reuss Voigt Hill
#
# Bulk Modulus (GPa) = 16.19935 27.08424 21.64179
# Shear Modulus (GPa) = 22.92537 29.35691 26.14114
#
# Velocity S-wave (km/s) = 3.22910 3.65408 3.44814
# Velocity P-wave (km/s) = 4.61201 5.48832 5.06914
#
# Compressibility (1/GPa) = 0.06173089
#
# Stress axis : x y z
#
# Youngs Moduli (GPa) = 37.19154 60.80552 83.00385
#
# Poissons Ratio (x) = 0.03141 -0.36036
# Poissons Ratio (y) = 0.01921 0.05397
# Poissons Ratio (z) = -0.16147 0.03953
#
# Static dielectric constant tensor:
#      x y z
#    x 1.784820 0.000000 -0.002860 
#    y 0.000000 1.911940 0.000000 
#    z -0.002860 0.000000 1.863970 
# 
# From -- ./inp_files/9143.got.cif
#   From: 2010.05.17/outbox.cif.g08.bks.cpg/sg4_5_cif.got.tgz:9143.got - 2010.06.03 18:43:04.
