data_PCOD9114410
_publ_section_title
;
Structure prediction by ZEFSAII (Michael W. Deem and Ramdas Pophale) SiO2 
 PCOD9114410
Probable space group: P 2
;
_chemical_formula_sum "Si O2"
_cell_formula_units_Z 8
_cell_length_a 7.703756
_cell_length_b 8.365592
_cell_length_c 8.382472
_cell_angle_alpha 90.000000
_cell_angle_beta 37.052235
_cell_angle_gamma 90.000000
_cell_volume 325.506196
_symmetry_space_group_name_H-M "P 2"
_symmetry_group_IT_number 3
_symmetry_cell_setting 'monoclinic'
loop_
_space_group_symop_operation_xyz
x,y,z
-x,y,-z
loop_
_atom_site_type_symbol
_atom_site_label
_atom_site_fract_x
_atom_site_fract_y
_atom_site_fract_z
Si Si1 0.896262 0.472580 0.324464
Si Si2 0.000000 0.229107 0.500000
Si Si3 0.571048 0.668478 0.134895
Si Si4 0.000000 0.232888 0.000000
Si Si5 0.498625 0.027685 0.694711
O O1 0.639050 0.550945 0.612527
O O2 0.814284 0.351521 0.244576
O O3 0.085904 0.357051 0.300063
O O4 0.100722 0.608740 0.102835
O O5 0.244940 0.118922 0.400825
O O6 0.521973 0.844974 0.238150
O O7 0.500000 0.670771 0.000000
O O8 0.794467 0.120425 0.048200
O O9 0.500000 0.033136 0.500000
#
# Coordination Sequence:
#
# PCOD9114410 Si02
#       5
#     2   1   2   1   2
#     4  12  28  52  84 118 162 219 278 338 408 487
#     4  12  26  56  84 114 162 218 276 338 400 486
#     4  12  29  50  81 119 166 217 272 338 415 486
#     4  12  30  52  82 122 166 216 276 342 408 488
#     4  12  31  52  81 122 168 217 271 337 416 491
#
# _framework density 24.577106000000001
#
# number of rings (size 3 to 8) (size 9 to 14) (size 15 to 20)
#    0.000    0.000    5.000    1.500   14.000    0.000 
#    0.000    0.000    0.000    0.000    0.000    0.000 
#    0.000    0.000    0.000    0.000    0.000    0.000 
#
# Total GULP energy -44804.687586 kJ/mol
# GULP energy per Si atom -5600.585948 kJ/mol
# Density = 2.452117 g / cm^3
# Si number density = 24.577106 Si / 1000 Ang^3
#
#
#
# Elastic Constant Matrix: (Units=GPa)
#
#
# Indices 1 2 3 4 5 6 
#
# 1 130.2745 67.4973 41.9270 0.0000 -9.8250 0.0000
# 2 67.4973 180.4630 61.4253 0.0000 5.1444 0.0000
# 3 41.9270 61.4253 139.8999 0.0000 1.7233 0.0000
# 4 0.0000 0.0000 0.0000 46.2787 0.0000 4.9108
# 5 -9.8250 5.1444 1.7233 0.0000 39.8086 0.0000
# 6 0.0000 0.0000 0.0000 4.9108 0.0000 48.9715
#
#
#
# Elastic Compliance Matrix: (Units=1/GPa)
#
#
# Indices 1 2 3 4 5 6 
#
# 1 0.010149 -0.003332 -0.001616 0.000000 0.003005 0.000000
# 2 -0.003332 0.007629 -0.002330 0.000000 -0.001707 0.000000
# 3 -0.001616 -0.002330 0.008661 0.000000 -0.000473 0.000000
# 4 0.000000 0.000000 0.000000 0.021841 0.000000 -0.002190
# 5 0.003005 -0.001707 -0.000473 0.000000 0.026103 0.000000
# 6 0.000000 0.000000 0.000000 -0.002190 0.000000 0.020640
#
#
# Mechanical properties :
#
#
# Convention : Reuss Voigt Hill
#
# Bulk Modulus (GPa) = 84.14656 88.03740 86.09198
# Shear Modulus (GPa) = 44.03762 45.66427 44.85095
#
# Velocity S-wave (km/s) = 4.23758 4.31513 4.27653
# Velocity P-wave (km/s) = 7.63249 7.79268 7.71300
#
# Compressibility (1/GPa) = 0.01188403
#
# Stress axis : x y z
#
# Youngs Moduli (GPa) = 98.53244 131.07470 115.45803
#
# Poissons Ratio (x) = 0.43669 0.18655
# Poissons Ratio (y) = 0.32827 0.26904
# Poissons Ratio (z) = 0.15921 0.30544
#
# Static dielectric constant tensor:
#      x y z
#    x 2.025790 0.000000 0.044200 
#    y 0.000000 1.871890 0.000000 
#    z 0.044200 0.000000 1.980470 
# 
# From -- ./inp_files/5029.got.cif
#   From: 2010.05.17/outbox.cif.g08.bks.cpg/sg3_3_cif.got.tgz:5029.got - 2010.06.03 18:33:08.
