data_PCOD9114430
_publ_section_title
;
Structure prediction by ZEFSAII (Michael W. Deem and Ramdas Pophale) SiO2 
 PCOD9114430
Probable space group: P 2
;
_chemical_formula_sum "Si O2"
_cell_formula_units_Z 15
_cell_length_a 18.000000
_cell_length_b 9.000000
_cell_length_c 9.000000
_cell_angle_alpha 90.000000
_cell_angle_beta 150.000000
_cell_angle_gamma 90.000000
_cell_volume 729.000000
_symmetry_space_group_name_H-M "P 2"
_symmetry_group_IT_number 3
_symmetry_cell_setting 'monoclinic'
loop_
_space_group_symop_operation_xyz
x,y,z
-x,y,-z
loop_
_atom_site_type_symbol
_atom_site_label
_atom_site_fract_x
_atom_site_fract_y
_atom_site_fract_z
Si Si1 0.632317 0.228170 0.117815
Si Si2 0.787770 0.553397 0.820876
Si Si3 0.660067 0.744816 0.859231
Si Si4 0.094368 0.275772 0.806085
Si Si5 0.645872 0.074610 0.849339
Si Si6 0.463801 0.543592 0.108084
Si Si7 0.000000 0.770495 0.000000
Si Si8 0.077623 0.068328 0.282355
O O1 0.768525 0.153478 0.437033
O O2 0.500000 0.242665 0.000000
O O3 0.595510 0.112657 0.926459
O O4 0.639863 0.395961 0.067885
O O5 0.757835 0.641590 0.922623
O O6 0.625016 0.517589 0.467195
O O7 0.880437 0.663556 0.873296
O O8 0.875287 0.404495 0.020920
O O9 0.500000 0.753951 0.500000
O O10 0.623029 0.670450 0.952489
O O11 0.719535 0.912308 0.972630
O O12 0.000000 0.328508 0.500000
O O13 0.011556 0.132792 0.732792
O O14 0.248669 0.207534 0.018173
O O15 0.500000 0.073022 0.500000
O O16 0.500000 0.582199 0.000000
O O17 0.927229 0.889857 0.755811
O O18 0.000000 0.127512 0.000000
#
# Coordination Sequence:
#
# PCOD9114430 Si02
#       8
#     2   2   2   2   2   2   1   2
#     4  11  24  41  66 101 132 175 230 287 344 405
#     4  11  24  45  67 100 139 183 228 287 344 420
#     4   9  21  41  64  95 134 175 224 282 342 405
#     4  12  25  45  69 102 136 183 234 285 344 410
#     4  11  23  41  70  97 131 180 229 280 342 408
#     4  10  23  40  68 101 137 173 231 288 351 404
#     4  10  26  46  72  98 140 192 232 276 366 406
#     4  10  26  46  70  97 141 181 232 289 341 426
#
# _framework density 20.576132000000001
#
# number of rings (size 3 to 8) (size 9 to 14) (size 15 to 20)
#    0.400    1.067    1.333    2.400    6.533    4.800 
#    2.400    0.000    0.000    0.000    0.000    0.000 
#    0.000    0.000    0.000    0.000    0.000    0.000 
#
# Total GULP energy -83650.071799 kJ/mol
# GULP energy per Si atom -5576.671453 kJ/mol
# Density = 2.052930 g / cm^3
# Si number density = 20.576132 Si / 1000 Ang^3
#
#
#
# Elastic Constant Matrix: (Units=GPa)
#
#
# Indices 1 2 3 4 5 6 
#
# 1 72.0739 30.8662 11.4253 0.0000 -4.0861 0.0000
# 2 30.8662 125.6333 41.2080 0.0000 1.1354 0.0000
# 3 11.4253 41.2080 86.7358 0.0000 -12.6837 0.0000
# 4 0.0000 0.0000 0.0000 39.0882 0.0000 10.9681
# 5 -4.0861 1.1354 -12.6837 0.0000 31.7192 0.0000
# 6 0.0000 0.0000 0.0000 10.9681 0.0000 45.0862
#
#
#
# Elastic Compliance Matrix: (Units=1/GPa)
#
#
# Indices 1 2 3 4 5 6 
#
# 1 0.015653 -0.003903 0.000114 0.000000 0.002202 0.000000
# 2 -0.003903 0.010557 -0.004918 0.000000 -0.002847 0.000000
# 3 0.000114 -0.004918 0.014741 0.000000 0.006085 0.000000
# 4 0.000000 0.000000 0.000000 0.027457 0.000000 -0.006680
# 5 0.002202 -0.002847 0.006085 0.000000 0.034346 0.000000
# 6 0.000000 0.000000 0.000000 -0.006680 0.000000 0.023805
#
#
# Mechanical properties :
#
#
# Convention : Reuss Voigt Hill
#
# Bulk Modulus (GPa) = 42.48534 50.16022 46.32278
# Shear Modulus (GPa) = 32.93421 36.57496 34.75458
#
# Velocity S-wave (km/s) = 4.00509 4.22067 4.11429
# Velocity P-wave (km/s) = 6.48694 6.94138 6.71801
#
# Compressibility (1/GPa) = 0.02353753
#
# Stress axis : x y z
#
# Youngs Moduli (GPa) = 63.88607 94.71963 67.83987
#
# Poissons Ratio (x) = 0.36970 -0.00777
# Poissons Ratio (y) = 0.24935 0.33364
# Poissons Ratio (z) = -0.00731 0.46584
#
# Static dielectric constant tensor:
#      x y z
#    x 1.797340 0.000000 0.013950 
#    y 0.000000 1.767580 0.000000 
#    z 0.013950 0.000000 1.762630 
# 
# From -- ./inp_files/9169.got.cif
#   From: 2010.05.17/outbox.ucp.g08.bks.cvg/sg3_5_cif.got.tgz:9169.got - 2010.06.11 12:50:29.
