data_PCOD9114939
_publ_section_title
;
Structure prediction by ZEFSAII (Michael W. Deem and Ramdas Pophale) SiO2 
 PCOD9114939
Probable space group: P 21
;
_chemical_formula_sum "Si O2"
_cell_formula_units_Z 16
_cell_length_a 7.008208
_cell_length_b 9.269591
_cell_length_c 10.994672
_cell_angle_alpha 90.000000
_cell_angle_beta 61.280923
_cell_angle_gamma 90.000000
_cell_volume 626.386809
_symmetry_space_group_name_H-M "P 21"
_symmetry_group_IT_number 4
_symmetry_cell_setting 'monoclinic'
loop_
_space_group_symop_operation_xyz
x,y,z
-x,1/2+y,-z
loop_
_atom_site_type_symbol
_atom_site_label
_atom_site_fract_x
_atom_site_fract_y
_atom_site_fract_z
Si Si1 0.732337 0.198780 0.184815
Si Si2 0.753619 0.763343 0.140129
Si Si3 0.732919 0.496914 0.301410
Si Si4 0.179906 0.117895 0.104999
Si Si5 0.733462 0.301558 0.941202
Si Si6 0.524467 0.475366 0.607425
Si Si7 0.062517 0.700999 0.346428
Si Si8 0.982199 0.519320 0.590557
O O1 0.808181 0.350978 0.215271
O O2 0.945412 0.100065 0.108332
O O3 0.573291 0.130840 0.331544
O O4 0.619976 0.221188 0.088355
O O5 0.678841 0.606692 0.210944
O O6 0.616306 0.871097 0.265055
O O7 0.008846 0.788629 0.096467
O O8 0.727744 0.752597 0.000971
O O9 0.546405 0.459613 0.456495
O O10 0.913698 0.585085 0.321485
O O11 0.096665 0.113539 0.269680
O O12 0.315347 0.970832 0.050685
O O13 0.739584 0.234600 0.805321
O O14 0.765106 0.472046 0.586751
O O15 0.112077 0.624380 0.459821
O O16 0.939001 0.857431 0.396924
#
# Coordination Sequence:
#
# PCOD9114939 Si02
#       8
#     2   2   2   2   2   2   2   2
#     4  11  21  37  67  93 118 157 209 262 311 360
#     4  10  19  37  60  90 120 155 203 257 312 357
#     4  10  21  38  63  90 125 158 204 255 310 368
#     4  10  20  37  64  86 119 164 204 253 301 374
#     4   9  18  37  63  89 115 157 208 261 296 363
#     4  11  23  39  58  92 126 159 201 262 311 364
#     4   9  21  40  64  89 125 162 212 247 304 382
#     4  10  23  43  61  89 128 166 207 253 309 380
#
# _framework density 25.543320999999999
#
# number of rings (size 3 to 8) (size 9 to 14) (size 15 to 20)
#    0.000    2.000    2.500    0.750    3.500    0.000 
#    4.500    0.000    0.000    0.000    0.000    0.000 
#    0.000    0.000    0.000    0.000    0.000    0.000 
#
# Total GULP energy -89323.650242 kJ/mol
# GULP energy per Si atom -5582.728140 kJ/mol
# Density = 2.548518 g / cm^3
# Si number density = 25.543321 Si / 1000 Ang^3
#
#
#
# Elastic Constant Matrix: (Units=GPa)
#
#
# Indices 1 2 3 4 5 6 
#
# 1 37.5564 8.9988 8.6670 0.0000 5.3208 0.0000
# 2 8.9988 135.2377 58.4550 0.0000 8.5478 0.0000
# 3 8.6670 58.4550 150.4745 0.0000 34.9758 0.0000
# 4 0.0000 0.0000 0.0000 54.8952 0.0000 5.2066
# 5 5.3208 8.5478 34.9758 0.0000 38.7464 0.0000
# 6 0.0000 0.0000 0.0000 5.2066 0.0000 26.6992
#
#
#
# Elastic Compliance Matrix: (Units=1/GPa)
#
#
# Indices 1 2 3 4 5 6 
#
# 1 0.027504 -0.001521 -0.000245 0.000000 -0.003220 0.000000
# 2 -0.001521 0.009037 -0.003807 0.000000 0.001652 0.000000
# 3 -0.000245 -0.003807 0.010043 0.000000 -0.008192 0.000000
# 4 0.000000 0.000000 0.000000 0.018560 0.000000 -0.003619
# 5 -0.003220 0.001652 -0.008192 0.000000 0.033282 0.000000
# 6 0.000000 0.000000 0.000000 -0.003619 0.000000 0.038160
#
#
# Mechanical properties :
#
#
# Convention : Reuss Voigt Hill
#
# Bulk Modulus (GPa) = 28.21802 52.83447 40.52625
# Shear Modulus (GPa) = 31.33971 40.54467 35.94219
#
# Velocity S-wave (km/s) = 3.50655 3.98840 3.75521
# Velocity P-wave (km/s) = 5.24076 6.47603 5.89087
#
# Compressibility (1/GPa) = 0.03543835
#
# Stress axis : x y z
#
# Youngs Moduli (GPa) = 36.35866 110.66082 99.57504
#
# Poissons Ratio (x) = 0.16829 0.02438
# Poissons Ratio (y) = 0.05529 0.37906
# Poissons Ratio (z) = 0.00890 0.42126
#
# Static dielectric constant tensor:
#      x y z
#    x 2.119490 0.000000 0.015820 
#    y 0.000000 2.064080 0.000000 
#    z 0.015820 0.000000 2.057220 
# 
# From -- ./inp_files/7770.got.cif
#   From: 2010.05.17/outbox.cif.g08.bks.cpg/sg4_4_cif.got.tgz:7770.got - 2010.06.03 18:43:04.
