data_PCOD9114229
_publ_section_title
;
Structure prediction by ZEFSAII (Michael W. Deem and Ramdas Pophale) SiO2 
 PCOD9114229
Probable space group: P 2
;
_chemical_formula_sum "Si O2"
_cell_formula_units_Z 11
_cell_length_a 12.281363
_cell_length_b 7.011650
_cell_length_c 7.608168
_cell_angle_alpha 90.000000
_cell_angle_beta 44.060371
_cell_angle_gamma 90.000000
_cell_volume 455.608196
_symmetry_space_group_name_H-M "P 2"
_symmetry_group_IT_number 3
_symmetry_cell_setting 'monoclinic'
loop_
_space_group_symop_operation_xyz
x,y,z
-x,y,-z
loop_
_atom_site_type_symbol
_atom_site_label
_atom_site_fract_x
_atom_site_fract_y
_atom_site_fract_z
Si Si1 0.314938 0.995390 0.091794
Si Si2 0.635166 0.222989 0.650029
Si Si3 0.924402 0.478259 0.835501
Si Si4 0.180238 0.109957 0.881236
Si Si5 0.261698 0.565559 0.273035
Si Si6 0.000000 0.785258 0.000000
O O1 0.479901 0.094316 0.847091
O O2 0.223154 0.006034 0.014326
O O3 0.314013 0.780286 0.168169
O O4 0.256069 0.126751 0.322574
O O5 0.691272 0.217745 0.384779
O O6 0.627758 0.440363 0.729130
O O7 0.781999 0.472223 0.864051
O O8 0.089710 0.550976 0.564444
O O9 0.935196 0.273790 0.912488
O O10 0.896753 0.640941 0.008521
O O11 0.126965 0.946637 0.804266
#
# Coordination Sequence:
#
# PCOD9114229 Si02
#       6
#     2   2   2   2   2   1
#     4  11  25  47  73 105 150 202 256 306 376 461
#     4  11  25  45  76 103 149 201 250 313 372 446
#     4  11  24  42  74 106 149 195 243 319 380 452
#     4  12  24  46  73 111 151 195 260 311 382 450
#     4  11  23  47  70 108 149 195 251 308 385 446
#     4  12  22  40  68 106 146 190 244 314 374 444
#
# _framework density 24.143552
#
# number of rings (size 3 to 8) (size 9 to 14) (size 15 to 20)
#    0.000    0.727    3.636    4.364    0.000    2.909 
#    0.000    0.000    0.000    0.000    0.000    0.000 
#    0.000    0.000    0.000    0.000    0.000    0.000 
#
# Total GULP energy -61255.836502 kJ/mol
# GULP energy per Si atom -5568.712409 kJ/mol
# Density = 2.408860 g / cm^3
# Si number density = 24.143552 Si / 1000 Ang^3
#
#
#
# Elastic Constant Matrix: (Units=GPa)
#
#
# Indices 1 2 3 4 5 6 
#
# 1 52.8390 48.1296 -1.2007 0.0000 6.0997 0.0000
# 2 48.1296 211.4398 39.7697 0.0000 7.0254 0.0000
# 3 -1.2007 39.7697 84.0020 0.0000 8.3059 0.0000
# 4 0.0000 0.0000 0.0000 22.9686 0.0000 -3.8450
# 5 6.0997 7.0254 8.3059 0.0000 33.1868 0.0000
# 6 0.0000 0.0000 0.0000 -3.8450 0.0000 37.1363
#
#
#
# Elastic Compliance Matrix: (Units=1/GPa)
#
#
# Indices 1 2 3 4 5 6 
#
# 1 0.025256 -0.006317 0.003772 0.000000 -0.004249 0.000000
# 2 -0.006317 0.006780 -0.003356 0.000000 0.000566 0.000000
# 3 0.003772 -0.003356 0.013889 0.000000 -0.003459 0.000000
# 4 0.000000 0.000000 0.000000 0.044306 0.000000 0.004587
# 5 -0.004249 0.000566 -0.003459 0.000000 0.031659 0.000000
# 6 0.000000 0.000000 0.000000 0.004587 0.000000 0.027403
#
#
# Mechanical properties :
#
#
# Convention : Reuss Voigt Hill
#
# Bulk Modulus (GPa) = 29.30652 57.96423 43.63537
# Shear Modulus (GPa) = 28.99066 36.09718 32.54392
#
# Velocity S-wave (km/s) = 3.46896 3.87086 3.67541
# Velocity P-wave (km/s) = 5.31128 6.63614 6.01033
#
# Compressibility (1/GPa) = 0.03412210
#
# Stress axis : x y z
#
# Youngs Moduli (GPa) = 39.59499 147.49489 71.99787
#
# Poissons Ratio (x) = 0.93175 -0.27157
# Poissons Ratio (y) = 0.25013 0.24163
# Poissons Ratio (z) = -0.14935 0.49501
#
# Static dielectric constant tensor:
#      x y z
#    x 2.235340 0.000000 -0.003280 
#    y 0.000000 1.904460 0.000000 
#    z -0.003280 0.000000 2.028180 
# 
# From -- ./inp_files/8153.got.cif
#   From: 2010.05.17/outbox.cif.g08.bks.cpg/sg3_5_cif.got.tgz:8153.got - 2010.06.03 18:33:08.
