data_PCOD9114526
_publ_section_title
;
Structure prediction by ZEFSAII (Michael W. Deem and Ramdas Pophale) SiO2 
 PCOD9114526
Probable space group: P 21
;
_chemical_formula_sum "Si O2"
_cell_formula_units_Z 14
_cell_length_a 7.118017
_cell_length_b 10.417607
_cell_length_c 9.298824
_cell_angle_alpha 90.000000
_cell_angle_beta 88.059524
_cell_angle_gamma 90.000000
_cell_volume 689.137525
_symmetry_space_group_name_H-M "P 21"
_symmetry_group_IT_number 4
_symmetry_cell_setting 'monoclinic'
loop_
_space_group_symop_operation_xyz
x,y,z
-x,1/2+y,-z
loop_
_atom_site_type_symbol
_atom_site_label
_atom_site_fract_x
_atom_site_fract_y
_atom_site_fract_z
Si Si1 0.621523 0.916340 0.471073
Si Si2 0.402499 0.288072 0.806001
Si Si3 0.305029 0.588985 0.288297
Si Si4 0.293795 0.804153 0.667375
Si Si5 0.888761 0.719628 0.614029
Si Si6 0.135477 0.082227 0.662297
Si Si7 0.620630 0.813202 0.856746
O O1 0.611768 0.909801 0.300416
O O2 0.446607 0.833708 0.538544
O O3 0.809357 0.843637 0.526052
O O4 0.618269 0.050689 0.554500
O O5 0.164047 0.103443 0.490141
O O6 0.253797 0.186897 0.745238
O O7 0.368142 0.309816 0.973465
O O8 0.401114 0.714634 0.223310
O O9 0.358009 0.461306 0.195948
O O10 0.082849 0.601485 0.300831
O O11 0.421848 0.763413 0.798600
O O12 0.202428 0.942377 0.704877
O O13 0.112032 0.722391 0.630390
O O14 0.780493 0.732849 0.767557
#
# Coordination Sequence:
#
# PCOD9114526 Si02
#       7
#     2   2   2   2   2   2   2
#     4   9  19  35  59  86 108 144 195 243 269 339
#     4  11  22  39  59  86 118 157 188 230 299 345
#     4  10  20  40  59  85 115 151 196 236 286 337
#     4  10  17  38  61  78 117 149 184 243 284 323
#     4   9  19  35  59  86 108 145 195 235 282 334
#     4  11  19  36  66  79 109 155 191 242 283 332
#     4  10  22  39  57  86 125 151 183 239 289 350
#
# _framework density 20.315249999999999
#
# number of rings (size 3 to 8) (size 9 to 14) (size 15 to 20)
#    0.000    2.286    5.714    0.857    0.000    1.143 
#    2.571    1.429    0.000    0.000    0.000    0.000 
#    0.000    0.000    0.000    0.000    0.000    0.000 
#
# Total GULP energy -78121.334310 kJ/mol
# GULP energy per Si atom -5580.095308 kJ/mol
# Density = 2.026901 g / cm^3
# Si number density = 20.315250 Si / 1000 Ang^3
#
#
#
# Elastic Constant Matrix: (Units=GPa)
#
#
# Indices 1 2 3 4 5 6 
#
# 1 87.6673 -14.4435 38.2382 0.0000 4.6267 0.0000
# 2 -14.4435 23.5403 11.6537 0.0000 -3.8992 0.0000
# 3 38.2382 11.6537 168.6331 0.0000 -0.2450 0.0000
# 4 0.0000 0.0000 0.0000 18.3269 0.0000 -6.4351
# 5 4.6267 -3.8992 -0.2450 0.0000 18.3506 0.0000
# 6 0.0000 0.0000 0.0000 -6.4351 0.0000 17.1579
#
#
#
# Elastic Compliance Matrix: (Units=1/GPa)
#
#
# Indices 1 2 3 4 5 6 
#
# 1 0.015156 0.011132 -0.004208 0.000000 -0.001512 0.000000
# 2 0.011132 0.053810 -0.006230 0.000000 0.008544 0.000000
# 3 -0.004208 -0.006230 0.007315 0.000000 -0.000165 0.000000
# 4 0.000000 0.000000 0.000000 0.062840 0.000000 0.023568
# 5 -0.001512 0.008544 -0.000165 0.000000 0.056689 0.000000
# 6 0.000000 0.000000 0.000000 0.023568 0.000000 0.067122
#
#
# Mechanical properties :
#
#
# Convention : Reuss Voigt Hill
#
# Bulk Modulus (GPa) = 12.87538 38.97084 25.92311
# Shear Modulus (GPa) = 17.39534 27.05991 22.22762
#
# Velocity S-wave (km/s) = 2.92938 3.65362 3.31136
# Velocity P-wave (km/s) = 4.21821 6.08467 5.23529
#
# Compressibility (1/GPa) = 0.07766760
#
# Stress axis : x y z
#
# Youngs Moduli (GPa) = 65.97998 18.58386 136.71308
#
# Poissons Ratio (x) = -0.20688 0.57532
# Poissons Ratio (y) = -0.73449 0.85179
# Poissons Ratio (z) = 0.27766 0.11579
#
# Static dielectric constant tensor:
#      x y z
#    x 1.739240 0.000000 -0.000310 
#    y 0.000000 1.763830 0.000000 
#    z -0.000310 0.000000 1.722230 
# 
# From -- ./inp_files/5939.got.cif
#   From: 2010.05.17/outbox.cif.g08.bks.cpg/sg4_3_cif.got.tgz:5939.got - 2010.06.03 18:43:04.
