data_PCOD9114196
_publ_section_title
;
Structure prediction by ZEFSAII (Michael W. Deem and Ramdas Pophale) SiO2 
 PCOD9114196
Probable space group: P 2
;
_chemical_formula_sum "Si O2"
_cell_formula_units_Z 16
_cell_length_a 12.624662
_cell_length_b 10.779872
_cell_length_c 8.978561
_cell_angle_alpha 90.000000
_cell_angle_beta 39.862408
_cell_angle_gamma 90.000000
_cell_volume 783.180105
_symmetry_space_group_name_H-M "P 2"
_symmetry_group_IT_number 3
_symmetry_cell_setting 'monoclinic'
loop_
_space_group_symop_operation_xyz
x,y,z
-x,y,-z
loop_
_atom_site_type_symbol
_atom_site_label
_atom_site_fract_x
_atom_site_fract_y
_atom_site_fract_z
Si Si1 0.602306 0.966440 0.257936
Si Si2 0.714484 0.224837 0.121633
Si Si3 0.339526 0.297410 0.476697
Si Si4 0.414726 0.786083 0.249847
Si Si5 0.046318 0.886672 0.619810
Si Si6 0.353322 0.568334 0.545525
Si Si7 0.956343 0.173578 0.370807
Si Si8 0.845760 0.764263 0.071309
O O1 0.500000 0.029516 0.500000
O O2 0.507208 0.900854 0.228272
O O3 0.694988 0.858151 0.246937
O O4 0.709446 0.078841 0.084655
O O5 0.539638 0.277889 0.245950
O O6 0.709436 0.251074 0.303861
O O7 0.897254 0.255620 0.863539
O O8 0.301910 0.444032 0.518049
O O9 0.222514 0.228850 0.483749
O O10 0.224965 0.825331 0.441040
O O11 0.418947 0.669792 0.357475
O O12 0.500000 0.759721 0.000000
O O13 0.000000 0.899694 0.500000
O O14 0.049682 0.028378 0.676375
O O15 0.912644 0.791631 0.834915
O O16 0.500000 0.534311 0.500000
O O17 0.213128 0.634394 0.798335
O O18 0.000000 0.175657 0.500000
O O19 0.000000 0.809583 0.000000
#
# Coordination Sequence:
#
# PCOD9114196 Si02
#       8
#     2   2   2   2   2   2   2   2
#     4  12  20  38  66  98 132 164 219 274 338 401
#     4  11  23  41  71 102 128 179 224 285 339 395
#     4  11  25  47  69  99 131 175 243 278 330 396
#     4  12  25  42  66  96 134 183 218 269 344 409
#     4  11  24  42  64 103 139 167 211 276 346 411
#     4  12  24  47  68  94 130 179 228 280 326 388
#     4  11  26  45  68 101 143 176 217 280 348 411
#     4  12  22  37  67  98 131 169 214 272 333 394
#
# _framework density 20.429527
#
# number of rings (size 3 to 8) (size 9 to 14) (size 15 to 20)
#    0.000    0.500    7.500    1.875    3.500    1.500 
#    2.250    0.625    0.000    0.000    0.000    0.000 
#    0.000    0.000    0.000    0.000    0.000    0.000 
#
# Total GULP energy -89230.570793 kJ/mol
# GULP energy per Si atom -5576.910675 kJ/mol
# Density = 2.038303 g / cm^3
# Si number density = 20.429527 Si / 1000 Ang^3
#
#
#
# Elastic Constant Matrix: (Units=GPa)
#
#
# Indices 1 2 3 4 5 6 
#
# 1 63.1861 2.2528 2.0960 0.0000 -1.9860 0.0000
# 2 2.2528 89.5338 11.9261 0.0000 6.1391 0.0000
# 3 2.0960 11.9261 87.0020 0.0000 0.7203 0.0000
# 4 0.0000 0.0000 0.0000 -2.7533 0.0000 11.1707
# 5 -1.9860 6.1391 0.7203 0.0000 24.4244 0.0000
# 6 0.0000 0.0000 0.0000 11.1707 0.0000 17.7586
#
#
#
# Elastic Compliance Matrix: (Units=1/GPa)
#
#
# Indices 1 2 3 4 5 6 
#
# 1 0.015898 -0.000453 -0.000333 0.000000 0.001416 0.000000
# 2 -0.000453 0.011586 -0.001553 0.000000 -0.002903 0.000000
# 3 -0.000333 -0.001553 0.011715 0.000000 0.000018 0.000000
# 4 0.000000 0.000000 0.000000 -0.102250 0.000000 0.064318
# 5 0.001416 -0.002903 0.000018 0.000000 0.041787 0.000000
# 6 0.000000 0.000000 0.000000 0.064318 0.000000 0.015853
#
#
# Mechanical properties :
#
#
# Convention : Reuss Voigt Hill
#
# Bulk Modulus (GPa) = 28.96744 30.25242 29.60993
# Shear Modulus (GPa) = 464.10115 22.78241 243.44178
#
# Velocity S-wave (km/s) = 15.08857 3.34304 10.92797
# Velocity P-wave (km/s) = 17.82591 5.45358 13.18152
#
# Compressibility (1/GPa) = 0.03452152
#
# Stress axis : x y z
#
# Youngs Moduli (GPa) = 62.90113 86.30858 85.36229
#
# Poissons Ratio (x) = 0.03908 0.02840
# Poissons Ratio (y) = 0.02848 0.13259
# Poissons Ratio (z) = 0.02093 0.13406
#
# Static dielectric constant tensor:
#      x y z
#    x 1.718540 0.000000 -0.010880 
#    y 0.000000 1.711460 0.000000 
#    z -0.010880 0.000000 1.855440 
# 
# From -- ./inp_files/7718.got.cif
#   From: 2010.05.17/outbox.cif.g08.bks.cpg/sg3_4_cif.got.tgz:7718.got - 2010.06.03 18:33:08.
