data_PCOD9114581
_publ_section_title
;
Structure prediction by ZEFSAII (Michael W. Deem and Ramdas Pophale) SiO2 
 PCOD9114581
Probable space group: P 21
;
_chemical_formula_sum "Si O2"
_cell_formula_units_Z 10
_cell_length_a 12.674930
_cell_length_b 5.251535
_cell_length_c 9.320540
_cell_angle_alpha 90.000000
_cell_angle_beta 38.619992
_cell_angle_gamma 90.000000
_cell_volume 387.225055
_symmetry_space_group_name_H-M "P 21"
_symmetry_group_IT_number 4
_symmetry_cell_setting 'monoclinic'
loop_
_space_group_symop_operation_xyz
x,y,z
-x,1/2+y,-z
loop_
_atom_site_type_symbol
_atom_site_label
_atom_site_fract_x
_atom_site_fract_y
_atom_site_fract_z
Si Si1 0.607317 0.078460 0.871839
Si Si2 0.853437 0.144961 0.027461
Si Si3 0.286145 0.494915 0.559117
Si Si4 0.054637 0.628116 0.360877
Si Si5 0.349171 0.151458 0.722831
O O1 0.704735 0.038441 0.617668
O O2 0.744707 0.169396 0.839924
O O3 0.474836 0.308821 0.000166
O O4 0.874616 0.098501 0.177517
O O5 0.750714 0.404268 0.125160
O O6 0.739276 0.897458 0.114735
O O7 0.994524 0.147633 0.754492
O O8 0.322086 0.211240 0.582080
O O9 0.455658 0.633119 0.442226
O O10 0.022002 0.351272 0.461346
#
# Coordination Sequence:
#
# PCOD9114581 Si02
#       5
#     2   2   2   2   2
#     4  12  27  43  71 109 139 172 233 294 337 393
#     4  10  20  36  62  87 123 179 219 261 324 412
#     4  10  21  35  63  96 131 169 220 281 326 404
#     4  12  26  48  67  98 143 191 222 274 358 419
#     4  10  18  32  61  94 128 161 218 268 347 374
#
# _framework density 25.824776
#
# number of rings (size 3 to 8) (size 9 to 14) (size 15 to 20)
#    1.200    0.000    2.000    4.800    2.800    0.000 
#    0.000    2.000    0.000    0.000    0.000    0.000 
#    0.000    0.000    0.000    0.000    0.000    0.000 
#
# Total GULP energy -55901.734306 kJ/mol
# GULP energy per Si atom -5590.173431 kJ/mol
# Density = 2.576600 g / cm^3
# Si number density = 25.824776 Si / 1000 Ang^3
#
#
#
# Elastic Constant Matrix: (Units=GPa)
#
#
# Indices 1 2 3 4 5 6 
#
# 1 90.1706 17.0186 35.6594 0.0000 16.5606 0.0000
# 2 17.0186 114.2055 6.9195 0.0000 -5.0200 0.0000
# 3 35.6594 6.9195 118.4925 0.0000 34.4987 0.0000
# 4 0.0000 0.0000 0.0000 51.7635 0.0000 -0.2298
# 5 16.5606 -5.0200 34.4987 0.0000 43.8274 0.0000
# 6 0.0000 0.0000 0.0000 -0.2298 0.0000 20.8803
#
#
#
# Elastic Compliance Matrix: (Units=1/GPa)
#
#
# Indices 1 2 3 4 5 6 
#
# 1 0.013164 -0.001901 -0.003034 0.000000 -0.002803 0.000000
# 2 -0.001901 0.009176 -0.000621 0.000000 0.002258 0.000000
# 3 -0.003034 -0.000621 0.011774 0.000000 -0.008193 0.000000
# 4 0.000000 0.000000 0.000000 0.019320 0.000000 0.000213
# 5 -0.002803 0.002258 -0.008193 0.000000 0.030583 0.000000
# 6 0.000000 0.000000 0.000000 0.000213 0.000000 0.047894
#
#
# Mechanical properties :
#
#
# Convention : Reuss Voigt Hill
#
# Bulk Modulus (GPa) = 43.47675 49.11817 46.29746
# Shear Modulus (GPa) = 33.18036 40.84566 37.01301
#
# Velocity S-wave (km/s) = 3.58834 3.98131 3.78992
# Velocity P-wave (km/s) = 5.83438 6.33999 6.09243
#
# Compressibility (1/GPa) = 0.02300080
#
# Stress axis : x y z
#
# Youngs Moduli (GPa) = 75.96642 108.97595 84.93272
#
# Poissons Ratio (x) = 0.20716 0.25771
# Poissons Ratio (y) = 0.14441 0.05277
# Poissons Ratio (z) = 0.23051 0.06771
#
# Static dielectric constant tensor:
#      x y z
#    x 2.057800 0.000000 0.045920 
#    y 0.000000 1.979730 0.000000 
#    z 0.045920 0.000000 2.121330 
# 
# From -- ./inp_files/7254.got.cif
#   From: 2010.05.17/outbox.cif.g08.bks.cpg/sg4_4_cif.got.tgz:7254.got - 2010.06.03 18:43:04.
