data_PCOD9114661
_publ_section_title
;
Structure prediction by ZEFSAII (Michael W. Deem and Ramdas Pophale) SiO2 
 PCOD9114661
Probable space group: P 21
;
_chemical_formula_sum "Si O2"
_cell_formula_units_Z 14
_cell_length_a 9.487381
_cell_length_b 11.610075
_cell_length_c 12.385400
_cell_angle_alpha 90.000000
_cell_angle_beta 23.599144
_cell_angle_gamma 90.000000
_cell_volume 546.154273
_symmetry_space_group_name_H-M "P 21"
_symmetry_group_IT_number 4
_symmetry_cell_setting 'monoclinic'
loop_
_space_group_symop_operation_xyz
x,y,z
-x,1/2+y,-z
loop_
_atom_site_type_symbol
_atom_site_label
_atom_site_fract_x
_atom_site_fract_y
_atom_site_fract_z
Si Si1 0.186403 0.514310 0.102221
Si Si2 0.752925 0.694175 0.714720
Si Si3 0.455137 0.080695 0.335548
Si Si4 0.944065 0.295222 0.062600
Si Si5 0.528757 0.423063 0.066355
Si Si6 0.728509 0.916138 0.374926
Si Si7 0.888802 0.639133 0.863227
O O1 0.388871 0.434921 0.043806
O O2 0.777191 0.520607 0.411313
O O3 0.303739 0.490781 0.898497
O O4 0.358269 0.640162 0.003778
O O5 0.837729 0.621150 0.548329
O O6 0.720607 0.827468 0.707844
O O7 0.922435 0.675004 0.713477
O O8 0.709483 0.186110 0.183845
O O9 0.822234 0.846346 0.199059
O O10 0.633904 0.380663 0.317285
O O11 0.133378 0.241278 0.035599
O O12 0.563940 0.548037 0.097518
O O13 0.934173 0.383428 0.786251
O O14 0.791231 0.054314 0.327910
#
# Coordination Sequence:
#
# PCOD9114661 Si02
#       7
#     2   2   2   2   2   2   2
#     4   9  20  35  60  92 121 158 212 262 315 375
#     4   9  18  41  62  92 124 163 212 268 319 374
#     4  10  18  37  59  87 122 162 204 261 315 373
#     4  12  22  43  67  94 130 180 214 267 322 396
#     4   9  18  43  63  96 125 175 207 277 325 383
#     4  10  23  42  68  90 133 177 214 258 339 379
#     4   9  23  43  63 103 131 171 221 275 313 402
#
# _framework density 25.633783000000001
#
# number of rings (size 3 to 8) (size 9 to 14) (size 15 to 20)
#    1.714    0.571    1.429    1.714    0.000    3.429 
#   12.857    0.000    0.000    0.000    0.000    0.000 
#    0.000    0.000    0.000    0.000    0.000    0.000 
#
# Total GULP energy -78070.201975 kJ/mol
# GULP energy per Si atom -5576.442998 kJ/mol
# Density = 2.557544 g / cm^3
# Si number density = 25.633783 Si / 1000 Ang^3
#
#
#
# Elastic Constant Matrix: (Units=GPa)
#
#
# Indices 1 2 3 4 5 6 
#
# 1 112.3015 15.3567 21.7388 0.0000 -16.8930 0.0000
# 2 15.3567 67.3526 -11.8812 0.0000 -10.5917 0.0000
# 3 21.7388 -11.8812 76.6473 0.0000 5.9541 0.0000
# 4 0.0000 0.0000 0.0000 10.8170 0.0000 -1.4568
# 5 -16.8930 -10.5917 5.9541 0.0000 37.4116 0.0000
# 6 0.0000 0.0000 0.0000 -1.4568 0.0000 58.6882
#
#
#
# Elastic Compliance Matrix: (Units=1/GPa)
#
#
# Indices 1 2 3 4 5 6 
#
# 1 0.010668 -0.002348 -0.003759 0.000000 0.004750 0.000000
# 2 -0.002348 0.016395 0.002966 0.000000 0.003109 0.000000
# 3 -0.003759 0.002966 0.014822 0.000000 -0.003217 0.000000
# 4 0.000000 0.000000 0.000000 0.092757 0.000000 0.002303
# 5 0.004750 0.003109 -0.003217 0.000000 0.030267 0.000000
# 6 0.000000 0.000000 0.000000 0.002303 0.000000 0.017096
#
#
# Mechanical properties :
#
#
# Convention : Reuss Voigt Hill
#
# Bulk Modulus (GPa) = 28.08762 34.08110 31.08436
# Shear Modulus (GPa) = 24.98058 36.78918 30.88488
#
# Velocity S-wave (km/s) = 3.12511 3.79249 3.47486
# Velocity P-wave (km/s) = 4.89927 5.70101 5.31528
#
# Compressibility (1/GPa) = 0.03560288
#
# Stress axis : x y z
#
# Youngs Moduli (GPa) = 93.73932 60.99498 67.46539
#
# Poissons Ratio (x) = 0.14324 0.25358
# Poissons Ratio (y) = 0.22013 -0.20010
# Poissons Ratio (z) = 0.35233 -0.18090
#
# Static dielectric constant tensor:
#      x y z
#    x 2.143650 0.000000 0.004170 
#    y 0.000000 2.065260 0.000000 
#    z 0.004170 0.000000 1.986080 
# 
# From -- ./inp_files/4538.got.cif
#   From: 2010.05.17/outbox.cif.g08.bks.cpg/sg4_3_cif.got.tgz:4538.got - 2010.06.03 18:43:04.
