data_PCOD9114402
_publ_section_title
;
Structure prediction by ZEFSAII (Michael W. Deem and Ramdas Pophale) SiO2 
 PCOD9114402
Probable space group: P 2
;
_chemical_formula_sum "Si O2"
_cell_formula_units_Z 7
_cell_length_a 5.471516
_cell_length_b 10.601592
_cell_length_c 5.279373
_cell_angle_alpha 90.000000
_cell_angle_beta 83.364257
_cell_angle_gamma 90.000000
_cell_volume 304.187892
_symmetry_space_group_name_H-M "P 2"
_symmetry_group_IT_number 3
_symmetry_cell_setting 'monoclinic'
loop_
_space_group_symop_operation_xyz
x,y,z
-x,y,-z
loop_
_atom_site_type_symbol
_atom_site_label
_atom_site_fract_x
_atom_site_fract_y
_atom_site_fract_z
Si Si1 0.648696 0.645100 0.237564
Si Si2 0.150455 0.374774 0.725992
Si Si3 0.500000 0.155249 0.500000
Si Si4 0.000000 0.824447 0.000000
Si Si5 0.500000 0.986972 0.000000
O O1 0.500000 0.683979 0.500000
O O2 0.681491 0.494526 0.230176
O O3 0.903281 0.722222 0.215806
O O4 0.500000 0.676112 0.000000
O O5 0.284560 0.250377 0.610011
O O6 0.000000 0.420654 0.500000
O O7 0.000000 0.346985 0.000000
O O8 0.538751 0.069973 0.742418
O O9 0.757758 0.909887 0.990517
#
# Coordination Sequence:
#
# PCOD9114402 Si02
#       5
#     2   2   1   1   1
#     4  12  27  48  79 119 158 198 259 331 399 456
#     4  12  26  46  79 117 155 195 257 331 397 456
#     4  12  30  52  74 112 158 208 268 312 390 466
#     4  12  30  56  78 118 158 210 268 314 390 468
#     4  12  32  52  82 108 166 218 256 316 376 478
#
# _framework density 23.012091999999999
#
# number of rings (size 3 to 8) (size 9 to 14) (size 15 to 20)
#    0.000    0.000    4.286    3.429   10.000    2.286 
#    0.000    0.000    0.000    0.000    0.000    0.000 
#    0.000    0.000    0.000    0.000    0.000    0.000 
#
# Total GULP energy -39126.464378 kJ/mol
# GULP energy per Si atom -5589.494911 kJ/mol
# Density = 2.295972 g / cm^3
# Si number density = 23.012092 Si / 1000 Ang^3
#
#
#
# Elastic Constant Matrix: (Units=GPa)
#
#
# Indices 1 2 3 4 5 6 
#
# 1 118.2692 59.0060 70.7371 0.0000 -18.8325 0.0000
# 2 59.0060 136.8040 56.5318 0.0000 -6.7442 0.0000
# 3 70.7371 56.5318 224.6114 0.0000 -23.9901 0.0000
# 4 0.0000 0.0000 0.0000 635.4636 0.0000 50.8471
# 5 -18.8325 -6.7442 -23.9901 0.0000 57.6386 0.0000
# 6 0.0000 0.0000 0.0000 50.8471 0.0000 22.0999
#
#
#
# Elastic Compliance Matrix: (Units=1/GPa)
#
#
# Indices 1 2 3 4 5 6 
#
# 1 0.012511 -0.004191 -0.002617 0.000000 0.002508 0.000000
# 2 -0.004191 0.009563 -0.001166 0.000000 -0.000736 0.000000
# 3 -0.002617 -0.001166 0.005718 0.000000 0.001388 0.000000
# 4 0.000000 0.000000 0.000000 0.001929 0.000000 -0.004438
# 5 0.002508 -0.000736 0.001388 0.000000 0.018661 0.000000
# 6 0.000000 0.000000 0.000000 -0.004438 0.000000 0.055459
#
#
# Mechanical properties :
#
#
# Convention : Reuss Voigt Hill
#
# Bulk Modulus (GPa) = 84.43080 94.69272 89.56176
# Shear Modulus (GPa) = 40.40855 162.60107 101.50481
#
# Velocity S-wave (km/s) = 4.19498 8.41501 6.64869
# Velocity P-wave (km/s) = 7.76100 11.64710 9.89667
#
# Compressibility (1/GPa) = 0.01184402
#
# Stress axis : x y z
#
# Youngs Moduli (GPa) = 79.92914 104.57254 174.88395
#
# Poissons Ratio (x) = 0.43826 0.45775
# Poissons Ratio (y) = 0.33498 0.20383
# Poissons Ratio (z) = 0.20921 0.12188
#
# Static dielectric constant tensor:
#      x y z
#    x 1.785010 0.000000 0.045370 
#    y 0.000000 1.869740 0.000000 
#    z 0.045370 0.000000 1.801310 
# 
# From -- ./inp_files/83.got.cif
#   From: 2010.05.17/outbox.cif.g08.bks.cpg/sg3_1_cif.got.tgz:83.got - 2010.06.03 18:33:08.
