data_PCOD9114212
_publ_section_title
;
Structure prediction by ZEFSAII (Michael W. Deem and Ramdas Pophale) SiO2 
 PCOD9114212
Probable space group: P 2
;
_chemical_formula_sum "Si O2"
_cell_formula_units_Z 16
_cell_length_a 28.831749
_cell_length_b 4.950606
_cell_length_c 9.170064
_cell_angle_alpha 90.000000
_cell_angle_beta 150.436217
_cell_angle_gamma 90.000000
_cell_volume 645.793931
_symmetry_space_group_name_H-M "P 2"
_symmetry_group_IT_number 3
_symmetry_cell_setting 'monoclinic'
loop_
_space_group_symop_operation_xyz
x,y,z
-x,y,-z
loop_
_atom_site_type_symbol
_atom_site_label
_atom_site_fract_x
_atom_site_fract_y
_atom_site_fract_z
Si Si1 0.485363 0.137170 0.787007
Si Si2 0.021535 0.684756 0.704925
Si Si3 0.551966 0.610244 0.792950
Si Si4 0.178092 0.887219 0.787642
Si Si5 0.928446 0.341422 0.912565
Si Si6 0.274765 0.365257 0.191448
Si Si7 0.809671 0.009147 0.783207
Si Si8 0.234897 0.716693 0.629926
O O1 0.555410 0.363154 0.916054
O O2 0.384584 0.283784 0.484306
O O3 0.503245 0.865489 0.741974
O O4 0.500000 0.085393 0.000000
O O5 0.929494 0.875663 0.451771
O O6 0.000000 0.509302 0.500000
O O7 0.014799 0.573350 0.850069
O O8 0.131958 0.760098 0.990317
O O9 0.500000 0.540847 0.500000
O O10 0.658426 0.664079 0.038596
O O11 0.186515 0.844041 0.638243
O O12 0.246184 0.669078 0.061622
O O13 0.217630 0.182508 0.923329
O O14 0.900040 0.156025 0.966370
O O15 0.831734 0.461803 0.587410
O O16 0.000000 0.204886 0.000000
O O17 0.243803 0.220698 0.260947
O O18 0.757939 0.891764 0.500010
#
# Coordination Sequence:
#
# PCOD9114212 Si02
#       8
#     2   2   2   2   2   2   2   2
#     4  12  27  49  78 108 147 190 246 310 372 443
#     4  11  23  44  64 103 139 191 235 293 345 428
#     4  12  27  50  77 111 147 193 247 305 375 442
#     4  12  27  46  74 107 146 192 243 296 361 429
#     4  11  25  43  68 103 145 188 242 292 356 429
#     4  12  27  49  73 107 145 190 244 302 366 433
#     4  11  27  42  72 102 149 192 244 295 362 432
#     4  11  27  45  73 104 148 191 242 301 365 434
#
# _framework density 24.775704000000001
#
# number of rings (size 3 to 8) (size 9 to 14) (size 15 to 20)
#    0.000    0.500    2.500    4.500   10.500    0.500 
#    0.000    0.000    0.000    0.000    0.000    0.000 
#    0.000    0.000    0.000    0.000    0.000    0.000 
#
# Total GULP energy -89320.794981 kJ/mol
# GULP energy per Si atom -5582.549686 kJ/mol
# Density = 2.471931 g / cm^3
# Si number density = 24.775704 Si / 1000 Ang^3
#
#
#
# Elastic Constant Matrix: (Units=GPa)
#
#
# Indices 1 2 3 4 5 6 
#
# 1 83.7448 13.9042 12.6291 0.0000 -12.8091 0.0000
# 2 13.9042 47.8015 -26.8655 0.0000 3.6302 0.0000
# 3 12.6291 -26.8655 96.9710 0.0000 -1.2693 0.0000
# 4 0.0000 0.0000 0.0000 7.1622 0.0000 -20.4447
# 5 -12.8091 3.6302 -1.2693 0.0000 40.3059 0.0000
# 6 0.0000 0.0000 0.0000 -20.4447 0.0000 -11.9729
#
#
#
# Elastic Compliance Matrix: (Units=1/GPa)
#
#
# Indices 1 2 3 4 5 6 
#
# 1 0.014356 -0.006600 -0.003632 0.000000 0.005042 0.000000
# 2 -0.006600 0.027977 0.008554 0.000000 -0.004348 0.000000
# 3 -0.003632 0.008554 0.013135 0.000000 -0.001511 0.000000
# 4 0.000000 0.000000 0.000000 0.023768 0.000000 -0.040586
# 5 0.005042 -0.004348 -0.001511 0.000000 0.026757 0.000000
# 6 0.000000 0.000000 0.000000 -0.040586 0.000000 -0.014218
#
#
# Mechanical properties :
#
#
# Convention : Reuss Voigt Hill
#
# Bulk Modulus (GPa) = 19.18969 25.31698 22.25333
# Shear Modulus (GPa) = 44.44337 22.35566 33.39952
#
# Velocity S-wave (km/s) = 4.23996 3.00713 3.67560
# Velocity P-wave (km/s) = 5.63310 4.72205 5.19757
#
# Compressibility (1/GPa) = 0.05211132
#
# Stress axis : x y z
#
# Youngs Moduli (GPa) = 69.65813 35.74342 76.13022
#
# Poissons Ratio (x) = 0.23591 0.27652
# Poissons Ratio (y) = 0.45975 -0.65119
# Poissons Ratio (z) = 0.25301 -0.30574
#
# Static dielectric constant tensor:
#      x y z
#    x 2.026930 0.000000 -0.081090 
#    y 0.000000 2.302340 0.000000 
#    z -0.081090 0.000000 2.022890 
# 
# From -- ./inp_files/9624.got.cif
#   From: 2010.05.17/outbox.cif.g08.bks.cpg/sg3_5_cif.got.tgz:9624.got - 2010.06.03 18:33:08.
