data_PCOD9114501
_publ_section_title
;
Structure prediction by ZEFSAII (Michael W. Deem and Ramdas Pophale) SiO2 
 PCOD9114501
Probable space group: P 21
;
_chemical_formula_sum "Si O2"
_cell_formula_units_Z 14
_cell_length_a 14.566093
_cell_length_b 5.734423
_cell_length_c 11.290474
_cell_angle_alpha 90.000000
_cell_angle_beta 141.727852
_cell_angle_gamma 90.000000
_cell_volume 584.136585
_symmetry_space_group_name_H-M "P 21"
_symmetry_group_IT_number 4
_symmetry_cell_setting 'monoclinic'
loop_
_space_group_symop_operation_xyz
x,y,z
-x,1/2+y,-z
loop_
_atom_site_type_symbol
_atom_site_label
_atom_site_fract_x
_atom_site_fract_y
_atom_site_fract_z
Si Si1 0.639447 0.067170 0.903075
Si Si2 0.937354 0.196514 0.884874
Si Si3 0.686765 0.445774 0.134886
Si Si4 0.592616 0.197770 0.250282
Si Si5 0.401230 0.381923 0.532384
Si Si6 0.147950 0.192937 0.906047
Si Si7 0.318369 0.983155 0.300279
O O1 0.540405 0.244983 0.732107
O O2 0.526491 0.855066 0.802421
O O3 0.790443 0.953547 0.012896
O O4 0.684279 0.198597 0.067079
O O5 0.764531 0.253485 0.734706
O O6 0.010926 0.445440 0.007088
O O7 0.984520 0.181300 0.794330
O O8 0.698596 0.371341 0.283990
O O9 0.521780 0.555359 0.950978
O O10 0.803674 0.601066 0.176027
O O11 0.657600 0.027681 0.415232
O O12 0.290555 0.194707 0.364725
O O13 0.503982 0.497611 0.535021
O O14 0.240633 0.046439 0.097317
#
# Coordination Sequence:
#
# PCOD9114501 Si02
#       7
#     2   2   2   2   2   2   2
#     4  10  17  32  52  79 123 152 211 257 321 386
#     4  10  23  40  61  87 128 173 227 264 310 384
#     4  10  18  30  55  81 123 165 209 277 323 376
#     4  10  19  31  50  86 122 168 206 264 331 391
#     4  11  22  33  52  85 129 170 205 248 331 408
#     4  10  20  35  56  84 119 169 215 267 315 378
#     4  11  21  37  56  86 130 179 207 259 325 399
#
# _framework density 23.966996999999999
#
# number of rings (size 3 to 8) (size 9 to 14) (size 15 to 20)
#    0.000    1.714    5.714    1.714    2.000    1.143 
#    0.000    0.000    0.000    0.000    0.000    0.000 
#    8.571   28.286    0.000    0.000    0.000    0.000 
#
# Total GULP energy -77964.008135 kJ/mol
# GULP energy per Si atom -5568.857724 kJ/mol
# Density = 2.391245 g / cm^3
# Si number density = 23.966997 Si / 1000 Ang^3
#
#
#
# Elastic Constant Matrix: (Units=GPa)
#
#
# Indices 1 2 3 4 5 6 
#
# 1 143.8128 32.1447 31.4067 0.0000 6.5648 0.0000
# 2 32.1447 80.9291 24.2932 0.0000 0.3078 0.0000
# 3 31.4067 24.2932 39.0486 0.0000 5.5669 0.0000
# 4 0.0000 0.0000 0.0000 41.6543 0.0000 -12.6609
# 5 6.5648 0.3078 5.5669 0.0000 35.9074 0.0000
# 6 0.0000 0.0000 0.0000 -12.6609 0.0000 55.0106
#
#
#
# Elastic Compliance Matrix: (Units=1/GPa)
#
#
# Indices 1 2 3 4 5 6 
#
# 1 0.008626 -0.001684 -0.005795 0.000000 -0.000664 0.000000
# 2 -0.001684 0.015588 -0.008558 0.000000 0.001501 0.000000
# 3 -0.005795 -0.008558 0.036234 0.000000 -0.004485 0.000000
# 4 0.000000 0.000000 0.000000 0.025813 0.000000 0.005941
# 5 -0.000664 0.001501 -0.004485 0.000000 0.028653 0.000000
# 6 0.000000 0.000000 0.000000 0.005941 0.000000 0.019546
#
#
# Mechanical properties :
#
#
# Convention : Reuss Voigt Hill
#
# Bulk Modulus (GPa) = 35.24359 48.83110 42.03735
# Shear Modulus (GPa) = 28.41045 38.24419 33.32732
#
# Velocity S-wave (km/s) = 3.44670 3.99896 3.73305
# Velocity P-wave (km/s) = 5.52961 6.46071 6.01321
#
# Compressibility (1/GPa) = 0.02837395
#
# Stress axis : x y z
#
# Youngs Moduli (GPa) = 115.93079 64.15005 27.59868
#
# Poissons Ratio (x) = 0.10803 0.15995
# Poissons Ratio (y) = 0.19522 0.23618
# Poissons Ratio (z) = 0.67187 0.54897
#
# Static dielectric constant tensor:
#      x y z
#    x 2.076030 0.000000 -0.028870 
#    y 0.000000 2.294280 0.000000 
#    z -0.028870 0.000000 1.909320 
# 
# From -- ./inp_files/12373.got.cif
#   From: 2010.05.17/outbox.cif.g08.bks.cpg/sg4_7_cif.got.tgz:12373.got - 2010.06.03 18:43:04.
