data_PCOD9114240
_publ_section_title
;
Structure prediction by ZEFSAII (Michael W. Deem and Ramdas Pophale) SiO2 
 PCOD9114240
Probable space group: P 2
;
_chemical_formula_sum "Si O2"
_cell_formula_units_Z 11
_cell_length_a 15.142897
_cell_length_b 5.004310
_cell_length_c 4.868546
_cell_angle_alpha 90.000000
_cell_angle_beta 107.812531
_cell_angle_gamma 90.000000
_cell_volume 351.251280
_symmetry_space_group_name_H-M "P 2"
_symmetry_group_IT_number 3
_symmetry_cell_setting 'monoclinic'
loop_
_space_group_symop_operation_xyz
x,y,z
-x,y,-z
loop_
_atom_site_type_symbol
_atom_site_label
_atom_site_fract_x
_atom_site_fract_y
_atom_site_fract_z
Si Si1 0.147639 0.084080 0.422823
Si Si2 0.000000 0.866661 0.000000
Si Si3 0.348654 0.985108 0.706994
Si Si4 0.500000 0.275594 0.500000
Si Si5 0.859202 0.627870 0.146379
Si Si6 0.000000 0.352533 0.500000
Si Si7 0.338349 0.632685 0.212169
O O1 0.258066 0.144117 0.509189
O O2 0.023169 0.110003 0.269657
O O3 0.154975 0.848148 0.644453
O O4 0.122045 0.876028 0.112090
O O5 0.023930 0.604495 0.780497
O O6 0.439662 0.112888 0.662507
O O7 0.341396 0.709359 0.532491
O O8 0.347472 0.894402 0.022993
O O9 0.426970 0.450527 0.256244
O O10 0.882150 0.356696 0.395647
O O11 0.763544 0.516870 0.943109
#
# Coordination Sequence:
#
# PCOD9114240 Si02
#       7
#     2   1   2   1   2   1   2
#     4  11  24  43  67 105 152 193 243 305 379 458
#     4  12  18  42  72  96 142 192 234 298 366 458
#     4  11  28  52  81 112 158 206 259 333 396 462
#     4  12  30  54  84 118 152 210 282 330 400 474
#     4  11  24  43  67 105 152 193 243 305 379 458
#     4  12  22  42  68 108 146 196 242 302 368 470
#     4  11  28  52  81 112 158 206 259 333 396 462
#
# _framework density 31.316611000000002
#
# number of rings (size 3 to 8) (size 9 to 14) (size 15 to 20)
#    0.000    0.727    5.455    0.545    0.000   15.273 
#    0.000    0.000    0.000    0.000    0.000    0.000 
#    0.000    0.000    0.000    0.000    0.000    0.000 
#
# Total GULP energy -61562.112113 kJ/mol
# GULP energy per Si atom -5596.555647 kJ/mol
# Density = 3.124533 g / cm^3
# Si number density = 31.316611 Si / 1000 Ang^3
#
#
#
# Elastic Constant Matrix: (Units=GPa)
#
#
# Indices 1 2 3 4 5 6 
#
# 1 211.9715 59.0214 56.0465 0.0000 37.0188 0.0000
# 2 59.0214 212.1027 61.4892 0.0000 13.5342 0.0000
# 3 56.0465 61.4892 204.9077 0.0000 -8.2980 0.0000
# 4 0.0000 0.0000 0.0000 79.7814 0.0000 5.2184
# 5 37.0188 13.5342 -8.2980 0.0000 85.9904 0.0000
# 6 0.0000 0.0000 0.0000 5.2184 0.0000 44.1597
#
#
#
# Elastic Compliance Matrix: (Units=1/GPa)
#
#
# Indices 1 2 3 4 5 6 
#
# 1 0.005806 -0.001061 -0.001369 0.000000 -0.002464 0.000000
# 2 -0.001061 0.005439 -0.001363 0.000000 -0.000531 0.000000
# 3 -0.001369 -0.001363 0.005719 0.000000 0.001356 0.000000
# 4 0.000000 0.000000 0.000000 0.012632 0.000000 -0.001493
# 5 -0.002464 -0.000531 0.001356 0.000000 0.012905 0.000000
# 6 0.000000 0.000000 0.000000 -0.001493 0.000000 0.022821
#
#
# Mechanical properties :
#
#
# Convention : Reuss Voigt Hill
#
# Bulk Modulus (GPa) = 106.65996 109.12180 107.89088
# Shear Modulus (GPa) = 65.75966 72.14794 68.95380
#
# Velocity S-wave (km/s) = 4.58736 4.80502 4.69745
# Velocity P-wave (km/s) = 7.88613 8.10584 7.99674
#
# Compressibility (1/GPa) = 0.00937559
#
# Stress axis : x y z
#
# Youngs Moduli (GPa) = 172.24919 183.85255 174.86166
#
# Poissons Ratio (x) = 0.19512 0.23943
# Poissons Ratio (y) = 0.18281 0.23841
# Poissons Ratio (z) = 0.23585 0.25066
#
# Static dielectric constant tensor:
#      x y z
#    x 2.527440 0.000000 -0.091440 
#    y 0.000000 2.668750 0.000000 
#    z -0.091440 0.000000 2.587510 
# 
# From -- ./inp_files/2664.got.cif
#   From: 2010.05.17/outbox.cif.g08.bks.cpg/sg3_2_cif.got.tgz:2664.got - 2010.06.03 18:33:08.
