data_PCOD9114346
_publ_section_title
;
Structure prediction by ZEFSAII (Michael W. Deem and Ramdas Pophale) SiO2 
 PCOD9114346
Probable space group: P 2
;
_chemical_formula_sum "Si O2"
_cell_formula_units_Z 13
_cell_length_a 9.879621
_cell_length_b 9.662067
_cell_length_c 11.602074
_cell_angle_alpha 90.000000
_cell_angle_beta 141.776176
_cell_angle_gamma 90.000000
_cell_volume 685.252642
_symmetry_space_group_name_H-M "P 2"
_symmetry_group_IT_number 3
_symmetry_cell_setting 'monoclinic'
loop_
_space_group_symop_operation_xyz
x,y,z
-x,y,-z
loop_
_atom_site_type_symbol
_atom_site_label
_atom_site_fract_x
_atom_site_fract_y
_atom_site_fract_z
Si Si1 0.230047 0.650110 0.670113
Si Si2 0.448321 0.884480 0.144271
Si Si3 0.671671 0.980887 0.525964
Si Si4 0.021807 0.758698 0.151087
Si Si5 0.991391 0.205620 0.353910
Si Si6 0.500000 0.121665 0.000000
Si Si7 0.057411 0.511559 0.347022
O O1 0.418841 0.754990 0.816230
O O2 0.245035 0.567902 0.560116
O O3 0.000000 0.734649 0.500000
O O4 0.163970 0.546049 0.727142
O O5 0.533181 0.912646 0.329757
O O6 0.505077 0.021280 0.113013
O O7 0.198437 0.841272 0.963528
O O8 0.500000 0.051319 0.500000
O O9 0.857486 0.081705 0.595689
O O10 0.787190 0.857952 0.674885
O O11 0.045876 0.610291 0.229446
O O12 0.000000 0.741008 0.000000
O O13 0.733468 0.196374 0.151613
O O14 0.000000 0.210663 0.500000
O O15 0.076506 0.348227 0.354025
#
# Coordination Sequence:
#
# PCOD9114346 Si02
#       7
#     2   2   2   2   2   1   2
#     4   8  18  35  65  90 127 157 205 271 327 368
#     4  12  22  37  65 101 129 165 223 280 335 376
#     4  12  25  44  66  96 138 178 216 276 331 393
#     4  12  24  42  65  95 128 174 228 270 320 394
#     4  12  24  44  68  97 140 173 221 267 334 402
#     4  12  26  34  68 106 130 172 218 280 332 392
#     4   9  21  42  63  96 131 167 213 272 328 390
#
# _framework density 18.971105000000001
#
# number of rings (size 3 to 8) (size 9 to 14) (size 15 to 20)
#    0.923    0.000    7.692    0.923    2.154    1.231 
#    0.000    4.615    0.000    0.000    0.000    0.000 
#    0.000    0.000    0.000    0.000    0.000    0.000 
#
# Total GULP energy -72432.346857 kJ/mol
# GULP energy per Si atom -5571.718989 kJ/mol
# Density = 1.892793 g / cm^3
# Si number density = 18.971105 Si / 1000 Ang^3
#
#
#
# Elastic Constant Matrix: (Units=GPa)
#
#
# Indices 1 2 3 4 5 6 
#
# 1 69.5046 28.9207 27.2127 0.0000 -13.2518 0.0000
# 2 28.9207 94.5214 31.9998 0.0000 -14.6981 0.0000
# 3 27.2127 31.9998 86.9058 0.0000 -6.4301 0.0000
# 4 0.0000 0.0000 0.0000 22.4851 0.0000 -1.4700
# 5 -13.2518 -14.6981 -6.4301 0.0000 37.3463 0.0000
# 6 0.0000 0.0000 0.0000 -1.4700 0.0000 18.2968
#
#
#
# Elastic Compliance Matrix: (Units=1/GPa)
#
#
# Indices 1 2 3 4 5 6 
#
# 1 0.018301 -0.003525 -0.004107 0.000000 0.004399 0.000000
# 2 -0.003525 0.013399 -0.003578 0.000000 0.003407 0.000000
# 3 -0.004107 -0.003578 0.014078 0.000000 -0.000442 0.000000
# 4 0.000000 0.000000 0.000000 0.044709 0.000000 0.003592
# 5 0.004399 0.003407 -0.000442 0.000000 0.029602 0.000000
# 6 0.000000 0.000000 0.000000 0.003592 0.000000 0.054943
#
#
# Mechanical properties :
#
#
# Convention : Reuss Voigt Hill
#
# Bulk Modulus (GPa) = 42.81248 47.46648 45.13948
# Shear Modulus (GPa) = 24.36197 26.47886 25.42041
#
# Velocity S-wave (km/s) = 3.58741 3.74002 3.66451
# Velocity P-wave (km/s) = 6.30678 6.61249 6.46145
#
# Compressibility (1/GPa) = 0.02335768
#
# Stress axis : x y z
#
# Youngs Moduli (GPa) = 54.64135 74.63146 71.03524
#
# Poissons Ratio (x) = 0.26308 0.29175
# Poissons Ratio (y) = 0.19261 0.25416
# Poissons Ratio (z) = 0.22442 0.26702
#
# Static dielectric constant tensor:
#      x y z
#    x 1.700920 0.000000 -0.007730 
#    y 0.000000 1.628520 0.000000 
#    z -0.007730 0.000000 1.713240 
# 
# From -- ./inp_files/10835.got.cif
#   From: 2010.05.17/outbox.cif.g08.bks.cpg/sg3_6_cif.got.tgz:10835.got - 2010.06.03 18:33:08.
