data_PCOD9114465
_publ_section_title
;
Structure prediction by ZEFSAII (Michael W. Deem and Ramdas Pophale) SiO2 
 PCOD9114465
Probable space group: P 21
;
_chemical_formula_sum "Si O2"
_cell_formula_units_Z 16
_cell_length_a 15.532280
_cell_length_b 8.358727
_cell_length_c 8.605796
_cell_angle_alpha 90.000000
_cell_angle_beta 148.414741
_cell_angle_gamma 90.000000
_cell_volume 585.200017
_symmetry_space_group_name_H-M "P 21"
_symmetry_group_IT_number 4
_symmetry_cell_setting 'monoclinic'
loop_
_space_group_symop_operation_xyz
x,y,z
-x,1/2+y,-z
loop_
_atom_site_type_symbol
_atom_site_label
_atom_site_fract_x
_atom_site_fract_y
_atom_site_fract_z
Si Si1 0.697687 0.106870 0.559008
Si Si2 0.727589 0.461165 0.567688
Si Si3 0.889092 0.681392 0.238662
Si Si4 0.929337 0.495044 0.586130
Si Si5 0.651633 0.273877 0.012732
Si Si6 0.552466 0.780644 0.026140
Si Si7 0.420156 0.020999 0.335069
Si Si8 0.840331 0.986632 0.477843
O O1 0.781021 0.280926 0.702481
O O2 0.537775 0.137336 0.201435
O O3 0.611361 0.045027 0.582089
O O4 0.812388 0.008964 0.619228
O O5 0.869447 0.527831 0.670696
O O6 0.568115 0.420978 0.217728
O O7 0.642734 0.537206 0.586839
O O8 0.967985 0.641623 0.530260
O O9 0.940069 0.850861 0.241191
O O10 0.973269 0.534159 0.270574
O O11 0.695465 0.653451 0.925711
O O12 0.770017 0.411277 0.264891
O O13 0.479869 0.270335 0.840733
O O14 0.745141 0.117929 0.222405
O O15 0.620634 0.343054 0.794340
O O16 0.737938 0.828565 0.280470
#
# Coordination Sequence:
#
# PCOD9114465 Si02
#       8
#     2   2   2   2   2   2   2   2
#     4   9  19  34  58  81 112 148 184 237 281 334
#     4   9  20  37  54  78 122 154 176 236 299 329
#     4  10  21  34  63  86 115 151 192 239 289 344
#     4   9  18  38  56  83 113 151 189 238 289 335
#     4   8  16  30  51  81 103 141 180 225 283 317
#     4   8  16  31  54  80 102 140 182 236 269 319
#     4  11  20  34  57  85 112 152 188 229 283 351
#     4  10  16  34  59  84 109 141 193 238 285 329
#
# _framework density 27.341078
#
# number of rings (size 3 to 8) (size 9 to 14) (size 15 to 20)
#    0.750    2.000    3.750    0.000    1.750    1.000 
#    0.000    3.750    8.250    0.000    0.000    0.000 
#    0.000    0.000    0.000    0.000    0.000    0.000 
#
# Total GULP energy -89161.833442 kJ/mol
# GULP energy per Si atom -5572.614590 kJ/mol
# Density = 2.727885 g / cm^3
# Si number density = 27.341078 Si / 1000 Ang^3
#
#
#
# Elastic Constant Matrix: (Units=GPa)
#
#
# Indices 1 2 3 4 5 6 
#
# 1 207.5437 27.1792 29.1761 0.0000 -7.2865 0.0000
# 2 27.1792 38.5652 17.0693 0.0000 -7.7149 0.0000
# 3 29.1761 17.0693 39.4619 0.0000 0.6362 0.0000
# 4 0.0000 0.0000 0.0000 28.6914 0.0000 0.2977
# 5 -7.2865 -7.7149 0.6362 0.0000 39.2859 0.0000
# 6 0.0000 0.0000 0.0000 0.2977 0.0000 40.4491
#
#
#
# Elastic Compliance Matrix: (Units=1/GPa)
#
#
# Indices 1 2 3 4 5 6 
#
# 1 0.005595 -0.002457 -0.003083 0.000000 0.000605 0.000000
# 2 -0.002457 0.034913 -0.013392 0.000000 0.006617 0.000000
# 3 -0.003083 -0.013392 0.033473 0.000000 -0.003744 0.000000
# 4 0.000000 0.000000 0.000000 0.034856 0.000000 -0.000257
# 5 0.000605 0.006617 -0.003744 0.000000 0.026927 0.000000
# 6 0.000000 0.000000 0.000000 -0.000257 0.000000 0.024724
#
#
# Mechanical properties :
#
#
# Convention : Reuss Voigt Hill
#
# Bulk Modulus (GPa) = 27.68790 48.04664 37.86727
# Shear Modulus (GPa) = 23.76523 35.82838 29.79680
#
# Velocity S-wave (km/s) = 2.95144 3.62390 3.30482
# Velocity P-wave (km/s) = 4.66514 5.92634 5.33315
#
# Compressibility (1/GPa) = 0.03611686
#
# Stress axis : x y z
#
# Youngs Moduli (GPa) = 178.73924 28.64282 29.87439
#
# Poissons Ratio (x) = 0.07038 0.09211
# Poissons Ratio (y) = 0.43919 0.40006
# Poissons Ratio (z) = 0.55112 0.38357
#
# Static dielectric constant tensor:
#      x y z
#    x 2.266470 0.000000 -0.083460 
#    y 0.000000 2.248780 0.000000 
#    z -0.083460 0.000000 2.093550 
# 
# From -- ./inp_files/8337.got.cif
#   From: 2010.05.17/outbox.cif.g08.bks.cpg/sg4_5_cif.got.tgz:8337.got - 2010.06.03 18:43:04.
