data_PCOD9114471
_publ_section_title
;
Structure prediction by ZEFSAII (Michael W. Deem and Ramdas Pophale) SiO2 
 PCOD9114471
Probable space group: P 21
;
_chemical_formula_sum "Si O2"
_cell_formula_units_Z 16
_cell_length_a 13.463249
_cell_length_b 8.131330
_cell_length_c 10.738157
_cell_angle_alpha 90.000000
_cell_angle_beta 32.295268
_cell_angle_gamma 90.000000
_cell_volume 628.075995
_symmetry_space_group_name_H-M "P 21"
_symmetry_group_IT_number 4
_symmetry_cell_setting 'monoclinic'
loop_
_space_group_symop_operation_xyz
x,y,z
-x,1/2+y,-z
loop_
_atom_site_type_symbol
_atom_site_label
_atom_site_fract_x
_atom_site_fract_y
_atom_site_fract_z
Si Si1 0.503557 0.294390 0.356235
Si Si2 0.793556 0.083668 0.942850
Si Si3 0.424419 0.114591 0.848431
Si Si4 0.261348 0.136760 0.268601
Si Si5 0.966802 0.722918 0.812329
Si Si6 0.277650 0.811649 0.627858
Si Si7 0.867077 0.256681 0.614842
Si Si8 0.830973 0.664511 0.356600
O O1 0.517138 0.428227 0.234069
O O2 0.625408 0.344817 0.344400
O O3 0.284917 0.277074 0.614338
O O4 0.601260 0.123546 0.213097
O O5 0.779469 0.140195 0.813862
O O6 0.956332 0.195460 0.833554
O O7 0.872716 0.902093 0.882027
O O8 0.559086 0.228569 0.625777
O O9 0.417207 0.169230 0.000261
O O10 0.213151 0.113418 0.019160
O O11 0.280586 0.167626 0.393519
O O12 0.085436 0.249425 0.419300
O O13 0.205977 0.943609 0.308895
O O14 0.087264 0.704664 0.810662
O O15 0.119924 0.693391 0.540691
O O16 0.200459 0.981650 0.657803
#
# Coordination Sequence:
#
# PCOD9114471 Si02
#       8
#     2   2   2   2   2   2   2   2
#     4  12  25  40  64  91 129 172 221 268 307 379
#     4  10  21  40  67  91 123 168 209 262 332 380
#     4  11  25  40  63 101 125 163 220 268 316 388
#     4  10  20  38  67  96 130 162 206 268 331 387
#     4  10  22  41  66  91 126 170 206 264 330 378
#     4  11  24  44  62  88 131 175 217 267 312 374
#     4  10  16  37  63  95 125 158 201 258 328 383
#     4  10  23  44  64  91 129 170 210 265 332 377
#
# _framework density 25.474625
#
# number of rings (size 3 to 8) (size 9 to 14) (size 15 to 20)
#    0.000    1.500    5.000    1.500    0.000    6.000 
#    2.250    1.250    0.000    0.000    0.000    0.000 
#    0.000    0.000    0.000    0.000    0.000    0.000 
#
# Total GULP energy -89392.835359 kJ/mol
# GULP energy per Si atom -5587.052210 kJ/mol
# Density = 2.541664 g / cm^3
# Si number density = 25.474625 Si / 1000 Ang^3
#
#
#
# Elastic Constant Matrix: (Units=GPa)
#
#
# Indices 1 2 3 4 5 6 
#
# 1 99.8671 -7.1576 -7.0259 0.0000 -17.4707 0.0000
# 2 -7.1576 51.4424 0.3268 0.0000 -1.0446 0.0000
# 3 -7.0259 0.3268 63.2090 0.0000 -9.0738 0.0000
# 4 0.0000 0.0000 0.0000 27.9339 0.0000 -1.9711
# 5 -17.4707 -1.0446 -9.0738 0.0000 27.1394 0.0000
# 6 0.0000 0.0000 0.0000 -1.9711 0.0000 27.4951
#
#
#
# Elastic Compliance Matrix: (Units=1/GPa)
#
#
# Indices 1 2 3 4 5 6 
#
# 1 0.011810 0.001800 0.002526 0.000000 0.008516 0.000000
# 2 0.001800 0.019729 0.000392 0.000000 0.002049 0.000000
# 3 0.002526 0.000392 0.017158 0.000000 0.007378 0.000000
# 4 0.000000 0.000000 0.000000 0.035981 0.000000 0.002579
# 5 0.008516 0.002049 0.007378 0.000000 0.044875 0.000000
# 6 0.000000 0.000000 0.000000 0.002579 0.000000 0.036555
#
#
# Mechanical properties :
#
#
# Convention : Reuss Voigt Hill
#
# Bulk Modulus (GPa) = 17.20174 20.75612 18.97893
# Shear Modulus (GPa) = 28.40118 31.73868 30.06993
#
# Velocity S-wave (km/s) = 3.34261 3.53355 3.43940
# Velocity P-wave (km/s) = 4.65452 4.98131 4.82068
#
# Compressibility (1/GPa) = 0.05813365
#
# Stress axis : x y z
#
# Youngs Moduli (GPa) = 84.67493 50.68730 58.28059
#
# Poissons Ratio (x) = -0.09124 -0.14721
# Poissons Ratio (y) = -0.15242 -0.02286
# Poissons Ratio (z) = -0.21388 -0.01988
#
# Static dielectric constant tensor:
#      x y z
#    x 2.048270 0.000000 0.027680 
#    y 0.000000 2.026030 0.000000 
#    z 0.027680 0.000000 2.028320 
# 
# From -- ./inp_files/12625.got.cif
#   From: 2010.05.17/outbox.cif.g08.bks.cpg/sg4_7_cif.got.tgz:12625.got - 2010.06.03 18:43:04.
