data_PCOD9114847
_publ_section_title
;
Structure prediction by ZEFSAII (Michael W. Deem and Ramdas Pophale) SiO2 
 PCOD9114847
Probable space group: P 21
;
_chemical_formula_sum "Si O2"
_cell_formula_units_Z 12
_cell_length_a 16.865212
_cell_length_b 5.151454
_cell_length_c 10.149312
_cell_angle_alpha 90.000000
_cell_angle_beta 36.432541
_cell_angle_gamma 90.000000
_cell_volume 523.665493
_symmetry_space_group_name_H-M "P 21"
_symmetry_group_IT_number 4
_symmetry_cell_setting 'monoclinic'
loop_
_space_group_symop_operation_xyz
x,y,z
-x,1/2+y,-z
loop_
_atom_site_type_symbol
_atom_site_label
_atom_site_fract_x
_atom_site_fract_y
_atom_site_fract_z
Si Si1 0.092729 0.729920 0.888180
Si Si2 0.040175 0.149040 0.381237
Si Si3 0.433965 0.184385 0.756295
Si Si4 0.325079 0.685813 0.764661
Si Si5 0.302892 0.250697 0.177666
Si Si6 0.205543 0.750074 0.460161
O O1 0.176765 0.729715 0.910341
O O2 0.196239 0.739019 0.628417
O O3 0.004400 0.473807 0.992798
O O4 0.190142 0.230777 0.212758
O O5 0.968268 0.339819 0.585248
O O6 0.951519 0.224164 0.374553
O O7 0.349760 0.408039 0.795773
O O8 0.575331 0.200826 0.493489
O O9 0.372029 0.904819 0.804142
O O10 0.434963 0.229570 0.912288
O O11 0.279991 0.512521 0.288887
O O12 0.269321 0.012579 0.318399
#
# Coordination Sequence:
#
# PCOD9114847 Si02
#       6
#     2   2   2   2   2   2
#     4  12  26  42  62  87 128 170 200 242 308 378
#     4   8  16  28  46  73 107 142 175 230 278 333
#     4  10  21  41  67  91 119 157 209 261 301 347
#     4  10  23  41  63  92 122 160 210 252 293 367
#     4  10  19  35  60  84 117 151 198 255 304 344
#     4  10  21  37  52  87 121 152 200 244 298 369
#
# _framework density 22.915392000000001
#
# number of rings (size 3 to 8) (size 9 to 14) (size 15 to 20)
#    0.000    2.000    0.000    3.000    4.667    0.000 
#    6.000    1.667    0.000    0.000    0.000    0.000 
#    0.000    0.000    0.000    0.000    0.000    0.000 
#
# Total GULP energy -67038.383026 kJ/mol
# GULP energy per Si atom -5586.531919 kJ/mol
# Density = 2.286324 g / cm^3
# Si number density = 22.915392 Si / 1000 Ang^3
#
#
#
# Elastic Constant Matrix: (Units=GPa)
#
#
# Indices 1 2 3 4 5 6 
#
# 1 55.7203 -6.6847 -1.2708 0.0000 -0.4766 0.0000
# 2 -6.6847 82.6269 22.2648 0.0000 -3.9219 0.0000
# 3 -1.2708 22.2648 113.0952 0.0000 29.2921 0.0000
# 4 0.0000 0.0000 0.0000 19.8802 0.0000 -8.5270
# 5 -0.4766 -3.9219 29.2921 0.0000 26.8551 0.0000
# 6 0.0000 0.0000 0.0000 -8.5270 0.0000 2.0054
#
#
#
# Elastic Compliance Matrix: (Units=1/GPa)
#
#
# Indices 1 2 3 4 5 6 
#
# 1 0.018140 0.001609 -0.000358 0.000000 0.000948 0.000000
# 2 0.001609 0.013772 -0.004490 0.000000 0.006937 0.000000
# 3 -0.000358 -0.004490 0.013789 0.000000 -0.015702 0.000000
# 4 0.000000 0.000000 0.000000 -0.061063 0.000000 -0.259639
# 5 0.000948 0.006937 -0.015702 0.000000 0.055394 0.000000
# 6 0.000000 0.000000 0.000000 -0.259639 0.000000 -0.605329
#
#
# Mechanical properties :
#
#
# Convention : Reuss Voigt Hill
#
# Bulk Modulus (GPa) = 25.49579 31.11787 28.30683
# Shear Modulus (GPa) = -9.16179 25.55700 8.19761
#
# Velocity S-wave (km/s) = -2.00169 3.34320 1.89344
# Velocity P-wave (km/s) = 2.40995 5.33962 4.14243
#
# Compressibility (1/GPa) = 0.03922217
#
# Stress axis : x y z
#
# Youngs Moduli (GPa) = 55.12752 72.61152 72.52164
#
# Poissons Ratio (x) = -0.11684 0.02600
# Poissons Ratio (y) = -0.08871 0.32562
# Poissons Ratio (z) = 0.01976 0.32602
#
# Static dielectric constant tensor:
#      x y z
#    x 1.852270 0.000000 -0.045810 
#    y 0.000000 1.785920 0.000000 
#    z -0.045810 0.000000 1.943990 
# 
# From -- ./inp_files/8976.got.cif
#   From: 2010.05.17/outbox.cif.g08.bks.cpg/sg4_5_cif.got.tgz:8976.got - 2010.06.03 18:43:04.
