data_PCOD9114891
_publ_section_title
;
Structure prediction by ZEFSAII (Michael W. Deem and Ramdas Pophale) SiO2 
 PCOD9114891
Probable space group: P 21
;
_chemical_formula_sum "Si O2"
_cell_formula_units_Z 16
_cell_length_a 11.842780
_cell_length_b 8.875873
_cell_length_c 10.426269
_cell_angle_alpha 90.000000
_cell_angle_beta 130.906023
_cell_angle_gamma 90.000000
_cell_volume 828.307754
_symmetry_space_group_name_H-M "P 21"
_symmetry_group_IT_number 4
_symmetry_cell_setting 'monoclinic'
loop_
_space_group_symop_operation_xyz
x,y,z
-x,1/2+y,-z
loop_
_atom_site_type_symbol
_atom_site_label
_atom_site_fract_x
_atom_site_fract_y
_atom_site_fract_z
Si Si1 0.460289 0.380140 0.640438
Si Si2 0.345092 0.951069 0.667445
Si Si3 0.167854 0.232953 0.437452
Si Si4 0.849436 0.295632 0.264811
Si Si5 0.374848 0.634549 0.072997
Si Si6 0.181818 0.635493 0.166604
Si Si7 0.449778 0.704301 0.545771
Si Si8 0.969074 0.384203 0.098332
O O1 0.287632 0.364669 0.555765
O O2 0.558389 0.289539 0.816792
O O3 0.513959 0.548977 0.650988
O O4 0.468061 0.284421 0.512836
O O5 0.227114 0.876565 0.674729
O O6 0.417506 0.827469 0.629000
O O7 0.258887 0.079556 0.522571
O O8 0.481883 0.031044 0.844071
O O9 0.098104 0.268960 0.245941
O O10 0.017805 0.235288 0.412803
O O11 0.875674 0.404145 0.160193
O O12 0.735027 0.170034 0.125541
O O13 0.274445 0.569235 0.114833
O O14 0.293228 0.652016 0.367054
O O15 0.045165 0.531529 0.102617
O O16 0.126521 0.797552 0.077642
#
# Coordination Sequence:
#
# PCOD9114891 Si02
#       8
#     2   2   2   2   2   2   2   2
#     4  10  19  37  57  87 115 149 191 250 291 346
#     4  11  23  37  62  85 113 160 198 237 295 352
#     4   9  20  38  60  83 117 147 194 247 289 343
#     4   9  21  40  56  82 117 152 189 240 287 347
#     4   9  21  40  59  82 119 151 198 245 288 348
#     4  10  19  36  58  87 115 151 188 247 301 342
#     4  11  21  34  58  86 118 152 200 237 300 350
#     4   9  20  36  60  82 122 146 188 245 293 346
#
# _framework density 19.316492
#
# number of rings (size 3 to 8) (size 9 to 14) (size 15 to 20)
#    0.750    1.500    1.250    2.250    1.750    3.000 
#    2.250    2.500    0.000    0.000    0.000    0.000 
#    0.000    0.000    0.000    0.000    0.000    0.000 
#
# Total GULP energy -89119.795789 kJ/mol
# GULP energy per Si atom -5569.987237 kJ/mol
# Density = 1.927253 g / cm^3
# Si number density = 19.316492 Si / 1000 Ang^3
#
#
#
# Elastic Constant Matrix: (Units=GPa)
#
#
# Indices 1 2 3 4 5 6 
#
# 1 63.5661 30.7196 15.9916 0.0000 15.2254 0.0000
# 2 30.7196 61.0915 -2.1147 0.0000 -1.8984 0.0000
# 3 15.9916 -2.1147 23.3232 0.0000 7.5692 0.0000
# 4 0.0000 0.0000 0.0000 10.6056 0.0000 9.5422
# 5 15.2254 -1.8984 7.5692 0.0000 23.2578 0.0000
# 6 0.0000 0.0000 0.0000 9.5422 0.0000 28.6565
#
#
#
# Elastic Compliance Matrix: (Units=1/GPa)
#
#
# Indices 1 2 3 4 5 6 
#
# 1 0.033197 -0.017876 -0.018847 0.000000 -0.017058 0.000000
# 2 -0.017876 0.026065 0.011328 0.000000 0.010143 0.000000
# 3 -0.018847 0.011328 0.058723 0.000000 -0.005849 0.000000
# 4 0.000000 0.000000 0.000000 0.134622 0.000000 -0.044827
# 5 -0.017058 0.010143 -0.005849 0.000000 0.056894 0.000000
# 6 0.000000 0.000000 0.000000 -0.044827 0.000000 0.049823
#
#
# Mechanical properties :
#
#
# Convention : Reuss Voigt Hill
#
# Bulk Modulus (GPa) = 14.88166 26.35263 20.61715
# Shear Modulus (GPa) = 11.56035 19.39626 15.47830
#
# Velocity S-wave (km/s) = 2.44902 3.17224 2.83380
# Velocity P-wave (km/s) = 3.96456 5.20477 4.62641
#
# Compressibility (1/GPa) = 0.06719679
#
# Stress axis : x y z
#
# Youngs Moduli (GPa) = 30.12283 38.36584 17.02903
#
# Poissons Ratio (x) = 0.68581 0.32094
# Poissons Ratio (y) = 0.53846 -0.19290
# Poissons Ratio (z) = 0.56772 -0.43461
#
# Static dielectric constant tensor:
#      x y z
#    x 1.697890 0.000000 0.033740 
#    y 0.000000 1.679510 0.000000 
#    z 0.033740 0.000000 1.679180 
# 
# From -- ./inp_files/11891.got.cif
#   From: 2010.05.17/outbox.cif.g08.bks.cpg/sg4_6_cif.got.tgz:11891.got - 2010.06.03 18:43:04.
