data_PCOD9114357
_publ_section_title
;
Structure prediction by ZEFSAII (Michael W. Deem and Ramdas Pophale) SiO2 
 PCOD9114357
Probable space group: P 2
;
_chemical_formula_sum "Si O2"
_cell_formula_units_Z 13
_cell_length_a 8.622398
_cell_length_b 6.314239
_cell_length_c 11.948993
_cell_angle_alpha 90.000000
_cell_angle_beta 99.678064
_cell_angle_gamma 90.000000
_cell_volume 641.290878
_symmetry_space_group_name_H-M "P 2"
_symmetry_group_IT_number 3
_symmetry_cell_setting 'monoclinic'
loop_
_space_group_symop_operation_xyz
x,y,z
-x,y,-z
loop_
_atom_site_type_symbol
_atom_site_label
_atom_site_fract_x
_atom_site_fract_y
_atom_site_fract_z
Si Si1 0.500000 0.883590 0.500000
Si Si2 0.731517 0.379521 0.155592
Si Si3 0.897623 0.409271 0.849497
Si Si4 0.741726 0.737948 0.005104
Si Si5 0.313010 0.498269 0.384463
Si Si6 0.000000 0.037309 0.000000
Si Si7 0.361615 0.268826 0.611996
Si Si8 0.500000 0.059412 0.000000
O O1 0.374072 0.733492 0.421471
O O2 0.406186 0.033424 0.575850
O O3 0.725718 0.315022 0.283919
O O4 0.619587 0.207346 0.082575
O O5 0.913653 0.404504 0.141688
O O6 0.672206 0.605376 0.100759
O O7 0.812816 0.578221 0.921252
O O8 0.821160 0.456654 0.721253
O O9 0.885881 0.181854 0.909903
O O10 0.610627 0.898910 0.943960
O O11 0.888539 0.885514 0.059127
O O12 0.277407 0.383846 0.497722
O O13 0.468863 0.382551 0.356363
#
# Coordination Sequence:
#
# PCOD9114357 Si02
#       8
#     1   2   2   2   2   1   2   1
#     4   8  18  44  64 102 126 178 232 276 360 406
#     4  12  25  44  64 104 142 177 234 292 335 419
#     4  12  24  43  67 100 143 181 231 287 347 415
#     4  12  25  44  67 102 143 188 225 279 354 414
#     4   9  22  41  67  95 132 179 231 287 345 405
#     4  12  22  46  64 100 142 190 220 278 360 412
#     4   9  22  41  66  95 136 176 231 289 335 412
#     4  12  28  40  70 106 140 188 232 280 346 410
#
# _framework density 20.271612999999999
#
# number of rings (size 3 to 8) (size 9 to 14) (size 15 to 20)
#    0.000    1.538    4.615    0.462    8.615    3.077 
#    0.000    0.000    0.000    7.385    0.000    0.000 
#    0.000    0.000    0.000    0.000    0.000    0.000 
#
# Total GULP energy -72397.644167 kJ/mol
# GULP energy per Si atom -5569.049551 kJ/mol
# Density = 2.022547 g / cm^3
# Si number density = 20.271613 Si / 1000 Ang^3
#
#
#
# Elastic Constant Matrix: (Units=GPa)
#
#
# Indices 1 2 3 4 5 6 
#
# 1 87.1690 55.5912 54.5119 0.0000 6.9804 0.0000
# 2 55.5912 153.0358 55.1576 0.0000 2.3988 0.0000
# 3 54.5119 55.1576 136.0713 0.0000 11.5694 0.0000
# 4 0.0000 0.0000 0.0000 3.1525 0.0000 -0.5443
# 5 6.9804 2.3988 11.5694 0.0000 30.4797 0.0000
# 6 0.0000 0.0000 0.0000 -0.5443 0.0000 40.8189
#
#
#
# Elastic Compliance Matrix: (Units=1/GPa)
#
#
# Indices 1 2 3 4 5 6 
#
# 1 0.017714 -0.004571 -0.005093 0.000000 -0.001764 0.000000
# 2 -0.004571 0.008843 -0.001842 0.000000 0.001050 0.000000
# 3 -0.005093 -0.001842 0.010359 0.000000 -0.002621 0.000000
# 4 0.000000 0.000000 0.000000 0.317937 0.000000 0.004240
# 5 -0.001764 0.001050 -0.002621 0.000000 0.034125 0.000000
# 6 0.000000 0.000000 0.000000 0.004240 0.000000 0.024555
#
#
# Mechanical properties :
#
#
# Convention : Reuss Voigt Hill
#
# Bulk Modulus (GPa) = 71.93514 78.53303 75.23408
# Shear Modulus (GPa) = 11.33325 28.95792 20.14559
#
# Velocity S-wave (km/s) = 2.36703 3.78365 3.15585
# Velocity P-wave (km/s) = 6.55996 7.61002 7.10442
#
# Compressibility (1/GPa) = 0.01390141
#
# Stress axis : x y z
#
# Youngs Moduli (GPa) = 56.45378 113.09016 96.53235
#
# Poissons Ratio (x) = 0.51695 0.49168
# Poissons Ratio (y) = 0.25806 0.17785
# Poissons Ratio (z) = 0.28754 0.20836
#
# Static dielectric constant tensor:
#      x y z
#    x 1.785850 0.000000 -0.007050 
#    y 0.000000 1.801010 0.000000 
#    z -0.007050 0.000000 1.722460 
# 
# From -- ./inp_files/10282.got.cif
#   From: 2010.05.17/outbox.cif.g08.bks.cpg/sg3_6_cif.got.tgz:10282.got - 2010.06.03 18:33:08.
