data_PCOD9114620
_publ_section_title
;
Structure prediction by ZEFSAII (Michael W. Deem and Ramdas Pophale) SiO2 
 PCOD9114620
Probable space group: P 21
;
_chemical_formula_sum "Si O2"
_cell_formula_units_Z 14
_cell_length_a 9.296868
_cell_length_b 8.663041
_cell_length_c 7.145597
_cell_angle_alpha 90.000000
_cell_angle_beta 63.301254
_cell_angle_gamma 90.000000
_cell_volume 514.141160
_symmetry_space_group_name_H-M "P 21"
_symmetry_group_IT_number 4
_symmetry_cell_setting 'monoclinic'
loop_
_space_group_symop_operation_xyz
x,y,z
-x,1/2+y,-z
loop_
_atom_site_type_symbol
_atom_site_label
_atom_site_fract_x
_atom_site_fract_y
_atom_site_fract_z
Si Si1 0.232975 0.714420 0.916264
Si Si2 0.866730 0.626691 0.452183
Si Si3 0.517344 0.449584 0.227573
Si Si4 0.026718 0.439667 0.027548
Si Si5 0.593461 0.432030 0.745011
Si Si6 0.302260 0.269813 0.776111
Si Si7 0.216797 0.631216 0.354685
O O1 0.253761 0.640398 0.108627
O O2 0.110619 0.858197 0.013459
O O3 0.395631 0.794091 0.745381
O O4 0.126892 0.582212 0.877359
O O5 0.705783 0.577733 0.650933
O O6 0.804134 0.757970 0.348206
O O7 0.024929 0.641471 0.486138
O O8 0.931893 0.501866 0.262473
O O9 0.613871 0.604986 0.234220
O O10 0.330966 0.494841 0.360108
O O11 0.543674 0.425263 0.989786
O O12 0.163419 0.316045 0.003928
O O13 0.435071 0.404511 0.713889
O O14 0.707161 0.290238 0.621608
#
# Coordination Sequence:
#
# PCOD9114620 Si02
#       7
#     2   2   2   2   2   2   2
#     4  10  18  34  62  96 120 164 210 263 300 369
#     4  11  22  41  63  94 130 164 212 272 325 371
#     4  10  20  42  67  91 128 170 218 257 323 390
#     4  11  19  37  66  97 123 163 224 256 309 377
#     4  10  23  40  60  96 130 166 206 271 338 371
#     4  11  22  43  66  93 126 172 221 269 303 405
#     4   9  20  39  64  89 127 167 215 258 312 397
#
# _framework density 27.229873999999999
#
# number of rings (size 3 to 8) (size 9 to 14) (size 15 to 20)
#    0.000    1.714    4.286    1.714    0.000    1.143 
#    5.143    4.286    0.000    0.000    0.000    0.000 
#    0.000    0.000    0.000    0.000    0.000    0.000 
#
# Total GULP energy -78255.918740 kJ/mol
# GULP energy per Si atom -5589.708481 kJ/mol
# Density = 2.716790 g / cm^3
# Si number density = 27.229874 Si / 1000 Ang^3
#
#
#
# Elastic Constant Matrix: (Units=GPa)
#
#
# Indices 1 2 3 4 5 6 
#
# 1 197.0086 55.2562 42.0802 0.0000 -42.6872 0.0000
# 2 55.2562 97.2745 27.0510 0.0000 -15.3494 0.0000
# 3 42.0802 27.0510 66.1583 0.0000 -7.2735 0.0000
# 4 0.0000 0.0000 0.0000 44.9858 0.0000 -15.1921
# 5 -42.6872 -15.3494 -7.2735 0.0000 35.1039 0.0000
# 6 0.0000 0.0000 0.0000 -15.1921 0.0000 59.6309
#
#
#
# Elastic Compliance Matrix: (Units=1/GPa)
#
#
# Indices 1 2 3 4 5 6 
#
# 1 0.008280 -0.002463 -0.003347 0.000000 0.008298 0.000000
# 2 -0.002463 0.012965 -0.003521 0.000000 0.001944 0.000000
# 3 -0.003347 -0.003521 0.018488 0.000000 -0.001779 0.000000
# 4 0.000000 0.000000 0.000000 0.024322 0.000000 0.006196
# 5 0.008298 0.001944 -0.001779 0.000000 0.039059 0.000000
# 6 0.000000 0.000000 0.000000 0.006196 0.000000 0.018349
#
#
# Mechanical properties :
#
#
# Convention : Reuss Voigt Hill
#
# Bulk Modulus (GPa) = 47.45785 67.69067 57.57426
# Shear Modulus (GPa) = 33.97957 43.68104 38.83031
#
# Velocity S-wave (km/s) = 3.53636 4.00954 3.78036
# Velocity P-wave (km/s) = 5.84302 6.80795 6.34386
#
# Compressibility (1/GPa) = 0.02107133
#
# Stress axis : x y z
#
# Youngs Moduli (GPa) = 120.77964 77.12915 54.08879
#
# Poissons Ratio (x) = 0.18998 0.18103
# Poissons Ratio (y) = 0.29749 0.19044
# Poissons Ratio (z) = 0.40423 0.27156
#
# Static dielectric constant tensor:
#      x y z
#    x 2.183450 0.000000 0.006040 
#    y 0.000000 2.166660 0.000000 
#    z 0.006040 0.000000 2.091660 
# 
# From -- ./inp_files/5774.got.cif
#   From: 2010.05.17/outbox.cif.g08.bks.cpg/sg4_3_cif.got.tgz:5774.got - 2010.06.03 18:43:04.
