data_PCOD9114943
_publ_section_title
;
Structure prediction by ZEFSAII (Michael W. Deem and Ramdas Pophale) SiO2 
 PCOD9114943
Probable space group: P 21
;
_chemical_formula_sum "Si O2"
_cell_formula_units_Z 14
_cell_length_a 12.965684
_cell_length_b 5.147520
_cell_length_c 9.958873
_cell_angle_alpha 90.000000
_cell_angle_beta 85.467581
_cell_angle_gamma 90.000000
_cell_volume 662.587758
_symmetry_space_group_name_H-M "P 21"
_symmetry_group_IT_number 4
_symmetry_cell_setting 'monoclinic'
loop_
_space_group_symop_operation_xyz
x,y,z
-x,1/2+y,-z
loop_
_atom_site_type_symbol
_atom_site_label
_atom_site_fract_x
_atom_site_fract_y
_atom_site_fract_z
Si Si1 0.386412 0.883110 0.856649
Si Si2 0.779485 0.477726 0.325636
Si Si3 0.481622 0.382953 0.713155
Si Si4 0.682533 0.977012 0.469858
Si Si5 0.221941 0.463278 0.250744
Si Si6 0.002289 0.371593 0.406059
Si Si7 0.678329 0.465542 0.845347
O O1 0.270675 0.942839 0.815315
O O2 0.419542 0.597731 0.806675
O O3 0.456411 0.097742 0.773759
O O4 0.388559 0.911515 0.015391
O O5 0.751494 0.761758 0.384796
O O6 0.899746 0.419749 0.329521
O O7 0.718703 0.262541 0.420516
O O8 0.433457 0.418767 0.569997
O O9 0.600482 0.446394 0.726942
O O10 0.707963 0.951320 0.622286
O O11 0.106330 0.403122 0.310036
O O12 0.236694 0.743809 0.184665
O O13 0.268407 0.242982 0.151138
O O14 0.002537 0.592001 0.521940
#
# Coordination Sequence:
#
# PCOD9114943 Si02
#       7
#     2   2   2   2   2   2   2
#     4  10  21  39  62  83 111 153 200 230 270 333
#     4  10  19  37  61  86 107 142 199 244 266 323
#     4  10  21  38  63  82 110 155 201 230 270 331
#     4  10  20  36  58  87 112 146 189 238 282 329
#     4  12  24  36  56  87 122 145 187 233 298 339
#     4  12  21  38  63  85 109 149 192 232 283 343
#     4  12  24  38  55  86 123 154 182 235 283 338
#
# _framework density 21.129279
#
# number of rings (size 3 to 8) (size 9 to 14) (size 15 to 20)
#    0.000    1.143    2.857    4.286    0.000    1.143 
#    0.000    1.429    0.000    0.000    0.000    0.000 
#    0.000    0.000    0.000    0.000    0.000    0.000 
#
# Total GULP energy -78326.922213 kJ/mol
# GULP energy per Si atom -5594.780158 kJ/mol
# Density = 2.108119 g / cm^3
# Si number density = 21.129279 Si / 1000 Ang^3
#
#
#
# Elastic Constant Matrix: (Units=GPa)
#
#
# Indices 1 2 3 4 5 6 
#
# 1 84.4929 4.8244 5.4910 0.0000 6.4345 0.0000
# 2 4.8244 46.9637 8.9758 0.0000 9.7630 0.0000
# 3 5.4910 8.9758 27.9222 0.0000 3.8942 0.0000
# 4 0.0000 0.0000 0.0000 29.3124 0.0000 -6.5578
# 5 6.4345 9.7630 3.8942 0.0000 21.9656 0.0000
# 6 0.0000 0.0000 0.0000 -6.5578 0.0000 24.1413
#
#
#
# Elastic Compliance Matrix: (Units=1/GPa)
#
#
# Indices 1 2 3 4 5 6 
#
# 1 0.012210 -0.000242 -0.001886 0.000000 -0.003135 0.000000
# 2 -0.000242 0.024577 -0.006500 0.000000 -0.009700 0.000000
# 3 -0.001886 -0.006500 0.038752 0.000000 -0.003429 0.000000
# 4 0.000000 0.000000 0.000000 0.036323 0.000000 0.009867
# 5 -0.003135 -0.009700 -0.003429 0.000000 0.051363 0.000000
# 6 0.000000 0.000000 0.000000 0.009867 0.000000 0.044103
#
#
# Mechanical properties :
#
#
# Convention : Reuss Voigt Hill
#
# Bulk Modulus (GPa) = 17.15768 21.99572 19.57670
# Shear Modulus (GPa) = 20.49074 24.42303 22.45688
#
# Velocity S-wave (km/s) = 3.11751 3.40352 3.26365
# Velocity P-wave (km/s) = 4.59308 5.08704 4.84636
#
# Compressibility (1/GPa) = 0.05828292
#
# Stress axis : x y z
#
# Youngs Moduli (GPa) = 81.89707 40.68894 25.80492
#
# Poissons Ratio (x) = 0.00985 0.04867
# Poissons Ratio (y) = 0.01983 0.16773
# Poissons Ratio (z) = 0.15447 0.26447
#
# Static dielectric constant tensor:
#      x y z
#    x 1.760870 0.000000 0.034860 
#    y 0.000000 1.754890 0.000000 
#    z 0.034860 0.000000 1.740520 
# 
# From -- ./inp_files/11679.got.cif
#   From: 2010.05.17/outbox.cif.g08.bks.cpg/sg4_6_cif.got.tgz:11679.got - 2010.06.03 18:43:04.
