data_PCOD9114750
_publ_section_title
;
Structure prediction by ZEFSAII (Michael W. Deem and Ramdas Pophale) SiO2 
 PCOD9114750
Probable space group: P 21
;
_chemical_formula_sum "Si O2"
_cell_formula_units_Z 16
_cell_length_a 10.394115
_cell_length_b 9.404289
_cell_length_c 9.213592
_cell_angle_alpha 90.000000
_cell_angle_beta 126.268571
_cell_angle_gamma 90.000000
_cell_volume 726.128951
_symmetry_space_group_name_H-M "P 21"
_symmetry_group_IT_number 4
_symmetry_cell_setting 'monoclinic'
loop_
_space_group_symop_operation_xyz
x,y,z
-x,1/2+y,-z
loop_
_atom_site_type_symbol
_atom_site_label
_atom_site_fract_x
_atom_site_fract_y
_atom_site_fract_z
Si Si1 0.082919 0.925810 0.424838
Si Si2 0.597375 0.327949 0.289152
Si Si3 0.920118 0.233982 0.062834
Si Si4 0.152939 0.621397 0.559088
Si Si5 0.804604 0.881903 0.643838
Si Si6 0.681079 0.004891 0.847259
Si Si7 0.834510 0.514981 0.842705
Si Si8 0.537169 0.677099 0.523148
O O1 0.261178 0.944320 0.611496
O O2 0.055715 0.758658 0.436263
O O3 0.101843 0.959693 0.269541
O O4 0.951087 0.023798 0.407322
O O5 0.683983 0.194056 0.271661
O O6 0.430187 0.398140 0.135950
O O7 0.566228 0.269594 0.432712
O O8 0.034881 0.289985 0.267420
O O9 0.043620 0.145138 0.040969
O O10 0.782946 0.120059 0.000444
O O11 0.842383 0.377873 0.949227
O O12 0.195159 0.521021 0.451624
O O13 0.652446 0.784267 0.513995
O O14 0.792464 0.919625 0.807524
O O15 0.566482 0.088394 0.657926
O O16 0.658550 0.578943 0.697957
#
# Coordination Sequence:
#
# PCOD9114750 Si02
#       8
#     2   2   2   2   2   2   2   2
#     4  10  22  37  61  91 124 157 212 260 299 369
#     4   9  20  33  55  93 117 147 201 263 306 357
#     4  11  23  34  60  88 138 163 200 247 334 382
#     4  10  21  38  61  92 124 161 209 264 303 364
#     4  10  21  35  56  94 127 161 200 248 324 374
#     4  11  18  36  55  94 125 157 191 270 307 368
#     4  11  22  39  56 100 126 166 205 254 327 380
#     4  10  19  32  62  86 129 152 200 268 314 358
#
# _framework density 22.034655000000001
#
# number of rings (size 3 to 8) (size 9 to 14) (size 15 to 20)
#    0.750    1.000    3.750    1.500    5.250    0.000 
#    0.000    0.000    0.000    0.000   26.000    0.000 
#    0.000    0.000    0.000    0.000    0.000    0.000 
#
# Total GULP energy -89243.072103 kJ/mol
# GULP energy per Si atom -5577.692006 kJ/mol
# Density = 2.198450 g / cm^3
# Si number density = 22.034655 Si / 1000 Ang^3
#
#
#
# Elastic Constant Matrix: (Units=GPa)
#
#
# Indices 1 2 3 4 5 6 
#
# 1 83.3991 44.2008 24.1350 0.0000 17.4091 0.0000
# 2 44.2008 145.0849 32.9739 0.0000 19.9765 0.0000
# 3 24.1350 32.9739 38.9353 0.0000 25.6008 0.0000
# 4 0.0000 0.0000 0.0000 34.9683 0.0000 17.6144
# 5 17.4091 19.9765 25.6008 0.0000 27.6462 0.0000
# 6 0.0000 0.0000 0.0000 17.6144 0.0000 53.7969
#
#
#
# Elastic Compliance Matrix: (Units=1/GPa)
#
#
# Indices 1 2 3 4 5 6 
#
# 1 0.015800 -0.003245 -0.005231 0.000000 -0.002761 0.000000
# 2 -0.003245 0.009221 -0.007058 0.000000 0.001916 0.000000
# 3 -0.005231 -0.007058 0.075127 0.000000 -0.061176 0.000000
# 4 0.000000 0.000000 0.000000 0.034245 0.000000 -0.011213
# 5 -0.002761 0.001916 -0.061176 0.000000 0.093176 0.000000
# 6 0.000000 0.000000 0.000000 -0.011213 0.000000 0.022260
#
#
# Mechanical properties :
#
#
# Convention : Reuss Voigt Hill
#
# Bulk Modulus (GPa) = 14.47534 52.22652 33.35093
# Shear Modulus (GPa) = 16.45150 34.35626 25.40388
#
# Velocity S-wave (km/s) = 2.73540 3.95294 3.39913
# Velocity P-wave (km/s) = 4.06942 6.67741 5.52937
#
# Compressibility (1/GPa) = 0.06908301
#
# Stress axis : x y z
#
# Youngs Moduli (GPa) = 63.28998 108.44483 13.31072
#
# Poissons Ratio (x) = 0.35186 0.06962
# Poissons Ratio (y) = 0.20535 0.09394
# Poissons Ratio (z) = 0.33105 0.76538
#
# Static dielectric constant tensor:
#      x y z
#    x 1.844310 0.000000 0.037350 
#    y 0.000000 1.851330 0.000000 
#    z 0.037350 0.000000 1.826410 
# 
# From -- ./inp_files/12120.got.cif
#   From: 2010.05.17/outbox.cif.g08.bks.cpg/sg4_7_cif.got.tgz:12120.got - 2010.06.03 18:43:04.
