data_PCOD9114924
_publ_section_title
;
Structure prediction by ZEFSAII (Michael W. Deem and Ramdas Pophale) SiO2 
 PCOD9114924
Probable space group: P 21
;
_chemical_formula_sum "Si O2"
_cell_formula_units_Z 16
_cell_length_a 9.706059
_cell_length_b 17.215462
_cell_length_c 5.688229
_cell_angle_alpha 90.000000
_cell_angle_beta 138.811737
_cell_angle_gamma 90.000000
_cell_volume 625.918446
_symmetry_space_group_name_H-M "P 21"
_symmetry_group_IT_number 4
_symmetry_cell_setting 'monoclinic'
loop_
_space_group_symop_operation_xyz
x,y,z
-x,1/2+y,-z
loop_
_atom_site_type_symbol
_atom_site_label
_atom_site_fract_x
_atom_site_fract_y
_atom_site_fract_z
Si Si1 0.407710 0.375000 0.752648
Si Si2 0.196105 0.843849 0.410266
Si Si3 0.137067 0.263379 0.689102
Si Si4 0.395741 0.597187 0.209533
Si Si5 0.836342 0.511138 0.786405
Si Si6 0.869043 0.585749 0.332954
Si Si7 0.364831 0.555881 0.674384
Si Si8 0.527027 0.259241 0.535026
O O1 0.347628 0.463394 0.642818
O O2 0.498946 0.339583 0.633422
O O3 0.591999 0.369479 0.182175
O O4 0.223342 0.316692 0.590688
O O5 0.259433 0.770575 0.332546
O O6 0.129614 0.918707 0.175563
O O7 0.032186 0.813805 0.389170
O O8 0.333860 0.250157 0.113953
O O9 0.069942 0.175877 0.546343
O O10 0.590759 0.537033 0.468379
O O11 0.291952 0.590100 0.332529
O O12 0.471993 0.686018 0.293274
O O13 0.277320 0.580766 0.815910
O O14 0.917881 0.537938 0.633767
O O15 0.915590 0.549731 0.132123
O O16 0.610395 0.581565 0.000040
#
# Coordination Sequence:
#
# PCOD9114924 Si02
#       8
#     2   2   2   2   2   2   2   2
#     4  11  23  41  69  95 132 175 221 275 335 397
#     4  11  25  42  65 101 134 173 221 278 336 397
#     4  11  25  42  65 101 134 173 221 278 336 397
#     4  10  19  36  66  92 124 176 224 266 326 395
#     4  10  19  39  66  89 128 179 218 266 334 393
#     4  10  19  39  66  89 128 179 218 266 334 393
#     4  10  19  36  66  92 124 176 224 266 326 395
#     4  11  23  41  69  95 132 175 221 275 335 397
#
# _framework density 25.562434
#
# number of rings (size 3 to 8) (size 9 to 14) (size 15 to 20)
#    0.000    1.500    5.000    3.000    3.500    1.000 
#    0.000    2.500    0.000    0.000    0.000    0.000 
#    0.000    0.000    0.000    0.000    0.000    0.000 
#
# Total GULP energy -89599.511474 kJ/mol
# GULP energy per Si atom -5599.969467 kJ/mol
# Density = 2.550425 g / cm^3
# Si number density = 25.562434 Si / 1000 Ang^3
#
#
#
# Elastic Constant Matrix: (Units=GPa)
#
#
# Indices 1 2 3 4 5 6 
#
# 1 136.7177 40.0197 15.5427 0.0000 -31.9778 0.0000
# 2 40.0197 178.8224 25.8579 0.0000 -9.8759 0.0000
# 3 15.5427 25.8579 103.2617 0.0000 -17.3552 0.0000
# 4 0.0000 0.0000 0.0000 62.9057 0.0000 2.7645
# 5 -31.9778 -9.8759 -17.3552 0.0000 44.0936 0.0000
# 6 0.0000 0.0000 0.0000 2.7645 0.0000 59.4503
#
#
#
# Elastic Compliance Matrix: (Units=1/GPa)
#
#
# Indices 1 2 3 4 5 6 
#
# 1 0.009311 -0.001746 0.000112 0.000000 0.006406 0.000000
# 2 -0.001746 0.006155 -0.001349 0.000000 -0.000419 0.000000
# 3 0.000112 -0.001349 0.010674 0.000000 0.003981 0.000000
# 4 0.000000 0.000000 0.000000 0.015929 0.000000 -0.000741
# 5 0.006406 -0.000419 0.003981 0.000000 0.028798 0.000000
# 6 0.000000 0.000000 0.000000 -0.000741 0.000000 0.016855
#
#
# Mechanical properties :
#
#
# Convention : Reuss Voigt Hill
#
# Bulk Modulus (GPa) = 49.56721 64.62692 57.09706
# Shear Modulus (GPa) = 49.79476 55.78201 52.78839
#
# Velocity S-wave (km/s) = 4.41837 4.67646 4.54924
# Velocity P-wave (km/s) = 6.74255 7.38213 7.06958
#
# Compressibility (1/GPa) = 0.02017463
#
# Stress axis : x y z
#
# Youngs Moduli (GPa) = 107.39996 162.47345 93.68554
#
# Poissons Ratio (x) = 0.28372 -0.01053
# Poissons Ratio (y) = 0.18755 0.12636
# Poissons Ratio (z) = -0.01207 0.21914
#
# Static dielectric constant tensor:
#      x y z
#    x 1.939530 0.000000 -0.040670 
#    y 0.000000 1.950100 0.000000 
#    z -0.040670 0.000000 1.952000 
# 
# From -- ./inp_files/2073.got.cif
#   From: 2010.05.17/outbox.cif.g08.bks.cpg/sg4_2_cif.got.tgz:2073.got - 2010.06.03 18:43:04.
