data_PCOD9114298
_publ_section_title
;
Structure prediction by ZEFSAII (Michael W. Deem and Ramdas Pophale) SiO2 
 PCOD9114298
Probable space group: P 2
;
_chemical_formula_sum "Si O2"
_cell_formula_units_Z 9
_cell_length_a 9.494770
_cell_length_b 9.489487
_cell_length_c 8.445638
_cell_angle_alpha 90.000000
_cell_angle_beta 30.062464
_cell_angle_gamma 90.000000
_cell_volume 381.196314
_symmetry_space_group_name_H-M "P 2"
_symmetry_group_IT_number 3
_symmetry_cell_setting 'monoclinic'
loop_
_space_group_symop_operation_xyz
x,y,z
-x,y,-z
loop_
_atom_site_type_symbol
_atom_site_label
_atom_site_fract_x
_atom_site_fract_y
_atom_site_fract_z
Si Si1 0.182700 0.923010 0.660754
Si Si2 0.846806 0.420255 0.283484
Si Si3 0.661805 0.030148 0.000573
Si Si4 0.342326 0.352795 0.995399
Si Si5 0.500000 0.671697 0.500000
O O1 0.375038 0.782768 0.493116
O O2 0.426101 0.029627 0.368768
O O3 0.000000 0.940768 0.000000
O O4 0.931413 0.935455 0.778386
O O5 0.574601 0.358651 0.632060
O O6 0.742851 0.555770 0.286888
O O7 0.000000 0.326128 0.000000
O O8 0.075596 0.442111 0.198841
O O9 0.756195 0.191820 0.885082
O O10 0.500000 0.983519 0.000000
O O11 0.500000 0.401210 0.000000
#
# Coordination Sequence:
#
# PCOD9114298 Si02
#       5
#     2   2   2   2   1
#     4  12  24  44  73  95 136 180 224 275 333 385
#     4  12  24  44  73  95 136 180 224 275 333 385
#     4  11  25  45  69 103 140 171 215 278 343 403
#     4  11  25  45  69 103 140 171 215 278 343 403
#     4  12  26  48  66  98 138 176 228 294 304 394
#
# _framework density 23.609881000000001
#
# number of rings (size 3 to 8) (size 9 to 14) (size 15 to 20)
#    0.000    0.444    4.444    3.333    0.000    8.889 
#    0.000    6.667    0.000    0.000    0.000    0.000 
#    0.000    0.000    0.000    0.000    0.000    0.000 
#
# Total GULP energy -50104.890146 kJ/mol
# GULP energy per Si atom -5567.210016 kJ/mol
# Density = 2.355614 g / cm^3
# Si number density = 23.609881 Si / 1000 Ang^3
#
#
#
# Elastic Constant Matrix: (Units=GPa)
#
#
# Indices 1 2 3 4 5 6 
#
# 1 168.5798 51.6964 46.2517 0.0000 -61.5068 0.0000
# 2 51.6964 57.7565 30.8727 0.0000 -27.2845 0.0000
# 3 46.2517 30.8727 138.6670 0.0000 -27.1906 0.0000
# 4 0.0000 0.0000 0.0000 2.5134 0.0000 -22.1228
# 5 -61.5068 -27.2845 -27.1906 0.0000 62.8172 0.0000
# 6 0.0000 0.0000 0.0000 -22.1228 0.0000 35.7297
#
#
#
# Elastic Compliance Matrix: (Units=1/GPa)
#
#
# Indices 1 2 3 4 5 6 
#
# 1 0.010634 -0.005443 -0.000827 0.000000 0.007690 0.000000
# 2 -0.005443 0.026019 -0.003067 0.000000 0.004644 0.000000
# 3 -0.000827 -0.003067 0.008469 0.000000 0.001524 0.000000
# 4 0.000000 0.000000 0.000000 -0.089410 0.000000 -0.055360
# 5 0.007690 0.004644 0.001524 0.000000 0.026125 0.000000
# 6 0.000000 0.000000 0.000000 -0.055360 0.000000 -0.006289
#
#
# Mechanical properties :
#
#
# Convention : Reuss Voigt Hill
#
# Bulk Modulus (GPa) = 37.80997 69.18276 53.49636
# Shear Modulus (GPa) = 1645.96448 35.95754 840.96101
#
# Velocity S-wave (km/s) = 26.43226 3.90678 18.89348
# Velocity P-wave (km/s) = 30.78314 7.05100 22.33067
#
# Compressibility (1/GPa) = 0.02644805
#
# Stress axis : x y z
#
# Youngs Moduli (GPa) = 94.04182 38.43283 118.07774
#
# Poissons Ratio (x) = 0.20920 0.09766
# Poissons Ratio (y) = 0.51188 0.36211
# Poissons Ratio (z) = 0.07778 0.11786
#
# Static dielectric constant tensor:
#      x y z
#    x 1.927640 0.000000 0.027720 
#    y 0.000000 1.909080 0.000000 
#    z 0.027720 0.000000 1.936310 
# 
# From -- ./inp_files/5696.got.cif
#   From: 2010.05.17/outbox.cif.g08.bks.cpg/sg3_3_cif.got.tgz:5696.got - 2010.06.03 18:33:08.
