data_PCOD9114040
_publ_section_title
;
Structure prediction by ZEFSAII (Michael W. Deem and Ramdas Pophale) SiO2 
 PCOD9114040
Probable space group: P 2
;
_chemical_formula_sum "Si O2"
_cell_formula_units_Z 12
_cell_length_a 9.840603
_cell_length_b 10.845153
_cell_length_c 9.131143
_cell_angle_alpha 90.000000
_cell_angle_beta 34.085837
_cell_angle_gamma 90.000000
_cell_volume 546.144089
_symmetry_space_group_name_H-M "P 2"
_symmetry_group_IT_number 3
_symmetry_cell_setting 'monoclinic'
loop_
_space_group_symop_operation_xyz
x,y,z
-x,y,-z
loop_
_atom_site_type_symbol
_atom_site_label
_atom_site_fract_x
_atom_site_fract_y
_atom_site_fract_z
Si Si1 0.951026 0.805080 0.372041
Si Si2 0.574464 0.393168 0.270422
Si Si3 0.124658 0.308757 0.544391
Si Si4 0.845400 0.149002 0.008788
Si Si5 0.959798 0.552345 0.862605
Si Si6 0.452246 0.947484 0.870128
O O1 0.695010 0.879356 0.593768
O O2 0.000000 0.782881 0.500000
O O3 0.944421 0.675282 0.295242
O O4 0.196675 0.871972 0.095676
O O5 0.500000 0.432458 0.500000
O O6 0.411609 0.320231 0.297504
O O7 0.757456 0.281354 0.146841
O O8 0.676584 0.515628 0.102014
O O9 0.000000 0.318262 0.500000
O O10 0.018108 0.188380 0.719543
O O11 0.072072 0.432579 0.685088
O O12 0.000000 0.087471 0.000000
O O13 0.622053 0.066651 0.156557
O O14 0.000000 0.554667 0.000000
O O15 0.500000 0.976028 0.000000
#
# Coordination Sequence:
#
# PCOD9114040 Si02
#       6
#     2   2   2   2   2   2
#     4  10  24  47  69 100 135 181 236 292 345 403
#     4  11  21  41  67  99 141 181 217 288 355 422
#     4  11  24  40  66 103 138 176 227 279 356 419
#     4  11  24  41  66 102 137 181 229 286 349 421
#     4  11  23  41  67  99 135 176 228 287 346 415
#     4  10  25  45  71 100 137 183 235 289 344 406
#
# _framework density 21.972224000000001
#
# number of rings (size 3 to 8) (size 9 to 14) (size 15 to 20)
#    0.000    1.333    3.333    1.500    7.000    3.333 
#    3.000    1.667    0.000    0.000    0.000    0.000 
#    0.000    0.000    0.000    0.000    0.000    0.000 
#
# Total GULP energy -66883.458837 kJ/mol
# GULP energy per Si atom -5573.621570 kJ/mol
# Density = 2.192221 g / cm^3
# Si number density = 21.972224 Si / 1000 Ang^3
#
#
#
# Elastic Constant Matrix: (Units=GPa)
#
#
# Indices 1 2 3 4 5 6 
#
# 1 142.2711 62.9320 45.5617 0.0000 -18.8054 0.0000
# 2 62.9320 121.1280 56.6967 0.0000 -0.8271 0.0000
# 3 45.5617 56.6967 76.5651 0.0000 -17.2955 0.0000
# 4 0.0000 0.0000 0.0000 34.9912 0.0000 -4.7097
# 5 -18.8054 -0.8271 -17.2955 0.0000 27.8855 0.0000
# 6 0.0000 0.0000 0.0000 -4.7097 0.0000 10.7474
#
#
#
# Elastic Compliance Matrix: (Units=1/GPa)
#
#
# Indices 1 2 3 4 5 6 
#
# 1 0.010326 -0.004721 -0.001288 0.000000 0.006025 0.000000
# 2 -0.004721 0.015827 -0.011076 0.000000 -0.009584 0.000000
# 3 -0.001288 -0.011076 0.025304 0.000000 0.014497 0.000000
# 4 0.000000 0.000000 0.000000 0.030370 0.000000 0.013309
# 5 0.006025 -0.009584 0.014497 0.000000 0.048631 0.000000
# 6 0.000000 0.000000 0.000000 0.013309 0.000000 0.098878
#
#
# Mechanical properties :
#
#
# Convention : Reuss Voigt Hill
#
# Bulk Modulus (GPa) = 57.84467 74.48278 66.16372
# Shear Modulus (GPa) = 18.56890 26.37641 22.47266
#
# Velocity S-wave (km/s) = 2.91023 3.46850 3.20156
# Velocity P-wave (km/s) = 6.13808 7.07198 6.62151
#
# Compressibility (1/GPa) = 0.01728768
#
# Stress axis : x y z
#
# Youngs Moduli (GPa) = 96.84459 63.18198 39.51999
#
# Poissons Ratio (x) = 0.29827 0.05090
# Poissons Ratio (y) = 0.45719 0.43772
# Poissons Ratio (z) = 0.12472 0.69979
#
# Static dielectric constant tensor:
#      x y z
#    x 2.151700 0.000000 -0.627290 
#    y 0.000000 1.774980 0.000000 
#    z -0.627290 0.000000 2.854650 
# 
# From -- ./inp_files/5878.got.cif
#   From: 2010.05.17/outbox.cif.g08.bks.cpg/sg3_3_cif.got.tgz:5878.got - 2010.06.03 18:33:08.
