data_PCOD9114654
_publ_section_title
;
Structure prediction by ZEFSAII (Michael W. Deem and Ramdas Pophale) SiO2 
 PCOD9114654
Probable space group: P 21
;
_chemical_formula_sum "Si O2"
_cell_formula_units_Z 16
_cell_length_a 21.012079
_cell_length_b 8.060211
_cell_length_c 9.519455
_cell_angle_alpha 90.000000
_cell_angle_beta 154.056495
_cell_angle_gamma 90.000000
_cell_volume 705.326810
_symmetry_space_group_name_H-M "P 21"
_symmetry_group_IT_number 4
_symmetry_cell_setting 'monoclinic'
loop_
_space_group_symop_operation_xyz
x,y,z
-x,1/2+y,-z
loop_
_atom_site_type_symbol
_atom_site_label
_atom_site_fract_x
_atom_site_fract_y
_atom_site_fract_z
Si Si1 0.041524 0.135650 0.717759
Si Si2 0.510869 0.151222 0.853735
Si Si3 0.174435 0.145241 0.274698
Si Si4 0.273919 0.336276 0.015462
Si Si5 0.197854 0.856248 0.856095
Si Si6 0.707378 0.842217 0.266713
Si Si7 0.550273 0.148018 0.598712
Si Si8 0.699245 0.470583 0.242973
O O1 0.885393 0.186299 0.348413
O O2 0.103298 0.970758 0.768942
O O3 0.060819 0.135738 0.923416
O O4 0.146011 0.279025 0.861654
O O5 0.338110 0.146943 0.533364
O O6 0.538289 0.142095 0.742304
O O7 0.587472 0.322856 0.050863
O O8 0.598729 0.991544 0.085223
O O9 0.173794 0.306173 0.376387
O O10 0.180395 0.991152 0.395407
O O11 0.389793 0.186081 0.230593
O O12 0.367915 0.479892 0.277481
O O13 0.230371 0.370564 0.766887
O O14 0.227664 0.936138 0.762581
O O15 0.345149 0.802928 0.226820
O O16 0.632046 0.657836 0.112663
#
# Coordination Sequence:
#
# PCOD9114654 Si02
#       8
#     2   2   2   2   2   2   2   2
#     4  12  23  42  65  89 125 164 218 263 304 378
#     4  10  18  36  61  96 128 159 206 252 313 380
#     4  10  21  38  59  94 124 166 204 260 306 378
#     4  11  20  38  63  92 125 161 208 261 315 377
#     4  11  24  44  61  89 125 169 209 264 318 369
#     4   9  21  35  61  90 126 164 196 253 319 366
#     4  10  22  35  63  95 122 166 207 258 320 374
#     4   9  21  40  61  89 129 169 196 255 319 372
#
# _framework density 22.684519000000002
#
# number of rings (size 3 to 8) (size 9 to 14) (size 15 to 20)
#    0.750    1.000    2.500    2.250    3.500    0.000 
#    0.000    7.500    0.000    0.000    0.000    0.000 
#    0.000    0.000    0.000    0.000    0.000    0.000 
#
# Total GULP energy -89267.619933 kJ/mol
# GULP energy per Si atom -5579.226246 kJ/mol
# Density = 2.263289 g / cm^3
# Si number density = 22.684519 Si / 1000 Ang^3
#
#
#
# Elastic Constant Matrix: (Units=GPa)
#
#
# Indices 1 2 3 4 5 6 
#
# 1 46.4567 12.9775 6.0729 0.0000 -13.1051 0.0000
# 2 12.9775 94.8470 -5.8104 0.0000 -0.0103 0.0000
# 3 6.0729 -5.8104 51.4533 0.0000 -10.2598 0.0000
# 4 0.0000 0.0000 0.0000 29.2383 0.0000 8.6872
# 5 -13.1051 -0.0103 -10.2598 0.0000 28.8845 0.0000
# 6 0.0000 0.0000 0.0000 8.6872 0.0000 28.5049
#
#
#
# Elastic Compliance Matrix: (Units=1/GPa)
#
#
# Indices 1 2 3 4 5 6 
#
# 1 0.025884 -0.003614 -0.001207 0.000000 0.011314 0.000000
# 2 -0.003614 0.011127 0.001460 0.000000 -0.001117 0.000000
# 3 -0.001207 0.001460 0.021130 0.000000 0.006958 0.000000
# 4 0.000000 0.000000 0.000000 0.037607 0.000000 -0.011461
# 5 0.011314 -0.001117 0.006958 0.000000 0.042225 0.000000
# 6 0.000000 0.000000 0.000000 -0.011461 0.000000 0.038575
#
#
# Mechanical properties :
#
#
# Convention : Reuss Voigt Hill
#
# Bulk Modulus (GPa) = 19.44805 24.35968 21.90387
# Shear Modulus (GPa) = 24.94881 29.29334 27.12108
#
# Velocity S-wave (km/s) = 3.31995 3.59741 3.46146
# Velocity P-wave (km/s) = 4.82576 5.29311 5.06483
#
# Compressibility (1/GPa) = 0.05141903
#
# Stress axis : x y z
#
# Youngs Moduli (GPa) = 38.63324 89.87004 47.32618
#
# Poissons Ratio (x) = 0.32483 0.05713
# Poissons Ratio (y) = 0.13964 -0.06911
# Poissons Ratio (z) = 0.04664 -0.13124
#
# Static dielectric constant tensor:
#      x y z
#    x 1.843290 0.000000 -0.026880 
#    y 0.000000 1.928440 0.000000 
#    z -0.026880 0.000000 1.862840 
# 
# From -- ./inp_files/9934.got.cif
#   From: 2010.05.17/outbox.cif.g08.bks.cpg/sg4_5_cif.got.tgz:9934.got - 2010.06.03 18:43:04.
