data_PCOD9114146
_publ_section_title
;
Structure prediction by ZEFSAII (Michael W. Deem and Ramdas Pophale) SiO2 
 PCOD9114146
Probable space group: P 2
;
_chemical_formula_sum "Si O2"
_cell_formula_units_Z 12
_cell_length_a 21.192615
_cell_length_b 4.886436
_cell_length_c 14.977181
_cell_angle_alpha 90.000000
_cell_angle_beta 22.020239
_cell_angle_gamma 90.000000
_cell_volume 581.516131
_symmetry_space_group_name_H-M "P 2"
_symmetry_group_IT_number 3
_symmetry_cell_setting 'monoclinic'
loop_
_space_group_symop_operation_xyz
x,y,z
-x,y,-z
loop_
_atom_site_type_symbol
_atom_site_label
_atom_site_fract_x
_atom_site_fract_y
_atom_site_fract_z
Si Si1 0.912142 0.239490 0.020265
Si Si2 0.812467 0.966227 0.891915
Si Si3 0.312703 0.557821 0.256879
Si Si4 0.300988 0.760706 0.766410
Si Si5 0.179636 0.427220 0.236448
Si Si6 0.142013 0.069608 0.558742
O O1 0.816996 0.500437 0.101631
O O2 0.770213 0.000317 0.205042
O O3 0.000000 0.296552 0.000000
O O4 0.062050 0.132536 0.759180
O O5 0.728249 0.870543 0.094483
O O6 0.843475 0.696340 0.793203
O O7 0.723938 0.195213 0.946733
O O8 0.984356 0.110412 0.699028
O O9 0.255859 0.516731 0.230001
O O10 0.291617 0.270160 0.334829
O O11 0.200869 0.763889 0.461582
O O12 0.500000 0.662054 0.000000
O O13 0.500000 0.701186 0.500000
O O14 0.000000 0.304298 0.500000
#
# Coordination Sequence:
#
# PCOD9114146 Si02
#       6
#     2   2   2   2   2   2
#     4  11  24  45  73  98 129 183 232 270 334 420
#     4  11  21  39  67  94 120 170 221 257 324 386
#     4  12  25  40  59  93 133 170 208 270 334 373
#     4  11  24  45  70 101 139 170 217 296 347 383
#     4  12  21  38  65  92 121 167 222 263 299 406
#     4  11  21  42  66  87 128 172 218 261 323 398
#
# _framework density 20.635712000000002
#
# number of rings (size 3 to 8) (size 9 to 14) (size 15 to 20)
#    0.000    0.667    3.333    7.000    0.000    0.000 
#    9.000    0.000    0.000    0.000    0.000    0.000 
#    0.000    0.000    0.000    0.000    0.000    0.000 
#
# Total GULP energy -66987.318035 kJ/mol
# GULP energy per Si atom -5582.276503 kJ/mol
# Density = 2.058874 g / cm^3
# Si number density = 20.635712 Si / 1000 Ang^3
#
#
#
# Elastic Constant Matrix: (Units=GPa)
#
#
# Indices 1 2 3 4 5 6 
#
# 1 126.2525 40.0513 57.7793 0.0000 19.4069 0.0000
# 2 40.0513 111.0329 12.1477 0.0000 8.9826 0.0000
# 3 57.7793 12.1477 85.2388 0.0000 1.1882 0.0000
# 4 0.0000 0.0000 0.0000 17.5757 0.0000 7.2136
# 5 19.4069 8.9826 1.1882 0.0000 19.1528 0.0000
# 6 0.0000 0.0000 0.0000 7.2136 0.0000 23.4769
#
#
#
# Elastic Compliance Matrix: (Units=1/GPa)
#
#
# Indices 1 2 3 4 5 6 
#
# 1 0.015657 -0.003459 -0.009930 0.000000 -0.013627 0.000000
# 2 -0.003459 0.010266 0.000901 0.000000 -0.001366 0.000000
# 3 -0.009930 0.000901 0.018216 0.000000 0.008510 0.000000
# 4 0.000000 0.000000 0.000000 0.065108 0.000000 -0.020005
# 5 -0.013627 -0.001366 0.008510 0.000000 0.066132 0.000000
# 6 0.000000 0.000000 0.000000 -0.020005 0.000000 0.048742
#
#
# Mechanical properties :
#
#
# Convention : Reuss Voigt Hill
#
# Bulk Modulus (GPa) = 52.18677 60.27563 56.23120
# Shear Modulus (GPa) = 19.57062 26.21081 22.89072
#
# Velocity S-wave (km/s) = 3.08293 3.56781 3.33419
# Velocity P-wave (km/s) = 6.16580 6.80038 6.49085
#
# Compressibility (1/GPa) = 0.01916194
#
# Stress axis : x y z
#
# Youngs Moduli (GPa) = 63.86871 97.40911 54.89662
#
# Poissons Ratio (x) = 0.33693 0.54514
# Poissons Ratio (y) = 0.22092 -0.04944
# Poissons Ratio (z) = 0.63424 -0.08773
#
# Static dielectric constant tensor:
#      x y z
#    x 1.756310 0.000000 0.013400 
#    y 0.000000 1.764190 0.000000 
#    z 0.013400 0.000000 1.727000 
# 
# From -- ./inp_files/14222.got.cif
#   From: 2010.05.17/outbox.cif.g08.bks.cpg/sg3_8_cif.got.tgz:14222.got - 2010.06.03 18:33:08.
