data_PCOD9114631
_publ_section_title
;
Structure prediction by ZEFSAII (Michael W. Deem and Ramdas Pophale) SiO2 
 PCOD9114631
Probable space group: P 21
;
_chemical_formula_sum "Si O2"
_cell_formula_units_Z 16
_cell_length_a 14.187096
_cell_length_b 7.934201
_cell_length_c 20.916331
_cell_angle_alpha 90.000000
_cell_angle_beta 19.608562
_cell_angle_gamma 90.000000
_cell_volume 790.122182
_symmetry_space_group_name_H-M "P 21"
_symmetry_group_IT_number 4
_symmetry_cell_setting 'monoclinic'
loop_
_space_group_symop_operation_xyz
x,y,z
-x,1/2+y,-z
loop_
_atom_site_type_symbol
_atom_site_label
_atom_site_fract_x
_atom_site_fract_y
_atom_site_fract_z
Si Si1 0.072581 0.993320 0.657943
Si Si2 0.177938 0.989901 0.093435
Si Si3 0.975065 0.201928 0.609147
Si Si4 0.865055 0.156304 0.461661
Si Si5 0.237737 0.778918 0.662282
Si Si6 0.385461 0.461313 0.495863
Si Si7 0.292909 0.472772 0.320520
Si Si8 0.409030 0.977325 0.089341
O O1 0.145029 0.831352 0.567863
O O2 0.216945 0.945090 0.631768
O O3 0.738374 0.002397 0.885135
O O4 0.137504 0.148556 0.569881
O O5 0.058200 0.176733 0.151791
O O6 0.888648 0.890349 0.290877
O O7 0.329579 0.984165 0.065212
O O8 0.395644 0.931009 0.901736
O O9 0.147928 0.321740 0.451417
O O10 0.701471 0.304888 0.808126
O O11 0.879015 0.037935 0.631099
O O12 0.722746 0.018426 0.504636
O O13 0.718112 0.130205 0.623112
O O14 0.197420 0.113492 0.255765
O O15 0.430937 0.642095 0.502154
O O16 0.360350 0.836662 0.651764
#
# Coordination Sequence:
#
# PCOD9114631 Si02
#       8
#     2   2   2   2   2   2   2   2
#     4  11  18  34  57  90 116 157 201 248 297 360
#     4   9  19  37  62  82 121 152 194 260 286 358
#     4  11  23  32  58  85 126 164 190 244 289 379
#     4   9  20  35  59  80 127 155 192 251 291 361
#     4   9  19  35  65  85 116 151 202 261 299 337
#     4   8  18  36  61  86 108 157 202 255 299 330
#     4  11  21  38  53  87 123 167 193 231 309 363
#     4  10  18  35  57  89 115 155 202 242 304 340
#
# _framework density 20.250032000000001
#
# number of rings (size 3 to 8) (size 9 to 14) (size 15 to 20)
#    0.750    1.500    2.500    2.250    0.000    3.000 
#    0.000    0.000   11.000    0.000    0.000    0.000 
#    0.000    0.000    0.000    0.000    0.000    0.000 
#
# Total GULP energy -89103.008739 kJ/mol
# GULP energy per Si atom -5568.938046 kJ/mol
# Density = 2.020394 g / cm^3
# Si number density = 20.250032 Si / 1000 Ang^3
#
#
#
# Elastic Constant Matrix: (Units=GPa)
#
#
# Indices 1 2 3 4 5 6 
#
# 1 73.9864 15.6535 37.2954 0.0000 -3.6673 0.0000
# 2 15.6535 59.4929 17.4835 0.0000 -2.5255 0.0000
# 3 37.2954 17.4835 75.7271 0.0000 17.9266 0.0000
# 4 0.0000 0.0000 0.0000 23.0271 0.0000 3.2819
# 5 -3.6673 -2.5255 17.9266 0.0000 23.0002 0.0000
# 6 0.0000 0.0000 0.0000 3.2819 0.0000 44.7389
#
#
#
# Elastic Compliance Matrix: (Units=1/GPa)
#
#
# Indices 1 2 3 4 5 6 
#
# 1 0.021202 -0.001040 -0.013458 0.000000 0.013756 0.000000
# 2 -0.001040 0.018887 -0.005273 0.000000 0.006018 0.000000
# 3 -0.013458 -0.005273 0.026605 0.000000 -0.023461 0.000000
# 4 0.000000 0.000000 0.000000 0.043886 0.000000 -0.003219
# 5 0.013756 0.006018 -0.023461 0.000000 0.064618 0.000000
# 6 0.000000 0.000000 0.000000 -0.003219 0.000000 0.022588
#
#
# Mechanical properties :
#
#
# Convention : Reuss Voigt Hill
#
# Bulk Modulus (GPa) = 36.82996 38.89680 37.86338
# Shear Modulus (GPa) = 20.29395 27.40482 23.84938
#
# Velocity S-wave (km/s) = 3.16914 3.68274 3.43555
# Velocity P-wave (km/s) = 5.62302 6.11011 5.87162
#
# Compressibility (1/GPa) = 0.02715181
#
# Stress axis : x y z
#
# Youngs Moduli (GPa) = 47.16565 52.94525 37.58722
#
# Poissons Ratio (x) = 0.05504 0.50586
# Poissons Ratio (y) = 0.04903 0.19821
# Poissons Ratio (z) = 0.63477 0.27920
#
# Static dielectric constant tensor:
#      x y z
#    x 1.732210 0.000000 -0.013330 
#    y 0.000000 1.820210 0.000000 
#    z -0.013330 0.000000 1.691210 
# 
# From -- ./inp_files/15799.got.cif
#   From: 2010.05.17/outbox.cif.g08.bks.cpg/sg4_8_cif.got.tgz:15799.got - 2010.06.03 18:43:04.
