data_PCOD9114778
_publ_section_title
;
Structure prediction by ZEFSAII (Michael W. Deem and Ramdas Pophale) SiO2 
 PCOD9114778
Probable space group: P 21
;
_chemical_formula_sum "Si O2"
_cell_formula_units_Z 16
_cell_length_a 20.045520
_cell_length_b 8.082256
_cell_length_c 9.994829
_cell_angle_alpha 90.000000
_cell_angle_beta 150.283158
_cell_angle_gamma 90.000000
_cell_volume 802.705917
_symmetry_space_group_name_H-M "P 21"
_symmetry_group_IT_number 4
_symmetry_cell_setting 'monoclinic'
loop_
_space_group_symop_operation_xyz
x,y,z
-x,1/2+y,-z
loop_
_atom_site_type_symbol
_atom_site_label
_atom_site_fract_x
_atom_site_fract_y
_atom_site_fract_z
Si Si1 0.846568 0.540750 0.917367
Si Si2 0.147650 0.531087 0.461504
Si Si3 0.568518 0.492751 0.549225
Si Si4 0.419512 0.627076 0.042144
Si Si5 0.575752 0.491930 0.068020
Si Si6 0.849691 0.157520 0.830606
Si Si7 0.566120 0.121895 0.431734
Si Si8 0.847163 0.653976 0.626713
O O1 0.722798 0.550999 0.802496
O O2 0.847614 0.353169 0.859408
O O3 0.826752 0.655172 0.752097
O O4 0.994188 0.566926 0.235131
O O5 0.262743 0.581225 0.764203
O O6 0.171050 0.628388 0.363019
O O7 0.161772 0.337843 0.448257
O O8 0.559632 0.306643 0.478707
O O9 0.510711 0.508757 0.596127
O O10 0.481435 0.602076 0.295049
O O11 0.437368 0.810053 0.015100
O O12 0.498981 0.511238 0.074847
O O13 0.730103 0.543231 0.360433
O O14 0.504804 0.609347 0.835396
O O15 0.723319 0.078494 0.686105
O O16 0.999061 0.092911 0.125644
#
# Coordination Sequence:
#
# PCOD9114778 Si02
#       8
#     2   2   2   2   2   2   2   2
#     4   9  19  35  56  83 116 151 190 235 286 342
#     4  10  19  33  57  87 115 147 189 239 289 339
#     4  11  23  40  60  85 118 155 193 237 288 347
#     4  12  23  37  58  87 117 151 194 241 287 340
#     4  12  23  37  58  87 117 151 194 241 287 340
#     4   9  19  35  56  83 116 151 190 235 286 342
#     4  11  23  40  60  85 118 155 193 237 288 347
#     4  10  19  33  57  87 115 147 189 239 289 339
#
# _framework density 19.932579
#
# number of rings (size 3 to 8) (size 9 to 14) (size 15 to 20)
#    0.000    1.500    2.500    3.750    0.000    2.000 
#    0.000    1.250    0.000    0.000    0.000    0.000 
#    0.000    0.000    0.000    0.000    0.000    0.000 
#
# Total GULP energy -89435.170448 kJ/mol
# GULP energy per Si atom -5589.698153 kJ/mol
# Density = 1.988721 g / cm^3
# Si number density = 19.932579 Si / 1000 Ang^3
#
#
#
# Elastic Constant Matrix: (Units=GPa)
#
#
# Indices 1 2 3 4 5 6 
#
# 1 78.6199 -0.0733 41.9631 0.0000 17.9713 0.0000
# 2 -0.0733 35.3964 11.3007 0.0000 6.0572 0.0000
# 3 41.9631 11.3007 105.1518 0.0000 28.2069 0.0000
# 4 0.0000 0.0000 0.0000 18.8945 0.0000 -7.6049
# 5 17.9713 6.0572 28.2069 0.0000 30.5626 0.0000
# 6 0.0000 0.0000 0.0000 -7.6049 0.0000 23.2960
#
#
#
# Elastic Compliance Matrix: (Units=1/GPa)
#
#
# Indices 1 2 3 4 5 6 
#
# 1 0.016941 0.002741 -0.005632 0.000000 -0.005307 0.000000
# 2 0.002741 0.030044 -0.003048 0.000000 -0.004754 0.000000
# 3 -0.005632 -0.003048 0.014665 0.000000 -0.009620 0.000000
# 4 0.000000 0.000000 0.000000 0.060931 0.000000 0.019891
# 5 -0.005307 -0.004754 -0.009620 0.000000 0.045661 0.000000
# 6 0.000000 0.000000 0.000000 0.019891 0.000000 0.049419
#
#
# Mechanical properties :
#
#
# Convention : Reuss Voigt Hill
#
# Bulk Modulus (GPa) = 20.09077 36.17214 28.13145
# Shear Modulus (GPa) = 20.31458 25.61579 22.96518
#
# Velocity S-wave (km/s) = 3.19590 3.58875 3.39801
# Velocity P-wave (km/s) = 4.87028 5.94633 5.43500
#
# Compressibility (1/GPa) = 0.04977410
#
# Stress axis : x y z
#
# Youngs Moduli (GPa) = 59.02834 33.28504 68.18742
#
# Poissons Ratio (x) = -0.09124 0.38400
# Poissons Ratio (y) = -0.16181 0.20781
# Poissons Ratio (z) = 0.33242 0.10144
#
# Static dielectric constant tensor:
#      x y z
#    x 1.669790 0.000000 0.036320 
#    y 0.000000 1.734630 0.000000 
#    z 0.036320 0.000000 1.700550 
# 
# From -- ./inp_files/5406.got.cif
#   From: 2010.05.17/outbox.cif.g08.bks.cpg/sg4_3_cif.got.tgz:5406.got - 2010.06.03 18:43:04.
