data_PCOD9114142
_publ_section_title
;
Structure prediction by ZEFSAII (Michael W. Deem and Ramdas Pophale) SiO2 
 PCOD9114142
Probable space group: P 2
;
_chemical_formula_sum "Si O2"
_cell_formula_units_Z 14
_cell_length_a 5.457464
_cell_length_b 13.804000
_cell_length_c 10.505717
_cell_angle_alpha 90.000000
_cell_angle_beta 69.140245
_cell_angle_gamma 90.000000
_cell_volume 739.570937
_symmetry_space_group_name_H-M "P 2"
_symmetry_group_IT_number 3
_symmetry_cell_setting 'monoclinic'
loop_
_space_group_symop_operation_xyz
x,y,z
-x,y,-z
loop_
_atom_site_type_symbol
_atom_site_label
_atom_site_fract_x
_atom_site_fract_y
_atom_site_fract_z
Si Si1 0.313715 0.497980 0.409916
Si Si2 0.192928 0.299768 0.342831
Si Si3 0.032756 0.190978 0.138680
Si Si4 0.508258 0.106630 0.346859
Si Si5 0.795146 0.914137 0.656237
Si Si6 0.796493 0.985549 0.920916
Si Si7 0.687194 0.710907 0.589407
O O1 0.500000 0.487899 0.500000
O O2 0.349710 0.400521 0.321289
O O3 0.374001 0.604522 0.342412
O O4 0.000000 0.500939 0.500000
O O5 0.071307 0.280213 0.227153
O O6 0.342006 0.199681 0.337162
O O7 0.000000 0.303842 0.500000
O O8 0.786679 0.131693 0.238127
O O9 0.235491 0.101445 0.098688
O O10 0.000000 0.223997 0.000000
O O11 0.500000 0.104695 0.500000
O O12 0.400918 0.003909 0.322654
O O13 0.911535 0.932519 0.774456
O O14 0.658710 0.809550 0.673310
O O15 0.000000 0.921230 0.500000
O O16 0.500000 0.948232 0.000000
O O17 0.000000 0.975048 0.000000
O O18 0.500000 0.719787 0.500000
O O19 0.000000 0.709185 0.500000
#
# Coordination Sequence:
#
# PCOD9114142 Si02
#       7
#     2   2   2   2   2   2   2
#     4   9  19  35  57  83 117 151 191 238 293 349
#     4  11  21  35  56  86 114 154 193 244 291 350
#     4  11  24  37  54  81 121 158 199 235 291 352
#     4  12  21  34  56  85 121 151 191 244 293 350
#     4  11  21  36  61  89 118 152 197 248 292 340
#     4  11  24  41  56  80 119 166 196 227 285 360
#     4   9  19  35  55  87 118 148 189 243 293 340
#
# _framework density 18.929894000000001
#
# number of rings (size 3 to 8) (size 9 to 14) (size 15 to 20)
#    0.000    1.429    2.857    3.857    2.000    3.429 
#    0.000    0.000    0.000    0.857    3.714    0.000 
#    0.000    0.000    0.000    0.000    0.000    0.000 
#
# Total GULP energy -77993.169253 kJ/mol
# GULP energy per Si atom -5570.940661 kJ/mol
# Density = 1.888681 g / cm^3
# Si number density = 18.929894 Si / 1000 Ang^3
#
#
#
# Elastic Constant Matrix: (Units=GPa)
#
#
# Indices 1 2 3 4 5 6 
#
# 1 84.9686 39.0730 41.2503 0.0000 9.0032 0.0000
# 2 39.0730 186.9500 40.8283 0.0000 27.9976 0.0000
# 3 41.2503 40.8283 120.8659 0.0000 25.2333 0.0000
# 4 0.0000 0.0000 0.0000 21.3571 0.0000 49.7540
# 5 9.0032 27.9976 25.2333 0.0000 33.1116 0.0000
# 6 0.0000 0.0000 0.0000 49.7540 0.0000 97.1476
#
#
#
# Elastic Compliance Matrix: (Units=1/GPa)
#
#
# Indices 1 2 3 4 5 6 
#
# 1 0.014923 -0.002326 -0.004603 0.000000 0.001417 0.000000
# 2 -0.002326 0.006631 -0.000485 0.000000 -0.004605 0.000000
# 3 -0.004603 -0.000485 0.011489 0.000000 -0.007094 0.000000
# 4 0.000000 0.000000 0.000000 -0.242461 0.000000 0.124176
# 5 0.001417 -0.004605 -0.007094 0.000000 0.039115 0.000000
# 6 0.000000 0.000000 0.000000 0.124176 0.000000 -0.053303
#
#
# Mechanical properties :
#
#
# Convention : Reuss Voigt Hill
#
# Bulk Modulus (GPa) = 54.89787 70.56532 62.73160
# Shear Modulus (GPa) = -24.66632 48.43211 11.88289
#
# Velocity S-wave (km/s) = -3.61367 5.06365 2.50818
# Velocity P-wave (km/s) = 3.41351 8.45846 6.44971
#
# Compressibility (1/GPa) = 0.01821564
#
# Stress axis : x y z
#
# Youngs Moduli (GPa) = 67.00938 150.81606 87.03604
#
# Poissons Ratio (x) = 0.35078 0.40065
# Poissons Ratio (y) = 0.15586 0.04218
# Poissons Ratio (z) = 0.30846 0.07310
#
# Static dielectric constant tensor:
#      x y z
#    x 1.132120 0.000000 0.443650 
#    y 0.000000 1.706630 0.000000 
#    z 0.443650 0.000000 1.385020 
# 
# From -- ./inp_files/4498.got.cif
#   From: 2010.05.17/outbox.cif.g08.bks.cpg/sg3_3_cif.got.tgz:4498.got - 2010.06.03 18:33:08.
