data_PCOD9114036
_publ_section_title
;
Structure prediction by ZEFSAII (Michael W. Deem and Ramdas Pophale) SiO2 
 PCOD9114036
Probable space group: P 2
;
_chemical_formula_sum "Si O2"
_cell_formula_units_Z 11
_cell_length_a 11.435449
_cell_length_b 6.666514
_cell_length_c 6.937542
_cell_angle_alpha 90.000000
_cell_angle_beta 98.780795
_cell_angle_gamma 90.000000
_cell_volume 522.681917
_symmetry_space_group_name_H-M "P 2"
_symmetry_group_IT_number 3
_symmetry_cell_setting 'monoclinic'
loop_
_space_group_symop_operation_xyz
x,y,z
-x,y,-z
loop_
_atom_site_type_symbol
_atom_site_label
_atom_site_fract_x
_atom_site_fract_y
_atom_site_fract_z
Si Si1 0.500000 0.640950 0.500000
Si Si2 0.500000 0.156127 0.000000
Si Si3 0.909885 0.234363 0.310750
Si Si4 0.647955 0.996633 0.686073
Si Si5 0.000000 0.519682 0.000000
Si Si6 0.340540 0.322516 0.656720
Si Si7 0.132539 0.916980 0.996612
O O1 0.603570 0.782412 0.604046
O O2 0.430497 0.499058 0.627822
O O3 0.387429 0.265601 0.880257
O O4 0.553677 0.045479 0.829573
O O5 0.799126 0.361186 0.365521
O O6 0.000000 0.171056 0.500000
O O7 0.981088 0.377113 0.179611
O O8 0.847781 0.035479 0.199357
O O9 0.774540 0.986666 0.821410
O O10 0.645820 0.154943 0.509838
O O11 0.888623 0.676714 0.988415
O O12 0.000000 0.991470 0.000000
#
# Coordination Sequence:
#
# PCOD9114036 Si02
#       7
#     1   1   2   2   1   2   2
#     4  12  26  46  72 108 142 184 232 308 336 414
#     4  12  22  48  70  98 142 188 232 280 352 418
#     4  12  26  45  76 105 143 189 232 292 359 413
#     4  12  25  48  71 105 146 182 238 289 354 423
#     4  10  26  46  64 118 132 182 244 288 342 424
#     4  12  27  45  73 105 146 183 237 292 351 423
#     4  10  24  46  74  95 146 186 227 291 353 406
#
# _framework density 21.045304000000002
#
# number of rings (size 3 to 8) (size 9 to 14) (size 15 to 20)
#    0.545    0.000    6.364    1.091    2.545    5.818 
#    0.000    0.000    0.000    0.000    0.000    0.000 
#    0.000    0.000    0.000    0.000    0.000    0.000 
#
# Total GULP energy -61240.277341 kJ/mol
# GULP energy per Si atom -5567.297940 kJ/mol
# Density = 2.099740 g / cm^3
# Si number density = 21.045304 Si / 1000 Ang^3
#
#
#
# Elastic Constant Matrix: (Units=GPa)
#
#
# Indices 1 2 3 4 5 6 
#
# 1 81.4334 1.8023 13.8702 0.0000 18.0228 0.0000
# 2 1.8023 84.8896 36.6453 0.0000 0.2770 0.0000
# 3 13.8702 36.6453 102.5661 0.0000 22.3677 0.0000
# 4 0.0000 0.0000 0.0000 12.3930 0.0000 10.0835
# 5 18.0228 0.2770 22.3677 0.0000 54.8669 0.0000
# 6 0.0000 0.0000 0.0000 10.0835 0.0000 25.7478
#
#
#
# Elastic Compliance Matrix: (Units=1/GPa)
#
#
# Indices 1 2 3 4 5 6 
#
# 1 0.013325 0.000158 -0.000992 0.000000 -0.003973 0.000000
# 2 0.000158 0.014165 -0.005549 0.000000 0.002139 0.000000
# 3 -0.000992 -0.005549 0.012940 0.000000 -0.004921 0.000000
# 4 0.000000 0.000000 0.000000 0.118427 0.000000 -0.046379
# 5 -0.003973 0.002139 -0.004921 0.000000 0.021527 0.000000
# 6 0.000000 0.000000 0.000000 -0.046379 0.000000 0.057001
#
#
# Mechanical properties :
#
#
# Convention : Reuss Voigt Hill
#
# Bulk Modulus (GPa) = 36.14723 41.50275 38.82499
# Shear Modulus (GPa) = 19.27744 33.03961 26.15853
#
# Velocity S-wave (km/s) = 3.02983 3.96653 3.52939
# Velocity P-wave (km/s) = 5.42706 6.38289 5.92429
#
# Compressibility (1/GPa) = 0.02766463
#
# Stress axis : x y z
#
# Youngs Moduli (GPa) = 75.04789 70.59680 77.28175
#
# Poissons Ratio (x) = -0.01117 0.07666
# Poissons Ratio (y) = -0.01188 0.42881
# Poissons Ratio (z) = 0.07445 0.39172
#
# Static dielectric constant tensor:
#      x y z
#    x 1.608450 0.000000 0.213830 
#    y 0.000000 1.810870 0.000000 
#    z 0.213830 0.000000 1.402300 
# 
# From -- ./inp_files/2783.got.cif
#   From: 2010.05.17/outbox.cif.g08.bks.cpg/sg3_2_cif.got.tgz:2783.got - 2010.06.03 18:33:08.
