data_PCOD9114086
_publ_section_title
;
Structure prediction by ZEFSAII (Michael W. Deem and Ramdas Pophale) SiO2 
 PCOD9114086
Probable space group: P 2
;
_chemical_formula_sum "Si O2"
_cell_formula_units_Z 8
_cell_length_a 14.713217
_cell_length_b 4.818121
_cell_length_c 9.250301
_cell_angle_alpha 90.000000
_cell_angle_beta 27.960491
_cell_angle_gamma 90.000000
_cell_volume 307.458711
_symmetry_space_group_name_H-M "P 2"
_symmetry_group_IT_number 3
_symmetry_cell_setting 'monoclinic'
loop_
_space_group_symop_operation_xyz
x,y,z
-x,y,-z
loop_
_atom_site_type_symbol
_atom_site_label
_atom_site_fract_x
_atom_site_fract_y
_atom_site_fract_z
Si Si1 0.145494 0.287700 0.530243
Si Si2 0.132813 0.764726 0.120789
Si Si3 0.574707 0.899660 0.037864
Si Si4 0.779954 0.680825 0.309918
O O1 0.207890 0.416111 0.599081
O O2 0.041540 0.552905 0.607300
O O3 0.315727 0.158646 0.192350
O O4 0.976038 0.053702 0.764239
O O5 0.251095 0.643230 0.816907
O O6 0.274287 0.795762 0.056021
O O7 0.375049 0.893376 0.408461
O O8 0.500000 0.734987 0.000000
O O9 0.000000 0.789857 0.000000
#
# Coordination Sequence:
#
# PCOD9114086 Si02
#       4
#     2   2   2   2
#     4  11  27  50  81 120 164 213 275 346 413 485
#     4  11  27  53  82 118 167 222 273 337 415 497
#     4  12  27  47  81 123 164 211 272 338 408 483
#     4  10  25  52  82 115 161 216 272 331 404 489
#
# _framework density 26.019756000000001
#
# number of rings (size 3 to 8) (size 9 to 14) (size 15 to 20)
#    0.000    1.000    0.000    4.500    0.000   28.000 
#    0.000    5.000    0.000    0.000    0.000    0.000 
#    0.000    0.000    0.000    0.000    0.000    0.000 
#
# Total GULP energy -44668.257089 kJ/mol
# GULP energy per Si atom -5583.532136 kJ/mol
# Density = 2.596053 g / cm^3
# Si number density = 26.019756 Si / 1000 Ang^3
#
#
#
# Elastic Constant Matrix: (Units=GPa)
#
#
# Indices 1 2 3 4 5 6 
#
# 1 270.6098 109.7904 105.5120 0.0000 17.7634 0.0000
# 2 109.7904 144.7700 69.7222 0.0000 -2.2816 0.0000
# 3 105.5120 69.7222 232.5906 0.0000 21.4230 0.0000
# 4 0.0000 0.0000 0.0000 46.5462 0.0000 11.8532
# 5 17.7634 -2.2816 21.4230 0.0000 43.3367 0.0000
# 6 0.0000 0.0000 0.0000 11.8532 0.0000 6.8554
#
#
#
# Elastic Compliance Matrix: (Units=1/GPa)
#
#
# Indices 1 2 3 4 5 6 
#
# 1 0.005920 -0.003873 -0.001343 0.000000 -0.001966 0.000000
# 2 -0.003873 0.010729 -0.001736 0.000000 0.003011 0.000000
# 3 -0.001343 -0.001736 0.005644 0.000000 -0.002331 0.000000
# 4 0.000000 0.000000 0.000000 0.038385 0.000000 -0.066369
# 5 -0.001966 0.003011 -0.002331 0.000000 0.025192 0.000000
# 6 0.000000 0.000000 0.000000 -0.066369 0.000000 0.260623
#
#
# Mechanical properties :
#
#
# Convention : Reuss Voigt Hill
#
# Bulk Modulus (GPa) = 119.23916 135.33551 127.28734
# Shear Modulus (GPa) = 13.76677 43.54405 28.65541
#
# Velocity S-wave (km/s) = 2.30269 4.09528 3.32218
# Velocity P-wave (km/s) = 7.27982 8.63060 7.98383
#
# Compressibility (1/GPa) = 0.00838651
#
# Stress axis : x y z
#
# Youngs Moduli (GPa) = 168.92888 93.20805 177.18418
#
# Poissons Ratio (x) = 0.36104 0.23798
# Poissons Ratio (y) = 0.65434 0.30763
# Poissons Ratio (z) = 0.22690 0.16183
#
# Static dielectric constant tensor:
#      x y z
#    x 2.109750 0.000000 0.024980 
#    y 0.000000 2.049300 0.000000 
#    z 0.024980 0.000000 2.095520 
# 
# From -- ./inp_files/8115.got.cif
#   From: 2010.05.17/outbox.cif.g08.bks.cpg/sg3_5_cif.got.tgz:8115.got - 2010.06.03 18:33:08.
