data_PCOD9114160
_publ_section_title
;
Structure prediction by ZEFSAII (Michael W. Deem and Ramdas Pophale) SiO2 
 PCOD9114160
Probable space group: P 2
;
_chemical_formula_sum "Si O2"
_cell_formula_units_Z 15
_cell_length_a 19.406268
_cell_length_b 6.758958
_cell_length_c 7.926650
_cell_angle_alpha 90.000000
_cell_angle_beta 42.025487
_cell_angle_gamma 90.000000
_cell_volume 696.044188
_symmetry_space_group_name_H-M "P 2"
_symmetry_group_IT_number 3
_symmetry_cell_setting 'monoclinic'
loop_
_space_group_symop_operation_xyz
x,y,z
-x,y,-z
loop_
_atom_site_type_symbol
_atom_site_label
_atom_site_fract_x
_atom_site_fract_y
_atom_site_fract_z
Si Si1 0.883996 0.345570 0.773521
Si Si2 0.819164 0.602657 0.212334
Si Si3 0.764357 0.987430 0.150589
Si Si4 0.500000 0.561800 0.500000
Si Si5 0.574142 0.203515 0.998925
Si Si6 0.628760 0.353244 0.482171
Si Si7 0.642438 0.824709 0.061187
Si Si8 0.236688 0.491806 0.340018
O O1 0.817415 0.417183 0.733375
O O2 0.000000 0.335855 0.500000
O O3 0.872748 0.490095 0.957670
O O4 0.842421 0.133135 0.911897
O O5 0.818922 0.836697 0.179769
O O6 0.701530 0.525875 0.412886
O O7 0.842381 0.531631 0.361017
O O8 0.705084 0.853149 0.121428
O O9 0.685097 0.142702 0.380192
O O10 0.598316 0.421933 0.349627
O O11 0.536416 0.711063 0.289456
O O12 0.483634 0.343008 0.233400
O O13 0.616146 0.042076 0.048417
O O14 0.500000 0.090808 0.000000
O O15 0.673616 0.334309 0.770980
O O16 0.708319 0.697898 0.809409
#
# Coordination Sequence:
#
# PCOD9114160 Si02
#       8
#     2   2   2   1   2   2   2   2
#     4  11  26  51  79  99 131 180 233 297 371 432
#     4  11  25  44  71 103 140 175 233 290 355 421
#     4  11  22  44  68 103 133 181 235 296 347 418
#     4  12  20  36  58  94 140 194 238 278 330 400
#     4  12  25  38  59  99 144 194 236 274 331 414
#     4  11  22  36  60  93 141 188 228 275 328 400
#     4  12  23  37  64  95 138 187 237 283 337 406
#     4  12  25  46  70 103 145 185 230 292 355 417
#
# _framework density 21.550355
#
# number of rings (size 3 to 8) (size 9 to 14) (size 15 to 20)
#    0.000    0.533    6.667    2.400    1.867    1.600 
#    0.000    0.000    0.000    0.000    0.000    0.000 
#    0.000    0.000    0.000    0.000    0.000    0.000 
#
# Total GULP energy -83674.886775 kJ/mol
# GULP energy per Si atom -5578.325785 kJ/mol
# Density = 2.150131 g / cm^3
# Si number density = 21.550355 Si / 1000 Ang^3
#
#
#
# Elastic Constant Matrix: (Units=GPa)
#
#
# Indices 1 2 3 4 5 6 
#
# 1 38.5340 9.5108 33.7723 0.0000 9.4713 0.0000
# 2 9.5108 114.7132 45.9619 0.0000 6.8378 0.0000
# 3 33.7723 45.9619 134.4004 0.0000 7.0523 0.0000
# 4 0.0000 0.0000 0.0000 15.0055 0.0000 10.7194
# 5 9.4713 6.8378 7.0523 0.0000 30.8395 0.0000
# 6 0.0000 0.0000 0.0000 10.7194 0.0000 27.0366
#
#
#
# Elastic Compliance Matrix: (Units=1/GPa)
#
#
# Indices 1 2 3 4 5 6 
#
# 1 0.035713 0.001146 -0.008884 0.000000 -0.009191 0.000000
# 2 0.001146 0.010204 -0.003685 0.000000 -0.001772 0.000000
# 3 -0.008884 -0.003685 0.010877 0.000000 0.001058 0.000000
# 4 0.000000 0.000000 0.000000 0.092975 0.000000 -0.036862
# 5 -0.009191 -0.001772 0.001058 0.000000 0.035399 0.000000
# 6 0.000000 0.000000 0.000000 -0.036862 0.000000 0.051602
#
#
# Mechanical properties :
#
#
# Convention : Reuss Voigt Hill
#
# Bulk Modulus (GPa) = 29.45469 51.79308 40.62389
# Shear Modulus (GPa) = 18.45479 27.80318 23.12898
#
# Velocity S-wave (km/s) = 2.92953 3.59576 3.27961
# Velocity P-wave (km/s) = 5.01402 6.42845 5.76478
#
# Compressibility (1/GPa) = 0.03395045
#
# Stress axis : x y z
#
# Youngs Moduli (GPa) = 28.00088 97.99767 91.93402
#
# Poissons Ratio (x) = -0.11234 0.81672
# Poissons Ratio (y) = -0.03210 0.33875
# Poissons Ratio (z) = 0.24875 0.36109
#
# Static dielectric constant tensor:
#      x y z
#    x 2.008280 0.000000 0.150450 
#    y 0.000000 1.772190 0.000000 
#    z 0.150450 0.000000 1.854910 
# 
# From -- ./inp_files/9330.got.cif
#   From: 2010.05.17/outbox.cif.g08.bks.cpg/sg3_5_cif.got.tgz:9330.got - 2010.06.03 18:33:08.
