data_PCOD9114282
_publ_section_title
;
Structure prediction by ZEFSAII (Michael W. Deem and Ramdas Pophale) SiO2 
 PCOD9114282
Probable space group: P 2
;
_chemical_formula_sum "Si O2"
_cell_formula_units_Z 12
_cell_length_a 16.395678
_cell_length_b 5.375744
_cell_length_c 9.824116
_cell_angle_alpha 90.000000
_cell_angle_beta 34.481345
_cell_angle_gamma 90.000000
_cell_volume 490.211680
_symmetry_space_group_name_H-M "P 2"
_symmetry_group_IT_number 3
_symmetry_cell_setting 'monoclinic'
loop_
_space_group_symop_operation_xyz
x,y,z
-x,y,-z
loop_
_atom_site_type_symbol
_atom_site_label
_atom_site_fract_x
_atom_site_fract_y
_atom_site_fract_z
Si Si1 0.330978 0.623840 0.903815
Si Si2 0.662610 0.932806 0.821716
Si Si3 0.500000 0.323523 0.500000
Si Si4 0.203960 0.008619 0.885184
Si Si5 0.862688 0.328548 0.652923
Si Si6 0.070470 0.711260 0.663177
Si Si7 0.000000 0.322588 0.000000
O O1 0.480228 0.494751 0.660899
O O2 0.274827 0.752114 0.843599
O O3 0.333457 0.800790 0.033336
O O4 0.217688 0.412884 0.101462
O O5 0.764026 0.801887 0.570062
O O6 0.740479 0.195034 0.735515
O O7 0.500000 0.948948 0.000000
O O8 0.352191 0.169120 0.698356
O O9 0.135149 0.142874 0.847694
O O10 0.043934 0.938125 0.172119
O O11 0.929319 0.554069 0.476256
O O12 0.000000 0.160632 0.500000
O O13 0.033804 0.512736 0.830486
#
# Coordination Sequence:
#
# PCOD9114282 Si02
#       7
#     2   2   1   2   2   2   1
#     4  11  26  49  79 114 160 203 269 332 389 474
#     4  11  28  48  78 115 161 213 264 331 404 468
#     4  12  28  48  82 116 162 210 270 320 408 476
#     4  12  26  51  76 113 154 216 256 328 390 473
#     4  11  24  48  82 111 149 205 274 329 394 468
#     4  11  26  49  79 114 160 203 269 332 389 474
#     4  12  28  48  82 116 162 210 270 320 408 476
#
# _framework density 24.479220999999999
#
# number of rings (size 3 to 8) (size 9 to 14) (size 15 to 20)
#    0.000    0.667    1.667    4.000    9.333    2.667 
#   15.000    0.000    0.000    0.000    0.000    0.000 
#    0.000    0.000    0.000    0.000    0.000    0.000 
#
# Total GULP energy -66804.820073 kJ/mol
# GULP energy per Si atom -5567.068339 kJ/mol
# Density = 2.442350 g / cm^3
# Si number density = 24.479221 Si / 1000 Ang^3
#
#
#
# Elastic Constant Matrix: (Units=GPa)
#
#
# Indices 1 2 3 4 5 6 
#
# 1 112.5880 50.0165 73.5717 0.0000 -35.7521 0.0000
# 2 50.0165 66.8089 54.0128 0.0000 7.8856 0.0000
# 3 73.5717 54.0128 167.4001 0.0000 -5.4023 0.0000
# 4 0.0000 0.0000 0.0000 34.3383 0.0000 1.2347
# 5 -35.7521 7.8856 -5.4023 0.0000 52.2182 0.0000
# 6 0.0000 0.0000 0.0000 1.2347 0.0000 19.4560
#
#
#
# Elastic Compliance Matrix: (Units=1/GPa)
#
#
# Indices 1 2 3 4 5 6 
#
# 1 0.027233 -0.018567 -0.005303 0.000000 0.020901 0.000000
# 2 -0.018567 0.033667 -0.003288 0.000000 -0.018137 0.000000
# 3 -0.005303 -0.003288 0.009295 0.000000 -0.002173 0.000000
# 4 0.000000 0.000000 0.000000 0.029189 0.000000 -0.001852
# 5 0.020901 -0.018137 -0.002173 0.000000 0.035974 0.000000
# 6 0.000000 0.000000 0.000000 -0.001852 0.000000 0.051516
#
#
# Mechanical properties :
#
#
# Convention : Reuss Voigt Hill
#
# Bulk Modulus (GPa) = 62.97940 77.99989 70.48964
# Shear Modulus (GPa) = 20.28529 32.48223 26.38376
#
# Velocity S-wave (km/s) = 2.88179 3.64666 3.28655
# Velocity P-wave (km/s) = 6.07096 7.04725 6.57724
#
# Compressibility (1/GPa) = 0.01587821
#
# Stress axis : x y z
#
# Youngs Moduli (GPa) = 36.72047 29.70233 107.58060
#
# Poissons Ratio (x) = 0.55149 0.57054
# Poissons Ratio (y) = 0.68179 0.35374
# Poissons Ratio (z) = 0.19474 0.09767
#
# Static dielectric constant tensor:
#      x y z
#    x 2.009560 0.000000 0.006860 
#    y 0.000000 2.036870 0.000000 
#    z 0.006860 0.000000 1.915180 
# 
# From -- ./inp_files/7929.got.cif
#   From: 2010.05.17/outbox.cif.g08.bks.cpg/sg3_4_cif.got.tgz:7929.got - 2010.06.03 18:33:08.
