data_PCOD9114239
_publ_section_title
;
Structure prediction by ZEFSAII (Michael W. Deem and Ramdas Pophale) SiO2 
 PCOD9114239
Probable space group: P 2
;
_chemical_formula_sum "Si O2"
_cell_formula_units_Z 15
_cell_length_a 8.916958
_cell_length_b 7.642082
_cell_length_c 18.576226
_cell_angle_alpha 90.000000
_cell_angle_beta 145.927771
_cell_angle_gamma 90.000000
_cell_volume 709.182698
_symmetry_space_group_name_H-M "P 2"
_symmetry_group_IT_number 3
_symmetry_cell_setting 'monoclinic'
loop_
_space_group_symop_operation_xyz
x,y,z
-x,y,-z
loop_
_atom_site_type_symbol
_atom_site_label
_atom_site_fract_x
_atom_site_fract_y
_atom_site_fract_z
Si Si1 0.684889 0.046660 0.255399
Si Si2 0.890710 0.493433 0.648632
Si Si3 0.191849 0.109650 0.351774
Si Si4 0.000000 0.880220 0.500000
Si Si5 0.088637 0.779922 0.222014
Si Si6 0.421121 0.432507 0.765957
Si Si7 0.625429 0.598079 0.405236
Si Si8 0.748350 0.755387 0.950099
O O1 0.527868 0.229343 0.198037
O O2 0.958601 0.065776 0.317635
O O3 0.785714 0.996009 0.374509
O O4 0.494187 0.892004 0.153343
O O5 0.850132 0.316133 0.678056
O O6 0.925531 0.663202 0.711569
O O7 0.659922 0.508849 0.496192
O O8 0.157535 0.472993 0.707475
O O9 0.500000 0.079987 0.500000
O O10 0.135168 0.979846 0.263286
O O11 0.851657 0.747530 0.494318
O O12 0.349309 0.700598 0.287411
O O13 0.845697 0.753397 0.071111
O O14 0.354922 0.471708 0.655745
O O15 0.646063 0.567009 0.881908
O O16 0.000000 0.809029 0.000000
#
# Coordination Sequence:
#
# PCOD9114239 Si02
#       8
#     2   2   2   1   2   2   2   2
#     4  11  26  41  68 104 139 183 234 290 351 419
#     4  11  24  43  67 105 138 177 229 291 359 422
#     4  11  24  43  67 104 143 175 230 291 360 421
#     4  12  20  38  70 100 136 176 226 288 358 406
#     4  12  25  42  71  94 138 188 232 286 348 414
#     4  11  24  44  69 101 136 185 232 292 352 421
#     4  12  21  43  70 101 142 180 233 293 352 419
#     4  12  25  50  66 100 139 188 241 292 347 418
#
# _framework density 21.151107
#
# number of rings (size 3 to 8) (size 9 to 14) (size 15 to 20)
#    0.000    0.533    4.000    4.400    3.733    3.733 
#    4.800    2.667    0.000    0.000    0.000    0.000 
#    0.000    0.000    0.000    0.000    0.000    0.000 
#
# Total GULP energy -83864.056621 kJ/mol
# GULP energy per Si atom -5590.937108 kJ/mol
# Density = 2.110297 g / cm^3
# Si number density = 21.151107 Si / 1000 Ang^3
#
#
#
# Elastic Constant Matrix: (Units=GPa)
#
#
# Indices 1 2 3 4 5 6 
#
# 1 69.4898 24.9274 15.6768 0.0000 4.7018 0.0000
# 2 24.9274 109.9377 44.1610 0.0000 6.8559 0.0000
# 3 15.6768 44.1610 119.6352 0.0000 -11.2636 0.0000
# 4 0.0000 0.0000 0.0000 22.8341 0.0000 8.7407
# 5 4.7018 6.8559 -11.2636 0.0000 30.2492 0.0000
# 6 0.0000 0.0000 0.0000 8.7407 0.0000 28.6529
#
#
#
# Elastic Compliance Matrix: (Units=1/GPa)
#
#
# Indices 1 2 3 4 5 6 
#
# 1 0.015881 -0.002983 -0.001190 0.000000 -0.002235 0.000000
# 2 -0.002983 0.011736 -0.004299 0.000000 -0.003797 0.000000
# 3 -0.001190 -0.004299 0.010582 0.000000 0.005099 0.000000
# 4 0.000000 0.000000 0.000000 0.049584 0.000000 -0.015126
# 5 -0.002235 -0.003797 0.005099 0.000000 0.036166 0.000000
# 6 0.000000 0.000000 0.000000 -0.015126 0.000000 0.039515
#
#
# Mechanical properties :
#
#
# Convention : Reuss Voigt Hill
#
# Bulk Modulus (GPa) = 47.05036 52.06590 49.55813
# Shear Modulus (GPa) = 26.66786 30.63373 28.65080
#
# Velocity S-wave (km/s) = 3.55466 3.80982 3.68445
# Velocity P-wave (km/s) = 6.25625 6.63495 6.44838
#
# Compressibility (1/GPa) = 0.02125382
#
# Stress axis : x y z
#
# Youngs Moduli (GPa) = 62.97027 85.20782 94.50383
#
# Poissons Ratio (x) = 0.25420 0.11248
# Poissons Ratio (y) = 0.18786 0.40624
# Poissons Ratio (z) = 0.07495 0.36628
#
# Static dielectric constant tensor:
#      x y z
#    x 1.804340 0.000000 0.025160 
#    y 0.000000 1.746140 0.000000 
#    z 0.025160 0.000000 1.730530 
# 
# From -- ./inp_files/15071.got.cif
#   From: 2010.05.17/outbox.cif.g08.bks.cpg/sg3_8_cif.got.tgz:15071.got - 2010.06.03 18:33:08.
