data_PCOD9114957
_publ_section_title
;
Structure prediction by ZEFSAII (Michael W. Deem and Ramdas Pophale) SiO2 
 PCOD9114957
Probable space group: P 21
;
_chemical_formula_sum "Si O2"
_cell_formula_units_Z 16
_cell_length_a 10.144228
_cell_length_b 13.759600
_cell_length_c 8.722963
_cell_angle_alpha 90.000000
_cell_angle_beta 31.169967
_cell_angle_gamma 90.000000
_cell_volume 630.180752
_symmetry_space_group_name_H-M "P 21"
_symmetry_group_IT_number 4
_symmetry_cell_setting 'monoclinic'
loop_
_space_group_symop_operation_xyz
x,y,z
-x,1/2+y,-z
loop_
_atom_site_type_symbol
_atom_site_label
_atom_site_fract_x
_atom_site_fract_y
_atom_site_fract_z
Si Si1 0.809233 0.615870 0.088737
Si Si2 0.538266 0.342497 0.318961
Si Si3 0.179119 0.636007 0.359077
Si Si4 0.509363 0.390420 0.705905
Si Si5 0.017531 0.511235 0.268439
Si Si6 0.041397 0.229923 0.797386
Si Si7 0.322358 0.212502 0.094987
Si Si8 0.690685 0.046452 0.451962
O O1 0.742420 0.638229 0.980094
O O2 0.528388 0.594078 0.436899
O O3 0.934224 0.709292 0.043198
O O4 0.022242 0.531936 0.896812
O O5 0.539132 0.348520 0.504503
O O6 0.452997 0.449891 0.352245
O O7 0.309432 0.275725 0.488987
O O8 0.807050 0.300437 0.000099
O O9 0.080326 0.536448 0.383144
O O10 0.456170 0.666760 0.021499
O O11 0.242076 0.617348 0.474457
O O12 0.960731 0.717520 0.553257
O O13 0.438501 0.307339 0.899922
O O14 0.765245 0.448012 0.495860
O O15 0.263066 0.459565 0.953472
O O16 0.989747 0.620659 0.232053
#
# Coordination Sequence:
#
# PCOD9114957 Si02
#       8
#     2   2   2   2   2   2   2   2
#     4  10  19  37  64  90 122 162 210 263 335 375
#     4  12  24  40  65 100 132 164 222 274 335 403
#     4  10  23  44  66  92 134 172 226 261 335 400
#     4  12  24  43  71 101 130 170 234 278 333 396
#     4  12  26  45  65 100 137 182 216 277 337 398
#     4  12  24  40  63  93 141 166 208 277 336 401
#     4  10  21  40  70  95 122 171 222 278 311 399
#     4  10  21  39  64  91 122 169 212 268 316 394
#
# _framework density 25.389543
#
# number of rings (size 3 to 8) (size 9 to 14) (size 15 to 20)
#    0.000    1.000    1.250    6.000    3.500    0.000 
#    6.750    0.000    0.000    0.000    0.000    0.000 
#    0.000    0.000    0.000    0.000    0.000    0.000 
#
# Total GULP energy -89455.447855 kJ/mol
# GULP energy per Si atom -5590.965491 kJ/mol
# Density = 2.533176 g / cm^3
# Si number density = 25.389543 Si / 1000 Ang^3
#
#
#
# Elastic Constant Matrix: (Units=GPa)
#
#
# Indices 1 2 3 4 5 6 
#
# 1 52.6019 14.1401 45.9865 0.0000 -24.2852 0.0000
# 2 14.1401 111.8734 68.0881 0.0000 -27.0569 0.0000
# 3 45.9865 68.0881 217.8975 0.0000 -62.8463 0.0000
# 4 0.0000 0.0000 0.0000 59.5907 0.0000 -11.6547
# 5 -24.2852 -27.0569 -62.8463 0.0000 49.7845 0.0000
# 6 0.0000 0.0000 0.0000 -11.6547 0.0000 41.8683
#
#
#
# Elastic Compliance Matrix: (Units=1/GPa)
#
#
# Indices 1 2 3 4 5 6 
#
# 1 0.025661 0.000812 -0.003038 0.000000 0.009124 0.000000
# 2 0.000812 0.011280 -0.002852 0.000000 0.002926 0.000000
# 3 -0.003038 -0.002852 0.008252 0.000000 0.007385 0.000000
# 4 0.000000 0.000000 0.000000 0.017747 0.000000 0.004940
# 5 0.009124 0.002926 0.007385 0.000000 0.035450 0.000000
# 6 0.000000 0.000000 0.000000 0.004940 0.000000 0.025260
#
#
# Mechanical properties :
#
#
# Convention : Reuss Voigt Hill
#
# Bulk Modulus (GPa) = 28.54198 70.97801 49.76000
# Shear Modulus (GPa) = 34.36848 47.19255 40.78051
#
# Velocity S-wave (km/s) = 3.68319 4.31599 4.01208
# Velocity P-wave (km/s) = 5.41792 7.27003 6.41121
#
# Compressibility (1/GPa) = 0.03503611
#
# Stress axis : x y z
#
# Youngs Moduli (GPa) = 38.97040 88.65632 121.19002
#
# Poissons Ratio (x) = -0.07201 0.36815
# Poissons Ratio (y) = -0.03165 0.34564
# Poissons Ratio (z) = 0.11838 0.25286
#
# Static dielectric constant tensor:
#      x y z
#    x 2.119210 0.000000 0.092360 
#    y 0.000000 1.999650 0.000000 
#    z 0.092360 0.000000 2.142710 
# 
# From -- ./inp_files/3126.got.cif
#   From: 2010.05.17/outbox.cif.g08.bks.cpg/sg4_2_cif.got.tgz:3126.got - 2010.06.03 18:43:04.
