data_PCOD9114284
_publ_section_title
;
Structure prediction by ZEFSAII (Michael W. Deem and Ramdas Pophale) SiO2 
 PCOD9114284
Probable space group: P 2
;
_chemical_formula_sum "Si O2"
_cell_formula_units_Z 8
_cell_length_a 13.504972
_cell_length_b 5.073021
_cell_length_c 13.526779
_cell_angle_alpha 90.000000
_cell_angle_beta 158.362342
_cell_angle_gamma 90.000000
_cell_volume 341.719515
_symmetry_space_group_name_H-M "P 2"
_symmetry_group_IT_number 3
_symmetry_cell_setting 'monoclinic'
loop_
_space_group_symop_operation_xyz
x,y,z
-x,y,-z
loop_
_atom_site_type_symbol
_atom_site_label
_atom_site_fract_x
_atom_site_fract_y
_atom_site_fract_z
Si Si1 0.882346 0.217090 0.595121
Si Si2 0.457847 0.828933 0.246929
Si Si3 0.150822 0.346152 0.036941
Si Si4 0.586517 0.476927 0.970010
O O1 0.653236 0.339123 0.313186
O O2 0.933944 0.363652 0.747234
O O3 0.762882 0.930631 0.513683
O O4 0.159884 0.280312 0.796721
O O5 0.360527 0.734523 0.047859
O O6 0.360794 0.586004 0.224288
O O7 0.308216 0.080179 0.154435
O O8 0.000000 0.333659 0.000000
O O9 0.500000 0.541209 0.000000
#
# Coordination Sequence:
#
# PCOD9114284 Si02
#       4
#     2   2   2   2
#     4  11  24  49  75 110 155 194 255 313 369 465
#     4  11  24  49  74 110 156 193 257 312 372 462
#     4  11  26  49  79 115 153 203 250 316 388 454
#     4  11  26  49  78 112 153 205 253 315 386 450
#
# _framework density 23.411014000000002
#
# number of rings (size 3 to 8) (size 9 to 14) (size 15 to 20)
#    0.000    1.000    5.000    1.500    7.000    2.000 
#    9.000    0.000    0.000    0.000    0.000    0.000 
#    0.000    0.000    0.000    0.000    0.000    0.000 
#
# Total GULP energy -44680.882341 kJ/mol
# GULP energy per Si atom -5585.110293 kJ/mol
# Density = 2.335773 g / cm^3
# Si number density = 23.411014 Si / 1000 Ang^3
#
#
#
# Elastic Constant Matrix: (Units=GPa)
#
#
# Indices 1 2 3 4 5 6 
#
# 1 210.1547 50.3363 22.1296 0.0000 27.2954 0.0000
# 2 50.3363 176.7978 44.2848 0.0000 33.1710 0.0000
# 3 22.1296 44.2848 137.2171 0.0000 35.9491 0.0000
# 4 0.0000 0.0000 0.0000 39.2179 0.0000 13.4757
# 5 27.2954 33.1710 35.9491 0.0000 35.5270 0.0000
# 6 0.0000 0.0000 0.0000 13.4757 0.0000 32.4713
#
#
#
# Elastic Compliance Matrix: (Units=1/GPa)
#
#
# Indices 1 2 3 4 5 6 
#
# 1 0.005423 -0.000953 0.000397 0.000000 -0.003677 0.000000
# 2 -0.000953 0.007079 -0.000804 0.000000 -0.005063 0.000000
# 3 0.000397 -0.000804 0.010024 0.000000 -0.009696 0.000000
# 4 0.000000 0.000000 0.000000 0.029739 0.000000 -0.012342
# 5 -0.003677 -0.005063 -0.009696 0.000000 0.045512 0.000000
# 6 0.000000 0.000000 0.000000 -0.012342 0.000000 0.035918
#
#
# Mechanical properties :
#
#
# Convention : Reuss Voigt Hill
#
# Bulk Modulus (GPa) = 50.49698 84.18567 67.34133
# Shear Modulus (GPa) = 34.96052 48.60450 41.78251
#
# Velocity S-wave (km/s) = 3.86856 4.56141 4.22920
# Velocity P-wave (km/s) = 6.44755 7.98623 7.25778
#
# Compressibility (1/GPa) = 0.01980316
#
# Stress axis : x y z
#
# Youngs Moduli (GPa) = 184.41354 141.26208 99.76334
#
# Poissons Ratio (x) = 0.13466 -0.03956
# Poissons Ratio (y) = 0.17579 0.08025
# Poissons Ratio (z) = -0.07313 0.11363
#
# Static dielectric constant tensor:
#      x y z
#    x 1.831250 0.000000 0.027770 
#    y 0.000000 1.962760 0.000000 
#    z 0.027770 0.000000 1.950390 
# 
# From -- ./inp_files/2610.got.cif
#   From: 2010.05.17/outbox.cif.g08.bks.cpg/sg3_2_cif.got.tgz:2610.got - 2010.06.03 18:33:08.
