data_PCOD9114288
_publ_section_title
;
Structure prediction by ZEFSAII (Michael W. Deem and Ramdas Pophale) SiO2 
 PCOD9114288
Probable space group: P 2
;
_chemical_formula_sum "Si O2"
_cell_formula_units_Z 10
_cell_length_a 16.109271
_cell_length_b 4.802894
_cell_length_c 17.138122
_cell_angle_alpha 90.000000
_cell_angle_beta 162.905365
_cell_angle_gamma 90.000000
_cell_volume 389.777535
_symmetry_space_group_name_H-M "P 2"
_symmetry_group_IT_number 3
_symmetry_cell_setting 'monoclinic'
loop_
_space_group_symop_operation_xyz
x,y,z
-x,y,-z
loop_
_atom_site_type_symbol
_atom_site_label
_atom_site_fract_x
_atom_site_fract_y
_atom_site_fract_z
Si Si1 0.304998 0.048890 0.249378
Si Si2 0.620825 0.940011 0.287520
Si Si3 0.850468 0.665309 0.024528
Si Si4 0.813728 0.153154 0.615918
Si Si5 0.691318 0.425073 0.245580
O O1 0.500000 0.010046 0.500000
O O2 0.228670 0.769455 0.132821
O O3 0.502932 0.227823 0.368399
O O4 0.000000 0.170285 0.000000
O O5 0.387633 0.783965 0.130751
O O6 0.527300 0.182848 0.145001
O O7 0.811636 0.104597 0.521880
O O8 0.749215 0.692610 0.351829
O O9 0.121354 0.854452 0.289207
O O10 0.955570 0.363165 0.143977
O O11 0.000000 0.311643 0.500000
O O12 0.500000 0.505733 0.000000
#
# Coordination Sequence:
#
# PCOD9114288 Si02
#       5
#     2   2   2   2   2
#     4  11  24  52  74 115 158 208 262 333 388 466
#     4  11  26  46  78 113 156 204 260 321 380 478
#     4  11  25  48  79 111 152 208 262 318 390 459
#     4  11  25  48  79 111 152 208 262 318 390 459
#     4  12  28  48  76 114 156 202 254 320 394 462
#
# _framework density 25.655660999999998
#
# number of rings (size 3 to 8) (size 9 to 14) (size 15 to 20)
#    0.000    0.800    2.000    3.600    8.400    4.800 
#    7.200    0.000    0.000    0.000    0.000    0.000 
#    0.000    0.000    0.000    0.000    0.000    0.000 
#
# Total GULP energy -55987.818448 kJ/mol
# GULP energy per Si atom -5598.781845 kJ/mol
# Density = 2.559727 g / cm^3
# Si number density = 25.655661 Si / 1000 Ang^3
#
#
#
# Elastic Constant Matrix: (Units=GPa)
#
#
# Indices 1 2 3 4 5 6 
#
# 1 124.6395 39.4829 63.5419 0.0000 -11.8740 0.0000
# 2 39.4829 90.2126 13.8133 0.0000 -15.3768 0.0000
# 3 63.5419 13.8133 158.6463 0.0000 -10.4491 0.0000
# 4 0.0000 0.0000 0.0000 32.1206 0.0000 13.8691
# 5 -11.8740 -15.3768 -10.4491 0.0000 41.9255 0.0000
# 6 0.0000 0.0000 0.0000 13.8691 0.0000 26.3192
#
#
#
# Elastic Compliance Matrix: (Units=1/GPa)
#
#
# Indices 1 2 3 4 5 6 
#
# 1 0.011612 -0.004324 -0.004232 0.000000 0.000648 0.000000
# 2 -0.004324 0.013524 0.000814 0.000000 0.003938 0.000000
# 3 -0.004232 0.000814 0.007999 0.000000 0.001094 0.000000
# 4 0.000000 0.000000 0.000000 0.040303 0.000000 -0.021238
# 5 0.000648 0.003938 0.001094 0.000000 0.025752 0.000000
# 6 0.000000 0.000000 0.000000 -0.021238 0.000000 0.049187
#
#
# Mechanical properties :
#
#
# Convention : Reuss Voigt Hill
#
# Bulk Modulus (GPa) = 56.65160 67.46385 62.05773
# Shear Modulus (GPa) = 29.45603 37.18373 33.31988
#
# Velocity S-wave (km/s) = 3.39208 3.81115 3.60771
# Velocity P-wave (km/s) = 6.12136 6.76162 6.44944
#
# Compressibility (1/GPa) = 0.01765175
#
# Stress axis : x y z
#
# Youngs Moduli (GPa) = 86.11876 73.94286 125.00894
#
# Poissons Ratio (x) = 0.31970 0.52900
# Poissons Ratio (y) = 0.37235 -0.10171
# Poissons Ratio (z) = 0.36443 -0.06016
#
# Static dielectric constant tensor:
#      x y z
#    x 2.104430 0.000000 0.050480 
#    y 0.000000 2.030080 0.000000 
#    z 0.050480 0.000000 2.022420 
# 
# From -- ./inp_files/2772.got.cif
#   From: 2010.05.17/outbox.cif.g08.bks.cpg/sg3_2_cif.got.tgz:2772.got - 2010.06.03 18:33:08.
