data_PCOD9114411
_publ_section_title
;
Structure prediction by ZEFSAII (Michael W. Deem and Ramdas Pophale) SiO2 
 PCOD9114411
Probable space group: P 2
;
_chemical_formula_sum "Si O2"
_cell_formula_units_Z 9
_cell_length_a 8.733516
_cell_length_b 4.952168
_cell_length_c 8.733512
_cell_angle_alpha 90.000000
_cell_angle_beta 90.000155
_cell_angle_gamma 90.000000
_cell_volume 377.722983
_symmetry_space_group_name_H-M "P 2"
_symmetry_group_IT_number 3
_symmetry_cell_setting 'monoclinic'
loop_
_space_group_symop_operation_xyz
x,y,z
-x,y,-z
loop_
_atom_site_type_symbol
_atom_site_label
_atom_site_fract_x
_atom_site_fract_y
_atom_site_fract_z
Si Si1 0.244108 0.151560 0.718567
Si Si2 0.281433 0.588107 0.244108
Si Si3 0.500000 0.369833 0.500000
Si Si4 0.050861 0.657889 0.660484
Si Si5 0.339516 0.081778 0.050861
O O1 0.400371 0.200040 0.623331
O O2 0.162495 0.440634 0.735767
O O3 0.139858 0.934853 0.632015
O O4 0.257643 0.035646 0.889793
O O5 0.376669 0.539627 0.400371
O O6 0.264233 0.299032 0.162495
O O7 0.110206 0.704020 0.257643
O O8 0.367985 0.804814 0.139858
O O9 0.000000 0.530234 0.500000
O O10 0.500000 0.209433 0.000000
#
# Coordination Sequence:
#
# PCOD9114411 Si02
#       5
#     2   2   1   2   2
#     4  12  28  48  78 110 152 201 256 313 383 452
#     4  12  28  48  78 110 152 201 256 313 383 452
#     4  12  28  50  84 114 148 210 264 310 380 462
#     4  12  27  47  75 112 153 196 256 320 376 450
#     4  12  27  47  75 112 153 196 256 320 376 450
#
# _framework density 23.826986000000002
#
# number of rings (size 3 to 8) (size 9 to 14) (size 15 to 20)
#    0.000    0.000    4.444    4.000    6.222    7.111 
#    0.000    0.000    0.000    0.000    0.000    0.000 
#    0.000    0.000    0.000    0.000    0.000    0.000 
#
# Total GULP energy -50379.701884 kJ/mol
# GULP energy per Si atom -5597.744654 kJ/mol
# Density = 2.377275 g / cm^3
# Si number density = 23.826986 Si / 1000 Ang^3
#
#
#
# Elastic Constant Matrix: (Units=GPa)
#
#
# Indices 1 2 3 4 5 6 
#
# 1 109.8743 25.2989 2.8219 0.0000 -14.9980 0.0000
# 2 25.2989 120.7546 25.2988 0.0000 -0.0004 0.0000
# 3 2.8219 25.2988 109.8748 0.0000 14.9973 0.0000
# 4 0.0000 0.0000 0.0000 21.0916 0.0000 0.0001
# 5 -14.9980 -0.0004 14.9973 0.0000 27.7105 0.0000
# 6 0.0000 0.0000 0.0000 0.0001 0.0000 21.0917
#
#
#
# Elastic Compliance Matrix: (Units=1/GPa)
#
#
# Indices 1 2 3 4 5 6 
#
# 1 0.010403 -0.002052 -0.000608 0.000000 0.005960 0.000000
# 2 -0.002052 0.009141 -0.002052 0.000000 0.000000 0.000000
# 3 -0.000608 -0.002052 0.010403 0.000000 -0.005959 0.000000
# 4 0.000000 0.000000 0.000000 0.047412 0.000000 0.000000
# 5 0.005960 0.000000 -0.005959 0.000000 0.042538 0.000000
# 6 0.000000 0.000000 0.000000 0.000000 0.000000 0.047412
#
#
# Mechanical properties :
#
#
# Convention : Reuss Voigt Hill
#
# Bulk Modulus (GPa) = 48.72748 49.70477 49.21613
# Shear Modulus (GPa) = 27.23689 33.11770 30.17730
#
# Velocity S-wave (km/s) = 3.38466 3.73221 3.56268
# Velocity P-wave (km/s) = 5.98076 6.28320 6.13384
#
# Compressibility (1/GPa) = 0.02052230
#
# Stress axis : x y z
#
# Youngs Moduli (GPa) = 96.12692 109.39605 96.12815
#
# Poissons Ratio (x) = 0.22449 0.05846
# Poissons Ratio (y) = 0.19726 0.19726
# Poissons Ratio (z) = 0.05846 0.22449
#
# Static dielectric constant tensor:
#      x y z
#    x 1.993160 0.000000 0.000000 
#    y 0.000000 1.810330 0.000000 
#    z 0.000000 0.000000 1.993160 
# 
# From -- ./inp_files/4741.got.cif
#   From: 2010.05.17/outbox.cif.g08.bks.cpg/sg3_3_cif.got.tgz:4741.got - 2010.06.03 18:33:08.
