data_PCOD9114570
_publ_section_title
;
Structure prediction by ZEFSAII (Michael W. Deem and Ramdas Pophale) SiO2 
 PCOD9114570
Probable space group: P 21
;
_chemical_formula_sum "Si O2"
_cell_formula_units_Z 14
_cell_length_a 8.696045
_cell_length_b 9.421936
_cell_length_c 9.840181
_cell_angle_alpha 90.000000
_cell_angle_beta 123.219177
_cell_angle_gamma 90.000000
_cell_volume 674.486110
_symmetry_space_group_name_H-M "P 21"
_symmetry_group_IT_number 4
_symmetry_cell_setting 'monoclinic'
loop_
_space_group_symop_operation_xyz
x,y,z
-x,1/2+y,-z
loop_
_atom_site_type_symbol
_atom_site_label
_atom_site_fract_x
_atom_site_fract_y
_atom_site_fract_z
Si Si1 0.617931 0.775950 0.251498
Si Si2 0.371227 0.038731 0.207593
Si Si3 0.047552 0.417038 0.719017
Si Si4 0.950234 0.339650 0.980151
Si Si5 0.661588 0.524769 0.487325
Si Si6 0.638765 0.851075 0.797762
Si Si7 0.705744 0.115641 0.012054
O O1 0.817815 0.809340 0.290766
O O2 0.625772 0.662539 0.377655
O O3 0.526917 0.922885 0.256377
O O4 0.475530 0.711837 0.071378
O O5 0.411835 0.195273 0.176383
O O6 0.184469 0.971971 0.055481
O O7 0.341758 0.057562 0.354700
O O8 0.164890 0.561777 0.804017
O O9 0.990181 0.351282 0.838162
O O10 0.860494 0.457522 0.552929
O O11 0.839013 0.200563 0.972218
O O12 0.148425 0.345324 0.146570
O O13 0.503340 0.410259 0.380124
O O14 0.638037 0.967408 0.916017
#
# Coordination Sequence:
#
# PCOD9114570 Si02
#       7
#     2   2   2   2   2   2   2
#     4  10  22  39  58  85 116 146 187 236 283 329
#     4  10  20  35  58  83 110 149 190 232 279 334
#     4  10  21  37  59  85 116 146 184 237 283 328
#     4   9  18  36  59  82 108 143 188 234 280 335
#     4  10  21  37  55  81 116 152 188 226 276 341
#     4  10  18  32  56  82 108 144 190 230 271 328
#     4   9  20  38  59  82 110 146 189 233 280 337
#
# _framework density 20.756540999999999
#
# number of rings (size 3 to 8) (size 9 to 14) (size 15 to 20)
#    0.000    2.286    0.000    3.429    0.000    4.571 
#    0.000    2.857    0.000    1.714    0.000    0.000 
#    0.000    0.000    0.000    0.000    0.000    0.000 
#
# Total GULP energy -78122.943752 kJ/mol
# GULP energy per Si atom -5580.210268 kJ/mol
# Density = 2.070930 g / cm^3
# Si number density = 20.756541 Si / 1000 Ang^3
#
#
#
# Elastic Constant Matrix: (Units=GPa)
#
#
# Indices 1 2 3 4 5 6 
#
# 1 97.1611 51.5066 38.1815 0.0000 17.3183 0.0000
# 2 51.5066 154.2017 39.3110 0.0000 10.9527 0.0000
# 3 38.1815 39.3110 74.4617 0.0000 31.4469 0.0000
# 4 0.0000 0.0000 0.0000 25.4863 0.0000 8.5624
# 5 17.3183 10.9527 31.4469 0.0000 34.4082 0.0000
# 6 0.0000 0.0000 0.0000 8.5624 0.0000 28.4606
#
#
#
# Elastic Compliance Matrix: (Units=1/GPa)
#
#
# Indices 1 2 3 4 5 6 
#
# 1 0.014303 -0.003433 -0.004793 0.000000 -0.001726 0.000000
# 2 -0.003433 0.008403 -0.003707 0.000000 0.002441 0.000000
# 3 -0.004793 -0.003707 0.026591 0.000000 -0.020710 0.000000
# 4 0.000000 0.000000 0.000000 0.043649 0.000000 -0.013132
# 5 -0.001726 0.002441 -0.020710 0.000000 0.048082 0.000000
# 6 0.000000 0.000000 0.000000 -0.013132 0.000000 0.039087
#
#
# Mechanical properties :
#
#
# Convention : Reuss Voigt Hill
#
# Bulk Modulus (GPa) = 39.32148 64.86921 52.09535
# Shear Modulus (GPa) = 23.53410 30.79271 27.16340
#
# Velocity S-wave (km/s) = 3.37087 3.85583 3.62148
# Velocity P-wave (km/s) = 5.84257 7.15146 6.52990
#
# Compressibility (1/GPa) = 0.02543139
#
# Stress axis : x y z
#
# Youngs Moduli (GPa) = 69.91434 118.99964 37.60735
#
# Poissons Ratio (x) = 0.40854 0.18025
# Poissons Ratio (y) = 0.24003 0.13941
# Poissons Ratio (z) = 0.33509 0.44112
#
# Static dielectric constant tensor:
#      x y z
#    x 1.764230 0.000000 0.006850 
#    y 0.000000 1.750080 0.000000 
#    z 0.006850 0.000000 1.774580 
# 
# From -- ./inp_files/5303.got.cif
#   From: 2010.05.17/outbox.cif.g08.bks.cpg/sg4_3_cif.got.tgz:5303.got - 2010.06.03 18:43:04.
