data_PCOD9114860
_publ_section_title
;
Structure prediction by ZEFSAII (Michael W. Deem and Ramdas Pophale) SiO2 
 PCOD9114860
Probable space group: P 21
;
_chemical_formula_sum "Si O2"
_cell_formula_units_Z 16
_cell_length_a 11.510470
_cell_length_b 8.049159
_cell_length_c 9.449134
_cell_angle_alpha 90.000000
_cell_angle_beta 56.418868
_cell_angle_gamma 90.000000
_cell_volume 729.347494
_symmetry_space_group_name_H-M "P 21"
_symmetry_group_IT_number 4
_symmetry_cell_setting 'monoclinic'
loop_
_space_group_symop_operation_xyz
x,y,z
-x,1/2+y,-z
loop_
_atom_site_type_symbol
_atom_site_label
_atom_site_fract_x
_atom_site_fract_y
_atom_site_fract_z
Si Si1 0.969203 0.959050 0.877410
Si Si2 0.236213 0.182234 0.022645
Si Si3 0.958080 0.098422 0.574021
Si Si4 0.735836 0.350732 0.815708
Si Si5 0.283444 0.987417 0.743495
Si Si6 0.773092 0.796958 0.678337
Si Si7 0.312372 0.653159 0.889061
Si Si8 0.598979 0.534530 0.647952
O O1 0.907881 0.772965 0.921692
O O2 0.114641 0.981411 0.856218
O O3 0.996364 0.010145 0.696049
O O4 0.841485 0.074177 0.015868
O O5 0.284717 0.299929 0.121255
O O6 0.232097 0.001595 0.098993
O O7 0.320436 0.140769 0.823037
O O8 0.875632 0.266152 0.665343
O O9 0.098834 0.162720 0.407318
O O10 0.845572 0.969585 0.583931
O O11 0.652222 0.414064 0.736838
O O12 0.665137 0.212524 0.963676
O O13 0.328331 0.813748 0.780284
O O14 0.339732 0.001326 0.547487
O O15 0.656948 0.716964 0.656870
O O16 0.433130 0.530392 0.761698
#
# Coordination Sequence:
#
# PCOD9114860 Si02
#       8
#     2   2   2   2   2   2   2   2
#     4  10  20  39  64  93 119 171 212 262 313 382
#     4   9  20  35  60  87 124 160 206 262 309 369
#     4  10  19  35  63  94 123 157 214 266 311 373
#     4   9  21  40  62  91 123 166 207 263 317 381
#     4  11  22  42  61  89 129 165 215 262 313 375
#     4  10  19  36  60  92 122 161 208 262 319 372
#     4  10  24  42  64  91 128 167 212 262 322 383
#     4  11  23  41  64  91 130 167 208 267 320 381
#
# _framework density 21.937415999999999
#
# number of rings (size 3 to 8) (size 9 to 14) (size 15 to 20)
#    0.000    2.000    1.250    2.250    1.750    5.000 
#    2.250    3.750    0.000    0.000    0.000    0.000 
#    0.000    0.000    0.000    0.000    0.000    0.000 
#
# Total GULP energy -89268.416299 kJ/mol
# GULP energy per Si atom -5579.276019 kJ/mol
# Density = 2.188749 g / cm^3
# Si number density = 21.937416 Si / 1000 Ang^3
#
#
#
# Elastic Constant Matrix: (Units=GPa)
#
#
# Indices 1 2 3 4 5 6 
#
# 1 48.5513 11.1876 55.0017 0.0000 6.3331 0.0000
# 2 11.1876 75.7929 30.9401 0.0000 6.7852 0.0000
# 3 55.0017 30.9401 123.2242 0.0000 4.6711 0.0000
# 4 0.0000 0.0000 0.0000 14.5323 0.0000 3.1119
# 5 6.3331 6.7852 4.6711 0.0000 24.3190 0.0000
# 6 0.0000 0.0000 0.0000 3.1119 0.0000 24.9088
#
#
#
# Elastic Compliance Matrix: (Units=1/GPa)
#
#
# Indices 1 2 3 4 5 6 
#
# 1 0.043369 0.002347 -0.019637 0.000000 -0.008177 0.000000
# 2 0.002347 0.015115 -0.004694 0.000000 -0.003927 0.000000
# 3 -0.019637 -0.004694 0.017946 0.000000 0.002976 0.000000
# 4 0.000000 0.000000 0.000000 0.070703 0.000000 -0.008833
# 5 -0.008177 -0.003927 0.002976 0.000000 0.043773 0.000000
# 6 0.000000 0.000000 0.000000 -0.008833 0.000000 0.041250
#
#
# Mechanical properties :
#
#
# Convention : Reuss Voigt Hill
#
# Bulk Modulus (GPa) = 30.80576 49.09191 39.94884
# Shear Modulus (GPa) = 17.42491 22.78131 20.10311
#
# Velocity S-wave (km/s) = 2.82139 3.22602 3.03047
# Velocity P-wave (km/s) = 4.96857 6.02520 5.52222
#
# Compressibility (1/GPa) = 0.03246146
#
# Stress axis : x y z
#
# Youngs Moduli (GPa) = 23.05814 66.15901 55.72230
#
# Poissons Ratio (x) = -0.15525 1.09422
# Poissons Ratio (y) = -0.05411 0.26155
# Poissons Ratio (z) = 0.45279 0.31054
#
# Static dielectric constant tensor:
#      x y z
#    x 1.798380 0.000000 -0.008170 
#    y 0.000000 1.871170 0.000000 
#    z -0.008170 0.000000 1.819540 
# 
# From -- ./inp_files/7817.got.cif
#   From: 2010.05.17/outbox.cif.g08.bks.cpg/sg4_4_cif.got.tgz:7817.got - 2010.06.03 18:43:04.
