data_PCOD9114279
_publ_section_title
;
Structure prediction by ZEFSAII (Michael W. Deem and Ramdas Pophale) SiO2 
 PCOD9114279
Probable space group: P 2
;
_chemical_formula_sum "Si O2"
_cell_formula_units_Z 9
_cell_length_a 11.585965
_cell_length_b 5.868053
_cell_length_c 6.075031
_cell_angle_alpha 90.000000
_cell_angle_beta 60.581610
_cell_angle_gamma 90.000000
_cell_volume 359.766661
_symmetry_space_group_name_H-M "P 2"
_symmetry_group_IT_number 3
_symmetry_cell_setting 'monoclinic'
loop_
_space_group_symop_operation_xyz
x,y,z
-x,y,-z
loop_
_atom_site_type_symbol
_atom_site_label
_atom_site_fract_x
_atom_site_fract_y
_atom_site_fract_z
Si Si1 0.320575 0.067800 0.826715
Si Si2 0.869043 0.782065 0.269250
Si Si3 0.500000 0.779142 0.000000
Si Si4 0.139876 0.158298 0.361612
Si Si5 0.673749 0.428489 0.540326
O O1 0.267237 0.877304 0.710786
O O2 0.365854 0.288567 0.643291
O O3 0.181700 0.128578 0.072531
O O4 0.418166 0.940851 0.906306
O O5 0.820528 0.528996 0.356957
O O6 0.885709 0.930356 0.472982
O O7 0.000000 0.790744 0.000000
O O8 0.416429 0.609759 0.241860
O O9 0.280180 0.247150 0.322225
O O10 0.000000 0.287861 0.500000
#
# Coordination Sequence:
#
# PCOD9114279 Si02
#       5
#     2   2   1   2   2
#     4  11  27  52  76 113 156 209 267 332 393 469
#     4  11  24  47  77 115 156 203 265 333 404 470
#     4  12  28  60  78 114 168 216 274 314 398 486
#     4  11  24  48  77 114 158 202 262 335 405 468
#     4  11  29  49  77 118 151 218 266 326 400 471
#
# _framework density 25.016213
#
# number of rings (size 3 to 8) (size 9 to 14) (size 15 to 20)
#    0.000    0.889    4.444    0.000    6.222    2.667 
#    8.000    0.000    0.000    0.000    0.000    0.000 
#    0.000    0.000    0.000    0.000    0.000    0.000 
#
# Total GULP energy -50153.553511 kJ/mol
# GULP energy per Si atom -5572.617057 kJ/mol
# Density = 2.495928 g / cm^3
# Si number density = 25.016213 Si / 1000 Ang^3
#
#
#
# Elastic Constant Matrix: (Units=GPa)
#
#
# Indices 1 2 3 4 5 6 
#
# 1 162.4462 61.9190 68.4593 0.0000 0.7596 0.0000
# 2 61.9190 87.6014 72.7291 0.0000 -9.5566 0.0000
# 3 68.4593 72.7291 171.0764 0.0000 -27.9756 0.0000
# 4 0.0000 0.0000 0.0000 42.5678 0.0000 -3.3371
# 5 0.7596 -9.5566 -27.9756 0.0000 43.3554 0.0000
# 6 0.0000 0.0000 0.0000 -3.3371 0.0000 28.0749
#
#
#
# Elastic Compliance Matrix: (Units=1/GPa)
#
#
# Indices 1 2 3 4 5 6 
#
# 1 0.008838 -0.005017 -0.001800 0.000000 -0.002422 0.000000
# 2 -0.005017 0.020534 -0.006671 0.000000 0.000309 0.000000
# 3 -0.001800 -0.006671 0.010248 0.000000 0.005174 0.000000
# 4 0.000000 0.000000 0.000000 0.023713 0.000000 0.002819
# 5 -0.002422 0.000309 0.005174 0.000000 0.026514 0.000000
# 6 0.000000 0.000000 0.000000 0.002819 0.000000 0.035954
#
#
# Mechanical properties :
#
#
# Convention : Reuss Voigt Hill
#
# Bulk Modulus (GPa) = 79.09263 91.92655 85.50959
# Shear Modulus (GPa) = 31.84890 37.33405 34.59148
#
# Velocity S-wave (km/s) = 3.57197 3.86734 3.72259
# Velocity P-wave (km/s) = 6.97833 7.53448 7.26173
#
# Compressibility (1/GPa) = 0.01264340
#
# Stress axis : x y z
#
# Youngs Moduli (GPa) = 113.14770 48.70030 97.58173
#
# Poissons Ratio (x) = 0.24432 0.17565
# Poissons Ratio (y) = 0.56763 0.65100
# Poissons Ratio (z) = 0.20367 0.32490
#
# Static dielectric constant tensor:
#      x y z
#    x 2.156950 0.000000 0.135970 
#    y 0.000000 2.027020 0.000000 
#    z 0.135970 0.000000 2.043230 
# 
# From -- ./inp_files/1878.got.cif
#   From: 2010.05.17/outbox.cif.g08.bks.cpg/sg3_1_cif.got.tgz:1878.got - 2010.06.03 18:33:08.
