data_PCOD9114260
_publ_section_title
;
Structure prediction by ZEFSAII (Michael W. Deem and Ramdas Pophale) SiO2 
 PCOD9114260
Probable space group: P 2
;
_chemical_formula_sum "Si O2"
_cell_formula_units_Z 14
_cell_length_a 12.277343
_cell_length_b 5.195230
_cell_length_c 9.172412
_cell_angle_alpha 90.000000
_cell_angle_beta 80.836502
_cell_angle_gamma 90.000000
_cell_volume 577.583198
_symmetry_space_group_name_H-M "P 2"
_symmetry_group_IT_number 3
_symmetry_cell_setting 'monoclinic'
loop_
_space_group_symop_operation_xyz
x,y,z
-x,y,-z
loop_
_atom_site_type_symbol
_atom_site_label
_atom_site_fract_x
_atom_site_fract_y
_atom_site_fract_z
Si Si1 0.321225 0.181840 0.765357
Si Si2 0.500000 0.273016 0.500000
Si Si3 0.379433 0.933520 0.043474
Si Si4 0.177570 0.688070 0.733780
Si Si5 0.679597 0.242144 0.665893
Si Si6 0.120135 0.904564 0.449778
Si Si7 0.818978 0.598120 0.840764
Si Si8 0.000000 0.522673 0.000000
O O1 0.421331 0.130090 0.631476
O O2 0.263074 0.454935 0.745212
O O3 0.233492 0.959464 0.755259
O O4 0.365859 0.150447 0.920919
O O5 0.591429 0.394419 0.586448
O O6 0.271206 0.756912 0.048364
O O7 0.375208 0.045380 0.207850
O O8 0.500000 0.807099 0.000000
O O9 0.137071 0.694009 0.574227
O O10 0.074710 0.666819 0.865510
O O11 0.745346 0.430555 0.752717
O O12 0.773876 0.088294 0.559520
O O13 0.122016 0.790531 0.285787
O O14 0.000000 0.028749 0.500000
O O15 0.902053 0.419687 0.916736
#
# Coordination Sequence:
#
# PCOD9114260 Si02
#       8
#     2   1   2   2   2   2   2   1
#     4  12  27  48  75 113 154 203 261 318 389 465
#     4  12  24  48  76 112 158 202 266 324 392 472
#     4  11  24  45  71 104 151 195 253 319 390 463
#     4  12  27  48  75 113 154 203 261 318 389 465
#     4  11  25  45  71 108 148 202 258 315 393 468
#     4  11  24  45  71 104 151 195 253 319 390 463
#     4  11  25  45  71 108 148 202 258 315 393 468
#     4  12  24  48  76 112 158 202 266 324 392 472
#
# _framework density 24.238934
#
# number of rings (size 3 to 8) (size 9 to 14) (size 15 to 20)
#    0.000    0.571    5.714    1.714    0.000    4.571 
#    0.000    0.000    0.000    0.000    0.000    0.000 
#    0.000    0.000    0.000    0.000    0.000    0.000 
#
# Total GULP energy -78170.254510 kJ/mol
# GULP energy per Si atom -5583.589608 kJ/mol
# Density = 2.418377 g / cm^3
# Si number density = 24.238934 Si / 1000 Ang^3
#
#
#
# Elastic Constant Matrix: (Units=GPa)
#
#
# Indices 1 2 3 4 5 6 
#
# 1 151.8976 -2.2787 53.2358 0.0000 18.2135 0.0000
# 2 -2.2787 26.2886 6.5464 0.0000 5.5976 0.0000
# 3 53.2358 6.5464 133.2893 0.0000 -5.5648 0.0000
# 4 0.0000 0.0000 0.0000 28.9412 0.0000 15.4506
# 5 18.2135 5.5976 -5.5648 0.0000 74.2391 0.0000
# 6 0.0000 0.0000 0.0000 15.4506 0.0000 9.8974
#
#
#
# Elastic Compliance Matrix: (Units=1/GPa)
#
#
# Indices 1 2 3 4 5 6 
#
# 1 0.008108 0.002071 -0.003441 0.000000 -0.002403 0.000000
# 2 0.002071 0.039743 -0.002935 0.000000 -0.003725 0.000000
# 3 -0.003441 -0.002935 0.009094 0.000000 0.001747 0.000000
# 4 0.000000 0.000000 0.000000 0.207391 0.000000 -0.323751
# 5 -0.002403 -0.003725 0.001747 0.000000 0.014471 0.000000
# 6 0.000000 0.000000 0.000000 -0.323751 0.000000 0.606434
#
#
# Mechanical properties :
#
#
# Convention : Reuss Voigt Hill
#
# Bulk Modulus (GPa) = 20.68811 47.38696 34.03754
# Shear Modulus (GPa) = 5.49474 39.54702 22.52088
#
# Velocity S-wave (km/s) = 1.50726 4.04363 3.05145
# Velocity P-wave (km/s) = 3.40334 6.43379 5.14666
#
# Compressibility (1/GPa) = 0.04833695
#
# Stress axis : x y z
#
# Youngs Moduli (GPa) = 123.32784 25.16185 109.96584
#
# Poissons Ratio (x) = -0.05212 0.37835
# Poissons Ratio (y) = -0.25546 0.32272
# Poissons Ratio (z) = 0.42432 0.07384
#
# Static dielectric constant tensor:
#      x y z
#    x 2.003900 0.000000 0.054570 
#    y 0.000000 2.005130 0.000000 
#    z 0.054570 0.000000 2.143330 
# 
# From -- ./inp_files/6665.got.cif
#   From: 2010.05.17/outbox.cif.g08.bks.cpg/sg3_4_cif.got.tgz:6665.got - 2010.06.03 18:33:08.
