data_PCOD9114889
_publ_section_title
;
Structure prediction by ZEFSAII (Michael W. Deem and Ramdas Pophale) SiO2 
 PCOD9114889
Probable space group: P 21
;
_chemical_formula_sum "Si O2"
_cell_formula_units_Z 16
_cell_length_a 6.362280
_cell_length_b 4.968036
_cell_length_c 21.278057
_cell_angle_alpha 90.000000
_cell_angle_beta 63.466931
_cell_angle_gamma 90.000000
_cell_volume 601.721597
_symmetry_space_group_name_H-M "P 21"
_symmetry_group_IT_number 4
_symmetry_cell_setting 'monoclinic'
loop_
_space_group_symop_operation_xyz
x,y,z
-x,1/2+y,-z
loop_
_atom_site_type_symbol
_atom_site_label
_atom_site_fract_x
_atom_site_fract_y
_atom_site_fract_z
Si Si1 0.094118 0.827050 0.351918
Si Si2 0.847006 0.830919 0.849498
Si Si3 0.701184 0.464084 0.278618
Si Si4 0.837446 0.458657 0.525188
Si Si5 0.466345 0.829661 0.106384
Si Si6 0.092121 0.462145 0.021420
Si Si7 0.535115 0.967153 0.230673
Si Si8 0.773345 0.327721 0.402630
O O1 0.263621 0.877592 0.271632
O O2 0.247198 0.897682 0.393626
O O3 0.997754 0.528037 0.369466
O O4 0.872675 0.027779 0.382704
O O5 0.754215 0.529592 0.869157
O O6 0.030933 0.871023 0.768921
O O7 0.625748 0.029125 0.872231
O O8 0.970037 0.922542 0.897778
O O9 0.674733 0.766979 0.258112
O O10 0.629736 0.409857 0.360285
O O11 0.555469 0.268820 0.252539
O O12 0.934998 0.760565 0.509794
O O13 0.681567 0.385356 0.485529
O O14 0.639977 0.868074 0.025132
O O15 0.607558 0.923580 0.149547
O O16 0.939297 0.264003 0.998478
#
# Coordination Sequence:
#
# PCOD9114889 Si02
#       8
#     2   2   2   2   2   2   2   2
#     4  10  19  36  58  82 109 148 192 234 279 340
#     4  12  24  42  64  88 115 154 198 234 272 336
#     4  12  24  39  57  85 118 151 187 237 292 336
#     4   8  16  30  54  80 106 140 188 234 276 330
#     4  12  24  42  64  88 115 154 198 234 272 336
#     4  12  24  42  64  92 124 152 182 234 292 336
#     4  12  24  39  57  85 118 151 187 237 292 336
#     4  10  19  36  58  82 109 148 192 234 279 340
#
# _framework density 26.59037
#
# number of rings (size 3 to 8) (size 9 to 14) (size 15 to 20)
#    0.000    1.000    0.000    8.250    0.000    0.000 
#    0.000    1.250    0.000    0.000    0.000    0.000 
#    0.000    0.000    0.000    0.000    0.000    0.000 
#
# Total GULP energy -89715.266767 kJ/mol
# GULP energy per Si atom -5607.204173 kJ/mol
# Density = 2.652985 g / cm^3
# Si number density = 26.590370 Si / 1000 Ang^3
#
#
#
# Elastic Constant Matrix: (Units=GPa)
#
#
# Indices 1 2 3 4 5 6 
#
# 1 49.7525 16.6715 11.8729 0.0000 1.4440 0.0000
# 2 16.6715 87.4237 11.1397 0.0000 -2.0710 0.0000
# 3 11.8729 11.1397 100.9284 0.0000 36.7828 0.0000
# 4 0.0000 0.0000 0.0000 29.3985 0.0000 6.6772
# 5 1.4440 -2.0710 36.7828 0.0000 52.8674 0.0000
# 6 0.0000 0.0000 0.0000 6.6772 0.0000 59.3135
#
#
#
# Elastic Compliance Matrix: (Units=1/GPa)
#
#
# Indices 1 2 3 4 5 6 
#
# 1 0.021961 -0.003842 -0.002526 0.000000 0.001007 0.000000
# 2 -0.003842 0.012404 -0.001517 0.000000 0.001646 0.000000
# 3 -0.002526 -0.001517 0.013892 0.000000 -0.009656 0.000000
# 4 0.000000 0.000000 0.000000 0.034908 0.000000 -0.003930
# 5 0.001007 0.001646 -0.009656 0.000000 0.025670 0.000000
# 6 0.000000 0.000000 0.000000 -0.003930 0.000000 0.017302
#
#
# Mechanical properties :
#
#
# Convention : Reuss Voigt Hill
#
# Bulk Modulus (GPa) = 30.78386 35.27478 33.02932
# Shear Modulus (GPa) = 32.73644 41.54391 37.14018
#
# Velocity S-wave (km/s) = 3.51257 3.95697 3.74137
# Velocity P-wave (km/s) = 5.29651 5.84565 5.57784
#
# Compressibility (1/GPa) = 0.03248455
#
# Stress axis : x y z
#
# Youngs Moduli (GPa) = 45.53611 80.62226 71.98607
#
# Poissons Ratio (x) = 0.30975 0.18187
# Poissons Ratio (y) = 0.17495 0.10921
# Poissons Ratio (z) = 0.11505 0.12231
#
# Static dielectric constant tensor:
#      x y z
#    x 2.079380 0.000000 0.068800 
#    y 0.000000 1.957770 0.000000 
#    z 0.068800 0.000000 2.011000 
# 
# From -- ./inp_files/15489.got.cif
#   From: 2010.05.17/outbox.cif.g08.bks.cpg/sg4_8_cif.got.tgz:15489.got - 2010.06.03 18:43:04.
