data_PCOD9114704
_publ_section_title
;
Structure prediction by ZEFSAII (Michael W. Deem and Ramdas Pophale) SiO2 
 PCOD9114704
Probable space group: P 21
;
_chemical_formula_sum "Si O2"
_cell_formula_units_Z 14
_cell_length_a 11.186466
_cell_length_b 9.018423
_cell_length_c 5.916104
_cell_angle_alpha 90.000000
_cell_angle_beta 118.893607
_cell_angle_gamma 90.000000
_cell_volume 522.546098
_symmetry_space_group_name_H-M "P 21"
_symmetry_group_IT_number 4
_symmetry_cell_setting 'monoclinic'
loop_
_space_group_symop_operation_xyz
x,y,z
-x,1/2+y,-z
loop_
_atom_site_type_symbol
_atom_site_label
_atom_site_fract_x
_atom_site_fract_y
_atom_site_fract_z
Si Si1 0.067355 0.010540 0.599069
Si Si2 0.789326 0.343949 0.899294
Si Si3 0.421696 0.809513 0.899321
Si Si4 0.259197 0.296652 0.783014
Si Si5 0.159971 0.708117 0.462043
Si Si6 0.313410 0.368396 0.337418
Si Si7 0.576302 0.545846 0.456028
O O1 0.174795 0.145030 0.680522
O O2 0.924200 0.094432 0.465337
O O3 0.095256 0.871116 0.462761
O O4 0.094378 0.932124 0.863759
O O5 0.850246 0.206010 0.817412
O O6 0.707316 0.460605 0.674186
O O7 0.668794 0.299274 0.959700
O O8 0.321599 0.712529 0.653082
O O9 0.427458 0.974783 0.799692
O O10 0.577924 0.769381 0.061575
O O11 0.239716 0.377135 0.517143
O O12 0.236071 0.359477 0.020887
O O13 0.433156 0.488881 0.424422
O O14 0.394170 0.212392 0.443428
#
# Coordination Sequence:
#
# PCOD9114704 Si02
#       7
#     2   2   2   2   2   2   2
#     4  11  24  44  71  97 139 187 241 292 359 426
#     4  10  18  40  68  89 133 181 228 276 356 419
#     4   9  20  39  68  97 133 173 228 287 345 423
#     4  11  22  41  72 101 132 183 229 288 346 426
#     4  10  24  44  70 100 136 187 238 295 355 427
#     4  11  22  36  64  96 138 169 227 271 351 406
#     4  10  20  36  59  94 127 176 213 279 334 417
#
# _framework density 26.791895
#
# number of rings (size 3 to 8) (size 9 to 14) (size 15 to 20)
#    0.000    1.714    2.857    2.571    0.000    2.286 
#    0.000   10.000    9.429    0.000    0.000    0.000 
#    0.000    0.000    0.000    0.000    0.000    0.000 
#
# Total GULP energy -78179.549500 kJ/mol
# GULP energy per Si atom -5584.253536 kJ/mol
# Density = 2.673091 g / cm^3
# Si number density = 26.791895 Si / 1000 Ang^3
#
#
#
# Elastic Constant Matrix: (Units=GPa)
#
#
# Indices 1 2 3 4 5 6 
#
# 1 107.2139 59.2714 45.5142 0.0000 -5.8759 0.0000
# 2 59.2714 67.2543 15.2897 0.0000 -18.3998 0.0000
# 3 45.5142 15.2897 110.9106 0.0000 -34.9146 0.0000
# 4 0.0000 0.0000 0.0000 35.8158 0.0000 -4.2582
# 5 -5.8759 -18.3998 -34.9146 0.0000 43.0749 0.0000
# 6 0.0000 0.0000 0.0000 -4.2582 0.0000 60.1021
#
#
#
# Elastic Compliance Matrix: (Units=1/GPa)
#
#
# Indices 1 2 3 4 5 6 
#
# 1 0.030848 -0.029385 -0.015084 0.000000 -0.020570 0.000000
# 2 -0.029385 0.044829 0.014292 0.000000 0.026725 0.000000
# 3 -0.015084 0.014292 0.019481 0.000000 0.019838 0.000000
# 4 0.000000 0.000000 0.000000 0.028158 0.000000 0.001995
# 5 -0.020570 0.026725 0.019838 0.000000 0.047905 0.000000
# 6 0.000000 0.000000 0.000000 0.001995 0.000000 0.016780
#
#
# Mechanical properties :
#
#
# Convention : Reuss Voigt Hill
#
# Bulk Modulus (GPa) = 28.73287 58.39218 43.56253
# Shear Modulus (GPa) = 19.23407 38.81878 29.02642
#
# Velocity S-wave (km/s) = 2.68228 3.81057 3.29508
# Velocity P-wave (km/s) = 4.51006 6.41893 5.54722
#
# Compressibility (1/GPa) = 0.03480335
#
# Stress axis : x y z
#
# Youngs Moduli (GPa) = 32.41669 22.30715 51.33254
#
# Poissons Ratio (x) = 0.65550 0.77429
# Poissons Ratio (y) = 0.95257 -0.73364
# Poissons Ratio (z) = 0.48897 -0.31881
#
# Static dielectric constant tensor:
#      x y z
#    x 2.089620 0.000000 -0.093330 
#    y 0.000000 2.155730 0.000000 
#    z -0.093330 0.000000 2.291610 
# 
# From -- ./inp_files/2755.got.cif
#   From: 2010.05.17/outbox.cif.g08.bks.cpg/sg4_2_cif.got.tgz:2755.got - 2010.06.03 18:43:04.
