data_PCOD9114802
_publ_section_title
;
Structure prediction by ZEFSAII (Michael W. Deem and Ramdas Pophale) SiO2 
 PCOD9114802
Probable space group: P 21
;
_chemical_formula_sum "Si O2"
_cell_formula_units_Z 14
_cell_length_a 18.160371
_cell_length_b 8.721663
_cell_length_c 8.584073
_cell_angle_alpha 90.000000
_cell_angle_beta 30.313421
_cell_angle_gamma 90.000000
_cell_volume 686.240606
_symmetry_space_group_name_H-M "P 21"
_symmetry_group_IT_number 4
_symmetry_cell_setting 'monoclinic'
loop_
_space_group_symop_operation_xyz
x,y,z
-x,1/2+y,-z
loop_
_atom_site_type_symbol
_atom_site_label
_atom_site_fract_x
_atom_site_fract_y
_atom_site_fract_z
Si Si1 0.013504 0.735820 0.298497
Si Si2 0.921689 0.234120 0.462924
Si Si3 0.342656 0.595913 0.191380
Si Si4 0.079051 0.017599 0.964289
Si Si5 0.236337 0.039650 0.371376
Si Si6 0.534091 0.884811 0.814844
Si Si7 0.192919 0.528524 0.759449
O O1 0.017468 0.745792 0.475768
O O2 0.854172 0.685090 0.526456
O O3 0.074744 0.887317 0.102653
O O4 0.124976 0.605540 0.033423
O O5 0.728003 0.143839 0.510151
O O6 0.847906 0.392709 0.547076
O O7 0.040837 0.174640 0.122784
O O8 0.405710 0.430534 0.122503
O O9 0.210486 0.609833 0.312227
O O10 0.464320 0.719330 0.929373
O O11 0.212522 0.033512 0.601671
O O12 0.943126 0.977067 0.097978
O O13 0.404525 0.008431 0.022723
O O14 0.676665 0.910761 0.449694
#
# Coordination Sequence:
#
# PCOD9114802 Si02
#       7
#     2   2   2   2   2   2   2
#     4  11  20  33  57  78 111 142 171 221 272 317
#     4  10  20  36  52  79 113 137 172 219 279 309
#     4   8  17  32  54  73 101 137 175 220 256 311
#     4  10  19  34  56  79 103 141 181 216 259 316
#     4  10  20  34  57  84 101 140 185 222 257 316
#     4   9  17  32  56  76 103 131 186 221 257 303
#     4   8  19  33  54  77 104 138 180 215 258 312
#
# _framework density 20.401008000000001
#
# number of rings (size 3 to 8) (size 9 to 14) (size 15 to 20)
#    0.857    1.714    0.000    4.286    2.000    0.000 
#    0.000    0.000   15.714    0.000    0.000    0.000 
#    0.000    0.000    0.000    0.000    0.000    0.000 
#
# Total GULP energy -77958.738653 kJ/mol
# GULP energy per Si atom -5568.481332 kJ/mol
# Density = 2.035457 g / cm^3
# Si number density = 20.401008 Si / 1000 Ang^3
#
#
#
# Elastic Constant Matrix: (Units=GPa)
#
#
# Indices 1 2 3 4 5 6 
#
# 1 58.3421 14.3651 30.5370 0.0000 7.1186 0.0000
# 2 14.3651 18.2428 4.1927 0.0000 4.7477 0.0000
# 3 30.5370 4.1927 73.2621 0.0000 -6.8641 0.0000
# 4 0.0000 0.0000 0.0000 27.9657 0.0000 -6.0166
# 5 7.1186 4.7477 -6.8641 0.0000 38.0353 0.0000
# 6 0.0000 0.0000 0.0000 -6.0166 0.0000 21.7445
#
#
#
# Elastic Compliance Matrix: (Units=1/GPa)
#
#
# Indices 1 2 3 4 5 6 
#
# 1 0.028059 -0.018243 -0.011118 0.000000 -0.004981 0.000000
# 2 -0.018243 0.069678 0.003175 0.000000 -0.004710 0.000000
# 3 -0.011118 0.003175 0.018574 0.000000 0.005037 0.000000
# 4 0.000000 0.000000 0.000000 0.038021 0.000000 0.010520
# 5 -0.004981 -0.004710 0.005037 0.000000 0.028720 0.000000
# 6 0.000000 0.000000 0.000000 0.010520 0.000000 0.048899
#
#
# Mechanical properties :
#
#
# Convention : Reuss Voigt Hill
#
# Bulk Modulus (GPa) = 15.64004 27.55961 21.59983
# Shear Modulus (GPa) = 16.35920 24.26591 20.31256
#
# Velocity S-wave (km/s) = 2.83482 3.45258 3.15884
# Velocity P-wave (km/s) = 4.28928 5.42513 4.89029
#
# Compressibility (1/GPa) = 0.06393847
#
# Stress axis : x y z
#
# Youngs Moduli (GPa) = 35.63870 14.35176 53.83844
#
# Poissons Ratio (x) = 0.26183 0.59859
# Poissons Ratio (y) = 0.65017 -0.17096
# Poissons Ratio (z) = 0.39624 -0.04557
#
# Static dielectric constant tensor:
#      x y z
#    x 1.729190 0.000000 -0.054630 
#    y 0.000000 1.834940 0.000000 
#    z -0.054630 0.000000 1.733090 
# 
# From -- ./inp_files/2742.got.cif
#   From: 2010.05.17/outbox.cif.g08.bks.cpg/sg4_2_cif.got.tgz:2742.got - 2010.06.03 18:43:04.
