data_PCOD9114081
_publ_section_title
;
Structure prediction by ZEFSAII (Michael W. Deem and Ramdas Pophale) SiO2 
 PCOD9114081
Probable space group: P 2
;
_chemical_formula_sum "Si O2"
_cell_formula_units_Z 14
_cell_length_a 11.033728
_cell_length_b 6.006835
_cell_length_c 8.873261
_cell_angle_alpha 90.000000
_cell_angle_beta 102.769144
_cell_angle_gamma 90.000000
_cell_volume 573.555490
_symmetry_space_group_name_H-M "P 2"
_symmetry_group_IT_number 3
_symmetry_cell_setting 'monoclinic'
loop_
_space_group_symop_operation_xyz
x,y,z
-x,y,-z
loop_
_atom_site_type_symbol
_atom_site_label
_atom_site_fract_x
_atom_site_fract_y
_atom_site_fract_z
Si Si1 0.732460 0.933070 0.133243
Si Si2 0.791660 0.671558 0.863641
Si Si3 0.569155 0.366900 0.740875
Si Si4 0.500000 0.986459 0.500000
Si Si5 0.320779 0.635481 0.616371
Si Si6 0.923810 0.298731 0.113756
Si Si7 0.919786 0.593503 0.619406
Si Si8 0.500000 0.149355 0.000000
O O1 0.748206 0.736482 0.256227
O O2 0.826823 0.136199 0.167748
O O3 0.591122 0.004808 0.124100
O O4 0.741168 0.854469 0.963219
O O5 0.674981 0.549767 0.753090
O O6 0.880180 0.749589 0.750697
O O7 0.860895 0.496444 0.995323
O O8 0.570558 0.153453 0.634179
O O9 0.431565 0.468509 0.687338
O O10 0.584334 0.295979 0.917428
O O11 0.395191 0.831381 0.548578
O O12 0.209967 0.523658 0.492761
O O13 0.009218 0.400852 0.269114
O O14 0.000000 0.175711 0.000000
O O15 0.000000 0.680477 0.500000
#
# Coordination Sequence:
#
# PCOD9114081 Si02
#       8
#     2   2   2   1   2   2   2   1
#     4  12  25  45  75 111 144 189 253 306 363 451
#     4  11  24  46  76 102 145 191 243 311 373 429
#     4  12  25  46  73 109 153 188 235 313 380 441
#     4  12  26  46  72 112 152 194 246 292 378 466
#     4  12  27  46  72 109 152 197 243 304 372 447
#     4  10  25  48  70 103 139 194 253 309 362 425
#     4  11  26  46  71  99 145 198 244 301 370 426
#     4  12  24  42  74 112 144 184 240 308 376 440
#
# _framework density 24.409146
#
# number of rings (size 3 to 8) (size 9 to 14) (size 15 to 20)
#    0.000    0.571    2.857    4.714    4.000    4.000 
#    0.000    9.286    0.000    0.000    0.000    0.000 
#    0.000    0.000    0.000    0.000    0.000    0.000 
#
# Total GULP energy -78272.179647 kJ/mol
# GULP energy per Si atom -5590.869975 kJ/mol
# Density = 2.435359 g / cm^3
# Si number density = 24.409146 Si / 1000 Ang^3
#
#
#
# Elastic Constant Matrix: (Units=GPa)
#
#
# Indices 1 2 3 4 5 6 
#
# 1 114.7567 23.2971 57.1247 0.0000 9.5515 0.0000
# 2 23.2971 48.3015 29.7509 0.0000 1.5101 0.0000
# 3 57.1247 29.7509 132.9744 0.0000 -12.8916 0.0000
# 4 0.0000 0.0000 0.0000 44.2776 0.0000 0.9558
# 5 9.5515 1.5101 -12.8916 0.0000 64.8637 0.0000
# 6 0.0000 0.0000 0.0000 0.9558 0.0000 15.6998
#
#
#
# Elastic Compliance Matrix: (Units=1/GPa)
#
#
# Indices 1 2 3 4 5 6 
#
# 1 0.011839 -0.002713 -0.004733 0.000000 -0.002621 0.000000
# 2 -0.002713 0.024810 -0.004489 0.000000 -0.001070 0.000000
# 3 -0.004733 -0.004489 0.010845 0.000000 0.002957 0.000000
# 4 0.000000 0.000000 0.000000 0.022615 0.000000 -0.001377
# 5 -0.002621 -0.001070 0.002957 0.000000 0.016415 0.000000
# 6 0.000000 0.000000 0.000000 -0.001377 0.000000 0.063779
#
#
# Mechanical properties :
#
#
# Convention : Reuss Voigt Hill
#
# Bulk Modulus (GPa) = 42.33084 57.37532 49.85308
# Shear Modulus (GPa) = 27.46525 37.35888 32.41207
#
# Velocity S-wave (km/s) = 3.35804 3.91644 3.64794
# Velocity P-wave (km/s) = 5.69343 6.63385 6.18155
#
# Compressibility (1/GPa) = 0.02362344
#
# Stress axis : x y z
#
# Youngs Moduli (GPa) = 84.46595 40.30564 92.21208
#
# Poissons Ratio (x) = 0.10935 0.43644
# Poissons Ratio (y) = 0.22916 0.41396
# Poissons Ratio (z) = 0.39978 0.18094
#
# Static dielectric constant tensor:
#      x y z
#    x 1.963400 0.000000 -0.026070 
#    y 0.000000 1.917480 0.000000 
#    z -0.026070 0.000000 1.949140 
# 
# From -- ./inp_files/6767.got.cif
#   From: 2010.05.17/outbox.cif.g08.bks.cpg/sg3_4_cif.got.tgz:6767.got - 2010.06.03 18:33:08.
