data_PCOD9114302
_publ_section_title
;
Structure prediction by ZEFSAII (Michael W. Deem and Ramdas Pophale) SiO2 
 PCOD9114302
Probable space group: P 2
;
_chemical_formula_sum "Si O2"
_cell_formula_units_Z 12
_cell_length_a 11.009260
_cell_length_b 7.207918
_cell_length_c 6.638049
_cell_angle_alpha 90.000000
_cell_angle_beta 97.282497
_cell_angle_gamma 90.000000
_cell_volume 522.505482
_symmetry_space_group_name_H-M "P 2"
_symmetry_group_IT_number 3
_symmetry_cell_setting 'monoclinic'
loop_
_space_group_symop_operation_xyz
x,y,z
-x,y,-z
loop_
_atom_site_type_symbol
_atom_site_label
_atom_site_fract_x
_atom_site_fract_y
_atom_site_fract_z
Si Si1 0.784399 0.175710 0.347094
Si Si2 0.868995 0.487316 0.073190
Si Si3 0.622194 0.011704 0.952718
Si Si4 0.372790 0.747655 0.389038
Si Si5 0.866699 0.776505 0.394551
Si Si6 0.662395 0.353291 0.717705
O O1 0.855698 0.341677 0.253511
O O2 0.713080 0.259990 0.523536
O O3 0.866587 0.998731 0.417383
O O4 0.697378 0.081759 0.159255
O O5 0.850466 0.689078 0.169258
O O6 0.773554 0.419552 0.884886
O O7 0.000000 0.480490 0.000000
O O8 0.588874 0.196752 0.821249
O O9 0.679474 0.875140 0.800946
O O10 0.500000 0.912157 0.000000
O O11 0.500000 0.833942 0.500000
O O12 0.257953 0.720235 0.514350
O O13 0.409676 0.542833 0.326104
O O14 0.000000 0.707764 0.500000
#
# Coordination Sequence:
#
# PCOD9114302 Si02
#       6
#     2   2   2   2   2   2
#     4  11  25  45  73 102 147 192 254 302 377 443
#     4  11  26  44  72 106 146 192 248 316 372 442
#     4  11  26  44  72 106 146 192 248 316 372 442
#     4  12  26  45  76 106 150 199 249 307 377 444
#     4  12  26  45  76 106 150 199 249 307 377 444
#     4  11  25  45  73 102 147 192 254 302 377 443
#
# _framework density 22.966266999999998
#
# number of rings (size 3 to 8) (size 9 to 14) (size 15 to 20)
#    0.000    0.667    3.333    3.000    4.667    1.333 
#    0.000    0.000    0.000    0.000    0.000    0.000 
#    0.000    0.000    0.000    0.000    0.000    0.000 
#
# Total GULP energy -67048.125579 kJ/mol
# GULP energy per Si atom -5587.343798 kJ/mol
# Density = 2.291400 g / cm^3
# Si number density = 22.966267 Si / 1000 Ang^3
#
#
#
# Elastic Constant Matrix: (Units=GPa)
#
#
# Indices 1 2 3 4 5 6 
#
# 1 82.9609 -14.3745 29.3140 0.0000 -0.9194 0.0000
# 2 -14.3745 87.4696 19.8255 0.0000 12.4598 0.0000
# 3 29.3140 19.8255 108.5884 0.0000 -1.3796 0.0000
# 4 0.0000 0.0000 0.0000 46.8184 0.0000 6.2388
# 5 -0.9194 12.4598 -1.3796 0.0000 32.3214 0.0000
# 6 0.0000 0.0000 0.0000 6.2388 0.0000 14.4675
#
#
#
# Elastic Compliance Matrix: (Units=1/GPa)
#
#
# Indices 1 2 3 4 5 6 
#
# 1 0.014243 0.003524 -0.004503 0.000000 -0.001146 0.000000
# 2 0.003524 0.013555 -0.003493 0.000000 -0.005274 0.000000
# 3 -0.004503 -0.003493 0.011084 0.000000 0.001692 0.000000
# 4 0.000000 0.000000 0.000000 0.022661 0.000000 -0.009772
# 5 -0.001146 -0.005274 0.001692 0.000000 0.033012 0.000000
# 6 0.000000 0.000000 0.000000 -0.009772 0.000000 0.073335
#
#
# Mechanical properties :
#
#
# Convention : Reuss Voigt Hill
#
# Bulk Modulus (GPa) = 33.40208 38.72766 36.06487
# Shear Modulus (GPa) = 26.76477 35.00504 30.88491
#
# Velocity S-wave (km/s) = 3.41749 3.90833 3.67112
# Velocity P-wave (km/s) = 5.49071 6.10460 5.80577
#
# Compressibility (1/GPa) = 0.02993825
#
# Stress axis : x y z
#
# Youngs Moduli (GPa) = 70.21002 73.77460 90.22042
#
# Poissons Ratio (x) = -0.26002 0.40626
# Poissons Ratio (y) = -0.24745 0.31516
# Poissons Ratio (z) = 0.31616 0.25771
#
# Static dielectric constant tensor:
#      x y z
#    x 1.851920 0.000000 0.059710 
#    y 0.000000 1.875280 0.000000 
#    z 0.059710 0.000000 1.901170 
# 
# From -- ./inp_files/2101.got.cif
#   From: 2010.05.17/outbox.cif.g08.bks.cpg/sg3_2_cif.got.tgz:2101.got - 2010.06.03 18:33:08.
