data_PCOD9114225
_publ_section_title
;
Structure prediction by ZEFSAII (Michael W. Deem and Ramdas Pophale) SiO2 
 PCOD9114225
Probable space group: P 2
;
_chemical_formula_sum "Si O2"
_cell_formula_units_Z 9
_cell_length_a 12.969101
_cell_length_b 5.535862
_cell_length_c 5.054902
_cell_angle_alpha 90.000000
_cell_angle_beta 103.161544
_cell_angle_gamma 90.000000
_cell_volume 353.384330
_symmetry_space_group_name_H-M "P 2"
_symmetry_group_IT_number 3
_symmetry_cell_setting 'monoclinic'
loop_
_space_group_symop_operation_xyz
x,y,z
-x,y,-z
loop_
_atom_site_type_symbol
_atom_site_label
_atom_site_fract_x
_atom_site_fract_y
_atom_site_fract_z
Si Si1 0.658149 0.654870 0.785025
Si Si2 0.500000 0.026898 0.500000
Si Si3 0.660046 0.349519 0.263683
Si Si4 0.118754 0.680522 0.170215
Si Si5 0.119480 0.178151 0.467422
O O1 0.666927 0.565082 0.486172
O O2 0.777106 0.719469 0.947639
O O3 0.574159 0.865092 0.730850
O O4 0.622096 0.445561 0.960475
O O5 0.580842 0.170714 0.362982
O O6 0.777456 0.237644 0.297711
O O7 0.125259 0.399592 0.260332
O O8 0.130493 0.902384 0.381102
O O9 0.000000 0.714527 0.000000
O O10 0.000000 0.203073 0.500000
#
# Coordination Sequence:
#
# PCOD9114225 Si02
#       5
#     2   1   2   2   2
#     4  11  27  49  78 116 158 210 274 338 407 489
#     4  12  26  54  80 116 160 226 274 344 406 494
#     4  11  27  49  78 116 158 210 274 338 407 489
#     4  11  23  45  75 118 159 211 266 337 413 492
#     4  11  23  45  75 118 159 211 266 337 413 492
#
# _framework density 25.468022999999999
#
# number of rings (size 3 to 8) (size 9 to 14) (size 15 to 20)
#    0.000    0.889    2.222    3.333    0.000   10.667 
#    0.000    0.000    0.000    0.000    0.000    0.000 
#    0.000    0.000    0.000    0.000    0.000    0.000 
#
# Total GULP energy -50368.107796 kJ/mol
# GULP energy per Si atom -5596.456422 kJ/mol
# Density = 2.541006 g / cm^3
# Si number density = 25.468023 Si / 1000 Ang^3
#
#
#
# Elastic Constant Matrix: (Units=GPa)
#
#
# Indices 1 2 3 4 5 6 
#
# 1 213.0832 61.4259 25.1376 0.0000 17.2438 0.0000
# 2 61.4259 77.7851 36.4085 0.0000 9.3956 0.0000
# 3 25.1376 36.4085 67.8981 0.0000 -2.8092 0.0000
# 4 0.0000 0.0000 0.0000 58.7564 0.0000 10.9751
# 5 17.2438 9.3956 -2.8092 0.0000 32.2280 0.0000
# 6 0.0000 0.0000 0.0000 10.9751 0.0000 59.8816
#
#
#
# Elastic Compliance Matrix: (Units=1/GPa)
#
#
# Indices 1 2 3 4 5 6 
#
# 1 0.006194 -0.004739 0.000168 0.000000 -0.001918 0.000000
# 2 -0.004739 0.021953 -0.010214 0.000000 -0.004755 0.000000
# 3 0.000168 -0.010214 0.020336 0.000000 0.004660 0.000000
# 4 0.000000 0.000000 0.000000 0.017623 0.000000 -0.003230
# 5 -0.001918 -0.004755 0.004660 0.000000 0.033848 0.000000
# 6 0.000000 0.000000 0.000000 -0.003230 0.000000 0.017292
#
#
# Mechanical properties :
#
#
# Convention : Reuss Voigt Hill
#
# Bulk Modulus (GPa) = 52.87076 67.19005 60.03041
# Shear Modulus (GPa) = 32.65427 45.89283 39.27355
#
# Velocity S-wave (km/s) = 3.58462 4.24958 3.93118
# Velocity P-wave (km/s) = 6.15934 7.10760 6.65039
#
# Compressibility (1/GPa) = 0.01891404
#
# Stress axis : x y z
#
# Youngs Moduli (GPa) = 161.43559 45.55115 49.17498
#
# Poissons Ratio (x) = 0.21586 -0.00828
# Poissons Ratio (y) = 0.76500 0.50228
# Poissons Ratio (z) = -0.02718 0.46527
#
# Static dielectric constant tensor:
#      x y z
#    x 2.023560 0.000000 0.006160 
#    y 0.000000 2.038240 0.000000 
#    z 0.006160 0.000000 2.020080 
# 
# From -- ./inp_files/1861.got.cif
#   From: 2010.05.17/outbox.cif.g08.bks.cpg/sg3_1_cif.got.tgz:1861.got - 2010.06.03 18:33:08.
