data_PCOD9114644
_publ_section_title
;
Structure prediction by ZEFSAII (Michael W. Deem and Ramdas Pophale) SiO2 
 PCOD9114644
Probable space group: P 21
;
_chemical_formula_sum "Si O2"
_cell_formula_units_Z 16
_cell_length_a 12.688887
_cell_length_b 11.798447
_cell_length_c 7.342803
_cell_angle_alpha 90.000000
_cell_angle_beta 149.043147
_cell_angle_gamma 90.000000
_cell_volume 565.463821
_symmetry_space_group_name_H-M "P 21"
_symmetry_group_IT_number 4
_symmetry_cell_setting 'monoclinic'
loop_
_space_group_symop_operation_xyz
x,y,z
-x,1/2+y,-z
loop_
_atom_site_type_symbol
_atom_site_label
_atom_site_fract_x
_atom_site_fract_y
_atom_site_fract_z
Si Si1 0.878558 0.879810 0.517758
Si Si2 0.661902 0.431916 0.472116
Si Si3 0.536080 0.162370 0.858187
Si Si4 0.197172 0.249463 0.092867
Si Si5 0.914114 0.447599 0.534096
Si Si6 0.771204 0.232627 0.879462
Si Si7 0.091281 0.568633 0.192649
Si Si8 0.670643 0.671820 0.085283
O O1 0.040046 0.925561 0.609894
O O2 0.714479 0.804849 0.177084
O O3 0.006685 0.787265 0.817768
O O4 0.795629 0.978566 0.516580
O O5 0.497204 0.530763 0.246763
O O6 0.715037 0.396200 0.342900
O O7 0.641318 0.330973 0.586115
O O8 0.880630 0.500666 0.829255
O O9 0.725452 0.208624 0.022375
O O10 0.512112 0.158692 0.040128
O O11 0.350321 0.236485 0.491636
O O12 0.314197 0.173067 0.110636
O O13 0.107988 0.374933 0.910129
O O14 0.992190 0.176398 0.822610
O O15 0.841760 0.581225 0.411847
O O16 0.777425 0.115776 0.778837
#
# Coordination Sequence:
#
# PCOD9114644 Si02
#       8
#     2   2   2   2   2   2   2   2
#     4  10  21  36  63  92 117 155 212 269 299 358
#     4   9  20  36  60  86 115 162 208 255 302 364
#     4  10  23  39  57  86 131 165 195 248 320 384
#     4  10  19  38  61  86 117 161 204 256 307 360
#     4  10  18  35  64  86 117 151 212 264 308 349
#     4  11  21  39  59  91 123 164 204 251 319 374
#     4  10  19  36  63  87 114 154 213 257 297 359
#     4  10  21  39  61  90 120 160 206 262 306 366
#
# _framework density 28.295355000000001
#
# number of rings (size 3 to 8) (size 9 to 14) (size 15 to 20)
#    0.000    2.000    2.500    2.250    1.750    1.000 
#    4.500    0.000    0.000    0.000    0.000    0.000 
#    0.000    0.000    0.000    0.000    0.000    0.000 
#
# Total GULP energy -89352.477029 kJ/mol
# GULP energy per Si atom -5584.529814 kJ/mol
# Density = 2.823095 g / cm^3
# Si number density = 28.295355 Si / 1000 Ang^3
#
#
#
# Elastic Constant Matrix: (Units=GPa)
#
#
# Indices 1 2 3 4 5 6 
#
# 1 183.1993 59.5206 10.6560 0.0000 4.9172 0.0000
# 2 59.5206 158.1274 20.6117 0.0000 15.3926 0.0000
# 3 10.6560 20.6117 71.4946 0.0000 1.8828 0.0000
# 4 0.0000 0.0000 0.0000 39.6083 0.0000 10.9696
# 5 4.9172 15.3926 1.8828 0.0000 33.6559 0.0000
# 6 0.0000 0.0000 0.0000 10.9696 0.0000 60.5082
#
#
#
# Elastic Compliance Matrix: (Units=1/GPa)
#
#
# Indices 1 2 3 4 5 6 
#
# 1 0.006225 -0.002325 -0.000262 0.000000 0.000169 0.000000
# 2 -0.002325 0.007736 -0.001802 0.000000 -0.003097 0.000000
# 3 -0.000262 -0.001802 0.014544 0.000000 0.000049 0.000000
# 4 0.000000 0.000000 0.000000 0.026582 0.000000 -0.004819
# 5 0.000169 -0.003097 0.000049 0.000000 0.031102 0.000000
# 6 0.000000 0.000000 0.000000 -0.004819 0.000000 0.017400
#
#
# Mechanical properties :
#
#
# Convention : Reuss Voigt Hill
#
# Bulk Modulus (GPa) = 50.69358 66.04422 58.36890
# Shear Modulus (GPa) = 42.03711 48.22334 45.13023
#
# Velocity S-wave (km/s) = 3.85860 4.13278 3.99804
# Velocity P-wave (km/s) = 6.14870 6.79447 6.47963
#
# Compressibility (1/GPa) = 0.01972636
#
# Stress axis : x y z
#
# Youngs Moduli (GPa) = 160.64955 129.27085 68.75535
#
# Poissons Ratio (x) = 0.30060 0.01800
# Poissons Ratio (y) = 0.37356 0.12390
# Poissons Ratio (z) = 0.04206 0.23295
#
# Static dielectric constant tensor:
#      x y z
#    x 2.264680 0.000000 -0.055330 
#    y 0.000000 2.145820 0.000000 
#    z -0.055330 0.000000 2.408250 
# 
# From -- ./inp_files/5918.got.cif
#   From: 2010.05.17/outbox.cif.g08.bks.cpg/sg4_3_cif.got.tgz:5918.got - 2010.06.03 18:43:04.
