data_PCOD9114865
_publ_section_title
;
Structure prediction by ZEFSAII (Michael W. Deem and Ramdas Pophale) SiO2 
 PCOD9114865
Probable space group: P 21
;
_chemical_formula_sum "Si O2"
_cell_formula_units_Z 16
_cell_length_a 12.608503
_cell_length_b 10.795986
_cell_length_c 5.159290
_cell_angle_alpha 90.000000
_cell_angle_beta 118.429212
_cell_angle_gamma 90.000000
_cell_volume 617.597011
_symmetry_space_group_name_H-M "P 21"
_symmetry_group_IT_number 4
_symmetry_cell_setting 'monoclinic'
loop_
_space_group_symop_operation_xyz
x,y,z
-x,1/2+y,-z
loop_
_atom_site_type_symbol
_atom_site_label
_atom_site_fract_x
_atom_site_fract_y
_atom_site_fract_z
Si Si1 0.188960 0.186600 0.711392
Si Si2 0.955164 0.404194 0.149650
Si Si3 0.704864 0.275776 0.772982
Si Si4 0.397427 0.040147 0.198999
Si Si5 0.001960 0.541594 0.720710
Si Si6 0.799855 0.903494 0.865133
Si Si7 0.612687 0.766474 0.425401
Si Si8 0.416044 0.676698 0.875282
O O1 0.200029 0.300755 0.913724
O O2 0.264110 0.210304 0.541774
O O3 0.051225 0.159240 0.483466
O O4 0.266384 0.073960 0.924982
O O5 0.844783 0.313501 0.961269
O O6 0.936100 0.518248 0.919008
O O7 0.090792 0.373893 0.207914
O O8 0.964925 0.438749 0.462647
O O9 0.624588 0.404488 0.706599
O O10 0.662392 0.187841 0.957490
O O11 0.669102 0.217055 0.457951
O O12 0.427388 0.157696 0.423481
O O13 0.502028 0.058173 0.104407
O O14 0.142544 0.526439 0.942866
O O15 0.664479 0.894553 0.601133
O O16 0.523311 0.772914 0.079325
#
# Coordination Sequence:
#
# PCOD9114865 Si02
#       8
#     2   2   2   2   2   2   2   2
#     4  10  19  35  65  94 124 162 208 269 302 374
#     4  10  21  38  59  98 123 158 199 265 312 374
#     4  12  23  40  68  98 130 167 216 272 326 381
#     4  10  22  40  67  98 124 166 226 275 308 381
#     4  10  20  36  58  97 120 157 205 256 313 356
#     4   9  22  34  63  94 132 157 204 263 314 370
#     4  10  20  42  62  98 127 165 215 264 314 378
#     4  11  25  39  64 103 128 168 217 274 327 370
#
# _framework density 25.906860999999999
#
# number of rings (size 3 to 8) (size 9 to 14) (size 15 to 20)
#    0.750    1.000    2.500    2.250    5.250    0.000 
#    0.000    0.000    0.000   10.500    9.750    0.000 
#    0.000    0.000    0.000    0.000    0.000    0.000 
#
# Total GULP energy -89242.623529 kJ/mol
# GULP energy per Si atom -5577.663971 kJ/mol
# Density = 2.584790 g / cm^3
# Si number density = 25.906861 Si / 1000 Ang^3
#
#
#
# Elastic Constant Matrix: (Units=GPa)
#
#
# Indices 1 2 3 4 5 6 
#
# 1 80.7799 19.0478 37.4110 0.0000 10.8967 0.0000
# 2 19.0478 61.3662 15.9823 0.0000 3.4782 0.0000
# 3 37.4110 15.9823 139.5593 0.0000 5.5624 0.0000
# 4 0.0000 0.0000 0.0000 32.2195 0.0000 9.3483
# 5 10.8967 3.4782 5.5624 0.0000 40.0357 0.0000
# 6 0.0000 0.0000 0.0000 9.3483 0.0000 30.9919
#
#
#
# Elastic Compliance Matrix: (Units=1/GPa)
#
#
# Indices 1 2 3 4 5 6 
#
# 1 0.015342 -0.003644 -0.003561 0.000000 -0.003364 0.000000
# 2 -0.003644 0.017719 -0.001036 0.000000 -0.000404 0.000000
# 3 -0.003561 -0.001036 0.008242 0.000000 -0.000086 0.000000
# 4 0.000000 0.000000 0.000000 0.034014 0.000000 -0.010260
# 5 -0.003364 -0.000404 -0.000086 0.000000 0.025940 0.000000
# 6 0.000000 0.000000 0.000000 -0.010260 0.000000 0.035361
#
#
# Mechanical properties :
#
#
# Convention : Reuss Voigt Hill
#
# Bulk Modulus (GPa) = 40.28929 47.39862 43.84395
# Shear Modulus (GPa) = 30.98377 34.60038 32.79208
#
# Velocity S-wave (km/s) = 3.46203 3.65851 3.56162
# Velocity P-wave (km/s) = 5.61838 6.01513 5.82013
#
# Compressibility (1/GPa) = 0.02482049
#
# Stress axis : x y z
#
# Youngs Moduli (GPa) = 65.18225 56.43527 121.32768
#
# Poissons Ratio (x) = 0.20564 0.43207
# Poissons Ratio (y) = 0.23751 0.12574
# Poissons Ratio (z) = 0.23213 0.05849
#
# Static dielectric constant tensor:
#      x y z
#    x 2.040690 0.000000 0.008760 
#    y 0.000000 2.189330 0.000000 
#    z 0.008760 0.000000 2.044840 
# 
# From -- ./inp_files/3780.got.cif
#   From: 2010.05.17/outbox.cif.g08.bks.cpg/sg4_2_cif.got.tgz:3780.got - 2010.06.03 18:43:04.
