data_PCOD9114870
_publ_section_title
;
Structure prediction by ZEFSAII (Michael W. Deem and Ramdas Pophale) SiO2 
 PCOD9114870
Probable space group: P 21
;
_chemical_formula_sum "Si O2"
_cell_formula_units_Z 14
_cell_length_a 16.730683
_cell_length_b 5.372500
_cell_length_c 9.565354
_cell_angle_alpha 90.000000
_cell_angle_beta 129.923085
_cell_angle_gamma 90.000000
_cell_volume 659.376769
_symmetry_space_group_name_H-M "P 21"
_symmetry_group_IT_number 4
_symmetry_cell_setting 'monoclinic'
loop_
_space_group_symop_operation_xyz
x,y,z
-x,1/2+y,-z
loop_
_atom_site_type_symbol
_atom_site_label
_atom_site_fract_x
_atom_site_fract_y
_atom_site_fract_z
Si Si1 0.939406 0.225150 0.908004
Si Si2 0.731065 0.663833 0.010134
Si Si3 0.144368 0.662753 0.901067
Si Si4 0.471814 0.170517 0.055288
Si Si5 0.471302 0.171579 0.380927
Si Si6 0.074928 0.179408 0.509296
Si Si7 0.098820 0.681535 0.457250
O O1 0.906677 0.194946 0.712784
O O2 0.856455 0.161202 0.932497
O O3 0.974170 0.509302 0.972777
O O4 0.651537 0.667016 0.050205
O O5 0.652765 0.669385 0.789265
O O6 0.796403 0.411024 0.077284
O O7 0.800284 0.911254 0.084395
O O8 0.142903 0.937043 0.562447
O O9 0.023458 0.673851 0.711424
O O10 0.514991 0.171667 0.267168
O O11 0.499162 0.421198 0.999210
O O12 0.499586 0.422054 0.499307
O O13 0.141774 0.421061 0.554343
O O14 0.013483 0.178556 0.586970
#
# Coordination Sequence:
#
# PCOD9114870 Si02
#       7
#     2   2   2   2   2   2   2
#     4  12  21  34  57  84 108 153 205 240 279 337
#     4  10  24  35  63  87 120 145 199 233 312 355
#     4  12  20  37  55  86 117 156 186 253 299 346
#     4  10  20  38  65  91 114 150 197 247 284 360
#     4  10  20  38  65  91 118 156 199 238 292 376
#     4  10  20  32  60  71 109 144 190 235 300 319
#     4  10  19  36  49  84  98 144 200 248 262 347
#
# _framework density 21.232168999999999
#
# number of rings (size 3 to 8) (size 9 to 14) (size 15 to 20)
#    0.857    0.571    2.857    4.286    0.000    0.000 
#    0.000    0.000   18.857    0.000    0.000    0.000 
#    0.000    0.000    0.000    0.000    0.000    0.000 
#
# Total GULP energy -78025.640916 kJ/mol
# GULP energy per Si atom -5573.260065 kJ/mol
# Density = 2.118384 g / cm^3
# Si number density = 21.232169 Si / 1000 Ang^3
#
#
#
# Elastic Constant Matrix: (Units=GPa)
#
#
# Indices 1 2 3 4 5 6 
#
# 1 84.7478 49.3631 40.7280 0.0000 -35.7864 0.0000
# 2 49.3631 213.2132 57.8833 0.0000 -12.6280 0.0000
# 3 40.7280 57.8833 156.0434 0.0000 -28.0031 0.0000
# 4 0.0000 0.0000 0.0000 25.1926 0.0000 -17.6512
# 5 -35.7864 -12.6280 -28.0031 0.0000 52.7374 0.0000
# 6 0.0000 0.0000 0.0000 -17.6512 0.0000 25.6420
#
#
#
# Elastic Compliance Matrix: (Units=1/GPa)
#
#
# Indices 1 2 3 4 5 6 
#
# 1 0.019430 -0.003338 -0.001780 0.000000 0.011440 0.000000
# 2 -0.003338 0.005792 -0.001586 0.000000 -0.001720 0.000000
# 3 -0.001780 -0.001586 0.007932 0.000000 0.002624 0.000000
# 4 0.000000 0.000000 0.000000 0.076675 0.000000 0.052781
# 5 0.011440 -0.001720 0.002624 0.000000 0.027707 0.000000
# 6 0.000000 0.000000 0.000000 0.052781 0.000000 0.075332
#
#
# Mechanical properties :
#
#
# Convention : Reuss Voigt Hill
#
# Bulk Modulus (GPa) = 50.64147 83.32811 66.98479
# Shear Modulus (GPa) = 21.47237 41.11641 31.29439
#
# Velocity S-wave (km/s) = 3.18356 4.40536 3.84332
# Velocity P-wave (km/s) = 6.11690 8.07512 7.16324
#
# Compressibility (1/GPa) = 0.01974666
#
# Stress axis : x y z
#
# Youngs Moduli (GPa) = 51.46603 172.66614 126.06627
#
# Poissons Ratio (x) = 0.57629 0.22443
# Poissons Ratio (y) = 0.17177 0.19993
# Poissons Ratio (z) = 0.09162 0.27383
#
# Static dielectric constant tensor:
#      x y z
#    x 1.744260 0.000000 -0.021370 
#    y 0.000000 1.867570 0.000000 
#    z -0.021370 0.000000 1.839240 
# 
# From -- ./inp_files/9431.got.cif
#   From: 2010.05.17/outbox.cif.g08.bks.cpg/sg4_5_cif.got.tgz:9431.got - 2010.06.03 18:43:04.
