data_PCOD9114928
_publ_section_title
;
Structure prediction by ZEFSAII (Michael W. Deem and Ramdas Pophale) SiO2 
 PCOD9114928
Probable space group: P 21
;
_chemical_formula_sum "Si O2"
_cell_formula_units_Z 16
_cell_length_a 9.829887
_cell_length_b 11.050507
_cell_length_c 8.138156
_cell_angle_alpha 90.000000
_cell_angle_beta 114.149314
_cell_angle_gamma 90.000000
_cell_volume 806.642747
_symmetry_space_group_name_H-M "P 21"
_symmetry_group_IT_number 4
_symmetry_cell_setting 'monoclinic'
loop_
_space_group_symop_operation_xyz
x,y,z
-x,1/2+y,-z
loop_
_atom_site_type_symbol
_atom_site_label
_atom_site_fract_x
_atom_site_fract_y
_atom_site_fract_z
Si Si1 0.210956 0.763190 0.989226
Si Si2 0.481126 0.937404 0.547434
Si Si3 0.367493 0.778726 0.735700
Si Si4 0.078768 0.677505 0.407502
Si Si5 0.803492 0.018167 0.815076
Si Si6 0.919730 0.666230 0.662978
Si Si7 0.406888 0.200437 0.389279
Si Si8 0.049735 0.906645 0.159204
O O1 0.332655 0.783105 0.909253
O O2 0.054527 0.738228 0.816721
O O3 0.235000 0.641096 0.104491
O O4 0.182150 0.873313 0.098607
O O5 0.649130 0.958069 0.691124
O O6 0.438578 0.060672 0.440939
O O7 0.373366 0.909040 0.648416
O O8 0.493056 0.804175 0.467823
O O9 0.235660 0.704107 0.579285
O O10 0.527642 0.723720 0.761515
O O11 0.105555 0.563750 0.300480
O O12 0.039137 0.792165 0.273999
O O13 0.955308 0.664548 0.487365
O O14 0.903309 0.933591 0.979465
O O15 0.762932 0.719726 0.643361
O O16 0.922717 0.528840 0.728591
#
# Coordination Sequence:
#
# PCOD9114928 Si02
#       8
#     2   2   2   2   2   2   2   2
#     4   9  20  39  58  85 121 155 193 248 306 358
#     4  10  20  36  60  83 125 156 196 244 299 353
#     4   9  20  38  59  83 117 160 200 237 303 354
#     4  10  20  39  61  83 117 153 201 251 296 349
#     4  10  19  37  58  86 119 157 189 249 307 353
#     4  10  21  37  61  92 112 153 213 244 286 356
#     4  10  21  37  58  89 119 153 201 253 292 347
#     4  10  21  35  61  85 118 153 195 248 305 348
#
# _framework density 19.8353
#
# number of rings (size 3 to 8) (size 9 to 14) (size 15 to 20)
#    0.750    1.500    1.250    1.500    0.000    4.000 
#    4.500    1.250    0.000    0.000    0.000    0.000 
#    0.000    0.000    0.000    0.000    0.000    0.000 
#
# Total GULP energy -89131.162337 kJ/mol
# GULP energy per Si atom -5570.697646 kJ/mol
# Density = 1.979015 g / cm^3
# Si number density = 19.835300 Si / 1000 Ang^3
#
#
#
# Elastic Constant Matrix: (Units=GPa)
#
#
# Indices 1 2 3 4 5 6 
#
# 1 134.4397 24.0188 41.4257 0.0000 -37.0834 0.0000
# 2 24.0188 62.1762 18.6757 0.0000 -23.9274 0.0000
# 3 41.4257 18.6757 65.8528 0.0000 -30.5957 0.0000
# 4 0.0000 0.0000 0.0000 18.4133 0.0000 3.2291
# 5 -37.0834 -23.9274 -30.5957 0.0000 43.3299 0.0000
# 6 0.0000 0.0000 0.0000 3.2291 0.0000 24.6873
#
#
#
# Elastic Compliance Matrix: (Units=1/GPa)
#
#
# Indices 1 2 3 4 5 6 
#
# 1 0.010280 -0.000616 -0.003516 0.000000 0.005975 0.000000
# 2 -0.000616 0.020490 -0.000612 0.000000 0.010356 0.000000
# 3 -0.003516 -0.000612 0.023835 0.000000 0.013483 0.000000
# 4 0.000000 0.000000 0.000000 0.055584 0.000000 -0.007270
# 5 0.005975 0.010356 0.013483 0.000000 0.043432 0.000000
# 6 0.000000 0.000000 0.000000 -0.007270 0.000000 0.041458
#
#
# Mechanical properties :
#
#
# Convention : Reuss Voigt Hill
#
# Bulk Modulus (GPa) = 22.16438 47.85657 35.01048
# Shear Modulus (GPa) = 22.76815 29.17601 25.97208
#
# Velocity S-wave (km/s) = 3.39168 3.83941 3.62247
# Velocity P-wave (km/s) = 5.15136 6.62073 5.93172
#
# Compressibility (1/GPa) = 0.04511744
#
# Stress axis : x y z
#
# Youngs Moduli (GPa) = 97.27757 48.80357 41.95501
#
# Poissons Ratio (x) = 0.03004 0.14751
# Poissons Ratio (y) = 0.05988 0.02569
# Poissons Ratio (z) = 0.34202 0.02989
#
# Static dielectric constant tensor:
#      x y z
#    x 1.709350 0.000000 0.018580 
#    y 0.000000 1.740030 0.000000 
#    z 0.018580 0.000000 1.730310 
# 
# From -- ./inp_files/6252.got.cif
#   From: 2010.05.17/outbox.cif.g08.bks.cpg/sg4_4_cif.got.tgz:6252.got - 2010.06.03 18:43:04.
