data_PCOD9114959
_publ_section_title
;
Structure prediction by ZEFSAII (Michael W. Deem and Ramdas Pophale) SiO2 
 PCOD9114959
Probable space group: P 21
;
_chemical_formula_sum "Si O2"
_cell_formula_units_Z 14
_cell_length_a 8.960174
_cell_length_b 9.442833
_cell_length_c 12.675443
_cell_angle_alpha 90.000000
_cell_angle_beta 31.413812
_cell_angle_gamma 90.000000
_cell_volume 558.983669
_symmetry_space_group_name_H-M "P 21"
_symmetry_group_IT_number 4
_symmetry_cell_setting 'monoclinic'
loop_
_space_group_symop_operation_xyz
x,y,z
-x,1/2+y,-z
loop_
_atom_site_type_symbol
_atom_site_label
_atom_site_fract_x
_atom_site_fract_y
_atom_site_fract_z
Si Si1 0.371156 0.236140 0.992434
Si Si2 0.391271 0.813856 0.841359
Si Si3 0.909448 0.001047 0.204395
Si Si4 0.833584 0.059589 0.628956
Si Si5 0.736623 0.011909 0.066141
Si Si6 0.086062 0.815994 0.581285
Si Si7 0.663001 0.412122 0.358950
O O1 0.395613 0.366377 0.896868
O O2 0.236464 0.303512 0.177223
O O3 0.659624 0.146469 0.823331
O O4 0.126050 0.128722 0.099087
O O5 0.327217 0.819805 0.753768
O O6 0.631387 0.934292 0.706897
O O7 0.439620 0.653857 0.847362
O O8 0.118452 0.865914 0.073068
O O9 0.643916 0.985673 0.443118
O O10 0.789839 0.008554 0.158563
O O11 0.876030 0.179357 0.514807
O O12 0.091818 0.968651 0.520651
O O13 0.058692 0.013298 0.820816
O O14 0.288526 0.825862 0.561614
#
# Coordination Sequence:
#
# PCOD9114959 Si02
#       7
#     2   2   2   2   2   2   2
#     4  10  23  43  66  94 130 172 216 264 320 385
#     4  10  23  40  65  99 133 170 211 263 322 383
#     4  10  19  37  64  96 132 170 212 262 316 373
#     4  11  26  46  67  94 131 169 216 270 319 384
#     4  10  20  35  60  97 132 166 209 262 322 374
#     4  11  25  45  68  95 129 174 216 264 325 380
#     4  10  22  40  68  99 133 169 216 265 318 385
#
# _framework density 25.045455
#
# number of rings (size 3 to 8) (size 9 to 14) (size 15 to 20)
#    0.000    1.714    0.000    4.286    0.000   11.429 
#    0.000    4.286    0.000    1.714    0.000    0.000 
#    0.000    0.000    0.000    0.000    0.000    0.000 
#
# Total GULP energy -78307.665961 kJ/mol
# GULP energy per Si atom -5593.404711 kJ/mol
# Density = 2.498845 g / cm^3
# Si number density = 25.045455 Si / 1000 Ang^3
#
#
#
# Elastic Constant Matrix: (Units=GPa)
#
#
# Indices 1 2 3 4 5 6 
#
# 1 59.7628 39.3721 20.0963 0.0000 9.5092 0.0000
# 2 39.3721 197.2824 61.7978 0.0000 3.6314 0.0000
# 3 20.0963 61.7978 130.2639 0.0000 1.4965 0.0000
# 4 0.0000 0.0000 0.0000 43.5644 0.0000 -7.1059
# 5 9.5092 3.6314 1.4965 0.0000 29.2306 0.0000
# 6 0.0000 0.0000 0.0000 -7.1059 0.0000 31.3066
#
#
#
# Elastic Compliance Matrix: (Units=1/GPa)
#
#
# Indices 1 2 3 4 5 6 
#
# 1 0.020521 -0.003538 -0.001416 0.000000 -0.006164 0.000000
# 2 -0.003538 0.006574 -0.002578 0.000000 0.000466 0.000000
# 3 -0.001416 -0.002578 0.009115 0.000000 0.000314 0.000000
# 4 0.000000 0.000000 0.000000 0.023837 0.000000 0.005410
# 5 -0.006164 0.000466 0.000314 0.000000 0.036142 0.000000
# 6 0.000000 0.000000 0.000000 0.005410 0.000000 0.033170
#
#
# Mechanical properties :
#
#
# Convention : Reuss Voigt Hill
#
# Bulk Modulus (GPa) = 47.29526 69.98238 58.63882
# Shear Modulus (GPa) = 33.00926 38.55652 35.78289
#
# Velocity S-wave (km/s) = 3.63433 3.92785 3.78394
# Velocity P-wave (km/s) = 6.04449 6.96947 6.52340
#
# Compressibility (1/GPa) = 0.02114377
#
# Stress axis : x y z
#
# Youngs Moduli (GPa) = 48.73088 152.11308 109.71203
#
# Poissons Ratio (x) = 0.53821 0.15540
# Poissons Ratio (y) = 0.17242 0.28287
# Poissons Ratio (z) = 0.06903 0.39219
#
# Static dielectric constant tensor:
#      x y z
#    x 2.026060 0.000000 -0.020200 
#    y 0.000000 1.961190 0.000000 
#    z -0.020200 0.000000 2.018470 
# 
# From -- ./inp_files/11001.got.cif
#   From: 2010.05.17/outbox.cif.g08.bks.cpg/sg4_6_cif.got.tgz:11001.got - 2010.06.03 18:43:04.
