data_PCOD9114652
_publ_section_title
;
Structure prediction by ZEFSAII (Michael W. Deem and Ramdas Pophale) SiO2 
 PCOD9114652
Probable space group: P 21
;
_chemical_formula_sum "Si O2"
_cell_formula_units_Z 16
_cell_length_a 8.972224
_cell_length_b 8.687835
_cell_length_c 17.424454
_cell_angle_alpha 90.000000
_cell_angle_beta 141.768907
_cell_angle_gamma 90.000000
_cell_volume 840.515171
_symmetry_space_group_name_H-M "P 21"
_symmetry_group_IT_number 4
_symmetry_cell_setting 'monoclinic'
loop_
_space_group_symop_operation_xyz
x,y,z
-x,1/2+y,-z
loop_
_atom_site_type_symbol
_atom_site_label
_atom_site_fract_x
_atom_site_fract_y
_atom_site_fract_z
Si Si1 0.512360 0.059550 0.028047
Si Si2 0.772400 0.804441 0.376048
Si Si3 0.951927 0.495848 0.230877
Si Si4 0.549651 0.824490 0.574556
Si Si5 0.284224 0.131936 0.497796
Si Si6 0.705432 0.769196 0.173609
Si Si7 0.295156 0.656689 0.599354
Si Si8 0.745870 0.247179 0.254662
O O1 0.574834 0.174796 0.121532
O O2 0.691122 0.919302 0.114851
O O3 0.500637 0.154586 0.944018
O O4 0.241133 0.991729 0.916442
O O5 0.663438 0.684889 0.393948
O O6 0.671233 0.805613 0.248831
O O7 0.045658 0.743522 0.479378
O O8 0.752410 0.975574 0.404374
O O9 0.950308 0.673661 0.256246
O O10 0.834495 0.409078 0.256870
O O11 0.195961 0.411465 0.309454
O O12 0.576498 0.746501 0.502848
O O13 0.483283 0.692521 0.608631
O O14 0.357603 0.959935 0.507217
O O15 0.998223 0.154368 0.367081
O O16 0.374668 0.736284 0.711409
#
# Coordination Sequence:
#
# PCOD9114652 Si02
#       8
#     2   2   2   2   2   2   2   2
#     4  10  18  36  61  92 112 155 204 266 294 357
#     4  11  23  38  61  97 122 161 214 263 303 364
#     4   9  21  36  59  85 121 156 201 250 308 364
#     4  11  23  39  58  86 132 170 196 251 321 380
#     4  10  24  37  58  89 125 162 206 252 317 376
#     4  10  21  35  65  89 124 150 214 256 301 357
#     4  11  23  36  62  90 126 162 204 257 314 365
#     4  10  19  37  58  88 114 150 209 255 300 351
#
# _framework density 19.035945999999999
#
# number of rings (size 3 to 8) (size 9 to 14) (size 15 to 20)
#    0.750    1.000    2.500    2.250    8.750    0.000 
#    0.000    0.000    2.750    1.500    0.000    0.000 
#    0.000    0.000    0.000    0.000    0.000    0.000 
#
# Total GULP energy -89108.707269 kJ/mol
# GULP energy per Si atom -5569.294204 kJ/mol
# Density = 1.899262 g / cm^3
# Si number density = 19.035946 Si / 1000 Ang^3
#
#
#
# Elastic Constant Matrix: (Units=GPa)
#
#
# Indices 1 2 3 4 5 6 
#
# 1 80.6302 23.3590 16.7926 0.0000 -14.9326 0.0000
# 2 23.3590 78.7009 18.3164 0.0000 -10.1611 0.0000
# 3 16.7926 18.3164 63.2907 0.0000 -26.8543 0.0000
# 4 0.0000 0.0000 0.0000 30.3708 0.0000 1.4517
# 5 -14.9326 -10.1611 -26.8543 0.0000 19.0589 0.0000
# 6 0.0000 0.0000 0.0000 1.4517 0.0000 24.5809
#
#
#
# Elastic Compliance Matrix: (Units=1/GPa)
#
#
# Indices 1 2 3 4 5 6 
#
# 1 0.015463 -0.003419 0.003118 0.000000 0.014685 0.000000
# 2 -0.003419 0.014520 -0.002852 0.000000 0.001044 0.000000
# 3 0.003118 -0.002852 0.040257 0.000000 0.057645 0.000000
# 4 0.000000 0.000000 0.000000 0.033020 0.000000 -0.001950
# 5 0.014685 0.001044 0.057645 0.000000 0.145754 0.000000
# 6 0.000000 0.000000 0.000000 -0.001950 0.000000 0.040797
#
#
# Mechanical properties :
#
#
# Convention : Reuss Voigt Hill
#
# Bulk Modulus (GPa) = 15.64132 37.72865 26.68499
# Shear Modulus (GPa) = 15.75159 25.74571 20.74865
#
# Velocity S-wave (km/s) = 2.87969 3.68160 3.30505
# Velocity P-wave (km/s) = 4.39220 6.15913 5.34913
#
# Compressibility (1/GPa) = 0.06393321
#
# Stress axis : x y z
#
# Youngs Moduli (GPa) = 64.66946 68.87210 24.84033
#
# Poissons Ratio (x) = 0.23549 -0.07745
# Poissons Ratio (y) = 0.22112 0.07084
# Poissons Ratio (z) = -0.20162 0.19642
#
# Static dielectric constant tensor:
#      x y z
#    x 1.662130 0.000000 0.004690 
#    y 0.000000 1.733410 0.000000 
#    z 0.004690 0.000000 1.696610 
# 
# From -- ./inp_files/12942.got.cif
#   From: 2010.05.17/outbox.cif.g08.bks.cpg/sg4_7_cif.got.tgz:12942.got - 2010.06.03 18:43:04.
