data_PCOD9114112
_publ_section_title
;
Structure prediction by ZEFSAII (Michael W. Deem and Ramdas Pophale) SiO2 
 PCOD9114112
Probable space group: P 2
;
_chemical_formula_sum "Si O2"
_cell_formula_units_Z 14
_cell_length_a 9.086443
_cell_length_b 6.488757
_cell_length_c 17.933444
_cell_angle_alpha 90.000000
_cell_angle_beta 35.991247
_cell_angle_gamma 90.000000
_cell_volume 621.364547
_symmetry_space_group_name_H-M "P 2"
_symmetry_group_IT_number 3
_symmetry_cell_setting 'monoclinic'
loop_
_space_group_symop_operation_xyz
x,y,z
-x,y,-z
loop_
_atom_site_type_symbol
_atom_site_label
_atom_site_fract_x
_atom_site_fract_y
_atom_site_fract_z
Si Si1 0.177545 0.640550 0.511952
Si Si2 0.500000 0.472513 0.500000
Si Si3 0.222684 0.911986 0.114328
Si Si4 0.576062 0.984074 0.695288
Si Si5 0.812012 0.232943 0.246466
Si Si6 0.000000 0.271879 0.500000
Si Si7 0.365453 0.692067 0.205811
Si Si8 0.866417 0.570465 0.975400
O O1 0.304131 0.618157 0.539155
O O2 0.313209 0.819049 0.410167
O O3 0.186874 0.417555 0.469067
O O4 0.880631 0.658008 0.644260
O O5 0.643453 0.338895 0.379212
O O6 0.257371 0.764693 0.171421
O O7 0.162501 0.768394 0.067405
O O8 0.500000 0.013388 0.000000
O O9 0.004452 0.077424 0.207457
O O10 0.491687 0.866102 0.804003
O O11 0.360632 0.109532 0.741680
O O12 0.811953 0.126149 0.622048
O O13 0.974106 0.401698 0.134878
O O14 0.573028 0.515239 0.110991
O O15 0.000000 0.605383 0.000000
#
# Coordination Sequence:
#
# PCOD9114112 Si02
#       8
#     2   1   2   2   2   1   2   2
#     4  12  26  46  71 111 153 199 247 314 378 447
#     4  12  30  44  74 110 156 204 242 320 378 452
#     4  10  26  49  72 106 145 193 257 311 383 442
#     4  12  26  45  75 113 154 197 253 310 385 457
#     4  12  29  47  72 113 152 199 257 307 379 460
#     4  12  22  46  72 108 152 190 258 296 374 458
#     4  11  24  48  78 100 151 200 243 320 371 447
#     4  11  27  50  75 108 147 198 251 315 377 452
#
# _framework density 22.531058000000002
#
# number of rings (size 3 to 8) (size 9 to 14) (size 15 to 20)
#    0.000    0.571    4.286    1.714   12.000    5.714 
#    0.000    0.000    0.000    0.000    0.000    0.000 
#    0.000    0.000    0.000    0.000    0.000    0.000 
#
# Total GULP energy -78202.982738 kJ/mol
# GULP energy per Si atom -5585.927338 kJ/mol
# Density = 2.247978 g / cm^3
# Si number density = 22.531058 Si / 1000 Ang^3
#
#
#
# Elastic Constant Matrix: (Units=GPa)
#
#
# Indices 1 2 3 4 5 6 
#
# 1 168.4744 47.0966 57.5068 0.0000 -1.6396 0.0000
# 2 47.0966 71.0997 57.9598 0.0000 -10.2633 0.0000
# 3 57.5068 57.9598 121.5251 0.0000 -8.5105 0.0000
# 4 0.0000 0.0000 0.0000 29.9114 0.0000 -10.4833
# 5 -1.6396 -10.2633 -8.5105 0.0000 42.2850 0.0000
# 6 0.0000 0.0000 0.0000 -10.4833 0.0000 34.0796
#
#
#
# Elastic Compliance Matrix: (Units=1/GPa)
#
#
# Indices 1 2 3 4 5 6 
#
# 1 0.007593 -0.003575 -0.001956 0.000000 -0.000967 0.000000
# 2 -0.003575 0.025194 -0.010047 0.000000 0.003954 0.000000
# 3 -0.001956 -0.010047 0.013967 0.000000 0.000297 0.000000
# 4 0.000000 0.000000 0.000000 0.037472 0.000000 0.011527
# 5 -0.000967 0.003954 0.000297 0.000000 0.024631 0.000000
# 6 0.000000 0.000000 0.000000 0.011527 0.000000 0.032889
#
#
# Mechanical properties :
#
#
# Convention : Reuss Voigt Hill
#
# Bulk Modulus (GPa) = 64.11087 76.24727 70.17907
# Shear Modulus (GPa) = 28.07381 34.49094 31.28237
#
# Velocity S-wave (km/s) = 3.53371 3.91681 3.73018
# Velocity P-wave (km/s) = 6.72054 7.37358 7.05462
#
# Compressibility (1/GPa) = 0.01559798
#
# Stress axis : x y z
#
# Youngs Moduli (GPa) = 131.69717 39.69175 71.59717
#
# Poissons Ratio (x) = 0.14189 0.14003
# Poissons Ratio (y) = 0.47081 0.71937
# Poissons Ratio (z) = 0.25758 0.39880
#
# Static dielectric constant tensor:
#      x y z
#    x 1.802410 0.000000 -0.016890 
#    y 0.000000 1.841170 0.000000 
#    z -0.016890 0.000000 1.919140 
# 
# From -- ./inp_files/8841.got.cif
#   From: 2010.05.17/outbox.cif.g08.bks.cpg/sg3_5_cif.got.tgz:8841.got - 2010.06.03 18:33:08.
