data_PCOD9114259
_publ_section_title
;
Structure prediction by ZEFSAII (Michael W. Deem and Ramdas Pophale) SiO2 
 PCOD9114259
Probable space group: P 2
;
_chemical_formula_sum "Si O2"
_cell_formula_units_Z 14
_cell_length_a 10.313531
_cell_length_b 4.958608
_cell_length_c 10.850033
_cell_angle_alpha 90.000000
_cell_angle_beta 89.251073
_cell_angle_gamma 90.000000
_cell_volume 554.831503
_symmetry_space_group_name_H-M "P 2"
_symmetry_group_IT_number 3
_symmetry_cell_setting 'monoclinic'
loop_
_space_group_symop_operation_xyz
x,y,z
-x,y,-z
loop_
_atom_site_type_symbol
_atom_site_label
_atom_site_fract_x
_atom_site_fract_y
_atom_site_fract_z
Si Si1 0.075474 0.872170 0.875684
Si Si2 0.452715 0.016465 0.141729
Si Si3 0.305765 0.742619 0.736636
Si Si4 0.117159 0.058097 0.558114
Si Si5 0.354761 0.370397 0.504113
Si Si6 0.971862 0.386719 0.756030
Si Si7 0.681311 0.531811 0.758496
O O1 0.001073 0.699184 0.774071
O O2 0.219747 0.742960 0.863533
O O3 0.049320 0.188269 0.849230
O O4 0.000000 0.804928 0.000000
O O5 0.564278 0.892426 0.227641
O O6 0.333885 0.812079 0.169140
O O7 0.421027 0.318418 0.184506
O O8 0.500000 0.012903 0.000000
O O9 0.332157 0.498065 0.640814
O O10 0.207513 0.918813 0.657240
O O11 0.232988 0.179557 0.475567
O O12 0.000000 0.889274 0.500000
O O13 0.032393 0.286588 0.627583
O O14 0.500000 0.250730 0.500000
O O15 0.347307 0.573678 0.387507
O O16 0.818674 0.383814 0.773550
#
# Coordination Sequence:
#
# PCOD9114259 Si02
#       7
#     2   2   2   2   2   2   2
#     4  11  25  45  71 104 144 195 249 316 376 449
#     4  12  29  53  75 112 155 208 258 317 380 468
#     4  11  27  44  75 109 153 199 256 316 390 451
#     4  11  24  45  70 107 153 196 243 318 382 458
#     4  12  24  45  72 107 151 196 251 319 381 465
#     4  11  24  45  70 107 142 188 255 304 378 447
#     4  12  27  47  79 108 149 199 260 313 388 453
#
# _framework density 25.232887000000002
#
# number of rings (size 3 to 8) (size 9 to 14) (size 15 to 20)
#    0.000    0.571    4.286    2.571    6.000    3.429 
#    0.000    0.000    0.000    0.000    0.000    0.000 
#    0.000    0.000    0.000    0.000    0.000    0.000 
#
# Total GULP energy -78157.115695 kJ/mol
# GULP energy per Si atom -5582.651121 kJ/mol
# Density = 2.517546 g / cm^3
# Si number density = 25.232887 Si / 1000 Ang^3
#
#
#
# Elastic Constant Matrix: (Units=GPa)
#
#
# Indices 1 2 3 4 5 6 
#
# 1 146.4986 16.6407 6.3336 0.0000 -15.1440 0.0000
# 2 16.6407 90.5450 24.5726 0.0000 -7.5351 0.0000
# 3 6.3336 24.5726 92.3018 0.0000 -22.6336 0.0000
# 4 0.0000 0.0000 0.0000 28.1829 0.0000 -10.5668
# 5 -15.1440 -7.5351 -22.6336 0.0000 41.6071 0.0000
# 6 0.0000 0.0000 0.0000 -10.5668 0.0000 30.6090
#
#
#
# Elastic Compliance Matrix: (Units=1/GPa)
#
#
# Indices 1 2 3 4 5 6 
#
# 1 0.007221 -0.001238 0.000489 0.000000 0.002670 0.000000
# 2 -0.001238 0.012125 -0.003133 0.000000 0.000041 0.000000
# 3 0.000489 -0.003133 0.013315 0.000000 0.006854 0.000000
# 4 0.000000 0.000000 0.000000 0.040758 0.000000 0.014070
# 5 0.002670 0.000041 0.006854 0.000000 0.028742 0.000000
# 6 0.000000 0.000000 0.000000 0.014070 0.000000 0.037527
#
#
# Mechanical properties :
#
#
# Convention : Reuss Voigt Hill
#
# Bulk Modulus (GPa) = 40.16353 47.15992 43.66173
# Shear Modulus (GPa) = 32.10219 38.86638 35.48429
#
# Velocity S-wave (km/s) = 3.57071 3.92893 3.75410
# Velocity P-wave (km/s) = 5.74035 6.26996 6.01099
#
# Compressibility (1/GPa) = 0.02489821
#
# Stress axis : x y z
#
# Youngs Moduli (GPa) = 138.47583 82.47181 75.10229
#
# Poissons Ratio (x) = 0.10207 -0.03670
# Poissons Ratio (y) = 0.17138 0.23530
# Poissons Ratio (z) = -0.06767 0.25838
#
# Static dielectric constant tensor:
#      x y z
#    x 2.088040 0.000000 -0.089150 
#    y 0.000000 1.975630 0.000000 
#    z -0.089150 0.000000 2.284810 
# 
# From -- ./inp_files/10211.got.cif
#   From: 2010.05.17/outbox.cif.g08.bks.cpg/sg3_6_cif.got.tgz:10211.got - 2010.06.03 18:33:08.
