data_PCOD9114310
_publ_section_title
;
Structure prediction by ZEFSAII (Michael W. Deem and Ramdas Pophale) SiO2 
 PCOD9114310
Probable space group: P 2
;
_chemical_formula_sum "Si O2"
_cell_formula_units_Z 14
_cell_length_a 13.382471
_cell_length_b 7.302167
_cell_length_c 7.240415
_cell_angle_alpha 90.000000
_cell_angle_beta 122.419019
_cell_angle_gamma 90.000000
_cell_volume 597.270636
_symmetry_space_group_name_H-M "P 2"
_symmetry_group_IT_number 3
_symmetry_cell_setting 'monoclinic'
loop_
_space_group_symop_operation_xyz
x,y,z
-x,y,-z
loop_
_atom_site_type_symbol
_atom_site_label
_atom_site_fract_x
_atom_site_fract_y
_atom_site_fract_z
Si Si1 0.337315 0.332890 0.893927
Si Si2 0.716636 0.939445 0.981777
Si Si3 0.236767 0.676056 0.664964
Si Si4 0.400201 0.195197 0.562652
Si Si5 0.450106 0.779015 0.670186
Si Si6 0.318359 0.496038 0.261413
Si Si7 0.862364 0.774024 0.832827
O O1 0.231153 0.462580 0.711562
O O2 0.410983 0.278806 0.780627
O O3 0.398044 0.632815 0.468267
O O4 0.372579 0.449225 0.114450
O O5 0.587095 0.843392 0.820937
O O6 0.791177 0.934951 0.867459
O O7 0.789195 0.817278 0.199091
O O8 0.695275 0.137597 0.048287
O O9 0.379819 0.702796 0.776077
O O10 0.170821 0.737284 0.413891
O O11 0.500000 0.219881 0.500000
O O12 0.300605 0.315665 0.366291
O O13 0.392178 0.979409 0.579975
O O14 0.194327 0.597447 0.120711
O O15 0.000000 0.793451 0.000000
#
# Coordination Sequence:
#
# PCOD9114310 Si02
#       7
#     2   2   2   2   2   2   2
#     4  12  26  48  74 116 149 204 256 309 375 465
#     4  12  27  48  76 114 158 200 251 317 379 456
#     4  11  25  48  78 107 153 195 251 311 386 458
#     4  12  27  42  70 114 161 201 245 306 377 466
#     4  11  26  46  71 113 161 205 239 304 382 465
#     4  11  27  46  77 109 156 201 256 312 380 450
#     4  11  27  53  82 106 145 207 263 321 385 446
#
# _framework density 23.439957
#
# number of rings (size 3 to 8) (size 9 to 14) (size 15 to 20)
#    0.000    0.571    5.714    1.286   10.000    3.429 
#    7.714    0.714    3.143    0.000    0.000    0.000 
#    0.000    0.000    0.000    0.000    0.000    0.000 
#
# Total GULP energy -78026.284117 kJ/mol
# GULP energy per Si atom -5573.306008 kJ/mol
# Density = 2.338661 g / cm^3
# Si number density = 23.439957 Si / 1000 Ang^3
#
#
#
# Elastic Constant Matrix: (Units=GPa)
#
#
# Indices 1 2 3 4 5 6 
#
# 1 88.2393 33.7178 56.1130 0.0000 5.9687 0.0000
# 2 33.7178 177.2985 68.8877 0.0000 -15.5475 0.0000
# 3 56.1130 68.8877 184.3141 0.0000 -30.9837 0.0000
# 4 0.0000 0.0000 0.0000 49.6849 0.0000 -19.3112
# 5 5.9687 -15.5475 -30.9837 0.0000 40.6748 0.0000
# 6 0.0000 0.0000 0.0000 -19.3112 0.0000 20.9281
#
#
#
# Elastic Compliance Matrix: (Units=1/GPa)
#
#
# Indices 1 2 3 4 5 6 
#
# 1 0.015852 -0.001518 -0.005445 0.000000 -0.007054 0.000000
# 2 -0.001518 0.006763 -0.001828 0.000000 0.001416 0.000000
# 3 -0.005445 -0.001828 0.008926 0.000000 0.006900 0.000000
# 4 0.000000 0.000000 0.000000 0.031382 0.000000 0.028957
# 5 -0.007054 0.001416 0.006900 0.000000 0.031417 0.000000
# 6 0.000000 0.000000 0.000000 0.028957 0.000000 0.074503
#
#
# Mechanical properties :
#
#
# Convention : Reuss Voigt Hill
#
# Bulk Modulus (GPa) = 71.62658 85.25433 78.44045
# Shear Modulus (GPa) = 26.16751 41.66645 33.91698
#
# Velocity S-wave (km/s) = 3.34483 4.22071 3.80804
# Velocity P-wave (km/s) = 6.74840 7.75905 7.27131
#
# Compressibility (1/GPa) = 0.01396130
#
# Stress axis : x y z
#
# Youngs Moduli (GPa) = 63.08260 147.86074 112.03217
#
# Poissons Ratio (x) = 0.22443 0.60996
# Poissons Ratio (y) = 0.09575 0.20476
# Poissons Ratio (z) = 0.34346 0.27024
#
# Static dielectric constant tensor:
#      x y z
#    x 2.029380 0.000000 -0.066450 
#    y 0.000000 1.972190 0.000000 
#    z -0.066450 0.000000 1.973240 
# 
# From -- ./inp_files/2351.got.cif
#   From: 2010.05.17/outbox.cif.g08.bks.cpg/sg3_2_cif.got.tgz:2351.got - 2010.06.03 18:33:08.
