data_PCOD9114611
_publ_section_title
;
Structure prediction by ZEFSAII (Michael W. Deem and Ramdas Pophale) SiO2 
 PCOD9114611
Probable space group: P 21
;
_chemical_formula_sum "Si O2"
_cell_formula_units_Z 16
_cell_length_a 7.004976
_cell_length_b 15.378780
_cell_length_c 9.099095
_cell_angle_alpha 90.000000
_cell_angle_beta 49.966067
_cell_angle_gamma 90.000000
_cell_volume 750.524284
_symmetry_space_group_name_H-M "P 21"
_symmetry_group_IT_number 4
_symmetry_cell_setting 'monoclinic'
loop_
_space_group_symop_operation_xyz
x,y,z
-x,1/2+y,-z
loop_
_atom_site_type_symbol
_atom_site_label
_atom_site_fract_x
_atom_site_fract_y
_atom_site_fract_z
Si Si1 0.008834 0.941420 0.850812
Si Si2 0.481417 0.685092 0.140859
Si Si3 0.009002 0.455097 0.792872
Si Si4 0.490324 0.533089 0.926200
Si Si5 0.062194 0.828124 0.411181
Si Si6 0.189375 0.016634 0.484652
Si Si7 0.033140 0.257992 0.246617
Si Si8 0.754421 0.095637 0.501611
O O1 0.079203 0.843462 0.772809
O O2 0.165388 0.007383 0.670806
O O3 0.007063 0.951790 0.025437
O O4 0.721740 0.961308 0.947668
O O5 0.481636 0.624441 0.285975
O O6 0.283513 0.760793 0.271019
O O7 0.408740 0.621761 0.043063
O O8 0.740251 0.726435 0.964669
O O9 0.747926 0.500701 0.872921
O O10 0.035416 0.362610 0.696807
O O11 0.227861 0.513526 0.613882
O O12 0.563189 0.548319 0.720240
O O13 0.891036 0.785621 0.622970
O O14 0.155229 0.917436 0.442104
O O15 0.963126 0.071968 0.524499
O O16 0.846762 0.178315 0.363464
#
# Coordination Sequence:
#
# PCOD9114611 Si02
#       8
#     2   2   2   2   2   2   2   2
#     4  11  22  38  63  85 119 158 195 245 294 350
#     4  11  17  33  64  86 111 156 196 238 295 345
#     4  10  21  43  58  89 122 156 198 241 290 358
#     4  10  20  37  61  85 113 159 196 235 294 351
#     4   8  19  33  56  84 113 152 195 236 288 349
#     4   9  17  37  56  85 113 153 202 235 281 353
#     4  10  18  34  60  85 114 155 195 242 297 343
#     4   9  18  35  60  83 119 155 191 246 293 339
#
# _framework density 21.318431
#
# number of rings (size 3 to 8) (size 9 to 14) (size 15 to 20)
#    0.000    2.500    3.750    1.500    0.000    0.000 
#    4.500    0.000    2.750    0.000    0.000    0.000 
#    0.000    0.000    0.000    0.000    0.000    0.000 
#
# Total GULP energy -89153.202623 kJ/mol
# GULP energy per Si atom -5572.075164 kJ/mol
# Density = 2.126991 g / cm^3
# Si number density = 21.318431 Si / 1000 Ang^3
#
#
#
# Elastic Constant Matrix: (Units=GPa)
#
#
# Indices 1 2 3 4 5 6 
#
# 1 31.2736 1.9669 19.4294 0.0000 9.8323 0.0000
# 2 1.9669 35.0678 25.2710 0.0000 5.9050 0.0000
# 3 19.4294 25.2710 174.8035 0.0000 11.3505 0.0000
# 4 0.0000 0.0000 0.0000 39.0799 0.0000 -1.9497
# 5 9.8323 5.9050 11.3505 0.0000 31.2139 0.0000
# 6 0.0000 0.0000 0.0000 -1.9497 0.0000 5.5936
#
#
#
# Elastic Compliance Matrix: (Units=1/GPa)
#
#
# Indices 1 2 3 4 5 6 
#
# 1 0.037639 0.002493 -0.003834 0.000000 -0.010934 0.000000
# 2 0.002493 0.032614 -0.004650 0.000000 -0.005264 0.000000
# 3 -0.003834 -0.004650 0.006845 0.000000 -0.000402 0.000000
# 4 0.000000 0.000000 0.000000 0.026041 0.000000 0.009077
# 5 -0.010934 -0.005264 -0.000402 0.000000 0.036623 0.000000
# 6 0.000000 0.000000 0.000000 0.009077 0.000000 0.181940
#
#
# Mechanical properties :
#
#
# Convention : Reuss Voigt Hill
#
# Bulk Modulus (GPa) = 15.35745 37.16441 26.26093
# Shear Modulus (GPa) = 14.06905 28.14264 21.10584
#
# Velocity S-wave (km/s) = 2.57173 3.63727 3.14988
# Velocity P-wave (km/s) = 4.00473 5.92541 5.05709
#
# Compressibility (1/GPa) = 0.06511498
#
# Stress axis : x y z
#
# Youngs Moduli (GPa) = 26.56853 30.66181 146.08752
#
# Poissons Ratio (x) = -0.07644 0.56010
# Poissons Ratio (y) = -0.06623 0.67934
# Poissons Ratio (z) = 0.10186 0.14258
#
# Static dielectric constant tensor:
#      x y z
#    x 1.838610 0.000000 0.021640 
#    y 0.000000 1.797230 0.000000 
#    z 0.021640 0.000000 1.819060 
# 
# From -- ./inp_files/6577.got.cif
#   From: 2010.05.17/outbox.cif.g08.bks.cpg/sg4_4_cif.got.tgz:6577.got - 2010.06.03 18:43:04.
