data_PCOD9114626
_publ_section_title
;
Structure prediction by ZEFSAII (Michael W. Deem and Ramdas Pophale) SiO2 
 PCOD9114626
Probable space group: P 21
;
_chemical_formula_sum "Si O2"
_cell_formula_units_Z 16
_cell_length_a 10.894973
_cell_length_b 7.862253
_cell_length_c 10.763508
_cell_angle_alpha 90.000000
_cell_angle_beta 124.534431
_cell_angle_gamma 90.000000
_cell_volume 759.523547
_symmetry_space_group_name_H-M "P 21"
_symmetry_group_IT_number 4
_symmetry_cell_setting 'monoclinic'
loop_
_space_group_symop_operation_xyz
x,y,z
-x,1/2+y,-z
loop_
_atom_site_type_symbol
_atom_site_label
_atom_site_fract_x
_atom_site_fract_y
_atom_site_fract_z
Si Si1 0.200322 0.937770 0.324275
Si Si2 0.513291 0.135311 0.147176
Si Si3 0.407770 0.525695 0.082285
Si Si4 0.718596 0.163312 0.476363
Si Si5 0.569056 0.331031 0.734343
Si Si6 0.069201 0.628683 0.933459
Si Si7 0.395928 0.269250 0.406072
Si Si8 0.118452 0.464470 0.213846
O O1 0.200937 0.843439 0.455096
O O2 0.281570 0.827185 0.262487
O O3 0.304527 0.102500 0.388052
O O4 0.039841 0.992020 0.190021
O O5 0.446724 0.326071 0.120086
O O6 0.674154 0.123233 0.310017
O O7 0.419962 0.987219 0.164128
O O8 0.526998 0.084187 0.012481
O O9 0.469895 0.653538 0.223391
O O10 0.234671 0.582112 0.985595
O O11 0.551924 0.214435 0.434983
O O12 0.827522 0.044508 0.623530
O O13 0.440645 0.362322 0.559097
O O14 0.002158 0.811537 0.854517
O O15 0.060123 0.594066 0.076475
O O16 0.278169 0.382170 0.262369
#
# Coordination Sequence:
#
# PCOD9114626 Si02
#       8
#     2   2   2   2   2   2   2   2
#     4  10  21  37  65  99 129 162 212 265 338 389
#     4  12  24  43  68  92 127 172 223 274 320 373
#     4  12  26  44  66  93 132 175 223 266 322 390
#     4  11  19  37  60  94 124 164 214 267 323 375
#     4  11  21  42  64  99 129 163 220 274 326 379
#     4  11  24  40  60  95 133 171 208 258 330 404
#     4  10  18  34  65  95 126 159 204 280 328 372
#     4  11  21  37  60  91 132 168 204 266 329 388
#
# _framework density 21.065837999999999
#
# number of rings (size 3 to 8) (size 9 to 14) (size 15 to 20)
#    0.000    1.000    3.750    5.250    1.750    0.000 
#    2.250    1.250    0.000    0.000    0.000    0.000 
#    0.000    0.000    0.000    0.000    0.000    0.000 
#
# Total GULP energy -89183.198701 kJ/mol
# GULP energy per Si atom -5573.949919 kJ/mol
# Density = 2.101789 g / cm^3
# Si number density = 21.065838 Si / 1000 Ang^3
#
#
#
# Elastic Constant Matrix: (Units=GPa)
#
#
# Indices 1 2 3 4 5 6 
#
# 1 33.0666 3.6304 11.2174 0.0000 0.2461 0.0000
# 2 3.6304 99.8161 15.6202 0.0000 3.0835 0.0000
# 3 11.2174 15.6202 77.7218 0.0000 22.4306 0.0000
# 4 0.0000 0.0000 0.0000 49.2942 0.0000 2.2691
# 5 0.2461 3.0835 22.4306 0.0000 29.5645 0.0000
# 6 0.0000 0.0000 0.0000 2.2691 0.0000 23.3562
#
#
#
# Elastic Compliance Matrix: (Units=1/GPa)
#
#
# Indices 1 2 3 4 5 6 
#
# 1 0.032211 -0.000397 -0.005766 0.000000 0.004148 0.000000
# 2 -0.000397 0.010358 -0.002194 0.000000 0.000588 0.000000
# 3 -0.005766 -0.002194 0.018001 0.000000 -0.013381 0.000000
# 4 0.000000 0.000000 0.000000 0.020377 0.000000 -0.001980
# 5 0.004148 0.000588 -0.013381 0.000000 0.043880 0.000000
# 6 0.000000 0.000000 0.000000 -0.001980 0.000000 0.043008
#
#
# Mechanical properties :
#
#
# Convention : Reuss Voigt Hill
#
# Bulk Modulus (GPa) = 22.80229 30.17115 26.48672
# Shear Modulus (GPa) = 25.10430 32.45208 28.77819
#
# Velocity S-wave (km/s) = 3.45586 3.92919 3.70010
# Velocity P-wave (km/s) = 5.17414 5.91085 5.55472
#
# Compressibility (1/GPa) = 0.04385524
#
# Stress axis : x y z
#
# Youngs Moduli (GPa) = 31.04541 96.54326 55.55173
#
# Poissons Ratio (x) = 0.03836 0.32032
# Poissons Ratio (y) = 0.01234 0.12188
# Poissons Ratio (z) = 0.17901 0.21181
#
# Static dielectric constant tensor:
#      x y z
#    x 1.742920 0.000000 -0.024000 
#    y 0.000000 1.857540 0.000000 
#    z -0.024000 0.000000 1.831990 
# 
# From -- ./inp_files/12021.got.cif
#   From: 2010.05.17/outbox.cif.g08.bks.cpg/sg4_7_cif.got.tgz:12021.got - 2010.06.03 18:43:04.
