data_PCOD9114312
_publ_section_title
;
Structure prediction by ZEFSAII (Michael W. Deem and Ramdas Pophale) SiO2 
 PCOD9114312
Probable space group: P 2
;
_chemical_formula_sum "Si O2"
_cell_formula_units_Z 12
_cell_length_a 14.523987
_cell_length_b 6.909929
_cell_length_c 5.574396
_cell_angle_alpha 90.000000
_cell_angle_beta 75.927131
_cell_angle_gamma 90.000000
_cell_volume 542.654347
_symmetry_space_group_name_H-M "P 2"
_symmetry_group_IT_number 3
_symmetry_cell_setting 'monoclinic'
loop_
_space_group_symop_operation_xyz
x,y,z
-x,y,-z
loop_
_atom_site_type_symbol
_atom_site_label
_atom_site_fract_x
_atom_site_fract_y
_atom_site_fract_z
Si Si1 0.000000 0.468511 0.500000
Si Si2 0.500000 0.942193 0.500000
Si Si3 0.812637 0.938287 0.075324
Si Si4 0.187152 0.266724 0.269746
Si Si5 0.691845 0.561748 0.075196
Si Si6 0.500000 0.700148 0.000000
Si Si7 0.000000 0.704601 0.000000
Si Si8 0.677101 0.221018 0.427232
O O1 0.904035 0.342877 0.531025
O O2 0.010773 0.585186 0.242359
O O3 0.505735 0.820510 0.745067
O O4 0.589574 0.084020 0.435288
O O5 0.731727 0.775450 0.099656
O O6 0.907161 0.835202 0.101163
O O7 0.768285 0.108184 0.262834
O O8 0.837055 0.057884 0.821169
O O9 0.290525 0.239176 0.322685
O O10 0.216747 0.444446 0.078830
O O11 0.663106 0.432025 0.322121
O O12 0.598249 0.582544 0.970395
#
# Coordination Sequence:
#
# PCOD9114312 Si02
#       8
#     1   1   2   2   2   1   1   2
#     4  12  28  48  74 114 146 192 244 300 364 434
#     4  12  28  48  74 114 146 192 244 300 364 434
#     4  11  25  49  72 107 144 194 240 299 364 430
#     4  11  27  45  76 104 149 189 244 302 361 432
#     4  11  25  49  72 107 144 194 240 299 364 430
#     4  12  28  46  80 106 150 194 244 296 366 436
#     4  12  28  46  80 106 150 194 244 296 366 436
#     4  11  27  45  76 104 149 189 244 302 361 432
#
# _framework density 22.113523000000001
#
# number of rings (size 3 to 8) (size 9 to 14) (size 15 to 20)
#    0.000    0.667    3.333    2.000   14.000    2.667 
#    0.000    0.000    0.000    0.000    0.000    0.000 
#    0.000    0.000    0.000    0.000    0.000    0.000 
#
# Total GULP energy -66944.866961 kJ/mol
# GULP energy per Si atom -5578.738913 kJ/mol
# Density = 2.206319 g / cm^3
# Si number density = 22.113523 Si / 1000 Ang^3
#
#
#
# Elastic Constant Matrix: (Units=GPa)
#
#
# Indices 1 2 3 4 5 6 
#
# 1 141.4230 44.4580 15.2731 0.0000 -3.3166 0.0000
# 2 44.4580 119.7602 31.2009 0.0000 5.7181 0.0000
# 3 15.2731 31.2009 61.7009 0.0000 6.7229 0.0000
# 4 0.0000 0.0000 0.0000 22.6898 0.0000 8.3446
# 5 -3.3166 5.7181 6.7229 0.0000 35.0363 0.0000
# 6 0.0000 0.0000 0.0000 8.3446 0.0000 52.8996
#
#
#
# Elastic Compliance Matrix: (Units=1/GPa)
#
#
# Indices 1 2 3 4 5 6 
#
# 1 0.008085 -0.002887 -0.000691 0.000000 0.001369 0.000000
# 2 -0.002887 0.010662 -0.004553 0.000000 -0.001140 0.000000
# 3 -0.000691 -0.004553 0.019004 0.000000 -0.002969 0.000000
# 4 0.000000 0.000000 0.000000 0.046787 0.000000 -0.007380
# 5 0.001369 -0.001140 -0.002969 0.000000 0.029427 0.000000
# 6 0.000000 0.000000 0.000000 -0.007380 0.000000 0.020068
#
#
# Mechanical properties :
#
#
# Convention : Reuss Voigt Hill
#
# Bulk Modulus (GPa) = 46.53214 56.08313 51.30764
# Shear Modulus (GPa) = 31.75451 37.58862 34.67156
#
# Velocity S-wave (km/s) = 3.79354 4.12734 3.96395
# Velocity P-wave (km/s) = 6.34634 6.93756 6.64852
#
# Compressibility (1/GPa) = 0.02149052
#
# Stress axis : x y z
#
# Youngs Moduli (GPa) = 123.68283 93.78873 52.62055
#
# Poissons Ratio (x) = 0.27075 0.03635
# Poissons Ratio (y) = 0.35705 0.23958
# Poissons Ratio (z) = 0.08543 0.42701
#
# Static dielectric constant tensor:
#      x y z
#    x 1.792420 0.000000 0.056020 
#    y 0.000000 1.781380 0.000000 
#    z 0.056020 0.000000 2.021650 
# 
# From -- ./inp_files/2839.got.cif
#   From: 2010.05.17/outbox.cif.g08.bks.cpg/sg3_2_cif.got.tgz:2839.got - 2010.06.03 18:33:08.
