data_PCOD9114386
_publ_section_title
;
Structure prediction by ZEFSAII (Michael W. Deem and Ramdas Pophale) SiO2 
 PCOD9114386
Probable space group: P 2
;
_chemical_formula_sum "Si O2"
_cell_formula_units_Z 14
_cell_length_a 15.269902
_cell_length_b 6.169779
_cell_length_c 10.044115
_cell_angle_alpha 90.000000
_cell_angle_beta 37.262457
_cell_angle_gamma 90.000000
_cell_volume 572.938542
_symmetry_space_group_name_H-M "P 2"
_symmetry_group_IT_number 3
_symmetry_cell_setting 'monoclinic'
loop_
_space_group_symop_operation_xyz
x,y,z
-x,y,-z
loop_
_atom_site_type_symbol
_atom_site_label
_atom_site_fract_x
_atom_site_fract_y
_atom_site_fract_z
Si Si1 0.000000 0.547360 0.000000
Si Si2 0.000129 0.851478 0.749491
Si Si3 0.500020 0.672582 0.749904
Si Si4 0.309765 0.332535 0.142030
Si Si5 0.692918 0.046770 0.110973
Si Si6 0.000000 0.545510 0.500000
Si Si7 0.306899 0.046962 0.389126
Si Si8 0.690792 0.332719 0.357279
O O1 0.856720 0.410291 0.144862
O O2 0.968498 0.699879 0.163202
O O3 0.968978 0.698133 0.662700
O O4 0.857733 0.991231 0.946826
O O5 0.142440 0.991096 0.551659
O O6 0.400283 0.828412 0.779460
O O7 0.599459 0.526630 0.533522
O O8 0.599774 0.828760 0.720065
O O9 0.400514 0.527166 0.966623
O O10 0.143497 0.408735 0.354373
O O11 0.355398 0.233218 0.228405
O O12 0.316326 0.140723 0.026099
O O13 0.644931 0.232766 0.271425
O O14 0.314822 0.140914 0.527865
#
# Coordination Sequence:
#
# PCOD9114386 Si02
#       8
#     1   2   2   2   2   1   2   2
#     4  12  24  50  82 114 152 206 262 328 386 456
#     4  12  24  50  82 114 152 206 262 328 386 456
#     4  12  30  54  76 120 168 204 258 330 388 484
#     4  12  28  51  81 114 157 209 262 320 394 464
#     4  12  28  51  81 114 157 209 262 320 394 464
#     4  12  24  50  82 114 152 206 262 328 386 456
#     4  12  28  51  81 114 157 209 262 320 394 464
#     4  12  28  51  81 114 157 209 262 320 394 464
#
# _framework density 24.435428999999999
#
# number of rings (size 3 to 8) (size 9 to 14) (size 15 to 20)
#    0.000    0.000    2.857    6.000    0.000    6.857 
#    0.000    0.000    0.000    0.000    0.000    0.000 
#    0.000    0.000    0.000    0.000    0.000    0.000 
#
# Total GULP energy -78634.645893 kJ/mol
# GULP energy per Si atom -5616.760421 kJ/mol
# Density = 2.437981 g / cm^3
# Si number density = 24.435429 Si / 1000 Ang^3
#
#
#
# Elastic Constant Matrix: (Units=GPa)
#
#
# Indices 1 2 3 4 5 6 
#
# 1 86.1799 29.6822 28.4763 0.0000 -7.0439 0.0000
# 2 29.6822 114.8255 53.8969 0.0000 -18.7722 0.0000
# 3 28.4763 53.8969 121.6384 0.0000 -23.5253 0.0000
# 4 0.0000 0.0000 0.0000 54.1532 0.0000 -9.8922
# 5 -7.0439 -18.7722 -23.5253 0.0000 68.0793 0.0000
# 6 0.0000 0.0000 0.0000 -9.8922 0.0000 85.4387
#
#
#
# Elastic Compliance Matrix: (Units=1/GPa)
#
#
# Indices 1 2 3 4 5 6 
#
# 1 0.013104 -0.002459 -0.001979 0.000000 -0.000006 0.000000
# 2 -0.002459 0.011592 -0.004277 0.000000 0.001464 0.000000
# 3 -0.001979 -0.004277 0.011050 0.000000 0.002434 0.000000
# 4 0.000000 0.000000 0.000000 0.018865 0.000000 0.002184
# 5 -0.000006 0.001464 0.002434 0.000000 0.015933 0.000000
# 6 0.000000 0.000000 0.000000 0.002184 0.000000 0.011957
#
#
# Mechanical properties :
#
#
# Convention : Reuss Voigt Hill
#
# Bulk Modulus (GPa) = 54.60179 60.75050 57.67614
# Shear Modulus (GPa) = 47.15284 55.57348 51.36316
#
# Velocity S-wave (km/s) = 4.39759 4.77413 4.58973
# Velocity P-wave (km/s) = 6.94110 7.43676 7.19320
#
# Compressibility (1/GPa) = 0.01831442
#
# Stress axis : x y z
#
# Youngs Moduli (GPa) = 76.31146 86.26937 90.49386
#
# Poissons Ratio (x) = 0.21217 0.17911
# Poissons Ratio (y) = 0.18768 0.38707
# Poissons Ratio (z) = 0.15104 0.36900
#
# Static dielectric constant tensor:
#      x y z
#    x 1.912920 0.000000 -0.053140 
#    y 0.000000 1.915640 0.000000 
#    z -0.053140 0.000000 1.925770 
# 
# From -- ./inp_files/8197.got.cif
#   From: 2010.05.17/outbox.cif.g08.bks.cpg/sg3_5_cif.got.tgz:8197.got - 2010.06.03 18:33:08.
