data_PCOD9114749
_publ_section_title
;
Structure prediction by ZEFSAII (Michael W. Deem and Ramdas Pophale) SiO2 
 PCOD9114749
Probable space group: P 21
;
_chemical_formula_sum "Si O2"
_cell_formula_units_Z 16
_cell_length_a 16.068429
_cell_length_b 7.383181
_cell_length_c 7.661259
_cell_angle_alpha 90.000000
_cell_angle_beta 45.337561
_cell_angle_gamma 90.000000
_cell_volume 646.466065
_symmetry_space_group_name_H-M "P 21"
_symmetry_group_IT_number 4
_symmetry_cell_setting 'monoclinic'
loop_
_space_group_symop_operation_xyz
x,y,z
-x,1/2+y,-z
loop_
_atom_site_type_symbol
_atom_site_label
_atom_site_fract_x
_atom_site_fract_y
_atom_site_fract_z
Si Si1 0.762165 0.487890 0.348872
Si Si2 0.126690 0.313130 0.301553
Si Si3 0.617920 0.169994 0.454214
Si Si4 0.061576 0.966098 0.202821
Si Si5 0.430410 0.741789 0.994854
Si Si6 0.654463 0.640868 0.857547
Si Si7 0.221282 0.682072 0.119010
Si Si8 0.592116 0.748917 0.450991
O O1 0.688459 0.301132 0.479730
O O2 0.736565 0.594291 0.566042
O O3 0.701727 0.617365 0.292093
O O4 0.886227 0.450822 0.070331
O O5 0.257096 0.242467 0.146889
O O6 0.141334 0.510235 0.195562
O O7 0.058833 0.361003 0.581584
O O8 0.060210 0.171746 0.274853
O O9 0.487613 0.239179 0.602287
O O10 0.618746 0.953232 0.473584
O O11 0.691486 0.202629 0.170362
O O12 0.145497 0.862810 0.219698
O O13 0.531446 0.739528 0.991815
O O14 0.508802 0.663573 0.722383
O O15 0.303440 0.646633 0.166811
O O16 0.392141 0.946487 0.011414
#
# Coordination Sequence:
#
# PCOD9114749 Si02
#       8
#     2   2   2   2   2   2   2   2
#     4  10  23  41  57  90 133 162 213 261 318 387
#     4  12  23  43  71  91 124 165 224 274 317 373
#     4  10  19  32  58  89 125 163 205 251 318 373
#     4  11  23  43  68  93 119 168 225 275 316 365
#     4  10  22  38  59  96 131 165 209 243 324 397
#     4  11  24  41  63  95 136 174 206 260 327 394
#     4  10  21  39  63  96 122 163 211 267 317 382
#     4  10  19  33  57  90 124 166 203 253 307 377
#
# _framework density 24.749943999999999
#
# number of rings (size 3 to 8) (size 9 to 14) (size 15 to 20)
#    0.000    1.500    3.750    1.500    1.750    1.000 
#    0.000    2.500    2.750    0.000    0.000    0.000 
#    0.000    0.000    0.000    0.000    0.000    0.000 
#
# Total GULP energy -89264.224919 kJ/mol
# GULP energy per Si atom -5579.014057 kJ/mol
# Density = 2.469361 g / cm^3
# Si number density = 24.749944 Si / 1000 Ang^3
#
#
#
# Elastic Constant Matrix: (Units=GPa)
#
#
# Indices 1 2 3 4 5 6 
#
# 1 28.9111 -0.5365 3.8979 0.0000 6.8259 0.0000
# 2 -0.5365 122.6223 -2.9591 0.0000 -9.7413 0.0000
# 3 3.8979 -2.9591 105.9784 0.0000 -3.5070 0.0000
# 4 0.0000 0.0000 0.0000 38.5493 0.0000 -8.8968
# 5 6.8259 -9.7413 -3.5070 0.0000 34.8241 0.0000
# 6 0.0000 0.0000 0.0000 -8.8968 0.0000 25.5797
#
#
#
# Elastic Compliance Matrix: (Units=1/GPa)
#
#
# Indices 1 2 3 4 5 6 
#
# 1 0.036557 -0.000471 -0.001605 0.000000 -0.007459 0.000000
# 2 -0.000471 0.008357 0.000332 0.000000 0.002463 0.000000
# 3 -0.001605 0.000332 0.009549 0.000000 0.001369 0.000000
# 4 0.000000 0.000000 0.000000 0.028205 0.000000 0.009810
# 5 -0.007459 0.002463 0.001369 0.000000 0.031005 0.000000
# 6 0.000000 0.000000 0.000000 0.009810 0.000000 0.042505
#
#
# Mechanical properties :
#
#
# Convention : Reuss Voigt Hill
#
# Bulk Modulus (GPa) = 19.61696 28.70183 24.15939
# Shear Modulus (GPa) = 28.30324 36.93126 32.61725
#
# Velocity S-wave (km/s) = 3.38534 3.86706 3.63419
# Velocity P-wave (km/s) = 4.81912 5.61790 5.23377
#
# Compressibility (1/GPa) = 0.05097631
#
# Stress axis : x y z
#
# Youngs Moduli (GPa) = 27.35418 119.66335 104.71772
#
# Poissons Ratio (x) = 0.05640 0.16803
# Poissons Ratio (y) = 0.01289 -0.03479
# Poissons Ratio (z) = 0.04389 -0.03975
#
# Static dielectric constant tensor:
#      x y z
#    x 2.113920 0.000000 0.029000 
#    y 0.000000 1.957600 0.000000 
#    z 0.029000 0.000000 2.026770 
# 
# From -- ./inp_files/9590.got.cif
#   From: 2010.05.17/outbox.cif.g08.bks.cpg/sg4_5_cif.got.tgz:9590.got - 2010.06.03 18:43:04.
