data_PCOD9114337
_publ_section_title
;
Structure prediction by ZEFSAII (Michael W. Deem and Ramdas Pophale) SiO2 
 PCOD9114337
Probable space group: P 2
;
_chemical_formula_sum "Si O2"
_cell_formula_units_Z 10
_cell_length_a 7.857676
_cell_length_b 7.147969
_cell_length_c 8.432252
_cell_angle_alpha 90.000000
_cell_angle_beta 100.305398
_cell_angle_gamma 90.000000
_cell_volume 465.969267
_symmetry_space_group_name_H-M "P 2"
_symmetry_group_IT_number 3
_symmetry_cell_setting 'monoclinic'
loop_
_space_group_symop_operation_xyz
x,y,z
-x,y,-z
loop_
_atom_site_type_symbol
_atom_site_label
_atom_site_fract_x
_atom_site_fract_y
_atom_site_fract_z
Si Si1 0.310001 0.437210 0.332997
Si Si2 0.000000 0.055930 0.500000
Si Si3 0.377251 0.525964 0.844789
Si Si4 0.042777 0.284178 0.833712
Si Si5 0.692699 0.788755 0.430176
Si Si6 0.500000 0.105335 0.500000
O O1 0.475444 0.436679 0.244422
O O2 0.324024 0.620784 0.444663
O O3 0.343818 0.247113 0.438222
O O4 0.121929 0.422710 0.222786
O O5 0.953950 0.168516 0.331201
O O6 0.846185 0.915427 0.515075
O O7 0.229878 0.383334 0.875732
O O8 0.279510 0.683119 0.728705
O O9 0.500000 0.608321 0.000000
O O10 0.000000 0.193992 0.000000
O O11 0.544133 0.947287 0.376099
#
# Coordination Sequence:
#
# PCOD9114337 Si02
#       6
#     2   1   2   2   2   1
#     4  12  23  47  75  99 147 190 240 306 362 430
#     4  12  26  48  72 110 148 188 252 300 362 440
#     4  12  24  45  71 105 146 192 239 298 371 430
#     4  12  26  47  76 110 146 196 244 302 365 433
#     4  12  24  45  73 106 140 193 244 298 364 433
#     4  12  20  42  76  98 138 184 244 298 356 428
#
# _framework density 21.460645
#
# number of rings (size 3 to 8) (size 9 to 14) (size 15 to 20)
#    0.000    0.000    8.000    3.600    0.000    0.000 
#    7.200    0.000    0.000    0.000    0.000    0.000 
#    0.000    0.000    0.000    0.000    0.000    0.000 
#
# Total GULP energy -55673.546650 kJ/mol
# GULP energy per Si atom -5567.354665 kJ/mol
# Density = 2.141180 g / cm^3
# Si number density = 21.460645 Si / 1000 Ang^3
#
#
#
# Elastic Constant Matrix: (Units=GPa)
#
#
# Indices 1 2 3 4 5 6 
#
# 1 98.5312 32.9739 21.5993 0.0000 0.0469 0.0000
# 2 32.9739 110.5263 25.2993 0.0000 -14.1743 0.0000
# 3 21.5993 25.2993 95.1606 0.0000 -9.6091 0.0000
# 4 0.0000 0.0000 0.0000 9.4242 0.0000 0.6967
# 5 0.0469 -14.1743 -9.6091 0.0000 40.9702 0.0000
# 6 0.0000 0.0000 0.0000 0.6967 0.0000 24.4157
#
#
#
# Elastic Compliance Matrix: (Units=1/GPa)
#
#
# Indices 1 2 3 4 5 6 
#
# 1 0.011660 -0.003237 -0.001946 0.000000 -0.001590 0.000000
# 2 -0.003237 0.010856 -0.001815 0.000000 0.003334 0.000000
# 3 -0.001946 -0.001815 0.011645 0.000000 0.002106 0.000000
# 4 0.000000 0.000000 0.000000 0.106334 0.000000 -0.003034
# 5 -0.001590 0.003334 0.002106 0.000000 0.026057 0.000000
# 6 0.000000 0.000000 0.000000 -0.003034 0.000000 0.041044
#
#
# Mechanical properties :
#
#
# Convention : Reuss Voigt Hill
#
# Bulk Modulus (GPa) = 49.59068 51.55145 50.57107
# Shear Modulus (GPa) = 21.89958 29.91840 25.90899
#
# Velocity S-wave (km/s) = 3.19792 3.73782 3.47836
# Velocity P-wave (km/s) = 6.06576 6.53467 6.30458
#
# Compressibility (1/GPa) = 0.02016508
#
# Stress axis : x y z
#
# Youngs Moduli (GPa) = 85.76522 92.11270 85.87022
#
# Poissons Ratio (x) = 0.29815 0.16714
# Poissons Ratio (y) = 0.27761 0.15585
# Poissons Ratio (z) = 0.16694 0.16717
#
# Static dielectric constant tensor:
#      x y z
#    x 1.995890 0.000000 -0.070210 
#    y 0.000000 1.738590 0.000000 
#    z -0.070210 0.000000 1.876320 
# 
# From -- ./inp_files/4856.got.cif
#   From: 2010.05.17/outbox.cif.g08.bks.cpg/sg3_3_cif.got.tgz:4856.got - 2010.06.03 18:33:08.
