data_PCOD9114200
_publ_section_title
;
Structure prediction by ZEFSAII (Michael W. Deem and Ramdas Pophale) SiO2 
 PCOD9114200
Probable space group: P 2
;
_chemical_formula_sum "Si O2"
_cell_formula_units_Z 16
_cell_length_a 9.073339
_cell_length_b 11.172613
_cell_length_c 9.082534
_cell_angle_alpha 90.000000
_cell_angle_beta 52.411529
_cell_angle_gamma 90.000000
_cell_volume 729.592210
_symmetry_space_group_name_H-M "P 2"
_symmetry_group_IT_number 3
_symmetry_cell_setting 'monoclinic'
loop_
_space_group_symop_operation_xyz
x,y,z
-x,y,-z
loop_
_atom_site_type_symbol
_atom_site_label
_atom_site_fract_x
_atom_site_fract_y
_atom_site_fract_z
Si Si1 0.863766 0.309640 0.457615
Si Si2 0.486834 0.358403 0.843020
Si Si3 0.000404 0.732048 0.830752
Si Si4 0.836640 0.100009 0.276794
Si Si5 0.898714 0.455404 0.921665
Si Si6 0.274019 0.106349 0.979634
Si Si7 0.684170 0.864020 0.489945
Si Si8 0.310539 0.870861 0.159623
O O1 0.684515 0.369602 0.643740
O O2 0.765920 0.211073 0.413978
O O3 0.000000 0.253951 0.500000
O O4 0.006187 0.391801 0.277298
O O5 0.407999 0.221489 0.906389
O O6 0.500000 0.403427 0.000000
O O7 0.312497 0.434802 0.897381
O O8 0.203177 0.749017 0.636717
O O9 0.939798 0.595049 0.879386
O O10 0.860656 0.801115 0.807614
O O11 0.000000 0.782157 0.000000
O O12 0.727449 0.075198 0.192342
O O13 0.814396 0.977135 0.374806
O O14 0.054520 0.133055 0.131821
O O15 0.000000 0.400005 0.000000
O O16 0.312532 0.999978 0.072294
O O17 0.500000 0.872810 0.500000
O O18 0.674423 0.872054 0.672777
O O19 0.500000 0.805651 0.000000
#
# Coordination Sequence:
#
# PCOD9114200 Si02
#       8
#     2   2   2   2   2   2   2   2
#     4  12  26  44  72 105 149 194 241 299 362 425
#     4  12  25  45  72 107 143 191 240 295 358 436
#     4  11  25  50  74  98 140 187 239 306 362 418
#     4  11  24  40  67 103 145 190 228 295 356 426
#     4  11  26  50  73 103 142 187 242 305 363 424
#     4  11  23  42  69  98 150 188 233 288 360 428
#     4  12  27  45  71 107 145 183 241 288 360 441
#     4  12  26  44  70 103 140 190 233 296 360 430
#
# _framework density 21.930059
#
# number of rings (size 3 to 8) (size 9 to 14) (size 15 to 20)
#    0.000    0.500    3.750    3.750    7.000    3.000 
#    6.750    0.000    0.000    0.000    0.000    0.000 
#    0.000    0.000    0.000    0.000    0.000    0.000 
#
# Total GULP energy -89230.652690 kJ/mol
# GULP energy per Si atom -5576.915793 kJ/mol
# Density = 2.188015 g / cm^3
# Si number density = 21.930059 Si / 1000 Ang^3
#
#
#
# Elastic Constant Matrix: (Units=GPa)
#
#
# Indices 1 2 3 4 5 6 
#
# 1 131.6214 16.3150 54.3699 0.0000 12.2875 0.0000
# 2 16.3150 67.5729 23.5535 0.0000 1.0632 0.0000
# 3 54.3699 23.5535 110.4699 0.0000 12.4944 0.0000
# 4 0.0000 0.0000 0.0000 8.6634 0.0000 -6.4245
# 5 12.2875 1.0632 12.4944 0.0000 52.4445 0.0000
# 6 0.0000 0.0000 0.0000 -6.4245 0.0000 30.4077
#
#
#
# Elastic Compliance Matrix: (Units=1/GPa)
#
#
# Indices 1 2 3 4 5 6 
#
# 1 0.009640 -0.000758 -0.004449 0.000000 -0.001183 0.000000
# 2 -0.000758 0.016059 -0.003118 0.000000 0.000595 0.000000
# 3 -0.004449 -0.003118 0.012108 0.000000 -0.001779 0.000000
# 4 0.000000 0.000000 0.000000 0.136872 0.000000 0.028918
# 5 -0.001183 0.000595 -0.001779 0.000000 0.019757 0.000000
# 6 0.000000 0.000000 0.000000 0.028918 0.000000 0.038996
#
#
# Mechanical properties :
#
#
# Convention : Reuss Voigt Hill
#
# Bulk Modulus (GPa) = 47.26664 55.34899 51.30781
# Shear Modulus (GPa) = 19.44504 32.66485 26.05495
#
# Velocity S-wave (km/s) = 2.98095 3.86359 3.45061
# Velocity P-wave (km/s) = 5.78345 6.72286 6.27077
#
# Compressibility (1/GPa) = 0.02115657
#
# Stress axis : x y z
#
# Youngs Moduli (GPa) = 103.73736 62.26881 82.59069
#
# Poissons Ratio (x) = 0.04721 0.36744
# Poissons Ratio (y) = 0.07864 0.25754
# Poissons Ratio (z) = 0.46152 0.19417
#
# Static dielectric constant tensor:
#      x y z
#    x 2.255530 0.000000 -0.325030 
#    y 0.000000 1.823980 0.000000 
#    z -0.325030 0.000000 2.112770 
# 
# From -- ./inp_files/5947.got.cif
#   From: 2010.05.17/outbox.cif.g08.bks.cpg/sg3_3_cif.got.tgz:5947.got - 2010.06.03 18:33:08.
