data_PCOD9114897
_publ_section_title
;
Structure prediction by ZEFSAII (Michael W. Deem and Ramdas Pophale) SiO2 
 PCOD9114897
Probable space group: P 21
;
_chemical_formula_sum "Si O2"
_cell_formula_units_Z 16
_cell_length_a 9.462791
_cell_length_b 7.369493
_cell_length_c 13.979699
_cell_angle_alpha 90.000000
_cell_angle_beta 140.762454
_cell_angle_gamma 90.000000
_cell_volume 616.652656
_symmetry_space_group_name_H-M "P 21"
_symmetry_group_IT_number 4
_symmetry_cell_setting 'monoclinic'
loop_
_space_group_symop_operation_xyz
x,y,z
-x,1/2+y,-z
loop_
_atom_site_type_symbol
_atom_site_label
_atom_site_fract_x
_atom_site_fract_y
_atom_site_fract_z
Si Si1 0.920619 0.348120 0.305942
Si Si2 0.464259 0.741581 0.114426
Si Si3 0.522751 0.051652 0.543178
Si Si4 0.832266 0.715830 0.752440
Si Si5 0.391730 0.367516 0.007860
Si Si6 0.304956 0.092134 0.125819
Si Si7 0.241167 0.669004 0.519054
Si Si8 0.239829 0.092572 0.561966
O O1 0.006135 0.298304 0.244117
O O2 0.039070 0.525362 0.412961
O O3 0.007610 0.187588 0.418633
O O4 0.791902 0.379225 0.472705
O O5 0.326698 0.571194 0.000058
O O6 0.632165 0.656900 0.278446
O O7 0.309791 0.891959 0.083386
O O8 0.615909 0.824212 0.108286
O O9 0.295194 0.040358 0.360322
O O10 0.688735 0.144836 0.555986
O O11 0.417147 0.165407 0.574114
O O12 0.649056 0.882065 0.656904
O O13 0.864952 0.654379 0.879480
O O14 0.283049 0.225825 0.023326
O O15 0.657489 0.358221 0.165139
O O16 0.550151 0.109526 0.304593
#
# Coordination Sequence:
#
# PCOD9114897 Si02
#       8
#     2   2   2   2   2   2   2   2
#     4  10  24  39  65 100 139 161 210 287 349 385
#     4  12  25  43  69  89 127 185 234 268 322 408
#     4   9  15  29  57  93 131 165 206 258 327 406
#     4   9  18  34  61  94 131 166 211 265 330 399
#     4  12  26  46  65  93 131 181 227 278 332 400
#     4  11  21  41  67  94 127 172 229 265 324 412
#     4  10  19  36  60 101 133 163 211 276 335 398
#     4  11  20  36  64 100 127 173 216 275 335 394
#
# _framework density 25.946535999999998
#
# number of rings (size 3 to 8) (size 9 to 14) (size 15 to 20)
#    0.000    1.500    6.250    0.000    1.750    2.000 
#    0.000    0.000    8.250    0.000    0.000    0.000 
#    0.000    0.000    0.000    0.000    0.000    0.000 
#
# Total GULP energy -89458.208348 kJ/mol
# GULP energy per Si atom -5591.138022 kJ/mol
# Density = 2.588748 g / cm^3
# Si number density = 25.946536 Si / 1000 Ang^3
#
#
#
# Elastic Constant Matrix: (Units=GPa)
#
#
# Indices 1 2 3 4 5 6 
#
# 1 71.0706 29.8934 30.3561 0.0000 -35.5465 0.0000
# 2 29.8934 179.8842 54.4263 0.0000 -19.3221 0.0000
# 3 30.3561 54.4263 128.0814 0.0000 -37.2516 0.0000
# 4 0.0000 0.0000 0.0000 52.1755 0.0000 -13.0565
# 5 -35.5465 -19.3221 -37.2516 0.0000 50.4792 0.0000
# 6 0.0000 0.0000 0.0000 -13.0565 0.0000 38.2402
#
#
#
# Elastic Compliance Matrix: (Units=1/GPa)
#
#
# Indices 1 2 3 4 5 6 
#
# 1 0.022472 -0.002103 -0.000082 0.000000 0.014959 0.000000
# 2 -0.002103 0.006589 -0.002545 0.000000 -0.000837 0.000000
# 3 -0.000082 -0.002545 0.010961 0.000000 0.007057 0.000000
# 4 0.000000 0.000000 0.000000 0.020957 0.000000 0.007155
# 5 0.014959 -0.000837 0.007057 0.000000 0.035231 0.000000
# 6 0.000000 0.000000 0.000000 0.007155 0.000000 0.028594
#
#
# Mechanical properties :
#
#
# Convention : Reuss Voigt Hill
#
# Bulk Modulus (GPa) = 32.71970 67.59865 50.15918
# Shear Modulus (GPa) = 34.61433 45.80300 40.20867
#
# Velocity S-wave (km/s) = 3.65645 4.20609 3.94086
# Velocity P-wave (km/s) = 5.51941 7.04967 6.33095
#
# Compressibility (1/GPa) = 0.03056263
#
# Stress axis : x y z
#
# Youngs Moduli (GPa) = 44.50031 151.77622 91.23503
#
# Poissons Ratio (x) = 0.31917 0.00745
# Poissons Ratio (y) = 0.09358 0.23217
# Poissons Ratio (z) = 0.00363 0.38623
#
# Static dielectric constant tensor:
#      x y z
#    x 2.118720 0.000000 -0.054090 
#    y 0.000000 2.073030 0.000000 
#    z -0.054090 0.000000 2.097140 
# 
# From -- ./inp_files/10950.got.cif
#   From: 2010.05.17/outbox.cif.g08.bks.cpg/sg4_6_cif.got.tgz:10950.got - 2010.06.03 18:43:04.
