data_PCOD9114996
_publ_section_title
;
Structure prediction by ZEFSAII (Michael W. Deem and Ramdas Pophale) SiO2 
 PCOD9114996
Probable space group: P 21
;
_chemical_formula_sum "Si O2"
_cell_formula_units_Z 16
_cell_length_a 9.654881
_cell_length_b 11.847606
_cell_length_c 10.206840
_cell_angle_alpha 90.000000
_cell_angle_beta 35.802670
_cell_angle_gamma 90.000000
_cell_volume 683.000998
_symmetry_space_group_name_H-M "P 21"
_symmetry_group_IT_number 4
_symmetry_cell_setting 'monoclinic'
loop_
_space_group_symop_operation_xyz
x,y,z
-x,1/2+y,-z
loop_
_atom_site_type_symbol
_atom_site_label
_atom_site_fract_x
_atom_site_fract_y
_atom_site_fract_z
Si Si1 0.405201 0.722330 0.280144
Si Si2 0.876832 0.594461 0.005840
Si Si3 0.325031 0.709947 0.631987
Si Si4 0.185202 0.964914 0.194117
Si Si5 0.662696 0.874954 0.877291
Si Si6 0.598609 0.464800 0.424754
Si Si7 0.034819 0.236172 0.551752
Si Si8 0.867254 0.513339 0.462267
O O1 0.272062 0.733677 0.519712
O O2 0.198372 0.684237 0.340080
O O3 0.631213 0.650687 0.149465
O O4 0.526089 0.823671 0.105941
O O5 0.945653 0.533020 0.817709
O O6 0.072673 0.686472 0.894733
O O7 0.815882 0.504040 0.164632
O O8 0.441283 0.582289 0.546018
O O9 0.451703 0.830907 0.575541
O O10 0.053680 0.846698 0.308363
O O11 0.181520 0.013656 0.344445
O O12 0.461659 0.942216 0.951040
O O13 0.774740 0.776712 0.701527
O O14 0.883192 0.951680 0.748063
O O15 0.674675 0.459118 0.517531
O O16 0.127902 0.143927 0.578868
#
# Coordination Sequence:
#
# PCOD9114996 Si02
#       8
#     2   2   2   2   2   2   2   2
#     4  10  19  38  65  94 126 172 217 260 326 397
#     4  11  24  42  67  93 130 174 222 271 328 394
#     4  11  25  46  67  95 135 178 227 277 331 394
#     4  10  22  38  61  93 125 165 211 265 328 393
#     4  10  20  36  62  92 128 163 213 265 327 395
#     4  11  27  44  67  97 131 179 224 273 334 398
#     4  10  21  35  60  94 130 162 207 272 328 385
#     4  11  22  39  61  92 127 165 213 271 326 384
#
# _framework density 23.426027000000001
#
# number of rings (size 3 to 8) (size 9 to 14) (size 15 to 20)
#    0.000    1.500    0.000    6.000    0.000   11.000 
#    0.000    0.000    0.000    0.000    0.000    0.000 
#    0.000    0.000    0.000    0.000    0.000    0.000 
#
# Total GULP energy -89100.020516 kJ/mol
# GULP energy per Si atom -5568.751282 kJ/mol
# Density = 2.337271 g / cm^3
# Si number density = 23.426027 Si / 1000 Ang^3
#
#
#
# Elastic Constant Matrix: (Units=GPa)
#
#
# Indices 1 2 3 4 5 6 
#
# 1 33.4398 19.2152 11.5315 0.0000 -7.3079 0.0000
# 2 19.2152 126.0257 22.2504 0.0000 -21.4410 0.0000
# 3 11.5315 22.2504 75.4021 0.0000 -10.5434 0.0000
# 4 0.0000 0.0000 0.0000 2.3829 0.0000 0.4909
# 5 -7.3079 -21.4410 -10.5434 0.0000 20.9201 0.0000
# 6 0.0000 0.0000 0.0000 0.4909 0.0000 24.3903
#
#
#
# Elastic Compliance Matrix: (Units=1/GPa)
#
#
# Indices 1 2 3 4 5 6 
#
# 1 0.034553 -0.003532 -0.003293 0.000000 0.006791 0.000000
# 2 -0.003532 0.010147 -0.001261 0.000000 0.008531 0.000000
# 3 -0.003293 -0.001261 0.014842 0.000000 0.005037 0.000000
# 4 0.000000 0.000000 0.000000 0.421409 0.000000 -0.008481
# 5 0.006791 0.008531 0.005037 0.000000 0.061455 0.000000
# 6 0.000000 0.000000 0.000000 -0.008481 0.000000 0.041171
#
#
# Mechanical properties :
#
#
# Convention : Reuss Voigt Hill
#
# Bulk Modulus (GPa) = 23.05642 37.87355 30.46498
# Shear Modulus (GPa) = 8.14059 21.66336 14.90198
#
# Velocity S-wave (km/s) = 1.86616 3.04428 2.52490
# Velocity P-wave (km/s) = 3.80881 5.34408 4.64038
#
# Compressibility (1/GPa) = 0.04337186
#
# Stress axis : x y z
#
# Youngs Moduli (GPa) = 28.94064 98.54742 67.37466
#
# Poissons Ratio (x) = 0.34803 0.22184
# Poissons Ratio (y) = 0.10221 0.08499
# Poissons Ratio (z) = 0.09529 0.12431
#
# Static dielectric constant tensor:
#      x y z
#    x 1.853100 0.000000 0.007520 
#    y 0.000000 2.043820 0.000000 
#    z 0.007520 0.000000 2.024050 
# 
# From -- ./inp_files/3793.got.cif
#   From: 2010.05.17/outbox.cif.g08.bks.cpg/sg4_2_cif.got.tgz:3793.got - 2010.06.03 18:43:04.
