data_PCOD9114217
_publ_section_title
;
Structure prediction by ZEFSAII (Michael W. Deem and Ramdas Pophale) SiO2 
 PCOD9114217
Probable space group: P 2
;
_chemical_formula_sum "Si O2"
_cell_formula_units_Z 14
_cell_length_a 5.215808
_cell_length_b 12.804351
_cell_length_c 9.570664
_cell_angle_alpha 90.000000
_cell_angle_beta 89.091031
_cell_angle_gamma 90.000000
_cell_volume 639.096710
_symmetry_space_group_name_H-M "P 2"
_symmetry_group_IT_number 3
_symmetry_cell_setting 'monoclinic'
loop_
_space_group_symop_operation_xyz
x,y,z
-x,y,-z
loop_
_atom_site_type_symbol
_atom_site_label
_atom_site_fract_x
_atom_site_fract_y
_atom_site_fract_z
Si Si1 0.156257 0.725250 0.145196
Si Si2 0.500000 0.438553 0.500000
Si Si3 0.242851 0.965235 0.099057
Si Si4 0.833890 0.405261 0.117301
Si Si5 0.371232 0.262426 0.682053
Si Si6 0.893360 0.545421 0.657961
Si Si7 0.500000 0.582810 0.000000
Si Si8 0.119370 0.124911 0.347699
O O1 0.219487 0.846508 0.157136
O O2 0.042946 0.657427 0.272921
O O3 0.416165 0.660079 0.121661
O O4 0.000000 0.715452 0.000000
O O5 0.310424 0.352372 0.568119
O O6 0.602424 0.510230 0.623929
O O7 0.208590 0.039326 0.233934
O O8 0.500000 0.976469 0.000000
O O9 0.000000 0.982729 0.000000
O O10 0.611851 0.331229 0.178090
O O11 0.721966 0.505816 0.041470
O O12 0.002842 0.455990 0.239491
O O13 0.000000 0.346510 0.000000
O O14 0.626590 0.197845 0.643184
O O15 0.123237 0.190799 0.704668
O O16 0.000000 0.544087 0.500000
O O17 0.000000 0.088165 0.500000
#
# Coordination Sequence:
#
# PCOD9114217 Si02
#       8
#     2   1   2   2   2   2   1   2
#     4  11  23  44  70 100 139 186 230 291 364 421
#     4  12  24  42  66 100 146 192 232 278 354 424
#     4  11  26  49  79 106 137 182 241 308 368 428
#     4  12  26  41  66 104 146 193 240 286 346 433
#     4  12  26  44  71 102 142 192 232 288 357 424
#     4  12  24  40  65 102 146 188 237 286 341 430
#     4  12  20  42  70  98 136 190 236 278 356 426
#     4  12  26  49  75 101 139 187 240 301 364 427
#
# _framework density 21.905918
#
# number of rings (size 3 to 8) (size 9 to 14) (size 15 to 20)
#    0.000    0.286    6.429    2.571    2.000    2.286 
#    0.000    0.000    3.143    0.000    0.000    0.000 
#    0.000    0.000    0.000    0.000    0.000    0.000 
#
# Total GULP energy -78049.783672 kJ/mol
# GULP energy per Si atom -5574.984548 kJ/mol
# Density = 2.185606 g / cm^3
# Si number density = 21.905918 Si / 1000 Ang^3
#
#
#
# Elastic Constant Matrix: (Units=GPa)
#
#
# Indices 1 2 3 4 5 6 
#
# 1 120.0044 51.8156 51.9733 0.0000 -5.9393 0.0000
# 2 51.8156 135.6873 79.1033 0.0000 -11.4330 0.0000
# 3 51.9733 79.1033 137.9892 0.0000 -24.3333 0.0000
# 4 0.0000 0.0000 0.0000 46.2308 0.0000 -10.0024
# 5 -5.9393 -11.4330 -24.3333 0.0000 38.6584 0.0000
# 6 0.0000 0.0000 0.0000 -10.0024 0.0000 -43.6784
#
#
#
# Elastic Compliance Matrix: (Units=1/GPa)
#
#
# Indices 1 2 3 4 5 6 
#
# 1 0.010542 -0.002547 -0.002652 0.000000 -0.000803 0.000000
# 2 -0.002547 0.011707 -0.005861 0.000000 -0.000618 0.000000
# 3 -0.002652 -0.005861 0.012630 0.000000 0.005809 0.000000
# 4 0.000000 0.000000 0.000000 0.020609 0.000000 -0.004720
# 5 -0.000803 -0.000618 0.005809 0.000000 0.029218 0.000000
# 6 0.000000 0.000000 0.000000 -0.004720 0.000000 -0.021814
#
#
# Mechanical properties :
#
#
# Convention : Reuss Voigt Hill
#
# Bulk Modulus (GPa) = 78.37648 84.38503 81.38076
# Shear Modulus (GPa) = 56.01269 22.29476 39.15373
#
# Velocity S-wave (km/s) = 5.06213 3.19368 4.23230
# Velocity P-wave (km/s) = 8.36799 7.22528 7.81754
#
# Compressibility (1/GPa) = 0.01275893
#
# Stress axis : x y z
#
# Youngs Moduli (GPa) = 94.86183 85.41641 79.17693
#
# Poissons Ratio (x) = 0.21758 0.20996
# Poissons Ratio (y) = 0.24164 0.46405
# Poissons Ratio (z) = 0.25156 0.50062
#
# Static dielectric constant tensor:
#      x y z
#    x 2.475810 0.000000 -0.283020 
#    y 0.000000 1.759550 0.000000 
#    z -0.283020 0.000000 1.996110 
# 
# From -- ./inp_files/4365.got.cif
#   From: 2010.05.17/outbox.cif.g08.bks.cpg/sg3_3_cif.got.tgz:4365.got - 2010.06.03 18:33:08.
