data_PCOD9114665
_publ_section_title
;
Structure prediction by ZEFSAII (Michael W. Deem and Ramdas Pophale) SiO2 
 PCOD9114665
Probable space group: P 21
;
_chemical_formula_sum "Si O2"
_cell_formula_units_Z 16
_cell_length_a 8.501069
_cell_length_b 9.067667
_cell_length_c 16.627716
_cell_angle_alpha 90.000000
_cell_angle_beta 145.192506
_cell_angle_gamma 90.000000
_cell_volume 731.647036
_symmetry_space_group_name_H-M "P 21"
_symmetry_group_IT_number 4
_symmetry_cell_setting 'monoclinic'
loop_
_space_group_symop_operation_xyz
x,y,z
-x,1/2+y,-z
loop_
_atom_site_type_symbol
_atom_site_label
_atom_site_fract_x
_atom_site_fract_y
_atom_site_fract_z
Si Si1 0.767970 0.395820 0.367702
Si Si2 0.418741 0.355943 0.650940
Si Si3 0.098552 0.119379 0.720200
Si Si4 0.659414 0.566372 0.472540
Si Si5 0.023615 0.839640 0.798634
Si Si6 0.499329 0.129395 0.425098
Si Si7 0.716157 0.150420 0.230888
Si Si8 0.567352 0.347256 0.894028
O O1 0.796311 0.519419 0.310400
O O2 0.611740 0.457708 0.378714
O O3 0.629045 0.255948 0.267438
O O4 0.085907 0.357876 0.523061
O O5 0.463939 0.224516 0.606499
O O6 0.501106 0.513140 0.648017
O O7 0.562516 0.324306 0.795992
O O8 0.329882 0.241661 0.831360
O O9 0.035028 0.005511 0.766679
O O10 0.809650 0.187336 0.568385
O O11 0.559043 0.532979 0.519218
O O12 0.988482 0.585863 0.617928
O O13 0.220758 0.749510 0.819994
O O14 0.734959 0.753001 0.674170
O O15 0.150861 0.826097 0.940264
O O16 0.519585 0.016422 0.130372
#
# Coordination Sequence:
#
# PCOD9114665 Si02
#       8
#     2   2   2   2   2   2   2   2
#     4   9  17  36  61  94 135 160 229 272 325 386
#     4  10  21  37  61 100 128 177 221 276 336 388
#     4  10  22  41  67  96 129 177 222 282 324 391
#     4  10  18  37  61  96 133 168 220 280 334 384
#     4  10  23  43  63  96 139 179 218 272 343 406
#     4  10  22  40  64  96 138 168 227 280 337 391
#     4   9  20  34  59  98 128 172 221 275 328 385
#     4  12  21  38  68  96 136 173 228 275 325 413
#
# _framework density 21.868468
#
# number of rings (size 3 to 8) (size 9 to 14) (size 15 to 20)
#    0.000    2.000    2.500    3.000    0.000    4.000 
#    4.500    1.250    0.000    3.000    0.000    0.000 
#    0.000    0.000    0.000    0.000    0.000    0.000 
#
# Total GULP energy -89436.514013 kJ/mol
# GULP energy per Si atom -5589.782126 kJ/mol
# Density = 2.181869 g / cm^3
# Si number density = 21.868468 Si / 1000 Ang^3
#
#
#
# Elastic Constant Matrix: (Units=GPa)
#
#
# Indices 1 2 3 4 5 6 
#
# 1 62.4651 40.2267 27.0121 0.0000 -7.7197 0.0000
# 2 40.2267 85.2147 49.1081 0.0000 -1.7611 0.0000
# 3 27.0121 49.1081 119.2653 0.0000 -3.7336 0.0000
# 4 0.0000 0.0000 0.0000 23.2474 0.0000 -8.1446
# 5 -7.7197 -1.7611 -3.7336 0.0000 20.7227 0.0000
# 6 0.0000 0.0000 0.0000 -8.1446 0.0000 41.5439
#
#
#
# Elastic Compliance Matrix: (Units=1/GPa)
#
#
# Indices 1 2 3 4 5 6 
#
# 1 0.024338 -0.010871 -0.000786 0.000000 0.008001 0.000000
# 2 -0.010871 0.020242 -0.005979 0.000000 -0.003407 0.000000
# 3 -0.000786 -0.005979 0.011062 0.000000 0.001192 0.000000
# 4 0.000000 0.000000 0.000000 0.046188 0.000000 0.009055
# 5 0.008001 -0.003407 0.001192 0.000000 0.051162 0.000000
# 6 0.000000 0.000000 0.000000 0.009055 0.000000 0.025846
#
#
# Mechanical properties :
#
#
# Convention : Reuss Voigt Hill
#
# Bulk Modulus (GPa) = 49.09073 55.51544 52.30308
# Shear Modulus (GPa) = 22.63453 27.14268 24.88860
#
# Velocity S-wave (km/s) = 3.22068 3.52686 3.37724
# Velocity P-wave (km/s) = 6.02721 6.48276 6.25913
#
# Compressibility (1/GPa) = 0.02037045
#
# Stress axis : x y z
#
# Youngs Moduli (GPa) = 41.08734 49.40131 90.39995
#
# Poissons Ratio (x) = 0.53705 0.07102
# Poissons Ratio (y) = 0.44667 0.54053
# Poissons Ratio (z) = 0.03228 0.29539
#
# Static dielectric constant tensor:
#      x y z
#    x 1.813440 0.000000 -0.027320 
#    y 0.000000 1.852170 0.000000 
#    z -0.027320 0.000000 1.770300 
# 
# From -- ./inp_files/13677.got.cif
#   From: 2010.05.17/outbox.cif.g08.bks.cpg/sg4_7_cif.got.tgz:13677.got - 2010.06.03 18:43:04.
