data_PCOD9114972
_publ_section_title
;
Structure prediction by ZEFSAII (Michael W. Deem and Ramdas Pophale) SiO2 
 PCOD9114972
Probable space group: P 21
;
_chemical_formula_sum "Si O2"
_cell_formula_units_Z 16
_cell_length_a 8.664930
_cell_length_b 12.290745
_cell_length_c 10.166241
_cell_angle_alpha 90.000000
_cell_angle_beta 124.192734
_cell_angle_gamma 90.000000
_cell_volume 895.548091
_symmetry_space_group_name_H-M "P 21"
_symmetry_group_IT_number 4
_symmetry_cell_setting 'monoclinic'
loop_
_space_group_symop_operation_xyz
x,y,z
-x,1/2+y,-z
loop_
_atom_site_type_symbol
_atom_site_label
_atom_site_fract_x
_atom_site_fract_y
_atom_site_fract_z
Si Si1 0.764727 0.319010 0.929281
Si Si2 0.454288 0.155710 0.861763
Si Si3 0.796483 0.845429 0.178002
Si Si4 0.386382 0.114237 0.342259
Si Si5 0.786740 0.404197 0.657366
Si Si6 0.206480 0.330090 0.139116
Si Si7 0.485550 0.505924 0.348702
Si Si8 0.498711 0.012815 0.131327
O O1 0.649320 0.216652 0.925922
O O2 0.733614 0.331395 0.757293
O O3 0.667012 0.424016 0.946860
O O4 0.985450 0.319049 0.057197
O O5 0.289707 0.244475 0.783112
O O6 0.438794 0.061518 0.746524
O O7 0.457045 0.104762 0.006506
O O8 0.682421 0.949535 0.173757
O O9 0.015227 0.865827 0.299511
O O10 0.763899 0.827933 0.005344
O O11 0.309800 0.230464 0.261902
O O12 0.505765 0.097730 0.532655
O O13 0.214788 0.028662 0.285758
O O14 0.503611 0.063449 0.278509
O O15 0.628276 0.414089 0.471506
O O16 0.292365 0.444220 0.230413
#
# Coordination Sequence:
#
# PCOD9114972 Si02
#       8
#     2   2   2   2   2   2   2   2
#     4   9  22  36  62  88 114 160 205 238 285 372
#     4  11  21  36  63  90 118 154 200 250 302 342
#     4  10  20  37  63  85 119 159 198 252 287 358
#     4   9  21  37  61  83 122 156 193 241 300 360
#     4   8  20  40  57  86 118 156 194 240 295 353
#     4  11  20  38  62  90 114 160 208 240 292 358
#     4  10  23  38  61  88 124 152 193 255 298 358
#     4  10  19  38  57  88 121 151 197 248 299 345
#
# _framework density 17.866153000000001
#
# number of rings (size 3 to 8) (size 9 to 14) (size 15 to 20)
#    0.750    1.500    2.500    0.000    3.500    1.000 
#    0.000    3.750    0.000    0.000    0.000    0.000 
#    0.000    0.000    0.000    0.000    0.000    0.000 
#
# Total GULP energy -89090.840225 kJ/mol
# GULP energy per Si atom -5568.177514 kJ/mol
# Density = 1.782549 g / cm^3
# Si number density = 17.866153 Si / 1000 Ang^3
#
#
#
# Elastic Constant Matrix: (Units=GPa)
#
#
# Indices 1 2 3 4 5 6 
#
# 1 101.8375 20.9307 31.5065 0.0000 11.4836 0.0000
# 2 20.9307 35.6499 12.6743 0.0000 12.1979 0.0000
# 3 31.5065 12.6743 64.9504 0.0000 8.6039 0.0000
# 4 0.0000 0.0000 0.0000 21.0563 0.0000 -12.1770
# 5 11.4836 12.1979 8.6039 0.0000 15.7945 0.0000
# 6 0.0000 0.0000 0.0000 -12.1770 0.0000 15.6685
#
#
#
# Elastic Compliance Matrix: (Units=1/GPa)
#
#
# Indices 1 2 3 4 5 6 
#
# 1 0.012601 -0.004689 -0.004811 0.000000 -0.002920 0.000000
# 2 -0.004689 0.040767 -0.002114 0.000000 -0.026923 0.000000
# 3 -0.004811 -0.002114 0.018821 0.000000 -0.005122 0.000000
# 4 0.000000 0.000000 0.000000 0.086261 0.000000 0.067039
# 5 -0.002920 -0.026923 -0.005122 0.000000 0.089019 0.000000
# 6 0.000000 0.000000 0.000000 0.067039 0.000000 0.115923
#
#
# Mechanical properties :
#
#
# Convention : Reuss Voigt Hill
#
# Bulk Modulus (GPa) = 20.42428 36.96231 28.69330
# Shear Modulus (GPa) = 12.40882 19.65894 16.03388
#
# Velocity S-wave (km/s) = 2.63828 3.32074 2.99899
# Velocity P-wave (km/s) = 4.55383 5.95286 5.29971
#
# Compressibility (1/GPa) = 0.04896134
#
# Stress axis : x y z
#
# Youngs Moduli (GPa) = 79.35953 24.52964 53.13199
#
# Poissons Ratio (x) = 0.11501 0.25560
# Poissons Ratio (y) = 0.37210 0.11233
# Poissons Ratio (z) = 0.38178 0.05186
#
# Static dielectric constant tensor:
#      x y z
#    x 1.585430 0.000000 -0.006270 
#    y 0.000000 1.642680 0.000000 
#    z -0.006270 0.000000 1.604400 
# 
# From -- ./inp_files/6152.got.cif
#   From: 2010.05.17/outbox.cif.g08.bks.cpg/sg4_4_cif.got.tgz:6152.got - 2010.06.03 18:43:04.
