data_PCOD9114324
_publ_section_title
;
Structure prediction by ZEFSAII (Michael W. Deem and Ramdas Pophale) SiO2 
 PCOD9114324
Probable space group: P 2
;
_chemical_formula_sum "Si O2"
_cell_formula_units_Z 9
_cell_length_a 5.112498
_cell_length_b 6.771684
_cell_length_c 10.727301
_cell_angle_alpha 90.000000
_cell_angle_beta 112.750303
_cell_angle_gamma 90.000000
_cell_volume 342.487649
_symmetry_space_group_name_H-M "P 2"
_symmetry_group_IT_number 3
_symmetry_cell_setting 'monoclinic'
loop_
_space_group_symop_operation_xyz
x,y,z
-x,y,-z
loop_
_atom_site_type_symbol
_atom_site_label
_atom_site_fract_x
_atom_site_fract_y
_atom_site_fract_z
Si Si1 0.255812 0.349900 0.798368
Si Si2 0.786584 0.529332 0.590111
Si Si3 0.751286 0.080548 0.797981
Si Si4 0.727077 0.638518 0.872927
Si Si5 0.500000 0.906164 0.500000
O O1 0.528970 0.219334 0.824151
O O2 0.420052 0.556739 0.860338
O O3 0.076456 0.410103 0.641830
O O4 0.042609 0.203335 0.833748
O O5 0.500000 0.418630 0.500000
O O6 0.765591 0.573205 0.735406
O O7 0.744997 0.741779 0.517067
O O8 0.751880 0.874306 0.871067
O O9 0.618207 0.024597 0.638504
O O10 0.000000 0.563569 0.000000
#
# Coordination Sequence:
#
# PCOD9114324 Si02
#       5
#     2   2   2   2   1
#     4  12  26  50  75 115 148 204 253 314 379 464
#     4   9  22  48  74 108 147 195 246 307 377 453
#     4  11  27  47  75 115 149 198 256 314 378 460
#     4  11  27  53  76 108 155 206 246 322 383 449
#     4   8  22  46  72 112 148 192 248 308 382 452
#
# _framework density 26.278317999999999
#
# number of rings (size 3 to 8) (size 9 to 14) (size 15 to 20)
#    0.667    0.889    2.222    0.000    7.778    5.333 
#    8.000    0.000    0.000    0.000    0.000    0.000 
#    0.000    0.000    0.000    0.000    0.000    0.000 
#
# Total GULP energy -50242.908625 kJ/mol
# GULP energy per Si atom -5582.545403 kJ/mol
# Density = 2.621851 g / cm^3
# Si number density = 26.278318 Si / 1000 Ang^3
#
#
#
# Elastic Constant Matrix: (Units=GPa)
#
#
# Indices 1 2 3 4 5 6 
#
# 1 205.8552 62.1308 44.0279 0.0000 43.4617 0.0000
# 2 62.1308 171.7791 36.2997 0.0000 17.3419 0.0000
# 3 44.0279 36.2997 169.5611 0.0000 53.2484 0.0000
# 4 0.0000 0.0000 0.0000 37.3498 0.0000 20.3839
# 5 43.4617 17.3419 53.2484 0.0000 31.6899 0.0000
# 6 0.0000 0.0000 0.0000 20.3839 0.0000 8.4327
#
#
#
# Elastic Compliance Matrix: (Units=1/GPa)
#
#
# Indices 1 2 3 4 5 6 
#
# 1 0.007976 -0.002020 0.003069 0.000000 -0.014989 0.000000
# 2 -0.002020 0.006698 -0.001330 0.000000 0.001340 0.000000
# 3 0.003069 -0.001330 0.013716 0.000000 -0.026528 0.000000
# 4 0.000000 0.000000 0.000000 -0.083870 0.000000 0.202734
# 5 -0.014989 0.001340 -0.026528 0.000000 0.095955 0.000000
# 6 0.000000 0.000000 0.000000 0.202734 0.000000 -0.371473
#
#
# Mechanical properties :
#
#
# Convention : Reuss Voigt Hill
#
# Bulk Modulus (GPa) = 35.93637 92.45691 64.19664
# Shear Modulus (GPa) = -15.56864 42.47695 13.45416
#
# Velocity S-wave (km/s) = -2.43667 4.02484 2.26517
# Velocity P-wave (km/s) = 2.40593 7.54051 5.59677
#
# Compressibility (1/GPa) = 0.02782696
#
# Stress axis : x y z
#
# Youngs Moduli (GPa) = 125.37898 149.30191 72.90547
#
# Poissons Ratio (x) = 0.30159 -0.22373
# Poissons Ratio (y) = 0.25326 0.09698
# Poissons Ratio (z) = -0.38475 0.19861
#
# Static dielectric constant tensor:
#      x y z
#    x 2.189580 0.000000 -0.105380 
#    y 0.000000 2.125810 0.000000 
#    z -0.105380 0.000000 2.106470 
# 
# From -- ./inp_files/9790.got.cif
#   From: 2010.05.17/outbox.cif.g08.bks.cpg/sg3_5_cif.got.tgz:9790.got - 2010.06.03 18:33:08.
