data_PCOD9114380
_publ_section_title
;
Structure prediction by ZEFSAII (Michael W. Deem and Ramdas Pophale) SiO2 
 PCOD9114380
Probable space group: P 2
;
_chemical_formula_sum "Si O2"
_cell_formula_units_Z 14
_cell_length_a 10.093391
_cell_length_b 5.456740
_cell_length_c 15.367343
_cell_angle_alpha 90.000000
_cell_angle_beta 44.606654
_cell_angle_gamma 90.000000
_cell_volume 594.363418
_symmetry_space_group_name_H-M "P 2"
_symmetry_group_IT_number 3
_symmetry_cell_setting 'monoclinic'
loop_
_space_group_symop_operation_xyz
x,y,z
-x,y,-z
loop_
_atom_site_type_symbol
_atom_site_label
_atom_site_fract_x
_atom_site_fract_y
_atom_site_fract_z
Si Si1 0.319643 0.170540 0.888771
Si Si2 0.262610 0.319740 0.310905
Si Si3 0.912769 0.817858 0.682302
Si Si4 0.715501 0.541756 0.515625
Si Si5 0.500000 0.262612 0.500000
Si Si6 0.060382 0.862166 0.128262
Si Si7 0.377687 0.886385 0.698210
Si Si8 0.000000 0.497797 0.000000
O O1 0.516715 0.295977 0.817432
O O2 0.375555 0.944337 0.801194
O O3 0.180404 0.332377 0.894219
O O4 0.188690 0.080052 0.028864
O O5 0.187186 0.574319 0.307522
O O6 0.239855 0.361946 0.425323
O O7 0.159467 0.072860 0.325432
O O8 0.879251 0.818027 0.801528
O O9 0.132294 0.758306 0.559686
O O10 0.690478 0.411554 0.434285
O O11 0.506111 0.649277 0.626656
O O12 0.474999 0.094959 0.595625
O O13 0.835421 0.893227 0.235108
O O14 0.070587 0.653026 0.049265
#
# Coordination Sequence:
#
# PCOD9114380 Si02
#       8
#     2   2   2   2   1   2   2   1
#     4  12  26  48  80 110 156 209 265 329 405 481
#     4  12  30  54  78 113 166 218 268 320 398 491
#     4  12  32  53  81 118 160 222 271 324 394 491
#     4  12  28  50  82 115 162 205 270 342 416 480
#     4  12  26  42  84 116 156 196 268 346 414 474
#     4  12  27  49  78 115 161 200 270 334 402 480
#     4  12  24  48  75 122 153 197 265 341 418 467
#     4  12  24  46  82 112 144 204 250 346 408 450
#
# _framework density 23.55461
#
# number of rings (size 3 to 8) (size 9 to 14) (size 15 to 20)
#    0.000    0.000    4.286    4.286   10.000    2.857 
#    0.000    0.000    0.000    0.000    0.000    0.000 
#    0.000    0.000    0.000    0.000    0.000    0.000 
#
# Total GULP energy -78330.025029 kJ/mol
# GULP energy per Si atom -5595.001788 kJ/mol
# Density = 2.350100 g / cm^3
# Si number density = 23.554610 Si / 1000 Ang^3
#
#
#
# Elastic Constant Matrix: (Units=GPa)
#
#
# Indices 1 2 3 4 5 6 
#
# 1 131.0739 66.0379 53.0462 0.0000 20.1012 0.0000
# 2 66.0379 123.0736 40.8282 0.0000 10.5195 0.0000
# 3 53.0462 40.8282 100.1108 0.0000 -5.2332 0.0000
# 4 0.0000 0.0000 0.0000 22.8139 0.0000 -9.9783
# 5 20.1012 10.5195 -5.2332 0.0000 50.0375 0.0000
# 6 0.0000 0.0000 0.0000 -9.9783 0.0000 28.6744
#
#
#
# Elastic Compliance Matrix: (Units=1/GPa)
#
#
# Indices 1 2 3 4 5 6 
#
# 1 0.012817 -0.004792 -0.005081 0.000000 -0.004673 0.000000
# 2 -0.004792 0.011481 -0.002181 0.000000 -0.000717 0.000000
# 3 -0.005081 -0.002181 0.013777 0.000000 0.003940 0.000000
# 4 0.000000 0.000000 0.000000 0.051702 0.000000 0.017992
# 5 -0.004673 -0.000717 0.003940 0.000000 0.022425 0.000000
# 6 0.000000 0.000000 0.000000 0.017992 0.000000 0.041135
#
#
# Mechanical properties :
#
#
# Convention : Reuss Voigt Hill
#
# Bulk Modulus (GPa) = 71.59860 74.89810 73.24835
# Shear Modulus (GPa) = 27.45748 33.26155 30.35951
#
# Velocity S-wave (km/s) = 3.41793 3.76187 3.59402
# Velocity P-wave (km/s) = 6.78522 7.12289 6.95610
#
# Compressibility (1/GPa) = 0.01396675
#
# Stress axis : x y z
#
# Youngs Moduli (GPa) = 78.02414 87.09932 72.58679
#
# Poissons Ratio (x) = 0.41738 0.36882
# Poissons Ratio (y) = 0.37389 0.15829
# Poissons Ratio (z) = 0.39645 0.18993
#
# Static dielectric constant tensor:
#      x y z
#    x 1.951730 0.000000 0.032150 
#    y 0.000000 1.974510 0.000000 
#    z 0.032150 0.000000 1.959710 
# 
# From -- ./inp_files/10295.got.cif
#   From: 2010.05.17/outbox.cif.g08.bks.cpg/sg3_6_cif.got.tgz:10295.got - 2010.06.03 18:33:08.
