data_PCOD9114492
_publ_section_title
;
Structure prediction by ZEFSAII (Michael W. Deem and Ramdas Pophale) SiO2 
 PCOD9114492
Probable space group: P 21
;
_chemical_formula_sum "Si O2"
_cell_formula_units_Z 14
_cell_length_a 14.922327
_cell_length_b 5.521548
_cell_length_c 20.757524
_cell_angle_alpha 90.000000
_cell_angle_beta 159.236161
_cell_angle_gamma 90.000000
_cell_volume 606.331166
_symmetry_space_group_name_H-M "P 21"
_symmetry_group_IT_number 4
_symmetry_cell_setting 'monoclinic'
loop_
_space_group_symop_operation_xyz
x,y,z
-x,1/2+y,-z
loop_
_atom_site_type_symbol
_atom_site_label
_atom_site_fract_x
_atom_site_fract_y
_atom_site_fract_z
Si Si1 0.596898 0.920240 0.193319
Si Si2 0.300203 0.144169 0.163416
Si Si3 0.966242 0.297089 0.201051
Si Si4 0.281194 0.404922 0.875505
Si Si5 0.942296 0.140861 0.045473
Si Si6 0.146732 0.524442 0.434595
Si Si7 0.776281 0.404577 0.296476
O O1 0.660367 0.921516 0.160028
O O2 0.710231 0.657087 0.288983
O O3 0.738726 0.161129 0.313341
O O4 0.293594 0.938263 0.994929
O O5 0.200310 0.382681 0.058602
O O6 0.599983 0.153587 0.373198
O O7 0.227859 0.879297 0.085678
O O8 0.162373 0.149557 0.140185
O O9 0.197948 0.397441 0.399498
O O10 0.853213 0.124449 0.180031
O O11 0.039629 0.169484 0.183906
O O12 0.081480 0.191476 0.743335
O O13 0.538442 0.385626 0.087473
O O14 0.019536 0.401506 0.412591
#
# Coordination Sequence:
#
# PCOD9114492 Si02
#       7
#     2   2   2   2   2   2   2
#     4  10  17  30  51  89 127 165 192 249 326 397
#     4  10  25  49  67  87 131 187 224 272 348 413
#     4  11  21  35  67 101 125 170 227 276 325 392
#     4  10  18  32  54  94 138 162 196 268 336 386
#     4  10  25  49  67  87 131 187 224 272 348 413
#     4  11  21  35  67 101 125 170 227 276 325 392
#     4  10  17  30  51  89 127 165 192 249 326 397
#
# _framework density 23.089690000000001
#
# number of rings (size 3 to 8) (size 9 to 14) (size 15 to 20)
#    0.000    1.714    4.286    0.857    4.000    0.000 
#    2.571    0.000    0.000   20.571    0.000    0.000 
#    0.000    0.000    0.000    0.000    0.000    0.000 
#
# Total GULP energy -78023.859482 kJ/mol
# GULP energy per Si atom -5573.132820 kJ/mol
# Density = 2.303714 g / cm^3
# Si number density = 23.089690 Si / 1000 Ang^3
#
#
#
# Elastic Constant Matrix: (Units=GPa)
#
#
# Indices 1 2 3 4 5 6 
#
# 1 87.3651 21.3642 40.7871 0.0000 -13.7591 0.0000
# 2 21.3642 141.9572 23.5348 0.0000 -3.0739 0.0000
# 3 40.7871 23.5348 57.4580 0.0000 -17.7952 0.0000
# 4 0.0000 0.0000 0.0000 3.4643 0.0000 5.1498
# 5 -13.7591 -3.0739 -17.7952 0.0000 13.6177 0.0000
# 6 0.0000 0.0000 0.0000 5.1498 0.0000 12.1961
#
#
#
# Elastic Compliance Matrix: (Units=1/GPa)
#
#
# Indices 1 2 3 4 5 6 
#
# 1 0.017228 -0.000694 -0.011092 0.000000 0.002756 0.000000
# 2 -0.000694 0.007713 -0.003938 0.000000 -0.004107 0.000000
# 3 -0.011092 -0.003938 0.038880 0.000000 0.038711 0.000000
# 4 0.000000 0.000000 0.000000 0.775361 0.000000 -0.327399
# 5 0.002756 -0.004107 0.038711 0.000000 0.125878 0.000000
# 6 0.000000 0.000000 0.000000 -0.327399 0.000000 0.220239
#
#
# Mechanical properties :
#
#
# Convention : Reuss Voigt Hill
#
# Bulk Modulus (GPa) = 30.89039 50.90584 40.89812
# Shear Modulus (GPa) = 4.07319 19.26188 11.66754
#
# Velocity S-wave (km/s) = 1.32963 2.89142 2.25036
# Velocity P-wave (km/s) = 3.97048 5.76558 4.95008
#
# Compressibility (1/GPa) = 0.03237252
#
# Stress axis : x y z
#
# Youngs Moduli (GPa) = 58.04401 129.65373 25.72029
#
# Poissons Ratio (x) = 0.09002 0.28528
# Poissons Ratio (y) = 0.04030 0.10129
# Poissons Ratio (z) = 0.64380 0.51061
#
# Static dielectric constant tensor:
#      x y z
#    x 1.893040 0.000000 0.010020 
#    y 0.000000 2.279570 0.000000 
#    z 0.010020 0.000000 1.890260 
# 
# From -- ./inp_files/15773.got.cif
#   From: 2010.05.17/outbox.cif.g08.bks.cpg/sg4_8_cif.got.tgz:15773.got - 2010.06.03 18:43:04.
