data_PCOD9114266
_publ_section_title
;
Structure prediction by ZEFSAII (Michael W. Deem and Ramdas Pophale) SiO2 
 PCOD9114266
Probable space group: P 2
;
_chemical_formula_sum "Si O2"
_cell_formula_units_Z 16
_cell_length_a 12.527326
_cell_length_b 8.167122
_cell_length_c 9.507861
_cell_angle_alpha 90.000000
_cell_angle_beta 132.725115
_cell_angle_gamma 90.000000
_cell_volume 714.613760
_symmetry_space_group_name_H-M "P 2"
_symmetry_group_IT_number 3
_symmetry_cell_setting 'monoclinic'
loop_
_space_group_symop_operation_xyz
x,y,z
-x,y,-z
loop_
_atom_site_type_symbol
_atom_site_label
_atom_site_fract_x
_atom_site_fract_y
_atom_site_fract_z
Si Si1 0.650751 0.641190 0.696920
Si Si2 0.057728 0.315646 0.705614
Si Si3 0.340045 0.771133 0.831923
Si Si4 0.638028 0.140275 0.034566
Si Si5 0.129452 0.658876 0.866886
Si Si6 0.119077 0.117864 0.222360
Si Si7 0.626204 0.267680 0.715150
Si Si8 0.192033 0.781421 0.402414
O O1 0.500000 0.715988 0.500000
O O2 0.609379 0.463069 0.720742
O O3 0.754116 0.639513 0.653358
O O4 0.756032 0.715615 0.911157
O O5 0.209962 0.229821 0.805688
O O6 0.085154 0.468722 0.833930
O O7 0.000000 0.366547 0.500000
O O8 0.954138 0.194410 0.703067
O O9 0.217287 0.671925 0.801722
O O10 0.291005 0.779979 0.628052
O O11 0.343630 0.951906 0.903830
O O12 0.500000 0.699528 0.000000
O O13 0.500000 0.204201 0.000000
O O14 0.613675 0.169033 0.847904
O O15 0.980216 0.759336 0.726881
O O16 0.223902 0.239974 0.232656
O O17 0.208146 0.956776 0.343432
O O18 0.000000 0.068800 0.000000
O O19 0.500000 0.211689 0.500000
#
# Coordination Sequence:
#
# PCOD9114266 Si02
#       8
#     2   2   2   2   2   2   2   2
#     4  11  24  46  69 101 138 181 230 286 355 418
#     4  12  25  43  70 101 138 187 236 293 350 422
#     4  11  26  45  67  99 141 184 235 289 349 424
#     4  11  25  47  69 100 141 183 237 294 355 420
#     4  12  24  46  67 101 139 182 235 286 353 417
#     4  12  24  44  69 103 137 181 236 291 358 419
#     4  11  26  45  71 105 139 184 232 298 356 422
#     4  12  26  43  69 103 138 186 228 290 355 421
#
# _framework density 22.389717999999998
#
# number of rings (size 3 to 8) (size 9 to 14) (size 15 to 20)
#    0.000    0.500    2.500    5.250    7.000    1.000 
#    2.250    0.000    0.000    0.000    0.000    0.000 
#    0.000    0.000    0.000    0.000    0.000    0.000 
#
# Total GULP energy -89451.229757 kJ/mol
# GULP energy per Si atom -5590.701860 kJ/mol
# Density = 2.233876 g / cm^3
# Si number density = 22.389718 Si / 1000 Ang^3
#
#
#
# Elastic Constant Matrix: (Units=GPa)
#
#
# Indices 1 2 3 4 5 6 
#
# 1 96.5542 -1.7442 19.4699 0.0000 -3.1164 0.0000
# 2 -1.7442 42.8208 -4.5011 0.0000 -9.4514 0.0000
# 3 19.4699 -4.5011 152.4126 0.0000 -13.2170 0.0000
# 4 0.0000 0.0000 0.0000 90.7659 0.0000 -38.9072
# 5 -3.1164 -9.4514 -13.2170 0.0000 38.0484 0.0000
# 6 0.0000 0.0000 0.0000 -38.9072 0.0000 48.2391
#
#
#
# Elastic Compliance Matrix: (Units=1/GPa)
#
#
# Indices 1 2 3 4 5 6 
#
# 1 0.010644 0.000412 -0.001302 0.000000 0.000522 0.000000
# 2 0.000412 0.024977 0.001264 0.000000 0.006677 0.000000
# 3 -0.001302 0.001264 0.006993 0.000000 0.002637 0.000000
# 4 0.000000 0.000000 0.000000 0.016839 0.000000 0.013582
# 5 0.000522 0.006677 0.002637 0.000000 0.028900 0.000000
# 6 0.000000 0.000000 0.000000 0.013582 0.000000 0.031684
#
#
# Mechanical properties :
#
#
# Convention : Reuss Voigt Hill
#
# Bulk Modulus (GPa) = 23.06223 35.35965 29.21094
# Shear Modulus (GPa) = 37.38502 53.98154 45.68328
#
# Velocity S-wave (km/s) = 4.09068 4.91552 4.52194
# Velocity P-wave (km/s) = 5.71264 6.93134 6.35129
#
# Compressibility (1/GPa) = 0.04336094
#
# Stress axis : x y z
#
# Youngs Moduli (GPa) = 93.95177 40.03753 142.99045
#
# Poissons Ratio (x) = -0.01649 0.18621
# Poissons Ratio (y) = -0.03869 -0.18075
# Poissons Ratio (z) = 0.12235 -0.05061
#
# Static dielectric constant tensor:
#      x y z
#    x 1.584230 0.000000 0.119270 
#    y 0.000000 1.864230 0.000000 
#    z 0.119270 0.000000 1.827590 
# 
# From -- ./inp_files/7506.got.cif
#   From: 2010.05.17/outbox.cif.g08.bks.cpg/sg3_4_cif.got.tgz:7506.got - 2010.06.03 18:33:08.
