data_PCOD9114768
_publ_section_title
;
Structure prediction by ZEFSAII (Michael W. Deem and Ramdas Pophale) SiO2 
 PCOD9114768
Probable space group: P 21
;
_chemical_formula_sum "Si O2"
_cell_formula_units_Z 16
_cell_length_a 10.311887
_cell_length_b 8.915967
_cell_length_c 20.239229
_cell_angle_alpha 90.000000
_cell_angle_beta 150.325912
_cell_angle_gamma 90.000000
_cell_volume 921.220236
_symmetry_space_group_name_H-M "P 21"
_symmetry_group_IT_number 4
_symmetry_cell_setting 'monoclinic'
loop_
_space_group_symop_operation_xyz
x,y,z
-x,1/2+y,-z
loop_
_atom_site_type_symbol
_atom_site_label
_atom_site_fract_x
_atom_site_fract_y
_atom_site_fract_z
Si Si1 0.780833 0.931620 0.814585
Si Si2 0.729459 0.788610 0.651186
Si Si3 0.702883 0.921105 0.147789
Si Si4 0.628585 0.432830 0.874724
Si Si5 0.316293 0.781740 0.868901
Si Si6 0.629769 0.790863 0.881348
Si Si7 0.779907 0.287531 0.808072
Si Si8 0.287357 0.929427 0.363620
O O1 0.701110 0.843629 0.713808
O O2 0.626598 0.879349 0.811463
O O3 0.750111 0.108840 0.790449
O O4 0.088110 0.900451 0.966446
O O5 0.517101 0.865932 0.510605
O O6 0.702740 0.609402 0.634932
O O7 0.023222 0.829245 0.757443
O O8 0.594168 0.884204 0.172435
O O9 0.004838 0.883735 0.268637
O O10 0.672897 0.100726 0.126033
O O11 0.519109 0.842878 0.012517
O O12 0.615283 0.612819 0.860285
O O13 0.626639 0.351985 0.803482
O O14 0.410709 0.831278 0.838050
O O15 0.912567 0.819331 0.040760
O O16 0.699224 0.364149 0.704294
#
# Coordination Sequence:
#
# PCOD9114768 Si02
#       8
#     2   2   2   2   2   2   2   2
#     4  10  19  33  55  82 112 145 182 224 275 328
#     4  11  23  38  57  81 113 150 186 225 275 331
#     4  10  20  35  57  84 111 142 183 230 275 324
#     4   9  18  33  54  82 113 141 177 228 277 323
#     4  10  20  35  57  84 111 142 183 230 275 324
#     4   9  18  33  54  82 113 141 177 228 277 323
#     4  10  19  33  55  82 112 145 182 224 275 328
#     4  11  23  38  57  81 113 150 186 225 275 331
#
# _framework density 17.368268
#
# number of rings (size 3 to 8) (size 9 to 14) (size 15 to 20)
#    0.000    2.000    2.500    1.500    0.000    3.000 
#    0.000    1.250    0.000    0.000    0.000    0.000 
#    0.000    0.000    0.000    0.000    0.000    0.000 
#
# Total GULP energy -89321.033624 kJ/mol
# GULP energy per Si atom -5582.564601 kJ/mol
# Density = 1.732874 g / cm^3
# Si number density = 17.368268 Si / 1000 Ang^3
#
#
#
# Elastic Constant Matrix: (Units=GPa)
#
#
# Indices 1 2 3 4 5 6 
#
# 1 33.5698 -21.8124 -43.0876 0.0000 -3.8647 0.0000
# 2 -21.8124 2.4496 -14.9987 0.0000 -4.7501 0.0000
# 3 -43.0876 -14.9987 -2.1793 0.0000 -0.2648 0.0000
# 4 0.0000 0.0000 0.0000 27.9494 0.0000 -8.0117
# 5 -3.8647 -4.7501 -0.2648 0.0000 23.1187 0.0000
# 6 0.0000 0.0000 0.0000 -8.0117 0.0000 27.9847
#
#
#
# Elastic Compliance Matrix: (Units=1/GPa)
#
#
# Indices 1 2 3 4 5 6 
#
# 1 0.005962 -0.015563 -0.010477 0.000000 -0.002321 0.000000
# 2 -0.015563 0.050125 -0.038152 0.000000 0.007260 0.000000
# 3 -0.010477 -0.038152 0.011999 0.000000 -0.009453 0.000000
# 4 0.000000 0.000000 0.000000 0.038978 0.000000 0.011159
# 5 -0.002321 0.007260 -0.009453 0.000000 0.044250 0.000000
# 6 0.000000 0.000000 0.000000 0.011159 0.000000 0.038928
#
#
# Mechanical properties :
#
#
# Convention : Reuss Voigt Hill
#
# Bulk Modulus (GPa) = -16.58431 -13.99526 -15.28979
# Shear Modulus (GPa) = 16.74889 23.39316 20.07102
#
# Velocity S-wave (km/s) = 3.10875 3.67398 3.40312
# Velocity P-wave (km/s) = 1.82110 3.14993 2.57279
#
# Compressibility (1/GPa) = -0.06029794
#
# Stress axis : x y z
#
# Youngs Moduli (GPa) = 167.73610 19.94999 83.33985
#
# Poissons Ratio (x) = 0.31049 0.87313
# Poissons Ratio (y) = 2.61055 3.17957
# Poissons Ratio (z) = 1.75733 0.76113
#
# Static dielectric constant tensor:
#      x y z
#    x 1.591000 0.000000 0.016200 
#    y 0.000000 1.576700 0.000000 
#    z 0.016200 0.000000 1.555890 
# 
# From -- ./inp_files/5489.got.cif
#   From: 2010.05.17/outbox.cif.g08.bks.cpg/sg4_3_cif.got.tgz:5489.got - 2010.06.03 18:43:04.
