data_PCOD9114321
_publ_section_title
;
Structure prediction by ZEFSAII (Michael W. Deem and Ramdas Pophale) SiO2 
 PCOD9114321
Probable space group: P 2
;
_chemical_formula_sum "Si O2"
_cell_formula_units_Z 10
_cell_length_a 8.378745
_cell_length_b 4.865663
_cell_length_c 9.087429
_cell_angle_alpha 90.000000
_cell_angle_beta 81.312889
_cell_angle_gamma 90.000000
_cell_volume 366.227503
_symmetry_space_group_name_H-M "P 2"
_symmetry_group_IT_number 3
_symmetry_cell_setting 'monoclinic'
loop_
_space_group_symop_operation_xyz
x,y,z
-x,y,-z
loop_
_atom_site_type_symbol
_atom_site_label
_atom_site_fract_x
_atom_site_fract_y
_atom_site_fract_z
Si Si1 0.121536 0.156850 0.886224
Si Si2 0.558016 0.408971 0.141630
Si Si3 0.711636 0.018101 0.680550
Si Si4 0.937056 0.515641 0.699033
Si Si5 0.728720 0.764740 0.371841
O O1 0.280611 0.264253 0.940661
O O2 0.194938 0.000707 0.738362
O O3 0.991596 0.397641 0.158522
O O4 0.000000 0.980688 0.000000
O O5 0.615285 0.587863 0.276396
O O6 0.434635 0.175532 0.217801
O O7 0.500000 0.560632 0.000000
O O8 0.807052 0.759850 0.737990
O O9 0.660348 0.897780 0.529318
O O10 0.845230 0.254494 0.644880
O O11 0.106983 0.607439 0.602442
#
# Coordination Sequence:
#
# PCOD9114321 Si02
#       5
#     2   2   2   2   2
#     4  11  26  52  82 123 172 232 289 360 437 535
#     4  11  29  56  84 130 178 239 290 369 443 530
#     4  12  28  52  89 128 172 223 297 369 438 518
#     4  11  26  50  84 126 166 227 286 359 439 527
#     4  11  28  51  91 123 179 229 299 356 448 527
#
# _framework density 27.305429
#
# number of rings (size 3 to 8) (size 9 to 14) (size 15 to 20)
#    0.000    0.800    2.000    1.800   11.200    6.400 
#    0.000    0.000    0.000    0.000    0.000    0.000 
#    0.000    0.000    0.000    0.000    0.000    0.000 
#
# Total GULP energy -55979.081051 kJ/mol
# GULP energy per Si atom -5597.908105 kJ/mol
# Density = 2.724328 g / cm^3
# Si number density = 27.305429 Si / 1000 Ang^3
#
#
#
# Elastic Constant Matrix: (Units=GPa)
#
#
# Indices 1 2 3 4 5 6 
#
# 1 206.7948 87.5196 94.8395 0.0000 20.2976 0.0000
# 2 87.5196 166.1399 51.6820 0.0000 10.9630 0.0000
# 3 94.8395 51.6820 134.0414 0.0000 3.8226 0.0000
# 4 0.0000 0.0000 0.0000 12.4780 0.0000 2.9939
# 5 20.2976 10.9630 3.8226 0.0000 52.6544 0.0000
# 6 0.0000 0.0000 0.0000 2.9939 0.0000 62.4774
#
#
#
# Elastic Compliance Matrix: (Units=1/GPa)
#
#
# Indices 1 2 3 4 5 6 
#
# 1 0.008474 -0.002802 -0.004849 0.000000 -0.002331 0.000000
# 2 -0.002802 0.007847 -0.001029 0.000000 -0.000479 0.000000
# 3 -0.004849 -0.001029 0.011252 0.000000 0.001267 0.000000
# 4 0.000000 0.000000 0.000000 0.081073 0.000000 -0.003885
# 5 -0.002331 -0.000479 0.001267 0.000000 0.019898 0.000000
# 6 0.000000 0.000000 0.000000 -0.003885 0.000000 0.016192
#
#
# Mechanical properties :
#
#
# Convention : Reuss Voigt Hill
#
# Bulk Modulus (GPa) = 97.91929 108.33980 103.12955
# Shear Modulus (GPa) = 30.21132 43.71762 36.96447
#
# Velocity S-wave (km/s) = 3.32990 4.00567 3.68331
# Velocity P-wave (km/s) = 7.12200 7.82029 7.47930
#
# Compressibility (1/GPa) = 0.01021249
#
# Stress axis : x y z
#
# Youngs Moduli (GPa) = 118.00591 127.44061 88.87268
#
# Poissons Ratio (x) = 0.35706 0.43095
# Poissons Ratio (y) = 0.33063 0.09149
# Poissons Ratio (z) = 0.57221 0.13119
#
# Static dielectric constant tensor:
#      x y z
#    x 2.235730 0.000000 0.063600 
#    y 0.000000 2.148530 0.000000 
#    z 0.063600 0.000000 2.308220 
# 
# From -- ./inp_files/4648.got.cif
#   From: 2010.05.17/outbox.cif.g08.bks.cpg/sg3_3_cif.got.tgz:4648.got - 2010.06.03 18:33:08.
