data_PCOD9114449
_publ_section_title
;
Structure prediction by ZEFSAII (Michael W. Deem and Ramdas Pophale) SiO2 
 PCOD9114449
Probable space group: P 21
;
_chemical_formula_sum "Si O2"
_cell_formula_units_Z 12
_cell_length_a 15.157143
_cell_length_b 5.108528
_cell_length_c 7.852431
_cell_angle_alpha 90.000000
_cell_angle_beta 118.848530
_cell_angle_gamma 90.000000
_cell_volume 532.562946
_symmetry_space_group_name_H-M "P 21"
_symmetry_group_IT_number 4
_symmetry_cell_setting 'monoclinic'
loop_
_space_group_symop_operation_xyz
x,y,z
-x,1/2+y,-z
loop_
_atom_site_type_symbol
_atom_site_label
_atom_site_fract_x
_atom_site_fract_y
_atom_site_fract_z
Si Si1 0.950663 0.745660 0.882925
Si Si2 0.950231 0.494174 0.513997
Si Si3 0.623501 0.400500 0.770932
Si Si4 0.540219 0.811436 0.138779
Si Si5 0.733951 0.894555 0.810779
Si Si6 0.738588 0.659644 0.171191
O O1 0.961912 0.607699 0.712807
O O2 0.837119 0.841828 0.810079
O O3 0.979896 0.503704 0.034786
O O4 0.838035 0.547181 0.345088
O O5 0.978569 0.190235 0.528049
O O6 0.652427 0.666707 0.705028
O O7 0.509359 0.361476 0.723602
O O8 0.678731 0.165639 0.729477
O O9 0.679437 0.440216 0.006494
O O10 0.659732 0.772259 0.234043
O O11 0.510910 0.050670 0.986797
O O12 0.760653 0.865342 0.038654
#
# Coordination Sequence:
#
# PCOD9114449 Si02
#       6
#     2   2   2   2   2   2
#     4  12  25  43  61  85 119 164 207 248 303 370
#     4  12  27  42  62  90 122 157 207 257 305 352
#     4   9  18  31  56  88 113 150 195 241 287 353
#     4  10  16  30  52  89 116 148 193 246 287 349
#     4  10  19  33  57  80 117 148 198 235 297 350
#     4   9  21  33  60  84 119 153 194 253 289 344
#
# _framework density 22.532550000000001
#
# number of rings (size 3 to 8) (size 9 to 14) (size 15 to 20)
#    1.000    0.667    1.667    4.000    4.667    0.000 
#    0.000    0.000    0.000    2.000    0.000    0.000 
#    0.000    0.000    0.000    0.000    0.000    0.000 
#
# Total GULP energy -67003.405429 kJ/mol
# GULP energy per Si atom -5583.617119 kJ/mol
# Density = 2.248126 g / cm^3
# Si number density = 22.532550 Si / 1000 Ang^3
#
#
#
# Elastic Constant Matrix: (Units=GPa)
#
#
# Indices 1 2 3 4 5 6 
#
# 1 73.0403 -21.1052 -0.0773 0.0000 2.9481 0.0000
# 2 -21.1052 64.4512 4.2517 0.0000 0.1903 0.0000
# 3 -0.0773 4.2517 53.6033 0.0000 7.4867 0.0000
# 4 0.0000 0.0000 0.0000 11.4672 0.0000 -0.3627
# 5 2.9481 0.1903 7.4867 0.0000 24.7486 0.0000
# 6 0.0000 0.0000 0.0000 -0.3627 0.0000 34.0530
#
#
#
# Elastic Compliance Matrix: (Units=1/GPa)
#
#
# Indices 1 2 3 4 5 6 
#
# 1 0.015207 0.004993 -0.000121 0.000000 -0.001813 0.000000
# 2 0.004993 0.017238 -0.001314 0.000000 -0.000330 0.000000
# 3 -0.000121 -0.001314 0.019584 0.000000 -0.005900 0.000000
# 4 0.000000 0.000000 0.000000 0.087234 0.000000 0.000929
# 5 -0.001813 -0.000330 -0.005900 0.000000 0.042410 0.000000
# 6 0.000000 0.000000 0.000000 0.000929 0.000000 0.029376
#
#
# Mechanical properties :
#
#
# Convention : Reuss Voigt Hill
#
# Bulk Modulus (GPa) = 16.90762 17.47036 17.18899
# Shear Modulus (GPa) = 22.35663 27.92215 25.13939
#
# Velocity S-wave (km/s) = 3.15333 3.52403 3.34382
# Velocity P-wave (km/s) = 4.55828 4.93241 4.74903
#
# Compressibility (1/GPa) = 0.05914494
#
# Stress axis : x y z
#
# Youngs Moduli (GPa) = 65.75978 58.01050 51.06307
#
# Poissons Ratio (x) = -0.28964 0.00617
# Poissons Ratio (y) = -0.32834 0.06710
# Poissons Ratio (z) = 0.00795 0.07623
#
# Static dielectric constant tensor:
#      x y z
#    x 1.858600 0.000000 -0.024910 
#    y 0.000000 1.813450 0.000000 
#    z -0.024910 0.000000 1.849430 
# 
# From -- ./inp_files/8747.got.cif
#   From: 2010.05.17/outbox.cif.g08.bks.cpg/sg4_5_cif.got.tgz:8747.got - 2010.06.03 18:43:04.
