data_PCOD9114451
_publ_section_title
;
Structure prediction by ZEFSAII (Michael W. Deem and Ramdas Pophale) SiO2 
 PCOD9114451
Probable space group: P 21
;
_chemical_formula_sum "Si O2"
_cell_formula_units_Z 16
_cell_length_a 11.710621
_cell_length_b 8.892438
_cell_length_c 20.737329
_cell_angle_alpha 90.000000
_cell_angle_beta 19.282539
_cell_angle_gamma 90.000000
_cell_volume 713.125297
_symmetry_space_group_name_H-M "P 21"
_symmetry_group_IT_number 4
_symmetry_cell_setting 'monoclinic'
loop_
_space_group_symop_operation_xyz
x,y,z
-x,1/2+y,-z
loop_
_atom_site_type_symbol
_atom_site_label
_atom_site_fract_x
_atom_site_fract_y
_atom_site_fract_z
Si Si1 0.329351 0.379980 0.522101
Si Si2 0.667168 0.763808 0.911689
Si Si3 0.256097 0.694933 0.245065
Si Si4 0.599764 0.085633 0.406858
Si Si5 0.153393 0.650323 0.542891
Si Si6 0.524933 0.488370 0.804406
Si Si7 0.662111 0.472097 0.589164
Si Si8 0.864497 0.072878 0.869613
O O1 0.641487 0.265207 0.372293
O O2 0.204409 0.463503 0.653831
O O3 0.393075 0.512372 0.436553
O O4 0.027451 0.284245 0.647940
O O5 0.693359 0.934571 0.920848
O O6 0.996609 0.716596 0.693758
O O7 0.578431 0.672740 0.024867
O O8 0.357474 0.719365 0.029081
O O9 0.377885 0.813270 0.233989
O O10 0.046111 0.548640 0.379708
O O11 0.536674 0.020335 0.369452
O O12 0.243498 0.088435 0.639034
O O13 0.316254 0.792759 0.422319
O O14 0.844795 0.581639 0.664762
O O15 0.496160 0.522954 0.744670
O O16 0.200549 0.532388 0.021648
#
# Coordination Sequence:
#
# PCOD9114451 Si02
#       8
#     2   2   2   2   2   2   2   2
#     4  10  21  35  52  81 103 138 182 230 259 309
#     4  10  16  31  50  81 105 130 174 219 272 305
#     4   9  18  33  52  77 112 139 174 224 263 318
#     4  11  21  35  55  77 105 142 183 223 263 317
#     4  10  19  31  55  80 108 139 176 220 270 317
#     4   9  20  31  51  79 114 139 171 220 272 316
#     4  11  18  32  51  82 106 144 178 215 267 323
#     4  10  19  32  52  79 105 147 170 225 268 315
#
# _framework density 22.436451000000002
#
# number of rings (size 3 to 8) (size 9 to 14) (size 15 to 20)
#    0.000    2.000    3.750    2.250    0.000    0.000 
#    0.000    0.000    0.000    6.000    6.500    0.000 
#    0.000    0.000    0.000    0.000    0.000    0.000 
#
# Total GULP energy -89236.137213 kJ/mol
# GULP energy per Si atom -5577.258576 kJ/mol
# Density = 2.238539 g / cm^3
# Si number density = 22.436451 Si / 1000 Ang^3
#
#
#
# Elastic Constant Matrix: (Units=GPa)
#
#
# Indices 1 2 3 4 5 6 
#
# 1 76.2861 16.8718 30.8846 0.0000 23.2141 0.0000
# 2 16.8718 108.1045 19.2652 0.0000 4.5430 0.0000
# 3 30.8846 19.2652 69.8474 0.0000 22.1556 0.0000
# 4 0.0000 0.0000 0.0000 21.1672 0.0000 2.9619
# 5 23.2141 4.5430 22.1556 0.0000 37.5394 0.0000
# 6 0.0000 0.0000 0.0000 2.9619 0.0000 20.5276
#
#
#
# Elastic Compliance Matrix: (Units=1/GPa)
#
#
# Indices 1 2 3 4 5 6 
#
# 1 0.017878 -0.001574 -0.004952 0.000000 -0.007943 0.000000
# 2 -0.001574 0.009875 -0.002408 0.000000 0.001200 0.000000
# 3 -0.004952 -0.002408 0.019817 0.000000 -0.008342 0.000000
# 4 0.000000 0.000000 0.000000 0.048216 0.000000 -0.006957
# 5 -0.007943 0.001200 -0.008342 0.000000 0.036329 0.000000
# 6 0.000000 0.000000 0.000000 -0.006957 0.000000 0.049719
#
#
# Mechanical properties :
#
#
# Convention : Reuss Voigt Hill
#
# Bulk Modulus (GPa) = 33.66755 43.14235 38.40495
# Shear Modulus (GPa) = 23.85466 28.32793 26.09130
#
# Velocity S-wave (km/s) = 3.26423 3.55714 3.41383
# Velocity P-wave (km/s) = 5.40789 6.01178 5.71781
#
# Compressibility (1/GPa) = 0.02970219
#
# Stress axis : x y z
#
# Youngs Moduli (GPa) = 55.93326 101.26885 50.46217
#
# Poissons Ratio (x) = 0.15940 0.24987
# Poissons Ratio (y) = 0.08804 0.12152
# Poissons Ratio (z) = 0.27696 0.24387
#
# Static dielectric constant tensor:
#      x y z
#    x 1.914640 0.000000 -0.068170 
#    y 0.000000 1.917630 0.000000 
#    z -0.068170 0.000000 1.849890 
# 
# From -- ./inp_files/10937.got.cif
#   From: 2010.05.17/outbox.cif.g08.bks.cpg/sg4_6_cif.got.tgz:10937.got - 2010.06.03 18:43:04.
