data_PCOD9114319
_publ_section_title
;
Structure prediction by ZEFSAII (Michael W. Deem and Ramdas Pophale) SiO2 
 PCOD9114319
Probable space group: P 2
;
_chemical_formula_sum "Si O2"
_cell_formula_units_Z 10
_cell_length_a 8.887960
_cell_length_b 9.283720
_cell_length_c 4.977877
_cell_angle_alpha 90.000000
_cell_angle_beta 82.081699
_cell_angle_gamma 90.000000
_cell_volume 406.825010
_symmetry_space_group_name_H-M "P 2"
_symmetry_group_IT_number 3
_symmetry_cell_setting 'monoclinic'
loop_
_space_group_symop_operation_xyz
x,y,z
-x,y,-z
loop_
_atom_site_type_symbol
_atom_site_label
_atom_site_fract_x
_atom_site_fract_y
_atom_site_fract_z
Si Si1 0.157471 0.852170 0.599291
Si Si2 0.666220 0.415883 0.090189
Si Si3 0.397089 0.006485 0.287562
Si Si4 0.167681 0.528178 0.464569
Si Si5 0.827307 0.119258 0.007695
O O1 0.317006 0.859763 0.398481
O O2 0.133047 0.681967 0.619053
O O3 0.000000 0.903109 0.500000
O O4 0.183530 0.961999 0.842154
O O5 0.770641 0.506560 0.853331
O O6 0.500000 0.414604 0.000000
O O7 0.696600 0.474017 0.379290
O O8 0.724843 0.252564 0.115399
O O9 0.500000 0.062887 0.500000
O O10 0.500000 0.996971 0.000000
O O11 0.243863 0.095616 0.269977
O O12 0.000000 0.453868 0.500000
O O13 0.000000 0.162087 0.000000
#
# Coordination Sequence:
#
# PCOD9114319 Si02
#       5
#     2   2   2   2   2
#     4  11  26  47  79 112 151 196 257 308 373 452
#     4  12  29  50  76 111 153 199 251 311 379 450
#     4  12  26  43  69 111 149 188 237 305 374 434
#     4  11  27  51  78 107 149 203 254 305 371 456
#     4  12  26  47  80 111 150 198 255 309 375 448
#
# _framework density 24.580593
#
# number of rings (size 3 to 8) (size 9 to 14) (size 15 to 20)
#    0.000    0.400    4.000    3.000    5.600    3.200 
#    0.000    0.000    0.000    0.000    0.000    0.000 
#    0.000    0.000    0.000    0.000    0.000    0.000 
#
# Total GULP energy -55731.368558 kJ/mol
# GULP energy per Si atom -5573.136856 kJ/mol
# Density = 2.452465 g / cm^3
# Si number density = 24.580593 Si / 1000 Ang^3
#
#
#
# Elastic Constant Matrix: (Units=GPa)
#
#
# Indices 1 2 3 4 5 6 
#
# 1 193.3214 11.5480 49.4887 0.0000 33.5069 0.0000
# 2 11.5480 67.9792 11.7411 0.0000 19.8039 0.0000
# 3 49.4887 11.7411 133.5843 0.0000 25.0232 0.0000
# 4 0.0000 0.0000 0.0000 25.0101 0.0000 1.9015
# 5 33.5069 19.8039 25.0232 0.0000 57.5221 0.0000
# 6 0.0000 0.0000 0.0000 1.9015 0.0000 10.7014
#
#
#
# Elastic Compliance Matrix: (Units=1/GPa)
#
#
# Indices 1 2 3 4 5 6 
#
# 1 0.006103 0.000088 -0.001739 0.000000 -0.002829 0.000000
# 2 0.000088 0.016373 -0.000442 0.000000 -0.005496 0.000000
# 3 -0.001739 -0.000442 0.008656 0.000000 -0.002601 0.000000
# 4 0.000000 0.000000 0.000000 0.040531 0.000000 -0.007202
# 5 -0.002829 -0.005496 -0.002601 0.000000 0.022056 0.000000
# 6 0.000000 0.000000 0.000000 -0.007202 0.000000 0.094725
#
#
# Mechanical properties :
#
#
# Convention : Reuss Voigt Hill
#
# Bulk Modulus (GPa) = 37.11199 60.04893 48.58046
# Shear Modulus (GPa) = 24.80006 40.12052 32.46029
#
# Velocity S-wave (km/s) = 3.17981 4.04444 3.63790
# Velocity P-wave (km/s) = 5.34906 6.80385 6.11984
#
# Compressibility (1/GPa) = 0.02694547
#
# Stress axis : x y z
#
# Youngs Moduli (GPa) = 163.85687 61.07673 115.52619
#
# Poissons Ratio (x) = -0.00535 0.20087
# Poissons Ratio (y) = -0.01436 0.05107
# Poissons Ratio (z) = 0.28490 0.02700
#
# Static dielectric constant tensor:
#      x y z
#    x 2.023260 0.000000 -0.040800 
#    y 0.000000 2.085730 0.000000 
#    z -0.040800 0.000000 2.102460 
# 
# From -- ./inp_files/908.got.cif
#   From: 2010.05.17/outbox.cif.g08.bks.cpg/sg3_1_cif.got.tgz:908.got - 2010.06.03 18:33:08.
