data_PCOD9114360
_publ_section_title
;
Structure prediction by ZEFSAII (Michael W. Deem and Ramdas Pophale) SiO2 
 PCOD9114360
Probable space group: P 2
;
_chemical_formula_sum "Si O2"
_cell_formula_units_Z 13
_cell_length_a 17.239389
_cell_length_b 6.575515
_cell_length_c 9.461112
_cell_angle_alpha 90.000000
_cell_angle_beta 146.878290
_cell_angle_gamma 90.000000
_cell_volume 586.030056
_symmetry_space_group_name_H-M "P 2"
_symmetry_group_IT_number 3
_symmetry_cell_setting 'monoclinic'
loop_
_space_group_symop_operation_xyz
x,y,z
-x,y,-z
loop_
_atom_site_type_symbol
_atom_site_label
_atom_site_fract_x
_atom_site_fract_y
_atom_site_fract_z
Si Si1 0.500000 0.066651 0.500000
Si Si2 0.062314 0.383001 0.398605
Si Si3 0.719587 0.526668 0.482917
Si Si4 0.000000 0.017518 0.500000
Si Si5 0.270416 0.409847 0.173364
Si Si6 0.500000 0.240692 0.000000
Si Si7 0.511947 0.874312 0.220606
Si Si8 0.232565 0.683906 0.866706
O O1 0.365259 0.216664 0.276358
O O2 0.529828 0.929911 0.410511
O O3 0.129174 0.473014 0.355276
O O4 0.136273 0.527644 0.629346
O O5 0.069990 0.158871 0.483876
O O6 0.895380 0.387505 0.113263
O O7 0.708826 0.458216 0.629991
O O8 0.649117 0.751336 0.374340
O O9 0.625688 0.383246 0.239806
O O10 0.128244 0.870535 0.745362
O O11 0.303478 0.589926 0.114748
O O12 0.520750 0.087298 0.903273
O O13 0.369066 0.745000 0.983743
#
# Coordination Sequence:
#
# PCOD9114360 Si02
#       8
#     1   2   2   1   2   1   2   2
#     4  12  26  48  80 112 148 204 258 320 374 448
#     4  12  25  46  75 107 155 196 246 316 371 452
#     4  12  27  46  72 107 153 198 244 317 383 445
#     4  12  22  46  76 116 144 200 262 290 382 458
#     4  12  24  49  70 110 151 194 251 315 381 432
#     4  12  24  48  66 108 146 188 250 300 378 444
#     4  12  26  46  77 108 147 198 257 306 382 459
#     4  12  24  45  77 110 146 198 254 310 370 453
#
# _framework density 22.183163
#
# number of rings (size 3 to 8) (size 9 to 14) (size 15 to 20)
#    0.000    0.000    4.615    6.462    2.154    0.000 
#    0.000    0.000    6.769    0.000    0.000    0.000 
#    0.000    0.000    0.000    0.000    0.000    0.000 
#
# Total GULP energy -72587.701994 kJ/mol
# GULP energy per Si atom -5583.669384 kJ/mol
# Density = 2.213267 g / cm^3
# Si number density = 22.183163 Si / 1000 Ang^3
#
#
#
# Elastic Constant Matrix: (Units=GPa)
#
#
# Indices 1 2 3 4 5 6 
#
# 1 104.9742 41.3000 13.2487 0.0000 -5.7108 0.0000
# 2 41.3000 111.4647 39.6317 0.0000 -6.6494 0.0000
# 3 13.2487 39.6317 61.5110 0.0000 8.2635 0.0000
# 4 0.0000 0.0000 0.0000 32.6429 0.0000 0.7582
# 5 -5.7108 -6.6494 8.2635 0.0000 49.3393 0.0000
# 6 0.0000 0.0000 0.0000 0.7582 0.0000 49.1146
#
#
#
# Elastic Compliance Matrix: (Units=1/GPa)
#
#
# Indices 1 2 3 4 5 6 
#
# 1 0.011180 -0.004165 0.000181 0.000000 0.000702 0.000000
# 2 -0.004165 0.013606 -0.008236 0.000000 0.002731 0.000000
# 3 0.000181 -0.008236 0.022170 0.000000 -0.004802 0.000000
# 4 0.000000 0.000000 0.000000 0.030646 0.000000 -0.000473
# 5 0.000702 0.002731 -0.004802 0.000000 0.021521 0.000000
# 6 0.000000 0.000000 0.000000 -0.000473 0.000000 0.020368
#
#
# Mechanical properties :
#
#
# Convention : Reuss Voigt Hill
#
# Bulk Modulus (GPa) = 44.41296 51.81229 48.11263
# Shear Modulus (GPa) = 33.01719 38.47067 35.74393
#
# Velocity S-wave (km/s) = 3.86215 4.16892 4.01847
# Velocity P-wave (km/s) = 6.32082 6.82499 6.57774
#
# Compressibility (1/GPa) = 0.02251595
#
# Stress axis : x y z
#
# Youngs Moduli (GPa) = 89.44449 73.49721 45.10608
#
# Poissons Ratio (x) = 0.30611 -0.00817
# Poissons Ratio (y) = 0.37253 0.37150
# Poissons Ratio (z) = -0.01619 0.60533
#
# Static dielectric constant tensor:
#      x y z
#    x 1.580780 0.000000 -0.105170 
#    y 0.000000 1.852220 0.000000 
#    z -0.105170 0.000000 1.809550 
# 
# From -- ./inp_files/8989.got.cif
#   From: 2010.05.17/outbox.cif.g08.bks.cpg/sg3_5_cif.got.tgz:8989.got - 2010.06.03 18:33:08.
