data_PCOD9114789
_publ_section_title
;
Structure prediction by ZEFSAII (Michael W. Deem and Ramdas Pophale) SiO2 
 PCOD9114789
Probable space group: P 21
;
_chemical_formula_sum "Si O2"
_cell_formula_units_Z 12
_cell_length_a 14.532327
_cell_length_b 5.708636
_cell_length_c 7.939070
_cell_angle_alpha 90.000000
_cell_angle_beta 37.934057
_cell_angle_gamma 90.000000
_cell_volume 404.891443
_symmetry_space_group_name_H-M "P 21"
_symmetry_group_IT_number 4
_symmetry_cell_setting 'monoclinic'
loop_
_space_group_symop_operation_xyz
x,y,z
-x,1/2+y,-z
loop_
_atom_site_type_symbol
_atom_site_label
_atom_site_fract_x
_atom_site_fract_y
_atom_site_fract_z
Si Si1 0.496358 0.623770 0.731651
Si Si2 0.034138 0.345071 0.380582
Si Si3 0.794420 0.651444 0.139186
Si Si4 0.970974 0.686534 0.212223
Si Si5 0.677268 0.967092 0.706747
Si Si6 0.692037 0.202297 0.336858
O O1 0.648698 0.505972 0.427856
O O2 0.416430 0.710251 0.678307
O O3 0.562667 0.791267 0.779620
O O4 0.379780 0.489723 0.019147
O O5 0.945662 0.122045 0.588772
O O6 0.951566 0.437320 0.331598
O O7 0.170910 0.190214 0.107595
O O8 0.926254 0.652736 0.085717
O O9 0.728662 0.917486 0.267187
O O10 0.860818 0.293940 0.026674
O O11 0.843617 0.852544 0.474557
O O12 0.674256 0.177088 0.574396
#
# Coordination Sequence:
#
# PCOD9114789 Si02
#       6
#     2   2   2   2   2   2
#     4   9  19  32  54  95 137 177 214 287 354 412
#     4  12  27  45  66 106 152 187 231 292 367 427
#     4   9  20  38  66  95 137 179 232 283 348 414
#     4  11  22  38  68 101 133 180 232 296 343 412
#     4  11  19  34  57  97 148 173 226 288 364 411
#     4  10  19  33  59  92 141 176 219 284 360 406
#
# _framework density 29.637573
#
# number of rings (size 3 to 8) (size 9 to 14) (size 15 to 20)
#    1.000    0.667    1.667    5.000    0.000    1.333 
#    0.000    0.000    0.000    0.000    4.333    0.000 
#    0.000    0.000    0.000    0.000    0.000    0.000 
#
# Total GULP energy -66871.591712 kJ/mol
# GULP energy per Si atom -5572.632643 kJ/mol
# Density = 2.957012 g / cm^3
# Si number density = 29.637573 Si / 1000 Ang^3
#
#
#
# Elastic Constant Matrix: (Units=GPa)
#
#
# Indices 1 2 3 4 5 6 
#
# 1 122.9631 55.3209 61.0387 0.0000 -12.6104 0.0000
# 2 55.3209 145.1647 48.4299 0.0000 18.0119 0.0000
# 3 61.0387 48.4299 213.7753 0.0000 14.5494 0.0000
# 4 0.0000 0.0000 0.0000 50.0076 0.0000 14.5520
# 5 -12.6104 18.0119 14.5494 0.0000 62.4045 0.0000
# 6 0.0000 0.0000 0.0000 14.5520 0.0000 86.4333
#
#
#
# Elastic Compliance Matrix: (Units=1/GPa)
#
#
# Indices 1 2 3 4 5 6 
#
# 1 0.011750 -0.004092 -0.002713 0.000000 0.004188 0.000000
# 2 -0.004092 0.009078 -0.000664 0.000000 -0.003292 0.000000
# 3 -0.002713 -0.000664 0.005718 0.000000 -0.001690 0.000000
# 4 0.000000 0.000000 0.000000 0.021027 0.000000 -0.003540
# 5 0.004188 -0.003292 -0.001690 0.000000 0.018215 0.000000
# 6 0.000000 0.000000 0.000000 -0.003540 0.000000 0.012166
#
#
# Mechanical properties :
#
#
# Convention : Reuss Voigt Hill
#
# Bulk Modulus (GPa) = 86.15145 90.16468 88.15807
# Shear Modulus (GPa) = 51.67347 60.90997 56.29172
#
# Velocity S-wave (km/s) = 4.18007 4.53831 4.36287
# Velocity P-wave (km/s) = 7.24077 7.61250 7.42896
#
# Compressibility (1/GPa) = 0.01160747
#
# Stress axis : x y z
#
# Youngs Moduli (GPa) = 85.10790 110.15209 174.89132
#
# Poissons Ratio (x) = 0.45078 0.47445
# Poissons Ratio (y) = 0.34829 0.11615
# Poissons Ratio (z) = 0.23088 0.07315
#
# Static dielectric constant tensor:
#      x y z
#    x 2.341200 0.000000 0.050700 
#    y 0.000000 3.236700 0.000000 
#    z 0.050700 0.000000 2.475000 
# 
# From -- ./inp_files/8981.got.cif
#   From: 2010.05.17/outbox.cif.g08.bks.cpg/sg4_5_cif.got.tgz:8981.got - 2010.06.03 18:43:04.
