data_PCOD9114109
_publ_section_title
;
Structure prediction by ZEFSAII (Michael W. Deem and Ramdas Pophale) SiO2 
 PCOD9114109
Probable space group: P 2
;
_chemical_formula_sum "Si O2"
_cell_formula_units_Z 12
_cell_length_a 15.665818
_cell_length_b 5.827697
_cell_length_c 8.678786
_cell_angle_alpha 90.000000
_cell_angle_beta 39.791621
_cell_angle_gamma 90.000000
_cell_volume 507.092500
_symmetry_space_group_name_H-M "P 2"
_symmetry_group_IT_number 3
_symmetry_cell_setting 'monoclinic'
loop_
_space_group_symop_operation_xyz
x,y,z
-x,y,-z
loop_
_atom_site_type_symbol
_atom_site_label
_atom_site_fract_x
_atom_site_fract_y
_atom_site_fract_z
Si Si1 0.977503 0.117470 0.363770
Si Si2 0.500000 0.098816 0.000000
Si Si3 0.742677 0.450792 0.662493
Si Si4 0.604368 0.766980 0.103878
Si Si5 0.138528 0.778670 0.732451
Si Si6 0.254864 0.084614 0.841534
Si Si7 0.500000 0.426188 0.500000
O O1 0.878673 0.329114 0.523714
O O2 0.000000 0.009116 0.500000
O O3 0.907860 0.941295 0.343731
O O4 0.117198 0.191738 0.094518
O O5 0.628734 0.259330 0.808639
O O6 0.486247 0.937956 0.870050
O O7 0.773241 0.577485 0.460363
O O8 0.692812 0.631156 0.857814
O O9 0.525477 0.585862 0.317146
O O10 0.692186 0.916491 0.098346
O O11 0.216751 0.932608 0.747020
O O12 0.000000 0.691802 0.000000
O O13 0.370791 0.267597 0.654408
#
# Coordination Sequence:
#
# PCOD9114109 Si02
#       7
#     2   1   2   2   2   2   1
#     4  11  24  46  74 106 147 192 246 301 357 430
#     4  12  28  50  72 108 150 192 248 304 358 430
#     4  12  27  48  76 107 146 199 243 294 367 435
#     4  12  28  48  75 109 148 192 244 305 361 431
#     4  10  26  48  75 109 149 191 242 304 362 429
#     4  11  27  50  73 111 151 187 242 306 363 431
#     4  12  28  50  78 106 144 196 242 298 372 436
#
# _framework density 23.664321000000001
#
# number of rings (size 3 to 8) (size 9 to 14) (size 15 to 20)
#    0.000    0.667    0.000    6.000    0.000   22.667 
#    0.000    3.333    0.000    0.000    0.000    0.000 
#    0.000    0.000    0.000    0.000    0.000    0.000 
#
# Total GULP energy -67383.262165 kJ/mol
# GULP energy per Si atom -5615.271847 kJ/mol
# Density = 2.361046 g / cm^3
# Si number density = 23.664321 Si / 1000 Ang^3
#
#
#
# Elastic Constant Matrix: (Units=GPa)
#
#
# Indices 1 2 3 4 5 6 
#
# 1 177.2001 67.9603 67.0162 0.0000 8.1120 0.0000
# 2 67.9603 121.3657 92.8552 0.0000 -5.7227 0.0000
# 3 67.0162 92.8552 181.3880 0.0000 -7.3999 0.0000
# 4 0.0000 0.0000 0.0000 661.4147 0.0000 -128.7198
# 5 8.1120 -5.7227 -7.3999 0.0000 46.5866 0.0000
# 6 0.0000 0.0000 0.0000 -128.7198 0.0000 60.6711
#
#
#
# Elastic Compliance Matrix: (Units=1/GPa)
#
#
# Indices 1 2 3 4 5 6 
#
# 1 0.007456 -0.003448 -0.001067 0.000000 -0.001891 0.000000
# 2 -0.003448 0.015154 -0.006425 0.000000 0.001441 0.000000
# 3 -0.001067 -0.006425 0.009231 0.000000 0.000863 0.000000
# 4 0.000000 0.000000 0.000000 0.002575 0.000000 0.005463
# 5 -0.001891 0.001441 0.000863 0.000000 0.022109 0.000000
# 6 0.000000 0.000000 0.000000 0.005463 0.000000 0.028074
#
#
# Mechanical properties :
#
#
# Convention : Reuss Voigt Hill
#
# Bulk Modulus (GPa) = 100.38232 103.95746 102.16989
# Shear Modulus (GPa) = 45.53827 170.54262 108.04044
#
# Velocity S-wave (km/s) = 4.39149 8.49846 6.76421
# Velocity P-wave (km/s) = 8.25984 11.84584 10.21149
#
# Compressibility (1/GPa) = 0.00996191
#
# Stress axis : x y z
#
# Youngs Moduli (GPa) = 134.12536 65.99031 108.32761
#
# Poissons Ratio (x) = 0.22753 0.11555
# Poissons Ratio (y) = 0.46246 0.69597
# Poissons Ratio (z) = 0.14307 0.42397
#
# Static dielectric constant tensor:
#      x y z
#    x 1.872020 0.000000 -0.007570 
#    y 0.000000 1.866990 0.000000 
#    z -0.007570 0.000000 1.868410 
# 
# From -- ./inp_files/8161.got.cif
#   From: 2010.05.17/outbox.cif.g08.bks.cpg/sg3_5_cif.got.tgz:8161.got - 2010.06.03 18:33:08.
