data_PCOD9114055
_publ_section_title
;
Structure prediction by ZEFSAII (Michael W. Deem and Ramdas Pophale) SiO2 
 PCOD9114055
Probable space group: P 2
;
_chemical_formula_sum "Si O2"
_cell_formula_units_Z 12
_cell_length_a 12.816293
_cell_length_b 5.253730
_cell_length_c 7.331595
_cell_angle_alpha 90.000000
_cell_angle_beta 73.551317
_cell_angle_gamma 90.000000
_cell_volume 473.457105
_symmetry_space_group_name_H-M "P 2"
_symmetry_group_IT_number 3
_symmetry_cell_setting 'monoclinic'
loop_
_space_group_symop_operation_xyz
x,y,z
-x,y,-z
loop_
_atom_site_type_symbol
_atom_site_label
_atom_site_fract_x
_atom_site_fract_y
_atom_site_fract_z
Si Si1 0.431056 0.109810 0.298502
Si Si2 0.951566 0.039689 0.228727
Si Si3 0.726126 0.459487 0.787019
Si Si4 0.424271 0.612475 0.816662
Si Si5 0.278074 0.790955 0.581550
Si Si6 0.037744 0.539261 0.192835
O O1 0.326802 0.183437 0.225156
O O2 0.498763 0.371202 0.265123
O O3 0.508026 0.874191 0.212350
O O4 0.368523 0.010397 0.507025
O O5 0.832065 0.922868 0.297767
O O6 0.025758 0.820540 0.279911
O O7 0.959522 0.319651 0.309711
O O8 0.000000 0.077135 0.000000
O O9 0.735756 0.623745 0.595723
O O10 0.840616 0.446641 0.833427
O O11 0.638413 0.583826 0.963938
O O12 0.331188 0.618778 0.709752
O O13 0.000000 0.573654 0.000000
#
# Coordination Sequence:
#
# PCOD9114055 Si02
#       6
#     2   2   2   2   2   2
#     4  12  30  50  79 124 161 214 276 326 404 490
#     4  10  24  49  78 109 150 203 261 326 404 471
#     4  12  30  51  82 120 160 214 276 334 408 489
#     4  12  30  52  83 114 173 216 264 338 408 488
#     4  12  30  51  82 120 160 214 276 334 408 489
#     4  10  24  49  78 109 150 203 261 326 404 471
#
# _framework density 25.345488
#
# number of rings (size 3 to 8) (size 9 to 14) (size 15 to 20)
#    0.000    0.667    1.667    3.000   14.000    3.333 
#    0.000    0.000    0.000    0.000    0.000    0.000 
#    0.000    0.000    0.000    0.000    0.000    0.000 
#
# Total GULP energy -67182.379616 kJ/mol
# GULP energy per Si atom -5598.531635 kJ/mol
# Density = 2.528780 g / cm^3
# Si number density = 25.345488 Si / 1000 Ang^3
#
#
#
# Elastic Constant Matrix: (Units=GPa)
#
#
# Indices 1 2 3 4 5 6 
#
# 1 83.3362 5.5376 33.9722 0.0000 4.5092 0.0000
# 2 5.5376 149.9507 13.7261 0.0000 -3.1334 0.0000
# 3 33.9722 13.7261 130.5907 0.0000 -1.3368 0.0000
# 4 0.0000 0.0000 0.0000 -41.3746 0.0000 35.5127
# 5 4.5092 -3.1334 -1.3368 0.0000 51.4734 0.0000
# 6 0.0000 0.0000 0.0000 35.5127 0.0000 15.4415
#
#
#
# Elastic Compliance Matrix: (Units=1/GPa)
#
#
# Indices 1 2 3 4 5 6 
#
# 1 0.013512 -0.000205 -0.003507 0.000000 -0.001287 0.000000
# 2 -0.000205 0.006745 -0.000651 0.000000 0.000412 0.000000
# 3 -0.003507 -0.000651 0.008643 0.000000 0.000492 0.000000
# 4 0.000000 0.000000 0.000000 -0.008127 0.000000 0.018691
# 5 -0.001287 0.000412 0.000492 0.000000 0.019578 0.000000
# 6 0.000000 0.000000 0.000000 0.018691 0.000000 0.021776
#
#
# Mechanical properties :
#
#
# Convention : Reuss Voigt Hill
#
# Bulk Modulus (GPa) = 49.56835 52.26103 50.91469
# Shear Modulus (GPa) = 64.45121 25.81752 45.13436
#
# Velocity S-wave (km/s) = 5.04819 3.19505 4.22449
# Velocity P-wave (km/s) = 7.31974 5.85452 6.62774
#
# Compressibility (1/GPa) = 0.02017416
#
# Stress axis : x y z
#
# Youngs Moduli (GPa) = 74.00604 148.26555 115.69678
#
# Poissons Ratio (x) = 0.03038 0.40572
# Poissons Ratio (y) = 0.01516 0.07536
# Poissons Ratio (z) = 0.25952 0.09658
#
# Static dielectric constant tensor:
#      x y z
#    x 2.125180 0.000000 1.270260 
#    y 0.000000 2.043180 0.000000 
#    z 1.270260 0.000000 13.486560 
# 
# From -- ./inp_files/6597.got.cif
#   From: 2010.05.17/outbox.cif.g08.bks.cpg/sg3_4_cif.got.tgz:6597.got - 2010.06.03 18:33:08.
