data_PCOD9114606
_publ_section_title
;
Structure prediction by ZEFSAII (Michael W. Deem and Ramdas Pophale) SiO2 
 PCOD9114606
Probable space group: P 21
;
_chemical_formula_sum "Si O2"
_cell_formula_units_Z 14
_cell_length_a 12.547806
_cell_length_b 7.826309
_cell_length_c 11.509920
_cell_angle_alpha 90.000000
_cell_angle_beta 32.299258
_cell_angle_gamma 90.000000
_cell_volume 603.970766
_symmetry_space_group_name_H-M "P 21"
_symmetry_group_IT_number 4
_symmetry_cell_setting 'monoclinic'
loop_
_space_group_symop_operation_xyz
x,y,z
-x,1/2+y,-z
loop_
_atom_site_type_symbol
_atom_site_label
_atom_site_fract_x
_atom_site_fract_y
_atom_site_fract_z
Si Si1 0.841543 0.058740 0.515647
Si Si2 0.727554 0.451855 0.935610
Si Si3 0.607813 0.021735 0.316406
Si Si4 0.303297 0.178340 0.422309
Si Si5 0.875635 0.075274 0.875877
Si Si6 0.417528 0.520662 0.028718
Si Si7 0.466249 0.654101 0.365100
O O1 0.731684 0.184969 0.528941
O O2 0.766401 0.871604 0.539632
O O3 0.747165 0.094021 0.728569
O O4 0.078689 0.051102 0.290677
O O5 0.566094 0.428992 0.981806
O O6 0.798784 0.266276 0.912945
O O7 0.621152 0.554887 0.138231
O O8 0.454143 0.148132 0.390467
O O9 0.823135 0.052528 0.059093
O O10 0.592953 0.048611 0.466240
O O11 0.548281 0.831687 0.335691
O O12 0.420804 0.113697 0.201417
O O13 0.104428 0.072003 0.632155
O O14 0.734269 0.949026 0.929799
#
# Coordination Sequence:
#
# PCOD9114606 Si02
#       7
#     2   2   2   2   2   2   2
#     4  10  22  40  61  86 118 156 197 241 289 342
#     4  10  22  40  61  86 118 156 197 241 289 342
#     4  11  23  40  62  87 117 152 193 241 293 349
#     4  10  22  40  61  86 118 156 197 241 289 342
#     4  10  22  40  61  86 118 156 197 241 289 342
#     4  10  18  34  58  88 120 150 188 232 284 340
#     4  11  23  40  62  87 117 152 193 241 293 349
#
# _framework density 23.179929999999999
#
# number of rings (size 3 to 8) (size 9 to 14) (size 15 to 20)
#    0.000    1.714    0.000    6.000    0.000   11.429 
#    0.000    0.000    0.000    0.000    0.000    0.000 
#    0.000    0.000    0.000    0.000    0.000    0.000 
#
# Total GULP energy -78184.753391 kJ/mol
# GULP energy per Si atom -5584.625242 kJ/mol
# Density = 2.312717 g / cm^3
# Si number density = 23.179930 Si / 1000 Ang^3
#
#
#
# Elastic Constant Matrix: (Units=GPa)
#
#
# Indices 1 2 3 4 5 6 
#
# 1 51.9614 -3.2723 66.1997 0.0000 15.0350 0.0000
# 2 -3.2723 62.6473 36.5678 0.0000 6.7820 0.0000
# 3 66.1997 36.5678 222.0545 0.0000 -5.9298 0.0000
# 4 0.0000 0.0000 0.0000 26.9739 0.0000 -1.3775
# 5 15.0350 6.7820 -5.9298 0.0000 47.9264 0.0000
# 6 0.0000 0.0000 0.0000 -1.3775 0.0000 20.6107
#
#
#
# Elastic Compliance Matrix: (Units=1/GPa)
#
#
# Indices 1 2 3 4 5 6 
#
# 1 0.047271 0.014432 -0.016976 0.000000 -0.018972 0.000000
# 2 0.014432 0.022468 -0.008236 0.000000 -0.008726 0.000000
# 3 -0.016976 -0.008236 0.011131 0.000000 0.007868 0.000000
# 4 0.000000 0.000000 0.000000 0.037200 0.000000 0.002486
# 5 -0.018972 -0.008726 0.007868 0.000000 0.029025 0.000000
# 6 0.000000 0.000000 0.000000 0.002486 0.000000 0.048685
#
#
# Mechanical properties :
#
#
# Convention : Reuss Voigt Hill
#
# Bulk Modulus (GPa) = 16.86032 59.51709 38.18871
# Shear Modulus (GPa) = 21.08734 34.91338 28.00036
#
# Velocity S-wave (km/s) = 3.01944 3.88518 3.47934
# Velocity P-wave (km/s) = 4.40970 6.77185 5.71417
#
# Compressibility (1/GPa) = 0.05931084
#
# Stress axis : x y z
#
# Youngs Moduli (GPa) = 21.15456 44.50768 89.84179
#
# Poissons Ratio (x) = -0.64234 1.52515
# Poissons Ratio (y) = -0.30530 0.73990
# Poissons Ratio (z) = 0.35912 0.36655
#
# Static dielectric constant tensor:
#      x y z
#    x 1.869190 0.000000 -0.016100 
#    y 0.000000 2.001710 0.000000 
#    z -0.016100 0.000000 1.847170 
# 
# From -- ./inp_files/12535.got.cif
#   From: 2010.05.17/outbox.cif.g08.bks.cpg/sg4_7_cif.got.tgz:12535.got - 2010.06.03 18:43:04.
