data_PCOD9114604
_publ_section_title
;
Structure prediction by ZEFSAII (Michael W. Deem and Ramdas Pophale) SiO2 
 PCOD9114604
Probable space group: P 21
;
_chemical_formula_sum "Si O2"
_cell_formula_units_Z 16
_cell_length_a 16.097167
_cell_length_b 6.601525
_cell_length_c 25.398023
_cell_angle_alpha 90.000000
_cell_angle_beta 161.788134
_cell_angle_gamma 90.000000
_cell_volume 843.504961
_symmetry_space_group_name_H-M "P 21"
_symmetry_group_IT_number 4
_symmetry_cell_setting 'monoclinic'
loop_
_space_group_symop_operation_xyz
x,y,z
-x,1/2+y,-z
loop_
_atom_site_type_symbol
_atom_site_label
_atom_site_fract_x
_atom_site_fract_y
_atom_site_fract_z
Si Si1 0.780996 0.995610 0.285933
Si Si2 0.226294 0.200495 0.164448
Si Si3 0.391949 0.998558 0.668791
Si Si4 0.616867 0.811005 0.906234
Si Si5 0.544133 0.806104 0.381615
Si Si6 0.525995 0.114321 0.941145
Si Si7 0.936190 0.071015 0.882994
Si Si8 0.148338 0.795851 0.769335
O O1 0.624387 0.787664 0.182464
O O2 0.620770 0.150971 0.226429
O O3 0.806410 0.114099 0.245495
O O4 0.079068 0.956075 0.485155
O O5 0.458683 0.339161 0.279336
O O6 0.071876 0.329634 0.115416
O O7 0.367174 0.005003 0.271850
O O8 0.033239 0.142628 0.999920
O O9 0.419738 0.213117 0.655653
O O10 0.533513 0.963561 0.809410
O O11 0.654771 0.946249 0.980734
O O12 0.866339 0.676602 0.038444
O O13 0.363313 0.648275 0.304825
O O14 0.834644 0.838180 0.579972
O O15 0.310483 0.990637 0.846244
O O16 0.734468 0.222313 0.104959
#
# Coordination Sequence:
#
# PCOD9114604 Si02
#       8
#     2   2   2   2   2   2   2   2
#     4  10  21  38  57  87 121 158 193 243 303 350
#     4  10  18  34  58  84 120 160 191 238 292 349
#     4   9  21  36  53  90 125 149 194 241 288 365
#     4  10  24  36  56  91 124 160 192 235 307 363
#     4  10  20  36  63  88 115 156 203 246 286 342
#     4  11  21  39  64  84 117 159 194 251 303 347
#     4  10  20  36  55  87 123 158 196 235 290 359
#     4  10  21  39  64  89 111 150 213 253 287 355
#
# _framework density 18.968471999999998
#
# number of rings (size 3 to 8) (size 9 to 14) (size 15 to 20)
#    0.000    2.000    2.500    0.750    1.750    3.000 
#    2.250    0.000    2.750    0.000    0.000    0.000 
#    0.000    0.000    0.000    0.000    0.000    0.000 
#
# Total GULP energy -89302.699071 kJ/mol
# GULP energy per Si atom -5581.418692 kJ/mol
# Density = 1.892530 g / cm^3
# Si number density = 18.968472 Si / 1000 Ang^3
#
#
#
# Elastic Constant Matrix: (Units=GPa)
#
#
# Indices 1 2 3 4 5 6 
#
# 1 47.5167 16.3953 29.4747 0.0000 8.3427 0.0000
# 2 16.3953 91.9406 30.6529 0.0000 -1.8834 0.0000
# 3 29.4747 30.6529 95.3435 0.0000 11.8850 0.0000
# 4 0.0000 0.0000 0.0000 29.8737 0.0000 7.0142
# 5 8.3427 -1.8834 11.8850 0.0000 14.4364 0.0000
# 6 0.0000 0.0000 0.0000 7.0142 0.0000 19.5830
#
#
#
# Elastic Compliance Matrix: (Units=1/GPa)
#
#
# Indices 1 2 3 4 5 6 
#
# 1 0.028003 -0.003158 -0.006210 0.000000 -0.011482 0.000000
# 2 -0.003158 0.012923 -0.004030 0.000000 0.006829 0.000000
# 3 -0.006210 -0.004030 0.014845 0.000000 -0.009159 0.000000
# 4 0.000000 0.000000 0.000000 0.036548 0.000000 -0.013091
# 5 -0.011482 0.006829 -0.009159 0.000000 0.084336 0.000000
# 6 0.000000 0.000000 0.000000 -0.013091 0.000000 0.055754
#
#
# Mechanical properties :
#
#
# Convention : Reuss Voigt Hill
#
# Bulk Modulus (GPa) = 34.51214 43.09409 38.80312
# Shear Modulus (GPa) = 18.59673 23.33046 20.96359
#
# Velocity S-wave (km/s) = 3.13453 3.51088 3.32803
# Velocity P-wave (km/s) = 5.59771 6.26124 5.93875
#
# Compressibility (1/GPa) = 0.02897531
#
# Stress axis : x y z
#
# Youngs Moduli (GPa) = 35.71016 77.38045 67.36086
#
# Poissons Ratio (x) = 0.24440 0.41833
# Poissons Ratio (y) = 0.11279 0.27144
# Poissons Ratio (z) = 0.22177 0.31181
#
# Static dielectric constant tensor:
#      x y z
#    x 1.657040 0.000000 0.017960 
#    y 0.000000 1.677020 0.000000 
#    z 0.017960 0.000000 1.640580 
# 
# From -- ./inp_files/11700.got.cif
#   From: 2010.05.17/outbox.cif.g08.bks.cpg/sg4_6_cif.got.tgz:11700.got - 2010.06.03 18:43:04.
