data_PCOD9114945
_publ_section_title
;
Structure prediction by ZEFSAII (Michael W. Deem and Ramdas Pophale) SiO2 
 PCOD9114945
Probable space group: P 21
;
_chemical_formula_sum "Si O2"
_cell_formula_units_Z 14
_cell_length_a 33.198803
_cell_length_b 5.061289
_cell_length_c 26.401479
_cell_angle_alpha 90.000000
_cell_angle_beta 9.330022
_cell_angle_gamma 90.000000
_cell_volume 719.201871
_symmetry_space_group_name_H-M "P 21"
_symmetry_group_IT_number 4
_symmetry_cell_setting 'monoclinic'
loop_
_space_group_symop_operation_xyz
x,y,z
-x,1/2+y,-z
loop_
_atom_site_type_symbol
_atom_site_label
_atom_site_fract_x
_atom_site_fract_y
_atom_site_fract_z
Si Si1 0.662229 0.917270 0.303439
Si Si2 0.654656 0.425173 0.156259
Si Si3 0.069282 0.373904 0.561293
Si Si4 0.304352 0.867916 0.322680
Si Si5 0.149805 0.251886 0.820115
Si Si6 0.110230 0.436293 0.391657
Si Si7 0.881188 0.920616 0.926308
O O1 0.438608 0.714884 0.568655
O O2 0.761694 0.826954 0.233779
O O3 0.858661 0.891320 0.014208
O O4 0.370649 0.334558 0.508169
O O5 0.694288 0.712082 0.131637
O O6 0.805054 0.412220 0.917268
O O7 0.793664 0.213589 0.019909
O O8 0.251127 0.598331 0.358464
O O9 0.041100 0.397964 0.536386
O O10 0.188000 0.098186 0.432030
O O11 0.143501 0.866134 0.574002
O O12 0.590847 0.914191 0.979358
O O13 0.919204 0.445721 0.096077
O O14 0.014614 0.712133 0.488074
#
# Coordination Sequence:
#
# PCOD9114945 Si02
#       7
#     2   2   2   2   2   2   2
#     4  12  21  38  63  82 114 155 200 238 286 339
#     4  10  20  38  61  83 116 148 200 241 282 339
#     4  10  21  40  66  86 109 160 200 235 278 344
#     4  10  21  39  65  87 114 151 204 235 274 353
#     4  12  24  38  55  87 121 155 191 237 295 348
#     4  12  24  40  60  91 128 150 181 239 301 346
#     4  10  19  37  62  88 106 149 204 249 272 325
#
# _framework density 19.466021999999999
#
# number of rings (size 3 to 8) (size 9 to 14) (size 15 to 20)
#    0.000    1.143    2.857    4.286    0.000    0.000 
#    5.143    0.000    0.000    0.000    0.000    0.000 
#    0.000    0.000    0.000    0.000    0.000    0.000 
#
# Total GULP energy -78244.910560 kJ/mol
# GULP energy per Si atom -5588.922183 kJ/mol
# Density = 1.942172 g / cm^3
# Si number density = 19.466022 Si / 1000 Ang^3
#
#
#
# Elastic Constant Matrix: (Units=GPa)
#
#
# Indices 1 2 3 4 5 6 
#
# 1 72.4714 -9.2669 34.1579 0.0000 19.5544 0.0000
# 2 -9.2669 50.1665 -15.9886 0.0000 5.5384 0.0000
# 3 34.1579 -15.9886 81.3218 0.0000 15.7709 0.0000
# 4 0.0000 0.0000 0.0000 24.3580 0.0000 -5.1068
# 5 19.5544 5.5384 15.7709 0.0000 23.9071 0.0000
# 6 0.0000 0.0000 0.0000 -5.1068 0.0000 22.8143
#
#
#
# Elastic Compliance Matrix: (Units=1/GPa)
#
#
# Indices 1 2 3 4 5 6 
#
# 1 0.020549 0.003741 -0.005124 0.000000 -0.014294 0.000000
# 2 0.003741 0.023700 0.005443 0.000000 -0.012141 0.000000
# 3 -0.005124 0.005443 0.017144 0.000000 -0.008380 0.000000
# 4 0.000000 0.000000 0.000000 0.043076 0.000000 0.009642
# 5 -0.014294 -0.012141 -0.008380 0.000000 0.061861 0.000000
# 6 0.000000 0.000000 0.000000 0.009642 0.000000 0.045990
#
#
# Mechanical properties :
#
#
# Convention : Reuss Voigt Hill
#
# Bulk Modulus (GPa) = 14.38589 24.64051 19.51320
# Shear Modulus (GPa) = 21.99059 27.21969 24.60514
#
# Velocity S-wave (km/s) = 3.36473 3.74347 3.55914
# Velocity P-wave (km/s) = 4.74358 5.60093 5.18999
#
# Compressibility (1/GPa) = 0.06951254
#
# Stress axis : x y z
#
# Youngs Moduli (GPa) = 48.66492 42.19476 58.32936
#
# Poissons Ratio (x) = -0.15785 0.29885
# Poissons Ratio (y) = -0.18205 -0.31747
# Poissons Ratio (z) = 0.24934 -0.22965
#
# Static dielectric constant tensor:
#      x y z
#    x 1.645140 0.000000 0.025010 
#    y 0.000000 1.675440 0.000000 
#    z 0.025010 0.000000 1.706770 
# 
# From -- ./inp_files/15879.got.cif
#   From: 2010.05.17/outbox.cif.g08.bks.cpg/sg4_8_cif.got.tgz:15879.got - 2010.06.03 18:43:04.
