data_PCOD9114520
_publ_section_title
;
Structure prediction by ZEFSAII (Michael W. Deem and Ramdas Pophale) SiO2 
 PCOD9114520
Probable space group: P 21
;
_chemical_formula_sum "Si O2"
_cell_formula_units_Z 14
_cell_length_a 11.983880
_cell_length_b 7.101666
_cell_length_c 11.925341
_cell_angle_alpha 90.000000
_cell_angle_beta 33.753201
_cell_angle_gamma 90.000000
_cell_volume 563.902188
_symmetry_space_group_name_H-M "P 21"
_symmetry_group_IT_number 4
_symmetry_cell_setting 'monoclinic'
loop_
_space_group_symop_operation_xyz
x,y,z
-x,1/2+y,-z
loop_
_atom_site_type_symbol
_atom_site_label
_atom_site_fract_x
_atom_site_fract_y
_atom_site_fract_z
Si Si1 0.357116 0.873400 0.003043
Si Si2 0.340881 0.687694 0.251455
Si Si3 0.549987 0.839812 0.277373
Si Si4 0.126781 0.962571 0.748276
Si Si5 0.358603 0.891355 0.758866
Si Si6 0.779479 0.878012 0.294086
Si Si7 0.001461 0.657318 0.716328
O O1 0.325828 0.746572 0.136086
O O2 0.193574 0.039587 0.148560
O O3 0.336959 0.790508 0.895573
O O4 0.570919 0.977245 0.821862
O O5 0.489848 0.829673 0.195979
O O6 0.137037 0.685178 0.493514
O O7 0.338786 0.910685 0.508198
O O8 0.599608 0.616088 0.256515
O O9 0.721896 0.931540 0.213823
O O10 0.166906 0.882984 0.839151
O O11 0.964654 0.854964 0.809002
O O12 0.106148 0.183694 0.779178
O O13 0.558757 0.829205 0.529119
O O14 0.877823 0.037808 0.289127
#
# Coordination Sequence:
#
# PCOD9114520 Si02
#       7
#     2   2   2   2   2   2   2
#     4  11  24  44  68  90 134 176 215 275 321 377
#     4  10  23  47  64  91 133 174 223 265 319 388
#     4   8  16  34  62  91 125 169 209 256 319 384
#     4   9  18  34  65  99 127 168 211 260 334 387
#     4   9  17  37  62  96 135 165 213 264 322 390
#     4  10  17  35  70  94 129 166 207 267 332 387
#     4  11  23  45  65  95 133 166 218 279 319 387
#
# _framework density 24.826999000000001
#
# number of rings (size 3 to 8) (size 9 to 14) (size 15 to 20)
#    0.000    2.286    4.286    0.000    2.000    3.429 
#   15.429    0.000    0.000    0.000    0.000    0.000 
#    0.000    0.000    0.000    0.000    0.000    0.000 
#
# Total GULP energy -78261.037159 kJ/mol
# GULP energy per Si atom -5590.074083 kJ/mol
# Density = 2.477049 g / cm^3
# Si number density = 24.826999 Si / 1000 Ang^3
#
#
#
# Elastic Constant Matrix: (Units=GPa)
#
#
# Indices 1 2 3 4 5 6 
#
# 1 52.6639 2.1961 25.3437 0.0000 25.8209 0.0000
# 2 2.1961 50.9947 2.7128 0.0000 11.2303 0.0000
# 3 25.3437 2.7128 96.2942 0.0000 26.7260 0.0000
# 4 0.0000 0.0000 0.0000 32.1698 0.0000 4.3094
# 5 25.8209 11.2303 26.7260 0.0000 49.5857 0.0000
# 6 0.0000 0.0000 0.0000 4.3094 0.0000 45.0746
#
#
#
# Elastic Compliance Matrix: (Units=1/GPa)
#
#
# Indices 1 2 3 4 5 6 
#
# 1 0.026728 0.001762 -0.003658 0.000000 -0.012346 0.000000
# 2 0.001762 0.020814 0.000603 0.000000 -0.005957 0.000000
# 3 -0.003658 0.000603 0.012747 0.000000 -0.005102 0.000000
# 4 0.000000 0.000000 0.000000 0.031488 0.000000 -0.003010
# 5 -0.012346 -0.005957 -0.005102 0.000000 0.030695 0.000000
# 6 0.000000 0.000000 0.000000 -0.003010 0.000000 0.022473
#
#
# Mechanical properties :
#
#
# Convention : Reuss Voigt Hill
#
# Bulk Modulus (GPa) = 17.32980 28.93978 23.13479
# Shear Modulus (GPa) = 29.98242 36.67937 33.33089
#
# Velocity S-wave (km/s) = 3.47890 3.84786 3.66802
# Velocity P-wave (km/s) = 4.80961 5.60565 5.22282
#
# Compressibility (1/GPa) = 0.05770406
#
# Stress axis : x y z
#
# Youngs Moduli (GPa) = 37.41364 48.04523 78.45229
#
# Poissons Ratio (x) = -0.08468 0.28695
# Poissons Ratio (y) = -0.06594 -0.04731
# Poissons Ratio (z) = 0.13685 -0.02897
#
# Static dielectric constant tensor:
#      x y z
#    x 1.970300 0.000000 -0.007380 
#    y 0.000000 1.982570 0.000000 
#    z -0.007380 0.000000 2.018360 
# 
# From -- ./inp_files/11832.got.cif
#   From: 2010.05.17/outbox.cif.g08.bks.cpg/sg4_6_cif.got.tgz:11832.got - 2010.06.03 18:43:04.
