data_PCOD9114962
_publ_section_title
;
Structure prediction by ZEFSAII (Michael W. Deem and Ramdas Pophale) SiO2 
 PCOD9114962
Probable space group: P 21
;
_chemical_formula_sum "Si O2"
_cell_formula_units_Z 14
_cell_length_a 7.654367
_cell_length_b 9.163442
_cell_length_c 12.946069
_cell_angle_alpha 90.000000
_cell_angle_beta 37.274489
_cell_angle_gamma 90.000000
_cell_volume 549.941119
_symmetry_space_group_name_H-M "P 21"
_symmetry_group_IT_number 4
_symmetry_cell_setting 'monoclinic'
loop_
_space_group_symop_operation_xyz
x,y,z
-x,1/2+y,-z
loop_
_atom_site_type_symbol
_atom_site_label
_atom_site_fract_x
_atom_site_fract_y
_atom_site_fract_z
Si Si1 0.256237 0.662090 0.208478
Si Si2 0.909678 0.746418 0.867287
Si Si3 0.440773 0.620209 0.706025
Si Si4 0.057166 0.899845 0.581604
Si Si5 0.520580 0.178044 0.616512
Si Si6 0.928927 0.056517 0.931942
Si Si7 0.732229 0.859394 0.461459
O O1 0.191839 0.522895 0.314437
O O2 0.064099 0.809778 0.307700
O O3 0.588134 0.698158 0.039767
O O4 0.150014 0.599689 0.147383
O O5 0.139811 0.622220 0.785805
O O6 0.959121 0.808368 0.728764
O O7 0.983058 0.884113 0.905610
O O8 0.674608 0.514233 0.545762
O O9 0.340493 0.586963 0.868047
O O10 0.590842 0.776375 0.625475
O O11 0.230664 0.768958 0.441597
O O12 0.414100 0.278250 0.568742
O O13 0.650184 0.026566 0.513850
O O14 0.226372 0.141214 0.815971
#
# Coordination Sequence:
#
# PCOD9114962 Si02
#       7
#     2   2   2   2   2   2   2
#     4   9  22  44  66  92 136 172 227 269 347 404
#     4  11  22  43  67  96 134 177 224 277 334 408
#     4  11  22  41  69  96 136 168 238 284 329 384
#     4  10  23  40  66  97 126 181 225 270 324 414
#     4  11  19  37  65  95 129 172 244 263 325 397
#     4  10  23  40  64 105 132 171 224 286 335 388
#     4  10  19  37  65  93 127 183 220 279 318 415
#
# _framework density 25.457270000000001
#
# number of rings (size 3 to 8) (size 9 to 14) (size 15 to 20)
#    0.000    1.714    2.857    3.429    2.000    2.286 
#    5.143    2.857    6.286    0.000    0.000    0.000 
#    0.000    0.000    0.000    0.000    0.000    0.000 
#
# Total GULP energy -78183.350054 kJ/mol
# GULP energy per Si atom -5584.525004 kJ/mol
# Density = 2.539933 g / cm^3
# Si number density = 25.457270 Si / 1000 Ang^3
#
#
#
# Elastic Constant Matrix: (Units=GPa)
#
#
# Indices 1 2 3 4 5 6 
#
# 1 61.6957 24.6179 25.5808 0.0000 -1.2799 0.0000
# 2 24.6179 146.2043 40.5535 0.0000 -14.8023 0.0000
# 3 25.5808 40.5535 158.2684 0.0000 -44.3498 0.0000
# 4 0.0000 0.0000 0.0000 42.3288 0.0000 -5.5552
# 5 -1.2799 -14.8023 -44.3498 0.0000 36.3256 0.0000
# 6 0.0000 0.0000 0.0000 -5.5552 0.0000 27.8387
#
#
#
# Elastic Compliance Matrix: (Units=1/GPa)
#
#
# Indices 1 2 3 4 5 6 
#
# 1 0.018703 -0.002614 -0.003750 0.000000 -0.004984 0.000000
# 2 -0.002614 0.007755 -0.001072 0.000000 0.001760 0.000000
# 3 -0.003750 -0.001072 0.010701 0.000000 0.012495 0.000000
# 4 0.000000 0.000000 0.000000 0.024260 0.000000 0.004841
# 5 -0.004984 0.001760 0.012495 0.000000 0.043326 0.000000
# 6 0.000000 0.000000 0.000000 0.004841 0.000000 0.036887
#
#
# Mechanical properties :
#
#
# Convention : Reuss Voigt Hill
#
# Bulk Modulus (GPa) = 44.86659 60.85252 52.85956
# Shear Modulus (GPa) = 30.50054 39.65970 35.08012
#
# Velocity S-wave (km/s) = 3.46512 3.95130 3.71617
# Velocity P-wave (km/s) = 5.80276 6.69124 6.26277
#
# Compressibility (1/GPa) = 0.02228830
#
# Stress axis : x y z
#
# Youngs Moduli (GPa) = 53.46758 128.94516 93.45357
#
# Poissons Ratio (x) = 0.33702 0.35044
# Poissons Ratio (y) = 0.13975 0.10014
# Poissons Ratio (z) = 0.20050 0.13817
#
# Static dielectric constant tensor:
#      x y z
#    x 2.137550 0.000000 0.012610 
#    y 0.000000 2.010900 0.000000 
#    z 0.012610 0.000000 1.983880 
# 
# From -- ./inp_files/13638.got.cif
#   From: 2010.05.17/outbox.cif.g08.bks.cpg/sg4_7_cif.got.tgz:13638.got - 2010.06.03 18:43:04.
