data_PCOD9114345
_publ_section_title
;
Structure prediction by ZEFSAII (Michael W. Deem and Ramdas Pophale) SiO2 
 PCOD9114345
Probable space group: P 2
;
_chemical_formula_sum "Si O2"
_cell_formula_units_Z 14
_cell_length_a 11.685974
_cell_length_b 5.325959
_cell_length_c 14.235523
_cell_angle_alpha 90.000000
_cell_angle_beta 40.598442
_cell_angle_gamma 90.000000
_cell_volume 576.570903
_symmetry_space_group_name_H-M "P 2"
_symmetry_group_IT_number 3
_symmetry_cell_setting 'monoclinic'
loop_
_space_group_symop_operation_xyz
x,y,z
-x,y,-z
loop_
_atom_site_type_symbol
_atom_site_label
_atom_site_fract_x
_atom_site_fract_y
_atom_site_fract_z
Si Si1 0.272505 0.785280 0.525311
Si Si2 0.000000 0.668648 0.000000
Si Si3 0.609373 0.122224 0.311407
Si Si4 0.603770 0.334602 0.836914
Si Si5 0.791570 0.811452 0.648754
Si Si6 0.738656 0.321829 0.061908
Si Si7 0.500000 0.540714 0.500000
Si Si8 0.955242 0.031102 0.204752
O O1 0.269298 0.726066 0.418296
O O2 0.297763 0.624869 0.604509
O O3 0.093362 0.934223 0.661712
O O4 0.463639 0.915479 0.421209
O O5 0.834588 0.491636 0.079827
O O6 0.994744 0.832104 0.097640
O O7 0.675004 0.089570 0.165577
O O8 0.513266 0.380149 0.394713
O O9 0.769513 0.126488 0.282519
O O10 0.736810 0.574313 0.749591
O O11 0.438400 0.415557 0.874285
O O12 0.697834 0.074657 0.741267
O O13 0.500000 0.289663 0.000000
O O14 0.000000 0.848615 0.500000
O O15 0.887111 0.230051 0.897192
#
# Coordination Sequence:
#
# PCOD9114345 Si02
#       8
#     2   1   2   2   2   2   1   2
#     4  12  26  41  73 106 150 199 253 315 388 463
#     4  12  24  40  68 106 156 196 250 300 378 464
#     4  12  21  43  60 102 150 190 243 296 374 451
#     4  12  30  56  87 116 154 210 270 338 410 475
#     4  12  30  57  84 117 156 207 273 342 401 476
#     4  12  26  42  72 104 152 197 245 316 384 467
#     4  12  22  38  70 102 146 198 248 298 384 464
#     4  12  24  40  63 108 151 196 248 304 376 473
#
# _framework density 24.281488
#
# number of rings (size 3 to 8) (size 9 to 14) (size 15 to 20)
#    0.000    0.000    7.143    2.571    6.000    1.143 
#    0.000    0.000    0.000    0.000    0.000    0.000 
#    0.000    0.000    0.000    0.000    0.000    0.000 
#
# Total GULP energy -77934.753583 kJ/mol
# GULP energy per Si atom -5566.768113 kJ/mol
# Density = 2.422622 g / cm^3
# Si number density = 24.281488 Si / 1000 Ang^3
#
#
#
# Elastic Constant Matrix: (Units=GPa)
#
#
# Indices 1 2 3 4 5 6 
#
# 1 81.0859 0.2932 19.8912 0.0000 -9.0738 0.0000
# 2 0.2932 44.0777 19.0138 0.0000 -9.1448 0.0000
# 3 19.8912 19.0138 134.6916 0.0000 -7.5472 0.0000
# 4 0.0000 0.0000 0.0000 42.3779 0.0000 2.6209
# 5 -9.0738 -9.1448 -7.5472 0.0000 46.4701 0.0000
# 6 0.0000 0.0000 0.0000 2.6209 0.0000 13.8584
#
#
#
# Elastic Compliance Matrix: (Units=1/GPa)
#
#
# Indices 1 2 3 4 5 6 
#
# 1 0.013091 0.001281 -0.001975 0.000000 0.002487 0.000000
# 2 0.001281 0.025140 -0.003479 0.000000 0.004632 0.000000
# 3 -0.001975 -0.003479 0.008222 0.000000 0.000265 0.000000
# 4 0.000000 0.000000 0.000000 0.023876 0.000000 -0.004516
# 5 0.002487 0.004632 0.000265 0.000000 0.022960 0.000000
# 6 0.000000 0.000000 0.000000 -0.004516 0.000000 0.073013
#
#
# Mechanical properties :
#
#
# Convention : Reuss Voigt Hill
#
# Bulk Modulus (GPa) = 26.24110 37.58352 31.91231
# Shear Modulus (GPa) = 26.68815 35.25174 30.96995
#
# Velocity S-wave (km/s) = 3.31889 3.81438 3.57523
# Velocity P-wave (km/s) = 5.05145 5.90857 5.49674
#
# Compressibility (1/GPa) = 0.03810816
#
# Stress axis : x y z
#
# Youngs Moduli (GPa) = 76.38999 39.77674 121.62655
#
# Poissons Ratio (x) = -0.05095 0.24017
# Poissons Ratio (y) = -0.09784 0.42308
# Poissons Ratio (z) = 0.15084 0.13836
#
# Static dielectric constant tensor:
#      x y z
#    x 1.699500 0.000000 -0.118300 
#    y 0.000000 2.510380 0.000000 
#    z -0.118300 0.000000 2.051750 
# 
# From -- ./inp_files/12043.got.cif
#   From: 2010.05.17/outbox.cif.g08.bks.cpg/sg3_7_cif.got.tgz:12043.got - 2010.06.03 18:33:08.
