data_PCOD9114058
_publ_section_title
;
Structure prediction by ZEFSAII (Michael W. Deem and Ramdas Pophale) SiO2 
 PCOD9114058
Probable space group: P 2
;
_chemical_formula_sum "Si O2"
_cell_formula_units_Z 12
_cell_length_a 14.365176
_cell_length_b 5.089100
_cell_length_c 8.319951
_cell_angle_alpha 90.000000
_cell_angle_beta 137.565560
_cell_angle_gamma 90.000000
_cell_volume 410.405447
_symmetry_space_group_name_H-M "P 2"
_symmetry_group_IT_number 3
_symmetry_cell_setting 'monoclinic'
loop_
_space_group_symop_operation_xyz
x,y,z
-x,y,-z
loop_
_atom_site_type_symbol
_atom_site_label
_atom_site_fract_x
_atom_site_fract_y
_atom_site_fract_z
Si Si1 0.301307 0.243190 0.538748
Si Si2 0.251495 0.978111 0.910200
Si Si3 0.115487 0.539387 0.516915
Si Si4 0.919696 0.809122 0.043085
Si Si5 0.331204 0.394038 0.254151
Si Si6 0.526907 0.738459 0.210109
O O1 0.206103 0.294991 0.572435
O O2 0.274557 0.175864 0.316120
O O3 0.366321 0.529591 0.589830
O O4 0.404417 0.020072 0.724329
O O5 0.199982 0.786644 0.697506
O O6 0.114284 0.979179 0.844228
O O7 0.388996 0.803657 0.130491
O O8 0.309829 0.263751 0.047063
O O9 0.000000 0.470466 0.500000
O O10 0.043066 0.619013 0.259209
O O11 0.784252 0.622589 0.865839
O O12 0.000000 0.947141 0.000000
O O13 0.500000 0.410291 0.500000
O O14 0.500000 0.627445 0.000000
#
# Coordination Sequence:
#
# PCOD9114058 Si02
#       6
#     2   2   2   2   2   2
#     4  12  26  48  80 124 169 226 281 370 438 529
#     4  11  26  48  78 119 162 230 283 366 427 533
#     4  10  24  52  76 119 167 229 297 355 437 530
#     4  11  25  49  82 116 170 223 290 364 446 528
#     4  12  26  47  80 123 163 226 294 365 442 528
#     4  12  26  47  82 121 171 218 293 359 447 514
#
# _framework density 29.239377000000001
#
# number of rings (size 3 to 8) (size 9 to 14) (size 15 to 20)
#    0.000    0.667    5.000    1.500    2.333    2.667 
#    6.000    1.667    0.000    0.000    0.000    0.000 
#    0.000    0.000    0.000    0.000    0.000    0.000 
#
# Total GULP energy -66911.644879 kJ/mol
# GULP energy per Si atom -5575.970407 kJ/mol
# Density = 2.917283 g / cm^3
# Si number density = 29.239377 Si / 1000 Ang^3
#
#
#
# Elastic Constant Matrix: (Units=GPa)
#
#
# Indices 1 2 3 4 5 6 
#
# 1 201.8176 23.7238 20.5661 0.0000 31.1352 0.0000
# 2 23.7238 138.8338 32.3530 0.0000 34.2530 0.0000
# 3 20.5661 32.3530 113.0348 0.0000 11.5181 0.0000
# 4 0.0000 0.0000 0.0000 10.6944 0.0000 -1.4254
# 5 31.1352 34.2530 11.5181 0.0000 53.9995 0.0000
# 6 0.0000 0.0000 0.0000 -1.4254 0.0000 42.4741
#
#
#
# Elastic Compliance Matrix: (Units=1/GPa)
#
#
# Indices 1 2 3 4 5 6 
#
# 1 0.005491 -0.000040 -0.000682 0.000000 -0.002995 0.000000
# 2 -0.000040 0.008974 -0.002028 0.000000 -0.005237 0.000000
# 3 -0.000682 -0.002028 0.009589 0.000000 -0.000366 0.000000
# 4 0.000000 0.000000 0.000000 0.093927 0.000000 0.003152
# 5 -0.002995 -0.005237 -0.000366 0.000000 0.023645 0.000000
# 6 0.000000 0.000000 0.000000 0.003152 0.000000 0.023650
#
#
# Mechanical properties :
#
#
# Convention : Reuss Voigt Hill
#
# Bulk Modulus (GPa) = 53.89868 67.44133 60.67000
# Shear Modulus (GPa) = 28.25479 46.56983 37.41231
#
# Velocity S-wave (km/s) = 3.11195 3.99521 3.58092
# Velocity P-wave (km/s) = 5.60232 6.66315 6.15563
#
# Compressibility (1/GPa) = 0.01855333
#
# Stress axis : x y z
#
# Youngs Moduli (GPa) = 182.10603 111.42941 104.29051
#
# Poissons Ratio (x) = 0.00450 0.07116
# Poissons Ratio (y) = 0.00736 0.21147
# Poissons Ratio (z) = 0.12426 0.22594
#
# Static dielectric constant tensor:
#      x y z
#    x 2.579740 0.000000 -0.470360 
#    y 0.000000 2.281060 0.000000 
#    z -0.470360 0.000000 2.848040 
# 
# From -- ./inp_files/8429.got.cif
#   From: 2010.05.17/outbox.cif.g08.bks.cpg/sg3_5_cif.got.tgz:8429.got - 2010.06.03 18:33:08.
