data_PCOD9114317
_publ_section_title
;
Structure prediction by ZEFSAII (Michael W. Deem and Ramdas Pophale) SiO2 
 PCOD9114317
Probable space group: P 2
;
_chemical_formula_sum "Si O2"
_cell_formula_units_Z 14
_cell_length_a 5.073096
_cell_length_b 4.935370
_cell_length_c 18.577124
_cell_angle_alpha 90.000000
_cell_angle_beta 96.975691
_cell_angle_gamma 90.000000
_cell_volume 461.683732
_symmetry_space_group_name_H-M "P 2"
_symmetry_group_IT_number 3
_symmetry_cell_setting 'monoclinic'
loop_
_space_group_symop_operation_xyz
x,y,z
-x,y,-z
loop_
_atom_site_type_symbol
_atom_site_label
_atom_site_fract_x
_atom_site_fract_y
_atom_site_fract_z
Si Si1 0.335782 0.209900 0.611719
Si Si2 0.500000 0.934878 0.500000
Si Si3 0.736016 0.284874 0.228535
Si Si4 0.000000 0.432966 0.500000
Si Si5 0.111602 0.611911 0.074137
Si Si6 0.395480 0.250778 0.926835
Si Si7 0.008898 0.820727 0.227939
Si Si8 0.233474 0.656818 0.388987
O O1 0.314463 0.151628 0.695887
O O2 0.253713 0.182814 0.517534
O O3 0.557175 0.431724 0.618206
O O4 0.530758 0.931011 0.591231
O O5 0.234408 0.689089 0.480971
O O6 0.591916 0.150762 0.155049
O O7 0.753963 0.606716 0.225090
O O8 0.023989 0.148947 0.226529
O O9 0.955488 0.430443 0.405838
O O10 0.401298 0.501067 0.068889
O O11 0.900098 0.363344 0.072622
O O12 0.107656 0.743754 0.152080
O O13 0.000000 0.767010 0.000000
O O14 0.500000 0.090537 0.000000
O O15 0.125516 0.755154 0.309940
#
# Coordination Sequence:
#
# PCOD9114317 Si02
#       8
#     2   1   2   1   2   2   2   2
#     4  12  26  45  66  98 137 183 242 296 362 430
#     4  12  26  42  68  98 134 180 242 302 358 424
#     4  11  26  46  73 107 143 188 239 298 364 434
#     4  12  22  46  64  90 138 184 232 292 362 430
#     4   9  19  43  76 110 149 194 244 300 366 439
#     4   9  19  43  76 110 149 194 244 300 366 439
#     4  11  26  46  73 107 143 188 239 298 364 434
#     4  12  26  45  66  98 137 183 242 296 362 430
#
# _framework density 30.323788
#
# number of rings (size 3 to 8) (size 9 to 14) (size 15 to 20)
#    0.000    1.143    4.286    0.857    8.000    0.000 
#    0.000   11.429    0.000    0.000    0.000    0.000 
#    0.000    0.000    0.000    0.000    0.000    0.000 
#
# Total GULP energy -78040.451129 kJ/mol
# GULP energy per Si atom -5574.317938 kJ/mol
# Density = 3.025477 g / cm^3
# Si number density = 30.323788 Si / 1000 Ang^3
#
#
#
# Elastic Constant Matrix: (Units=GPa)
#
#
# Indices 1 2 3 4 5 6 
#
# 1 159.9551 45.3018 53.1973 0.0000 -7.2027 0.0000
# 2 45.3018 193.2967 56.3561 0.0000 3.9512 0.0000
# 3 53.1973 56.3561 341.4095 0.0000 13.1727 0.0000
# 4 0.0000 0.0000 0.0000 -15.9771 0.0000 0.8929
# 5 -7.2027 3.9512 13.1727 0.0000 61.3361 0.0000
# 6 0.0000 0.0000 0.0000 0.8929 0.0000 59.2310
#
#
#
# Elastic Compliance Matrix: (Units=1/GPa)
#
#
# Indices 1 2 3 4 5 6 
#
# 1 0.006998 -0.001400 -0.000902 0.000000 0.001106 0.000000
# 2 -0.001400 0.005716 -0.000711 0.000000 -0.000380 0.000000
# 3 -0.000902 -0.000711 0.003216 0.000000 -0.000751 0.000000
# 4 0.000000 0.000000 0.000000 -0.062537 0.000000 0.000943
# 5 0.001106 -0.000380 -0.000751 0.000000 0.016619 0.000000
# 6 0.000000 0.000000 0.000000 0.000943 0.000000 0.016869
#
#
# Mechanical properties :
#
#
# Convention : Reuss Voigt Hill
#
# Bulk Modulus (GPa) = 100.95725 111.59684 106.27704
# Shear Modulus (GPa) = -1318.58819 56.90508 -630.84155
#
# Velocity S-wave (km/s) = -20.87535 4.33665 -14.43907
# Velocity P-wave (km/s) = 23.40246 7.87128 15.58393
#
# Compressibility (1/GPa) = 0.00990518
#
# Stress axis : x y z
#
# Youngs Moduli (GPa) = 142.89913 174.93387 310.95591
#
# Poissons Ratio (x) = 0.24485 0.28049
# Poissons Ratio (y) = 0.20001 0.22104
# Poissons Ratio (z) = 0.12890 0.12435
#
# Static dielectric constant tensor:
#      x y z
#    x 2.985920 0.000000 -0.036470 
#    y 0.000000 2.748150 0.000000 
#    z -0.036470 0.000000 2.345970 
# 
# From -- ./inp_files/14609.got.cif
#   From: 2010.05.17/outbox.cif.g08.bks.cpg/sg3_8_cif.got.tgz:14609.got - 2010.06.03 18:33:08.
