data_PCOD9114881
_publ_section_title
;
Structure prediction by ZEFSAII (Michael W. Deem and Ramdas Pophale) SiO2 
 PCOD9114881
Probable space group: P 21
;
_chemical_formula_sum "Si O2"
_cell_formula_units_Z 12
_cell_length_a 8.828968
_cell_length_b 12.246232
_cell_length_c 5.420475
_cell_angle_alpha 90.000000
_cell_angle_beta 90.000000
_cell_angle_gamma 90.000000
_cell_volume 586.070378
_symmetry_space_group_name_H-M "P 21"
_symmetry_group_IT_number 4
_symmetry_cell_setting 'monoclinic'
loop_
_space_group_symop_operation_xyz
x,y,z
-x,1/2+y,-z
loop_
_atom_site_type_symbol
_atom_site_label
_atom_site_fract_x
_atom_site_fract_y
_atom_site_fract_z
Si Si1 0.291221 0.548000 0.500001
Si Si2 0.626503 0.479933 0.499997
Si Si3 0.534790 0.718147 0.499998
Si Si4 0.775294 0.494875 0.999997
Si Si5 0.320000 0.251948 0.000001
Si Si6 0.134048 0.468005 0.000001
O O1 0.444634 0.474687 0.499996
O O2 0.365222 0.669192 0.499999
O O3 0.201331 0.522615 0.750561
O O4 0.201325 0.522616 0.249445
O O5 0.643758 0.611300 0.499998
O O6 0.702557 0.443495 0.753131
O O7 0.702558 0.443495 0.246863
O O8 0.577957 0.770474 0.758384
O O9 0.577957 0.770474 0.241614
O O10 0.736396 0.625607 0.999998
O O11 0.954266 0.479166 0.999997
O O12 0.187788 0.341688 0.000002
#
# Coordination Sequence:
#
# PCOD9114881 Si02
#       6
#     2   2   2   2   2   2
#     4  10  20  36  58  89 105 147 195 245 279 339
#     4   8  17  34  59  72 108 153 187 207 303 345
#     4   8  17  34  59  73 107 150 190 220 284 354
#     4  10  19  36  57  81 111 161 179 234 283 348
#     4  10  19  36  57  81 113 161 187 222 293 356
#     4  12  22  32  62  90 114 140 208 242 272 330
#
# _framework density 20.475356000000001
#
# number of rings (size 3 to 8) (size 9 to 14) (size 15 to 20)
#    1.000    1.333    0.000    4.000    0.000    0.000 
#    0.000    0.000   22.000    0.000    0.000    0.000 
#    0.000    0.000    0.000    0.000    0.000    0.000 
#
# Total GULP energy -66826.787749 kJ/mol
# GULP energy per Si atom -5568.898979 kJ/mol
# Density = 2.042875 g / cm^3
# Si number density = 20.475356 Si / 1000 Ang^3
#
#
#
# Elastic Constant Matrix: (Units=GPa)
#
#
# Indices 1 2 3 4 5 6 
#
# 1 134.3670 8.3107 73.6159 0.0000 0.2729 0.0000
# 2 8.3107 62.0167 18.0018 0.0000 0.8901 0.0000
# 3 73.6159 18.0018 204.3278 0.0000 6.1586 0.0000
# 4 0.0000 0.0000 0.0000 7.7180 0.0000 -1.6758
# 5 0.2729 0.8901 6.1586 0.0000 32.3919 0.0000
# 6 0.0000 0.0000 0.0000 -1.6758 0.0000 25.9504
#
#
#
# Elastic Compliance Matrix: (Units=1/GPa)
#
#
# Indices 1 2 3 4 5 6 
#
# 1 0.009288 -0.000284 -0.003338 0.000000 0.000564 0.000000
# 2 -0.000284 0.016558 -0.001351 0.000000 -0.000196 0.000000
# 3 -0.003338 -0.001351 0.006250 0.000000 -0.001123 0.000000
# 4 0.000000 0.000000 0.000000 0.131410 0.000000 0.008486
# 5 0.000564 -0.000196 -0.001123 0.000000 0.031086 0.000000
# 6 0.000000 0.000000 0.000000 0.008486 0.000000 0.039083
#
#
# Mechanical properties :
#
#
# Convention : Reuss Voigt Hill
#
# Bulk Modulus (GPa) = 45.14730 66.72980 55.93855
# Shear Modulus (GPa) = 19.92017 33.26426 26.59222
#
# Velocity S-wave (km/s) = 3.12249 4.03501 3.60772
# Velocity P-wave (km/s) = 5.92431 7.37356 6.68830
#
# Compressibility (1/GPa) = 0.02214972
#
# Stress axis : x y z
#
# Youngs Moduli (GPa) = 107.67045 60.39536 160.00956
#
# Poissons Ratio (x) = 0.01714 0.53414
# Poissons Ratio (y) = 0.03055 0.21612
# Poissons Ratio (z) = 0.35942 0.08157
#
# Static dielectric constant tensor:
#      x y z
#    x 1.677660 0.000000 0.005740 
#    y 0.000000 1.801660 0.000000 
#    z 0.005740 0.000000 1.740110 
# 
# From -- ./inp_files/1555.got.cif
#   From: 2010.05.17/outbox.cif.g08.bks.cpg/sg4_1_cif.got.tgz:1555.got - 2010.06.03 18:43:04.
