data_PCOD9114105
_publ_section_title
;
Structure prediction by ZEFSAII (Michael W. Deem and Ramdas Pophale) SiO2 
 PCOD9114105
Probable space group: P 2
;
_chemical_formula_sum "Si O2"
_cell_formula_units_Z 12
_cell_length_a 12.011151
_cell_length_b 6.979997
_cell_length_c 9.721176
_cell_angle_alpha 90.000000
_cell_angle_beta 37.495359
_cell_angle_gamma 90.000000
_cell_volume 496.089400
_symmetry_space_group_name_H-M "P 2"
_symmetry_group_IT_number 3
_symmetry_cell_setting 'monoclinic'
loop_
_space_group_symop_operation_xyz
x,y,z
-x,y,-z
loop_
_atom_site_type_symbol
_atom_site_label
_atom_site_fract_x
_atom_site_fract_y
_atom_site_fract_z
Si Si1 0.300936 0.775180 0.173617
Si Si2 0.655706 0.414661 0.072022
Si Si3 0.707060 0.209783 0.591903
Si Si4 0.217115 0.781705 0.570058
Si Si5 0.500000 0.597815 0.500000
Si Si6 0.000000 0.069278 0.500000
Si Si7 0.020236 0.444685 0.823722
O O1 0.335823 0.596662 0.038824
O O2 0.136943 0.916300 0.288312
O O3 0.251457 0.712287 0.378254
O O4 0.500000 0.873836 0.000000
O O5 0.863804 0.348188 0.885791
O O6 0.502866 0.262621 0.177238
O O7 0.605325 0.480606 0.277550
O O8 0.784002 0.373269 0.417946
O O9 0.755803 0.008076 0.473125
O O10 0.843771 0.200556 0.586280
O O11 0.360152 0.723430 0.547515
O O12 0.030015 0.674773 0.796478
O O13 0.000000 0.391354 0.000000
#
# Coordination Sequence:
#
# PCOD9114105 Si02
#       7
#     2   2   2   2   1   1   2
#     4  11  22  44  76 106 141 193 250 297 366 438
#     4  12  24  44  79 107 145 194 246 302 368 436
#     4  11  26  48  71 109 148 189 246 309 365 435
#     4  11  25  48  73 105 151 193 245 307 366 438
#     4  12  22  46  76 102 146 190 242 302 364 434
#     4  10  26  48  70 110 154 188 250 310 368 446
#     4  12  25  46  71 106 149 192 251 301 366 441
#
# _framework density 24.189191000000001
#
# number of rings (size 3 to 8) (size 9 to 14) (size 15 to 20)
#    0.000    0.667    5.000    2.000    0.000    8.000 
#    6.000    4.167    0.000    0.000    0.000    0.000 
#    0.000    0.000    0.000    0.000    0.000    0.000 
#
# Total GULP energy -66993.587556 kJ/mol
# GULP energy per Si atom -5582.798963 kJ/mol
# Density = 2.413413 g / cm^3
# Si number density = 24.189191 Si / 1000 Ang^3
#
#
#
# Elastic Constant Matrix: (Units=GPa)
#
#
# Indices 1 2 3 4 5 6 
#
# 1 156.5774 39.0970 33.6019 0.0000 -14.0667 0.0000
# 2 39.0970 89.6302 27.0952 0.0000 -0.0165 0.0000
# 3 33.6019 27.0952 78.3757 0.0000 -20.1113 0.0000
# 4 0.0000 0.0000 0.0000 52.9622 0.0000 3.4586
# 5 -14.0667 -0.0165 -20.1113 0.0000 62.9164 0.0000
# 6 0.0000 0.0000 0.0000 3.4586 0.0000 64.6159
#
#
#
# Elastic Compliance Matrix: (Units=1/GPa)
#
#
# Indices 1 2 3 4 5 6 
#
# 1 0.007593 -0.002690 -0.002059 0.000000 0.001039 0.000000
# 2 -0.002690 0.013542 -0.004011 0.000000 -0.001880 0.000000
# 3 -0.002059 -0.004011 0.016242 0.000000 0.004730 0.000000
# 4 0.000000 0.000000 0.000000 0.018948 0.000000 -0.001014
# 5 0.001039 -0.001880 0.004730 0.000000 0.017638 0.000000
# 6 0.000000 0.000000 0.000000 -0.001014 0.000000 0.015530
#
#
# Mechanical properties :
#
#
# Convention : Reuss Voigt Hill
#
# Bulk Modulus (GPa) = 50.35590 58.24130 54.29860
# Shear Modulus (GPa) = 44.00129 51.08486 47.54308
#
# Velocity S-wave (km/s) = 4.26966 4.60051 4.43817
# Velocity P-wave (km/s) = 6.72081 7.23528 6.98279
#
# Compressibility (1/GPa) = 0.01985865
#
# Stress axis : x y z
#
# Youngs Moduli (GPa) = 131.69288 73.84250 61.56747
#
# Poissons Ratio (x) = 0.19861 0.12678
# Poissons Ratio (y) = 0.35420 0.24695
# Poissons Ratio (z) = 0.27117 0.29618
#
# Static dielectric constant tensor:
#      x y z
#    x 1.792320 0.000000 0.049290 
#    y 0.000000 1.970770 0.000000 
#    z 0.049290 0.000000 1.931140 
# 
# From -- ./inp_files/12130.got.cif
#   From: 2010.05.17/outbox.cif.g08.bks.cpg/sg3_7_cif.got.tgz:12130.got - 2010.06.03 18:33:08.
