data_PCOD9114248
_publ_section_title
;
Structure prediction by ZEFSAII (Michael W. Deem and Ramdas Pophale) SiO2 
 PCOD9114248
Probable space group: P 2
;
_chemical_formula_sum "Si O2"
_cell_formula_units_Z 16
_cell_length_a 6.790636
_cell_length_b 6.884010
_cell_length_c 26.729356
_cell_angle_alpha 90.000000
_cell_angle_beta 41.462224
_cell_angle_gamma 90.000000
_cell_volume 827.334530
_symmetry_space_group_name_H-M "P 2"
_symmetry_group_IT_number 3
_symmetry_cell_setting 'monoclinic'
loop_
_space_group_symop_operation_xyz
x,y,z
-x,y,-z
loop_
_atom_site_type_symbol
_atom_site_label
_atom_site_fract_x
_atom_site_fract_y
_atom_site_fract_z
Si Si1 0.630913 0.074980 0.185664
Si Si2 0.869087 0.574980 0.314336
Si Si3 0.671634 0.344788 0.081862
Si Si4 0.415314 0.746095 0.153796
Si Si5 0.171634 0.844789 0.581862
Si Si6 0.184815 0.558154 0.414122
Si Si7 0.315185 0.058154 0.085878
Si Si8 0.915314 0.246095 0.653796
O O1 0.623053 0.234936 0.143250
O O2 0.393676 0.143500 0.271911
O O3 0.532410 0.873237 0.178332
O O4 0.965302 0.063909 0.141887
O O5 0.876947 0.734936 0.356750
O O6 0.534698 0.563910 0.358113
O O7 0.106324 0.643500 0.228089
O O8 0.967590 0.373237 0.321668
O O9 0.634351 0.572680 0.097420
O O10 0.435883 0.257722 0.087399
O O11 0.000000 0.295826 0.000000
O O12 0.378636 0.891880 0.114579
O O13 0.500000 0.795827 0.500000
O O14 0.935883 0.757722 0.587399
O O15 0.134351 0.072680 0.597420
O O16 0.121365 0.391880 0.385421
O O17 0.000000 0.522874 0.500000
O O18 0.500000 0.022874 0.000000
#
# Coordination Sequence:
#
# PCOD9114248 Si02
#       8
#     2   2   2   2   2   2   2   2
#     4  11  24  46  63  96 134 166 219 263 315 384
#     4  11  24  46  63  96 134 166 219 263 315 384
#     4  11  24  44  67  93 131 174 212 263 322 377
#     4  11  26  41  70  94 128 176 210 266 321 377
#     4  11  24  44  67  93 131 174 212 263 322 377
#     4  11  26  43  65  98 133 165 216 268 315 385
#     4  11  26  43  65  98 133 165 216 268 315 385
#     4  11  26  41  70  94 128 176 210 266 321 377
#
# _framework density 19.339213000000001
#
# number of rings (size 3 to 8) (size 9 to 14) (size 15 to 20)
#    0.000    1.000    5.000    0.000    7.000    3.000 
#    0.000    0.000    0.000    0.000    0.000    0.000 
#    0.000    0.000    0.000    0.000    0.000    0.000 
#
# Total GULP energy -89453.799421 kJ/mol
# GULP energy per Si atom -5590.862464 kJ/mol
# Density = 1.929520 g / cm^3
# Si number density = 19.339213 Si / 1000 Ang^3
#
#
#
# Elastic Constant Matrix: (Units=GPa)
#
#
# Indices 1 2 3 4 5 6 
#
# 1 67.9097 32.5396 -1.2775 0.0000 -17.7682 0.0000
# 2 32.5396 105.8688 4.0945 0.0000 3.4995 0.0000
# 3 -1.2775 4.0945 59.9160 0.0000 1.7172 0.0000
# 4 0.0000 0.0000 0.0000 33.5769 0.0000 -4.5688
# 5 -17.7682 3.4995 1.7172 0.0000 37.2099 0.0000
# 6 0.0000 0.0000 0.0000 -4.5688 0.0000 11.6087
#
#
#
# Elastic Compliance Matrix: (Units=1/GPa)
#
#
# Indices 1 2 3 4 5 6 
#
# 1 0.020710 -0.006736 0.000601 0.000000 0.010495 0.000000
# 2 -0.006736 0.011689 -0.000820 0.000000 -0.004278 0.000000
# 3 0.000601 -0.000820 0.016771 0.000000 -0.000410 0.000000
# 4 0.000000 0.000000 0.000000 0.031468 0.000000 0.012385
# 5 0.010495 -0.004278 -0.000410 0.000000 0.032307 0.000000
# 6 0.000000 0.000000 0.000000 0.012385 0.000000 0.091016
#
#
# Mechanical properties :
#
#
# Convention : Reuss Voigt Hill
#
# Bulk Modulus (GPa) = 28.35983 33.82308 31.09146
# Shear Modulus (GPa) = 21.77479 29.70161 25.73820
#
# Velocity S-wave (km/s) = 3.35914 3.92321 3.65208
# Velocity P-wave (km/s) = 5.45357 6.16842 5.82198
#
# Compressibility (1/GPa) = 0.03526114
#
# Stress axis : x y z
#
# Youngs Moduli (GPa) = 48.28548 85.55047 59.62805
#
# Poissons Ratio (x) = 0.57623 -0.03584
# Poissons Ratio (y) = 0.32523 0.04888
# Poissons Ratio (z) = -0.02902 0.07014
#
# Static dielectric constant tensor:
#      x y z
#    x 1.646290 0.000000 0.008240 
#    y 0.000000 1.654930 0.000000 
#    z 0.008240 0.000000 1.650410 
# 
# From -- ./inp_files/16436.got.cif
#   From: 2010.05.17/outbox.cif.g08.bks.cpg/sg3_9_cif.got.tgz:16436.got - 2010.06.03 18:33:08.
