data_PCOD9114813
_publ_section_title
;
Structure prediction by ZEFSAII (Michael W. Deem and Ramdas Pophale) SiO2 
 PCOD9114813
Probable space group: P 21
;
_chemical_formula_sum "Si O2"
_cell_formula_units_Z 14
_cell_length_a 28.666394
_cell_length_b 5.087149
_cell_length_c 15.883492
_cell_angle_alpha 90.000000
_cell_angle_beta 162.414534
_cell_angle_gamma 90.000000
_cell_volume 699.817206
_symmetry_space_group_name_H-M "P 21"
_symmetry_group_IT_number 4
_symmetry_cell_setting 'monoclinic'
loop_
_space_group_symop_operation_xyz
x,y,z
-x,1/2+y,-z
loop_
_atom_site_type_symbol
_atom_site_label
_atom_site_fract_x
_atom_site_fract_y
_atom_site_fract_z
Si Si1 0.562136 0.140110 0.940417
Si Si2 0.996081 0.652669 0.085306
Si Si3 0.327039 0.137508 0.777111
Si Si4 0.743839 0.479150 0.528687
Si Si5 0.026562 0.636872 0.838775
Si Si6 0.835539 0.117573 0.284809
Si Si7 0.042067 0.617386 0.683035
O O1 0.392153 0.014272 0.637757
O O2 0.567699 0.429514 0.991708
O O3 0.669867 0.145110 0.043576
O O4 0.641664 0.932867 0.140913
O O5 0.891058 0.622307 0.822253
O O6 0.172795 0.712395 0.360343
O O7 0.979544 0.401959 0.117390
O O8 0.933074 0.899139 0.030339
O O9 0.149580 0.074193 0.491914
O O10 0.332430 0.098420 0.686415
O O11 0.111567 0.650721 0.895861
O O12 0.951764 0.342974 0.517462
O O13 0.838012 0.134615 0.187875
O O14 0.915583 0.844984 0.449330
#
# Coordination Sequence:
#
# PCOD9114813 Si02
#       7
#     2   2   2   2   2   2   2
#     4  12  22  37  58  86 119 148 184 238 302 342
#     4  11  25  39  57  79 111 160 205 235 277 325
#     4  11  22  35  56  85 116 149 184 237 293 347
#     4  11  25  41  57  81 117 154 203 239 275 342
#     4  11  20  38  61  83 116 150 196 241 275 345
#     4  10  19  34  57  89 119 149 179 232 299 353
#     4  10  19  34  58  87 120 146 185 234 287 354
#
# _framework density 20.005226
#
# number of rings (size 3 to 8) (size 9 to 14) (size 15 to 20)
#    0.000    1.143    2.857    5.143    0.000    5.714 
#    0.000    0.000    0.000    1.714    0.000    0.000 
#    0.000    0.000    0.000    0.000    0.000    0.000 
#
# Total GULP energy -78139.658721 kJ/mol
# GULP energy per Si atom -5581.404194 kJ/mol
# Density = 1.995969 g / cm^3
# Si number density = 20.005226 Si / 1000 Ang^3
#
#
#
# Elastic Constant Matrix: (Units=GPa)
#
#
# Indices 1 2 3 4 5 6 
#
# 1 168.0296 35.4743 36.3561 0.0000 9.7795 0.0000
# 2 35.4743 95.6679 -0.4863 0.0000 -6.3549 0.0000
# 3 36.3561 -0.4863 37.8282 0.0000 13.6584 0.0000
# 4 0.0000 0.0000 0.0000 20.1935 0.0000 -8.6237
# 5 9.7795 -6.3549 13.6584 0.0000 26.8050 0.0000
# 6 0.0000 0.0000 0.0000 -8.6237 0.0000 25.7665
#
#
#
# Elastic Compliance Matrix: (Units=1/GPa)
#
#
# Indices 1 2 3 4 5 6 
#
# 1 0.008366 -0.003117 -0.008225 0.000000 0.000400 0.000000
# 2 -0.003117 0.011809 0.002115 0.000000 0.002859 0.000000
# 3 -0.008225 0.002115 0.040566 0.000000 -0.017168 0.000000
# 4 0.000000 0.000000 0.000000 0.057779 0.000000 0.019338
# 5 0.000400 0.002859 -0.017168 0.000000 0.046586 0.000000
# 6 0.000000 0.000000 0.000000 0.019338 0.000000 0.045282
#
#
# Mechanical properties :
#
#
# Convention : Reuss Voigt Hill
#
# Bulk Modulus (GPa) = 23.64728 49.35711 36.50220
# Shear Modulus (GPa) = 20.58141 29.89844 25.23993
#
# Velocity S-wave (km/s) = 3.21097 3.87011 3.55585
# Velocity P-wave (km/s) = 5.05899 6.68551 5.92830
#
# Compressibility (1/GPa) = 0.04228815
#
# Stress axis : x y z
#
# Youngs Moduli (GPa) = 119.53544 84.67810 24.65136
#
# Poissons Ratio (x) = 0.26397 0.20275
# Poissons Ratio (y) = 0.37263 -0.05215
# Poissons Ratio (z) = 0.98312 -0.17914
#
# Static dielectric constant tensor:
#      x y z
#    x 1.817350 0.000000 0.026220 
#    y 0.000000 1.749440 0.000000 
#    z 0.026220 0.000000 1.701920 
# 
# From -- ./inp_files/14589.got.cif
#   From: 2010.05.17/outbox.cif.g08.bks.cpg/sg4_8_cif.got.tgz:14589.got - 2010.06.03 18:43:04.
