data_PCOD9114840
_publ_section_title
;
Structure prediction by ZEFSAII (Michael W. Deem and Ramdas Pophale) SiO2 
 PCOD9114840
Probable space group: P 21
;
_chemical_formula_sum "Si O2"
_cell_formula_units_Z 16
_cell_length_a 14.021174
_cell_length_b 5.402143
_cell_length_c 8.426251
_cell_angle_alpha 90.000000
_cell_angle_beta 67.773278
_cell_angle_gamma 90.000000
_cell_volume 590.816233
_symmetry_space_group_name_H-M "P 21"
_symmetry_group_IT_number 4
_symmetry_cell_setting 'monoclinic'
loop_
_space_group_symop_operation_xyz
x,y,z
-x,1/2+y,-z
loop_
_atom_site_type_symbol
_atom_site_label
_atom_site_fract_x
_atom_site_fract_y
_atom_site_fract_z
Si Si1 0.685420 0.591840 0.910321
Si Si2 0.507438 0.146787 0.817002
Si Si3 0.481138 0.650564 0.657803
Si Si4 0.275965 0.143756 0.479352
Si Si5 0.949091 0.245035 0.093704
Si Si6 0.978412 0.929124 0.610356
Si Si7 0.211525 0.582167 0.056488
Si Si8 0.304719 0.637601 0.507492
O O1 0.725666 0.628019 0.707853
O O2 0.720206 0.322943 0.947174
O O3 0.729984 0.818668 0.985474
O O4 0.560393 0.626370 0.980914
O O5 0.463690 0.908164 0.754915
O O6 0.630414 0.134741 0.702893
O O7 0.471800 0.399076 0.759478
O O8 0.603291 0.655861 0.542821
O O9 0.398079 0.639239 0.572060
O O10 0.241542 0.885050 0.565187
O O11 0.232754 0.401144 0.562530
O O12 0.966898 0.327425 0.264100
O O13 0.978662 0.500709 0.980795
O O14 0.845398 0.148794 0.071927
O O15 0.972755 0.677524 0.504238
O O16 0.871354 0.037707 0.749955
#
# Coordination Sequence:
#
# PCOD9114840 Si02
#       8
#     2   2   2   2   2   2   2   2
#     4  12  24  38  58  85 130 169 196 238 318 377
#     4  10  20  33  55  82 111 151 208 258 298 353
#     4  10  19  35  59  81 107 152 221 269 311 339
#     4  10  20  33  55  82 110 154 206 255 303 358
#     4  10  20  40  71 103 121 168 206 252 301 366
#     4  11  22  41  76 104 126 153 212 273 301 349
#     4  11  24  43  65  92 136 168 202 238 318 392
#     4  10  19  35  59  81 107 153 221 269 310 342
#
# _framework density 27.08118
#
# number of rings (size 3 to 8) (size 9 to 14) (size 15 to 20)
#    0.000    1.500    0.000    9.000    0.000    4.000 
#    0.000    0.000   35.750    0.000    0.000    0.000 
#    0.000    0.000    0.000    0.000    0.000    0.000 
#
# Total GULP energy -89476.652153 kJ/mol
# GULP energy per Si atom -5592.290760 kJ/mol
# Density = 2.701954 g / cm^3
# Si number density = 27.081180 Si / 1000 Ang^3
#
#
#
# Elastic Constant Matrix: (Units=GPa)
#
#
# Indices 1 2 3 4 5 6 
#
# 1 91.0289 60.8489 39.5142 0.0000 8.2392 0.0000
# 2 60.8489 285.9615 70.2498 0.0000 32.0396 0.0000
# 3 39.5142 70.2498 92.0150 0.0000 10.7531 0.0000
# 4 0.0000 0.0000 0.0000 13.5922 0.0000 13.8262
# 5 8.2392 32.0396 10.7531 0.0000 41.5426 0.0000
# 6 0.0000 0.0000 0.0000 13.8262 0.0000 20.4065
#
#
#
# Elastic Compliance Matrix: (Units=1/GPa)
#
#
# Indices 1 2 3 4 5 6 
#
# 1 0.014285 -0.001868 -0.004687 0.000000 -0.000179 0.000000
# 2 -0.001868 0.004827 -0.002569 0.000000 -0.002687 0.000000
# 3 -0.004687 -0.002569 0.014954 0.000000 -0.000960 0.000000
# 4 0.000000 0.000000 0.000000 0.236716 0.000000 -0.160384
# 5 -0.000179 -0.002687 -0.000960 0.000000 0.026428 0.000000
# 6 0.000000 0.000000 0.000000 -0.160384 0.000000 0.157670
#
#
# Mechanical properties :
#
#
# Convention : Reuss Voigt Hill
#
# Bulk Modulus (GPa) = 63.22122 90.02568 76.62345
# Shear Modulus (GPa) = 10.45149 35.00111 22.72630
#
# Velocity S-wave (km/s) = 1.96665 3.59897 2.90002
# Velocity P-wave (km/s) = 5.34347 7.11232 6.29038
#
# Compressibility (1/GPa) = 0.01581747
#
# Stress axis : x y z
#
# Youngs Moduli (GPa) = 70.00248 207.18635 66.87198
#
# Poissons Ratio (x) = 0.38705 0.31345
# Poissons Ratio (y) = 0.13077 0.17177
# Poissons Ratio (z) = 0.32813 0.53219
#
# Static dielectric constant tensor:
#      x y z
#    x 2.104070 0.000000 -0.048490 
#    y 0.000000 2.178010 0.000000 
#    z -0.048490 0.000000 2.221290 
# 
# From -- ./inp_files/8804.got.cif
#   From: 2010.05.17/outbox.cif.g08.bks.cpg/sg4_5_cif.got.tgz:8804.got - 2010.06.03 18:43:04.
