data_PCOD9114332
_publ_section_title
;
Structure prediction by ZEFSAII (Michael W. Deem and Ramdas Pophale) SiO2 
 PCOD9114332
Probable space group: P 2
;
_chemical_formula_sum "Si O2"
_cell_formula_units_Z 10
_cell_length_a 15.332459
_cell_length_b 5.240749
_cell_length_c 13.935140
_cell_angle_alpha 90.000000
_cell_angle_beta 19.733684
_cell_angle_gamma 90.000000
_cell_volume 378.078146
_symmetry_space_group_name_H-M "P 2"
_symmetry_group_IT_number 3
_symmetry_cell_setting 'monoclinic'
loop_
_space_group_symop_operation_xyz
x,y,z
-x,y,-z
loop_
_atom_site_type_symbol
_atom_site_label
_atom_site_fract_x
_atom_site_fract_y
_atom_site_fract_z
Si Si1 0.000000 0.334620 0.500000
Si Si2 0.500000 0.418608 0.500000
Si Si3 0.271655 0.010630 0.357989
Si Si4 0.227136 0.208513 0.606326
Si Si5 0.255171 0.707439 0.084313
Si Si6 0.884037 0.703954 0.977838
O O1 0.877773 0.489486 0.714840
O O2 0.768737 0.172732 0.694595
O O3 0.424698 0.239052 0.489018
O O4 0.729136 0.606256 0.230311
O O5 0.978736 0.911552 0.675208
O O6 0.344825 0.158798 0.379552
O O7 0.482857 0.790619 0.135495
O O8 0.087592 0.480430 0.745450
O O9 0.026615 0.976641 0.836213
O O10 0.305144 0.680900 0.918946
#
# Coordination Sequence:
#
# PCOD9114332 Si02
#       6
#     1   1   2   2   2   2
#     4  12  26  54  88 118 164 222 278 358 418 508
#     4  12  30  50  88 118 168 226 278 354 414 504
#     4  11  28  52  82 121 167 218 279 348 425 505
#     4  11  28  54  79 123 169 217 283 349 420 505
#     4  11  28  52  82 121 167 218 279 348 425 505
#     4  11  28  54  79 123 169 217 283 349 420 505
#
# _framework density 26.449559000000001
#
# number of rings (size 3 to 8) (size 9 to 14) (size 15 to 20)
#    0.000    0.800    2.000    1.200   11.200   11.200 
#    0.000    4.000    0.000    0.000    0.000    0.000 
#    0.000    0.000    0.000    0.000    0.000    0.000 
#
# Total GULP energy -56089.803170 kJ/mol
# GULP energy per Si atom -5608.980317 kJ/mol
# Density = 2.638936 g / cm^3
# Si number density = 26.449559 Si / 1000 Ang^3
#
#
#
# Elastic Constant Matrix: (Units=GPa)
#
#
# Indices 1 2 3 4 5 6 
#
# 1 170.1638 41.5876 13.0271 0.0000 -30.2336 0.0000
# 2 41.5876 89.3445 22.7980 0.0000 -17.9736 0.0000
# 3 13.0271 22.7980 95.5105 0.0000 -9.0218 0.0000
# 4 0.0000 0.0000 0.0000 30.9951 0.0000 -14.2934
# 5 -30.2336 -17.9736 -9.0218 0.0000 29.6376 0.0000
# 6 0.0000 0.0000 0.0000 -14.2934 0.0000 50.0431
#
#
#
# Elastic Compliance Matrix: (Units=1/GPa)
#
#
# Indices 1 2 3 4 5 6 
#
# 1 0.007552 -0.002263 0.000111 0.000000 0.006366 0.000000
# 2 -0.002263 0.013975 -0.002517 0.000000 0.005400 0.000000
# 3 0.000111 -0.002517 0.011246 0.000000 0.002010 0.000000
# 4 0.000000 0.000000 0.000000 0.037157 0.000000 0.010613
# 5 0.006366 0.005400 0.002010 0.000000 0.044121 0.000000
# 6 0.000000 0.000000 0.000000 0.010613 0.000000 0.023014
#
#
# Mechanical properties :
#
#
# Convention : Reuss Voigt Hill
#
# Bulk Modulus (GPa) = 42.67132 56.64935 49.66034
# Shear Modulus (GPa) = 32.42242 40.64225 36.53234
#
# Velocity S-wave (km/s) = 3.50497 3.92419 3.72049
# Velocity P-wave (km/s) = 5.70507 6.48049 6.10511
#
# Compressibility (1/GPa) = 0.02343494
#
# Stress axis : x y z
#
# Youngs Moduli (GPa) = 132.41041 71.55799 88.92412
#
# Poissons Ratio (x) = 0.16195 -0.00991
# Poissons Ratio (y) = 0.29968 0.22382
# Poissons Ratio (z) = -0.01475 0.18011
#
# Static dielectric constant tensor:
#      x y z
#    x 2.144980 0.000000 0.001510 
#    y 0.000000 2.074420 0.000000 
#    z 0.001510 0.000000 2.086130 
# 
# From -- ./inp_files/13886.got.cif
#   From: 2010.05.17/outbox.cif.g08.bks.cpg/sg3_7_cif.got.tgz:13886.got - 2010.06.03 18:33:08.
