data_PCOD9114737
_publ_section_title
;
Structure prediction by ZEFSAII (Michael W. Deem and Ramdas Pophale) SiO2 
 PCOD9114737
Probable space group: P 21
;
_chemical_formula_sum "Si O2"
_cell_formula_units_Z 16
_cell_length_a 18.274010
_cell_length_b 5.208989
_cell_length_c 10.966893
_cell_angle_alpha 90.000000
_cell_angle_beta 33.148320
_cell_angle_gamma 90.000000
_cell_volume 570.828915
_symmetry_space_group_name_H-M "P 21"
_symmetry_group_IT_number 4
_symmetry_cell_setting 'monoclinic'
loop_
_space_group_symop_operation_xyz
x,y,z
-x,1/2+y,-z
loop_
_atom_site_type_symbol
_atom_site_label
_atom_site_fract_x
_atom_site_fract_y
_atom_site_fract_z
Si Si1 0.557903 0.389150 0.264417
Si Si2 0.288241 0.257596 0.532865
Si Si3 0.804184 0.242394 0.207960
Si Si4 0.004359 0.003870 0.230362
Si Si5 0.959038 0.011222 0.687833
Si Si6 0.274416 0.027689 0.284770
Si Si7 0.754470 0.018732 0.751970
Si Si8 0.357746 0.406573 0.764207
O O1 0.432345 0.393022 0.348879
O O2 0.483775 0.357639 0.499736
O O3 0.654396 0.630299 0.152714
O O4 0.624586 0.112921 0.152903
O O5 0.195246 0.510966 0.692883
O O6 0.271739 0.098596 0.430438
O O7 0.270322 0.011917 0.651624
O O8 0.944239 0.364421 0.964987
O O9 0.735149 0.076103 0.196808
O O10 0.060794 0.286156 0.183195
O O11 0.851827 0.014352 0.492356
O O12 0.068658 0.798982 0.232564
O O13 0.865912 0.981874 0.701292
O O14 0.335821 0.269382 0.132210
O O15 0.120067 0.001933 0.449501
O O16 0.332575 0.766855 0.154577
#
# Coordination Sequence:
#
# PCOD9114737 Si02
#       8
#     2   2   2   2   2   2   2   2
#     4   9  16  28  46  65  89 129 173 207 249 297
#     4  11  21  33  48  73 110 145 176 217 259 312
#     4  11  21  33  48  73 110 145 176 217 259 312
#     4  10  19  32  51  74 100 137 178 219 269 316
#     4  10  19  35  55  75 100 136 181 234 278 310
#     4  10  19  32  51  74 100 137 178 219 269 316
#     4  10  19  35  55  75 100 136 181 234 278 310
#     4   9  16  28  46  65  89 129 173 207 249 297
#
# _framework density 28.029411
#
# number of rings (size 3 to 8) (size 9 to 14) (size 15 to 20)
#    0.000    2.000    0.000    9.000    0.000    0.000 
#    0.000   10.000    0.000    0.000    0.000    0.000 
#    0.000    8.000    0.000   32.250    0.000    0.000 
#
# Total GULP energy -89131.068917 kJ/mol
# GULP energy per Si atom -5570.691807 kJ/mol
# Density = 2.796562 g / cm^3
# Si number density = 28.029411 Si / 1000 Ang^3
#
#
#
# Elastic Constant Matrix: (Units=GPa)
#
#
# Indices 1 2 3 4 5 6 
#
# 1 72.1785 11.1599 12.8650 0.0000 1.8694 0.0000
# 2 11.1599 247.3632 14.4185 0.0000 3.6246 0.0000
# 3 12.8650 14.4185 79.3198 0.0000 -2.5846 0.0000
# 4 0.0000 0.0000 0.0000 34.5299 0.0000 18.5296
# 5 1.8694 3.6246 -2.5846 0.0000 25.5681 0.0000
# 6 0.0000 0.0000 0.0000 18.5296 0.0000 44.1421
#
#
#
# Elastic Compliance Matrix: (Units=1/GPa)
#
#
# Indices 1 2 3 4 5 6 
#
# 1 0.014369 -0.000498 -0.002280 0.000000 -0.001210 0.000000
# 2 -0.000498 0.004114 -0.000687 0.000000 -0.000616 0.000000
# 3 -0.002280 -0.000687 0.013154 0.000000 0.001594 0.000000
# 4 0.000000 0.000000 0.000000 0.037381 0.000000 -0.015691
# 5 -0.001210 -0.000616 0.001594 0.000000 0.039448 0.000000
# 6 0.000000 0.000000 0.000000 -0.015691 0.000000 0.029241
#
#
# Mechanical properties :
#
#
# Convention : Reuss Voigt Hill
#
# Bulk Modulus (GPa) = 40.47230 52.86089 46.66660
# Shear Modulus (GPa) = 32.70711 44.87591 38.79151
#
# Velocity S-wave (km/s) = 3.41968 4.00563 3.72419
# Velocity P-wave (km/s) = 5.48296 6.34771 5.93111
#
# Compressibility (1/GPa) = 0.02470826
#
# Stress axis : x y z
#
# Youngs Moduli (GPa) = 69.59365 243.06186 76.02383
#
# Poissons Ratio (x) = 0.12096 0.17330
# Poissons Ratio (y) = 0.03463 0.05225
# Poissons Ratio (z) = 0.15864 0.16704
#
# Static dielectric constant tensor:
#      x y z
#    x 2.198850 0.000000 0.051660 
#    y 0.000000 2.367770 0.000000 
#    z 0.051660 0.000000 2.380110 
# 
# From -- ./inp_files/12803.got.cif
#   From: 2010.05.17/outbox.cif.g08.bks.cpg/sg4_7_cif.got.tgz:12803.got - 2010.06.03 18:43:04.
