data_PCOD9114723
_publ_section_title
;
Structure prediction by ZEFSAII (Michael W. Deem and Ramdas Pophale) SiO2 
 PCOD9114723
Probable space group: P 21
;
_chemical_formula_sum "Si O2"
_cell_formula_units_Z 16
_cell_length_a 21.532562
_cell_length_b 5.296114
_cell_length_c 14.217104
_cell_angle_alpha 90.000000
_cell_angle_beta 33.069962
_cell_angle_gamma 90.000000
_cell_volume 884.684546
_symmetry_space_group_name_H-M "P 21"
_symmetry_group_IT_number 4
_symmetry_cell_setting 'monoclinic'
loop_
_space_group_symop_operation_xyz
x,y,z
-x,1/2+y,-z
loop_
_atom_site_type_symbol
_atom_site_label
_atom_site_fract_x
_atom_site_fract_y
_atom_site_fract_z
Si Si1 0.535721 0.950870 0.735486
Si Si2 0.862935 0.378805 0.100983
Si Si3 0.650008 0.196131 0.283922
Si Si4 0.560803 0.698452 0.304824
Si Si5 0.908999 0.101284 0.236581
Si Si6 0.719619 0.322994 0.573093
Si Si7 0.463801 0.115648 0.097815
Si Si8 0.275121 0.200547 0.601497
O O1 0.489634 0.735229 0.863137
O O2 0.602566 0.826330 0.562420
O O3 0.458098 0.154193 0.782529
O O4 0.632801 0.089665 0.674337
O O5 0.778300 0.180920 0.160937
O O6 0.913235 0.278099 0.137253
O O7 0.775521 0.603147 0.238029
O O8 0.968012 0.478958 0.907814
O O9 0.629947 0.454874 0.252908
O O10 0.558712 0.207599 0.485341
O O11 0.621155 0.957566 0.256119
O O12 0.850612 0.235312 0.400898
O O13 0.818943 0.884275 0.323193
O O14 0.664978 0.515815 0.716925
O O15 0.710311 0.460743 0.484336
O O16 0.474479 0.357172 0.014674
#
# Coordination Sequence:
#
# PCOD9114723 Si02
#       8
#     2   2   2   2   2   2   2   2
#     4  10  20  34  57  74 110 144 193 223 287 341
#     4  11  20  31  48  73 104 150 203 247 267 317
#     4  10  23  33  51  71 106 144 208 244 262 305
#     4  10  22  36  49  73 101 153 195 242 274 308
#     4  10  19  31  48  72 105 152 196 234 282 323
#     4   9  19  33  50  77 106 147 177 225 275 349
#     4  11  21  35  56  85 111 145 177 229 289 356
#     4   9  18  29  49  71  99 145 189 236 266 329
#
# _framework density 18.085540999999999
#
# number of rings (size 3 to 8) (size 9 to 14) (size 15 to 20)
#    0.000    2.000    2.500    2.250   10.500    0.000 
#    0.000    0.000    0.000    0.000    0.000    0.000 
#    0.000    0.000   17.000    2.750    0.250    0.125 
#
# Total GULP energy -89101.916757 kJ/mol
# GULP energy per Si atom -5568.869797 kJ/mol
# Density = 1.804438 g / cm^3
# Si number density = 18.085541 Si / 1000 Ang^3
#
#
#
# Elastic Constant Matrix: (Units=GPa)
#
#
# Indices 1 2 3 4 5 6 
#
# 1 39.6966 23.2605 34.8732 0.0000 -2.9046 0.0000
# 2 23.2605 106.6618 46.3314 0.0000 4.2264 0.0000
# 3 34.8732 46.3314 95.3449 0.0000 5.7366 0.0000
# 4 0.0000 0.0000 0.0000 27.3647 0.0000 10.2715
# 5 -2.9046 4.2264 5.7366 0.0000 13.1907 0.0000
# 6 0.0000 0.0000 0.0000 10.2715 0.0000 24.4062
#
#
#
# Elastic Compliance Matrix: (Units=1/GPa)
#
#
# Indices 1 2 3 4 5 6 
#
# 1 0.040933 -0.003351 -0.014325 0.000000 0.016317 0.000000
# 2 -0.003351 0.012181 -0.004533 0.000000 -0.002669 0.000000
# 3 -0.014325 -0.004533 0.018517 0.000000 -0.009755 0.000000
# 4 0.000000 0.000000 0.000000 0.043399 0.000000 -0.018265
# 5 0.016317 -0.002669 -0.009755 0.000000 0.084501 0.000000
# 6 0.000000 0.000000 0.000000 -0.018265 0.000000 0.048660
#
#
# Mechanical properties :
#
#
# Convention : Reuss Voigt Hill
#
# Bulk Modulus (GPa) = 36.74613 50.07037 43.40825
# Shear Modulus (GPa) = 16.57384 22.14154 19.35769
#
# Velocity S-wave (km/s) = 3.03052 3.50275 3.27516
# Velocity P-wave (km/s) = 5.71029 6.64112 6.19322
#
# Compressibility (1/GPa) = 0.02721375
#
# Stress axis : x y z
#
# Youngs Moduli (GPa) = 24.43038 82.09559 54.00312
#
# Poissons Ratio (x) = 0.27506 0.77360
# Poissons Ratio (y) = 0.08185 0.24480
# Poissons Ratio (z) = 0.34997 0.37214
#
# Static dielectric constant tensor:
#      x y z
#    x 1.659150 0.000000 0.008030 
#    y 0.000000 1.737210 0.000000 
#    z 0.008030 0.000000 1.674220 
# 
# From -- ./inp_files/14390.got.cif
#   From: 2010.05.17/outbox.cif.g08.bks.cpg/sg4_8_cif.got.tgz:14390.got - 2010.06.03 18:43:04.
