data_PCOD9114633
_publ_section_title
;
Structure prediction by ZEFSAII (Michael W. Deem and Ramdas Pophale) SiO2 
 PCOD9114633
Probable space group: P 21
;
_chemical_formula_sum "Si O2"
_cell_formula_units_Z 16
_cell_length_a 11.117038
_cell_length_b 12.700694
_cell_length_c 5.335519
_cell_angle_alpha 90.000000
_cell_angle_beta 53.807792
_cell_angle_gamma 90.000000
_cell_volume 607.979044
_symmetry_space_group_name_H-M "P 21"
_symmetry_group_IT_number 4
_symmetry_cell_setting 'monoclinic'
loop_
_space_group_symop_operation_xyz
x,y,z
-x,1/2+y,-z
loop_
_atom_site_type_symbol
_atom_site_label
_atom_site_fract_x
_atom_site_fract_y
_atom_site_fract_z
Si Si1 0.808878 0.231850 0.318067
Si Si2 0.698251 0.040830 0.802053
Si Si3 0.301272 0.257233 0.789020
Si Si4 0.586074 0.668035 0.840933
Si Si5 0.417809 0.833414 0.765626
Si Si6 0.102805 0.390331 0.717153
Si Si7 0.147084 0.917206 0.347169
Si Si8 0.959451 0.069786 0.856369
O O1 0.763522 0.137061 0.556102
O O2 0.945605 0.184437 0.988970
O O3 0.828829 0.338735 0.448248
O O4 0.680242 0.252961 0.276535
O O5 0.523010 0.066916 0.025721
O O6 0.748222 0.932367 0.608583
O O7 0.797440 0.046621 0.930416
O O8 0.321511 0.197687 0.025464
O O9 0.157117 0.321827 0.885126
O O10 0.324116 0.174698 0.530538
O O11 0.435847 0.343647 0.586415
O O12 0.475459 0.768547 0.934952
O O13 0.300087 0.919926 0.000591
O O14 0.984621 0.361747 0.649425
O O15 0.023818 0.491573 0.933390
O O16 0.084408 0.030342 0.510073
#
# Coordination Sequence:
#
# PCOD9114633 Si02
#       8
#     2   2   2   2   2   2   2   2
#     4  11  17  36  59  91 121 160 217 259 309 372
#     4  10  18  35  59  91 115 158 210 265 300 376
#     4  10  21  37  59  91 118 160 201 257 303 375
#     4  10  19  35  64  87 114 154 212 249 302 362
#     4  10  19  34  63  90 114 160 211 260 303 375
#     4  10  24  35  56  93 128 159 200 265 320 373
#     4  11  21  35  58  95 125 164 211 262 320 368
#     4  10  21  33  58  90 129 157 210 263 317 369
#
# _framework density 26.316693999999998
#
# number of rings (size 3 to 8) (size 9 to 14) (size 15 to 20)
#    0.750    1.000    3.750    0.750    5.250    0.000 
#    0.000    0.000    0.000   10.500    6.500    0.000 
#    0.000    0.000    0.000    0.000    0.000    0.000 
#
# Total GULP energy -89363.634072 kJ/mol
# GULP energy per Si atom -5585.227130 kJ/mol
# Density = 2.625680 g / cm^3
# Si number density = 26.316694 Si / 1000 Ang^3
#
#
#
# Elastic Constant Matrix: (Units=GPa)
#
#
# Indices 1 2 3 4 5 6 
#
# 1 111.6738 49.8484 25.6251 0.0000 28.1705 0.0000
# 2 49.8484 37.3535 18.9066 0.0000 -0.3058 0.0000
# 3 25.6251 18.9066 68.6376 0.0000 19.0533 0.0000
# 4 0.0000 0.0000 0.0000 46.3911 0.0000 -5.8512
# 5 28.1705 -0.3058 19.0533 0.0000 49.0788 0.0000
# 6 0.0000 0.0000 0.0000 -5.8512 0.0000 42.4488
#
#
#
# Elastic Compliance Matrix: (Units=1/GPa)
#
#
# Indices 1 2 3 4 5 6 
#
# 1 0.038096 -0.055083 0.007975 0.000000 -0.025306 0.000000
# 2 -0.055083 0.111450 -0.021412 0.000000 0.040624 0.000000
# 3 0.007975 -0.021412 0.021068 0.000000 -0.012890 0.000000
# 4 0.000000 0.000000 0.000000 0.021937 0.000000 0.003024
# 5 -0.025306 0.040624 -0.012890 0.000000 0.040158 0.000000
# 6 0.000000 0.000000 0.000000 0.003024 0.000000 0.023975
#
#
# Mechanical properties :
#
#
# Convention : Reuss Voigt Hill
#
# Bulk Modulus (GPa) = 29.78462 45.15835 37.47149
# Shear Modulus (GPa) = 12.34827 35.80271 24.07549
#
# Velocity S-wave (km/s) = 2.16849 3.69244 3.02791
# Velocity P-wave (km/s) = 4.19668 5.94774 5.14722
#
# Compressibility (1/GPa) = 0.03357438
#
# Stress axis : x y z
#
# Youngs Moduli (GPa) = 26.24949 8.97262 47.46519
#
# Poissons Ratio (x) = 0.49424 -0.37853
# Poissons Ratio (y) = 1.44590 1.01632
# Poissons Ratio (z) = -0.20934 0.19212
#
# Static dielectric constant tensor:
#      x y z
#    x 2.013150 0.000000 -0.074030 
#    y 0.000000 2.098950 0.000000 
#    z -0.074030 0.000000 2.137150 
# 
# From -- ./inp_files/3141.got.cif
#   From: 2010.05.17/outbox.cif.g08.bks.cpg/sg4_2_cif.got.tgz:3141.got - 2010.06.03 18:43:04.
