data_PCOD9114500
_publ_section_title
;
Structure prediction by ZEFSAII (Michael W. Deem and Ramdas Pophale) SiO2 
 PCOD9114500
Probable space group: P 21
;
_chemical_formula_sum "Si O2"
_cell_formula_units_Z 16
_cell_length_a 16.077690
_cell_length_b 5.603848
_cell_length_c 26.410753
_cell_angle_alpha 90.000000
_cell_angle_beta 159.013487
_cell_angle_gamma 90.000000
_cell_volume 852.223551
_symmetry_space_group_name_H-M "P 21"
_symmetry_group_IT_number 4
_symmetry_cell_setting 'monoclinic'
loop_
_space_group_symop_operation_xyz
x,y,z
-x,1/2+y,-z
loop_
_atom_site_type_symbol
_atom_site_label
_atom_site_fract_x
_atom_site_fract_y
_atom_site_fract_z
Si Si1 0.351772 0.960710 0.613814
Si Si2 0.314526 0.407679 0.951300
Si Si3 0.144500 0.462969 0.470418
Si Si4 0.568600 0.020467 0.163213
Si Si5 0.228967 0.187447 0.803311
Si Si6 0.116186 0.516469 0.049430
Si Si7 0.724233 0.129159 0.969544
Si Si8 0.771483 0.400449 0.342489
O O1 0.297271 0.705743 0.556493
O O2 0.225041 0.947931 0.596503
O O3 0.270606 0.206707 0.541089
O O4 0.623866 0.983984 0.781222
O O5 0.467074 0.202104 0.064290
O O6 0.508941 0.590296 0.041218
O O7 0.187215 0.525644 0.926915
O O8 0.168009 0.314943 0.820986
O O9 0.954074 0.489123 0.317709
O O10 0.996704 0.469003 0.438753
O O11 0.708112 0.133870 0.288770
O O12 0.742477 0.859565 0.228931
O O13 0.337617 0.903131 0.055823
O O14 0.134420 0.561251 0.999350
O O15 0.988074 0.264610 0.987703
O O16 0.459709 0.034565 0.809780
#
# Coordination Sequence:
#
# PCOD9114500 Si02
#       8
#     2   2   2   2   2   2   2   2
#     4  11  26  37  57  84 118 156 204 245 302 374
#     4  10  19  32  51  81 127 164 213 242 286 343
#     4  12  22  36  53  85 126 166 199 228 290 368
#     4  10  17  32  52  77 125 157 210 244 282 341
#     4  11  20  30  53  82 123 181 203 242 284 351
#     4  11  25  45  69  88 114 150 206 276 333 366
#     4   9  21  34  58  87 116 155 205 260 298 367
#     4  10  20  32  53  78 123 167 196 229 283 356
#
# _framework density 18.774417
#
# number of rings (size 3 to 8) (size 9 to 14) (size 15 to 20)
#    0.000    1.500    5.000    2.250    8.750    0.000 
#    0.000    0.000    0.000    0.000    0.000    3.500 
#    0.000    0.000    0.000    0.000    0.000    0.000 
#
# Total GULP energy -89179.436940 kJ/mol
# GULP energy per Si atom -5573.714809 kJ/mol
# Density = 1.873169 g / cm^3
# Si number density = 18.774417 Si / 1000 Ang^3
#
#
#
# Elastic Constant Matrix: (Units=GPa)
#
#
# Indices 1 2 3 4 5 6 
#
# 1 91.6907 40.9231 28.1206 0.0000 -5.0004 0.0000
# 2 40.9231 107.8384 31.0405 0.0000 1.8679 0.0000
# 3 28.1206 31.0405 47.7919 0.0000 0.0744 0.0000
# 4 0.0000 0.0000 0.0000 36.5933 0.0000 -7.3945
# 5 -5.0004 1.8679 0.0744 0.0000 26.5654 0.0000
# 6 0.0000 0.0000 0.0000 -7.3945 0.0000 24.0911
#
#
#
# Elastic Compliance Matrix: (Units=1/GPa)
#
#
# Indices 1 2 3 4 5 6 
#
# 1 0.014675 -0.003856 -0.006135 0.000000 0.003051 0.000000
# 2 -0.003856 0.012435 -0.005805 0.000000 -0.001584 0.000000
# 3 -0.006135 -0.005805 0.028306 0.000000 -0.000826 0.000000
# 4 0.000000 0.000000 0.000000 0.029134 0.000000 0.008943
# 5 0.003051 -0.001584 -0.000826 0.000000 0.038331 0.000000
# 6 0.000000 0.000000 0.000000 0.008943 0.000000 0.044254
#
#
# Mechanical properties :
#
#
# Convention : Reuss Voigt Hill
#
# Bulk Modulus (GPa) = 41.97574 49.72103 45.84838
# Shear Modulus (GPa) = 24.19337 27.26572 25.72954
#
# Velocity S-wave (km/s) = 3.59365 3.81501 3.70599
# Velocity P-wave (km/s) = 6.29489 6.77840 6.54111
#
# Compressibility (1/GPa) = 0.02382329
#
# Stress axis : x y z
#
# Youngs Moduli (GPa) = 68.14242 80.41972 35.32869
#
# Poissons Ratio (x) = 0.31009 0.21675
# Poissons Ratio (y) = 0.26275 0.20508
# Poissons Ratio (z) = 0.41807 0.46684
#
# Static dielectric constant tensor:
#      x y z
#    x 1.642600 0.000000 -0.012200 
#    y 0.000000 1.812850 0.000000 
#    z -0.012200 0.000000 1.647000 
# 
# From -- ./inp_files/12421.got.cif
#   From: 2010.05.17/outbox.cif.g08.bks.cpg/sg4_7_cif.got.tgz:12421.got - 2010.06.03 18:43:04.
