data_PCOD9114273
_publ_section_title
;
Structure prediction by ZEFSAII (Michael W. Deem and Ramdas Pophale) SiO2 
 PCOD9114273
Probable space group: P 2
;
_chemical_formula_sum "Si O2"
_cell_formula_units_Z 13
_cell_length_a 8.478989
_cell_length_b 9.804141
_cell_length_c 11.123523
_cell_angle_alpha 90.000000
_cell_angle_beta 141.052913
_cell_angle_gamma 90.000000
_cell_volume 581.262130
_symmetry_space_group_name_H-M "P 2"
_symmetry_group_IT_number 3
_symmetry_cell_setting 'monoclinic'
loop_
_space_group_symop_operation_xyz
x,y,z
-x,y,-z
loop_
_atom_site_type_symbol
_atom_site_label
_atom_site_fract_x
_atom_site_fract_y
_atom_site_fract_z
Si Si1 0.093378 0.910410 0.729070
Si Si2 0.039159 0.203191 0.330287
Si Si3 0.724365 0.191191 0.784026
Si Si4 0.573162 0.929210 0.841451
Si Si5 0.379336 0.711923 0.558663
Si Si6 0.500000 0.328275 0.000000
Si Si7 0.628838 0.415674 0.336711
O O1 0.327798 0.899411 0.777884
O O2 0.884942 0.793273 0.601598
O O3 0.200473 0.926017 0.928293
O O4 0.971219 0.053892 0.621198
O O5 0.226284 0.187036 0.328778
O O6 0.147610 0.319896 0.480650
O O7 0.751081 0.239616 0.123219
O O8 0.607728 0.336803 0.746739
O O9 0.578231 0.069515 0.767132
O O10 0.000000 0.181046 0.000000
O O11 0.572769 0.806257 0.747149
O O12 0.500000 0.691097 0.500000
O O13 0.340127 0.567447 0.598633
O O14 0.577343 0.411307 0.163912
#
# Coordination Sequence:
#
# PCOD9114273 Si02
#       7
#     2   2   2   2   2   1   2
#     4  11  24  46  74 107 145 187 240 301 359 430
#     4  12  24  44  77 107 146 186 243 306 363 430
#     4  12  22  45  77 108 144 187 249 300 362 426
#     4  11  25  46  73 107 143 189 242 299 360 423
#     4  12  28  47  69 102 149 194 242 293 365 439
#     4  12  26  46  74 108 140 190 246 310 364 436
#     4  12  28  49  70 106 144 194 246 300 367 435
#
# _framework density 22.365127000000001
#
# number of rings (size 3 to 8) (size 9 to 14) (size 15 to 20)
#    0.000    0.308    3.077    6.000    0.000    6.154 
#    2.769    0.000    0.000    0.923    0.000    0.000 
#    0.000    0.000    0.000    0.000    0.000    0.000 
#
# Total GULP energy -72750.386805 kJ/mol
# GULP energy per Si atom -5596.183600 kJ/mol
# Density = 2.231422 g / cm^3
# Si number density = 22.365127 Si / 1000 Ang^3
#
#
#
# Elastic Constant Matrix: (Units=GPa)
#
#
# Indices 1 2 3 4 5 6 
#
# 1 134.8931 54.9996 63.1938 0.0000 -13.9964 0.0000
# 2 54.9996 191.5805 75.9193 0.0000 -9.2748 0.0000
# 3 63.1938 75.9193 150.7128 0.0000 -6.1943 0.0000
# 4 0.0000 0.0000 0.0000 36.2778 0.0000 -0.4529
# 5 -13.9964 -9.2748 -6.1943 0.0000 52.8347 0.0000
# 6 0.0000 0.0000 0.0000 -0.4529 0.0000 73.3297
#
#
#
# Elastic Compliance Matrix: (Units=1/GPa)
#
#
# Indices 1 2 3 4 5 6 
#
# 1 0.009727 -0.001392 -0.003298 0.000000 0.001946 0.000000
# 2 -0.001392 0.006751 -0.002797 0.000000 0.000489 0.000000
# 3 -0.003298 -0.002797 0.009416 0.000000 -0.000261 0.000000
# 4 0.000000 0.000000 0.000000 0.027567 0.000000 0.000170
# 5 0.001946 0.000489 -0.000261 0.000000 0.019498 0.000000
# 6 0.000000 0.000000 0.000000 0.000170 0.000000 0.013638
#
#
# Mechanical properties :
#
#
# Convention : Reuss Voigt Hill
#
# Bulk Modulus (GPa) = 91.55983 96.15688 93.85835
# Shear Modulus (GPa) = 47.52301 51.36001 49.44151
#
# Velocity S-wave (km/s) = 4.61463 4.79731 4.70686
# Velocity P-wave (km/s) = 8.33191 8.58912 8.46149
#
# Compressibility (1/GPa) = 0.01092182
#
# Stress axis : x y z
#
# Youngs Moduli (GPa) = 102.80151 148.11707 106.19878
#
# Poissons Ratio (x) = 0.20611 0.35022
# Poissons Ratio (y) = 0.14305 0.29708
# Poissons Ratio (z) = 0.33902 0.41434
#
# Static dielectric constant tensor:
#      x y z
#    x 1.847000 0.000000 -0.033440 
#    y 0.000000 1.751780 0.000000 
#    z -0.033440 0.000000 1.858400 
# 
# From -- ./inp_files/10840.got.cif
#   From: 2010.05.17/outbox.cif.g08.bks.cpg/sg3_6_cif.got.tgz:10840.got - 2010.06.03 18:33:08.
