data_PCOD9114252
_publ_section_title
;
Structure prediction by ZEFSAII (Michael W. Deem and Ramdas Pophale) SiO2 
 PCOD9114252
Probable space group: P 2
;
_chemical_formula_sum "Si O2"
_cell_formula_units_Z 16
_cell_length_a 11.389769
_cell_length_b 11.045090
_cell_length_c 8.758318
_cell_angle_alpha 90.000000
_cell_angle_beta 137.826099
_cell_angle_gamma 90.000000
_cell_volume 739.733475
_symmetry_space_group_name_H-M "P 2"
_symmetry_group_IT_number 3
_symmetry_cell_setting 'monoclinic'
loop_
_space_group_symop_operation_xyz
x,y,z
-x,y,-z
loop_
_atom_site_type_symbol
_atom_site_label
_atom_site_fract_x
_atom_site_fract_y
_atom_site_fract_z
Si Si1 0.038922 0.556860 0.216977
Si Si2 0.352572 0.732329 0.460087
Si Si3 0.165859 0.929492 0.061299
Si Si4 0.371898 0.871354 0.766678
Si Si5 0.011947 0.283410 0.829643
Si Si6 0.260579 0.121246 0.618855
Si Si7 0.141113 0.743031 0.769011
Si Si8 0.334086 0.153631 0.045958
O O1 0.209959 0.642087 0.394299
O O2 0.054399 0.417721 0.276947
O O3 0.883578 0.620132 0.161714
O O4 0.000000 0.560780 0.000000
O O5 0.500000 0.669170 0.500000
O O6 0.264371 0.834433 0.267766
O O7 0.439050 0.804936 0.682708
O O8 0.276750 0.039609 0.097228
O O9 0.111966 0.848263 0.864098
O O10 0.000000 0.973105 0.000000
O O11 0.308034 0.774585 0.829013
O O12 0.241220 0.975553 0.583710
O O13 0.500000 0.946750 0.000000
O O14 0.891404 0.189289 0.619724
O O15 0.217471 0.265050 0.993132
O O16 0.000000 0.267882 0.000000
O O17 0.454967 0.160287 0.747164
O O18 0.263813 0.143432 0.803821
O O19 0.000000 0.743846 0.500000
#
# Coordination Sequence:
#
# PCOD9114252 Si02
#       8
#     2   2   2   2   2   2   2   2
#     4  11  24  49  68  96 136 185 237 286 339 416
#     4  12  24  41  70 100 139 182 219 286 354 423
#     4  12  22  41  67 103 137 178 225 275 357 428
#     4  12  24  42  66 107 145 176 218 287 366 426
#     4  11  28  48  72  99 136 191 245 292 348 410
#     4  11  24  47  69 101 145 179 233 291 357 418
#     4  12  21  38  69  98 135 173 221 278 339 414
#     4  11  24  44  71 104 138 185 230 295 352 421
#
# _framework density 21.629411999999999
#
# number of rings (size 3 to 8) (size 9 to 14) (size 15 to 20)
#    0.000    0.500    6.250    2.250    5.250    1.500 
#    4.500    0.000    0.000    0.000    0.000    0.000 
#    0.000    0.000    0.000    0.000    0.000    0.000 
#
# Total GULP energy -89342.028369 kJ/mol
# GULP energy per Si atom -5583.876773 kJ/mol
# Density = 2.158018 g / cm^3
# Si number density = 21.629412 Si / 1000 Ang^3
#
#
#
# Elastic Constant Matrix: (Units=GPa)
#
#
# Indices 1 2 3 4 5 6 
#
# 1 145.5246 38.5272 15.9068 0.0000 -1.1210 0.0000
# 2 38.5272 96.2329 27.8240 0.0000 -1.5994 0.0000
# 3 15.9068 27.8240 71.5965 0.0000 -4.8508 0.0000
# 4 0.0000 0.0000 0.0000 12.5899 0.0000 0.6687
# 5 -1.1210 -1.5994 -4.8508 0.0000 31.7654 0.0000
# 6 0.0000 0.0000 0.0000 0.6687 0.0000 9.2194
#
#
#
# Elastic Compliance Matrix: (Units=1/GPa)
#
#
# Indices 1 2 3 4 5 6 
#
# 1 0.007708 -0.002919 -0.000576 0.000000 0.000037 0.000000
# 2 -0.002919 0.012812 -0.004339 0.000000 -0.000120 0.000000
# 3 -0.000576 -0.004339 0.015930 0.000000 0.002194 0.000000
# 4 0.000000 0.000000 0.000000 0.079736 0.000000 -0.005784
# 5 0.000037 -0.000120 0.002194 0.000000 0.031811 0.000000
# 6 0.000000 0.000000 0.000000 -0.005784 0.000000 0.108887
#
#
# Mechanical properties :
#
#
# Convention : Reuss Voigt Hill
#
# Bulk Modulus (GPa) = 48.11517 53.09666 50.60591
# Shear Modulus (GPa) = 17.89048 26.12133 22.00590
#
# Velocity S-wave (km/s) = 2.87912 3.47893 3.19314
# Velocity P-wave (km/s) = 5.77460 6.38271 6.08625
#
# Compressibility (1/GPa) = 0.02078346
#
# Stress axis : x y z
#
# Youngs Moduli (GPa) = 129.74176 78.04888 62.77510
#
# Poissons Ratio (x) = 0.22780 0.03614
# Poissons Ratio (y) = 0.37868 0.27238
# Poissons Ratio (z) = 0.07468 0.33865
#
# Static dielectric constant tensor:
#      x y z
#    x 1.872010 0.000000 0.107200 
#    y 0.000000 1.779920 0.000000 
#    z 0.107200 0.000000 1.896060 
# 
# From -- ./inp_files/7757.got.cif
#   From: 2010.05.17/outbox.cif.g08.bks.cpg/sg3_4_cif.got.tgz:7757.got - 2010.06.03 18:33:08.
