data_PCOD9114303
_publ_section_title
;
Structure prediction by ZEFSAII (Michael W. Deem and Ramdas Pophale) SiO2 
 PCOD9114303
Probable space group: P 2
;
_chemical_formula_sum "Si O2"
_cell_formula_units_Z 14
_cell_length_a 12.688896
_cell_length_b 8.635084
_cell_length_c 9.264251
_cell_angle_alpha 90.000000
_cell_angle_beta 40.211895
_cell_angle_gamma 90.000000
_cell_volume 655.352810
_symmetry_space_group_name_H-M "P 2"
_symmetry_group_IT_number 3
_symmetry_cell_setting 'monoclinic'
loop_
_space_group_symop_operation_xyz
x,y,z
-x,y,-z
loop_
_atom_site_type_symbol
_atom_site_label
_atom_site_fract_x
_atom_site_fract_y
_atom_site_fract_z
Si Si1 0.647357 0.463110 0.172488
Si Si2 0.500000 0.944185 0.000000
Si Si3 0.179056 0.669776 0.774304
Si Si4 0.832578 0.111992 0.590711
Si Si5 0.621337 0.659615 0.709198
Si Si6 0.821072 0.460911 0.705635
Si Si7 0.832844 0.030895 0.250258
Si Si8 0.500000 0.192489 0.500000
O O1 0.704316 0.567418 0.247317
O O2 0.509829 0.557772 0.234410
O O3 0.569160 0.303733 0.303827
O O4 0.787990 0.432505 0.908643
O O5 0.543707 0.826559 0.823597
O O6 0.666826 0.042483 0.835765
O O7 0.225950 0.658724 0.558521
O O8 0.182395 0.854684 0.792596
O O9 0.000000 0.612898 0.000000
O O10 0.816050 0.298536 0.623994
O O11 0.846979 0.055098 0.409221
O O12 0.000000 0.068919 0.500000
O O13 0.688025 0.578583 0.782666
O O14 0.000000 0.529852 0.500000
O O15 0.659434 0.104011 0.388375
O O16 0.000000 0.094436 0.000000
#
# Coordination Sequence:
#
# PCOD9114303 Si02
#       8
#     2   1   2   2   2   2   2   1
#     4  12  25  45  69 105 136 186 238 289 356 418
#     4  12  26  42  76 100 146 184 228 300 356 426
#     4  11  25  46  69 100 141 184 235 293 348 423
#     4  11  28  48  72 108 144 190 241 293 360 429
#     4  12  23  46  68 105 135 183 239 285 360 415
#     4  11  26  45  71 102 140 185 235 296 350 423
#     4  11  28  48  72 107 145 192 238 293 360 429
#     4  12  28  42  76 102 146 188 230 298 356 428
#
# _framework density 21.362539000000002
#
# number of rings (size 3 to 8) (size 9 to 14) (size 15 to 20)
#    0.000    0.571    4.286    1.714   10.000    3.429 
#    0.000    0.000    0.000    0.000    0.000    0.000 
#    0.000    0.000    0.000    0.000    0.000    0.000 
#
# Total GULP energy -78198.515574 kJ/mol
# GULP energy per Si atom -5585.608255 kJ/mol
# Density = 2.131392 g / cm^3
# Si number density = 21.362539 Si / 1000 Ang^3
#
#
#
# Elastic Constant Matrix: (Units=GPa)
#
#
# Indices 1 2 3 4 5 6 
#
# 1 111.9375 41.1180 49.1566 0.0000 -26.3545 0.0000
# 2 41.1180 55.4234 13.9895 0.0000 -18.9588 0.0000
# 3 49.1566 13.9895 162.1585 0.0000 -6.0497 0.0000
# 4 0.0000 0.0000 0.0000 23.8309 0.0000 6.9093
# 5 -26.3545 -18.9588 -6.0497 0.0000 41.0898 0.0000
# 6 0.0000 0.0000 0.0000 6.9093 0.0000 23.8219
#
#
#
# Elastic Compliance Matrix: (Units=1/GPa)
#
#
# Indices 1 2 3 4 5 6 
#
# 1 0.014748 -0.008295 -0.003565 0.000000 0.005107 0.000000
# 2 -0.008295 0.026452 0.000492 0.000000 0.006957 0.000000
# 3 -0.003565 0.000492 0.007167 0.000000 -0.001004 0.000000
# 4 0.000000 0.000000 0.000000 0.045815 0.000000 -0.013288
# 5 0.005107 0.006957 -0.001004 0.000000 0.030675 0.000000
# 6 0.000000 0.000000 0.000000 -0.013288 0.000000 0.045832
#
#
# Mechanical properties :
#
#
# Convention : Reuss Voigt Hill
#
# Bulk Modulus (GPa) = 39.01167 59.78308 49.39738
# Shear Modulus (GPa) = 24.75615 32.76554 28.76084
#
# Velocity S-wave (km/s) = 3.40789 3.92061 3.67321
# Velocity P-wave (km/s) = 5.81260 6.96711 6.41588
#
# Compressibility (1/GPa) = 0.02563335
#
# Stress axis : x y z
#
# Youngs Moduli (GPa) = 67.80411 37.80366 139.51873
#
# Poissons Ratio (x) = 0.31357 0.49734
# Poissons Ratio (y) = 0.56242 -0.06864
# Poissons Ratio (z) = 0.24170 -0.01860
#
# Static dielectric constant tensor:
#      x y z
#    x 1.731330 0.000000 0.002270 
#    y 0.000000 1.768600 0.000000 
#    z 0.002270 0.000000 1.831210 
# 
# From -- ./inp_files/7345.got.cif
#   From: 2010.05.17/outbox.cif.g08.bks.cpg/sg3_4_cif.got.tgz:7345.got - 2010.06.03 18:33:08.
