data_PCOD9114167
_publ_section_title
;
Structure prediction by ZEFSAII (Michael W. Deem and Ramdas Pophale) SiO2 
 PCOD9114167
Probable space group: P 2
;
_chemical_formula_sum "Si O2"
_cell_formula_units_Z 16
_cell_length_a 8.407342
_cell_length_b 12.050669
_cell_length_c 7.750251
_cell_angle_alpha 90.000000
_cell_angle_beta 112.102144
_cell_angle_gamma 90.000000
_cell_volume 727.508186
_symmetry_space_group_name_H-M "P 2"
_symmetry_group_IT_number 3
_symmetry_cell_setting 'monoclinic'
loop_
_space_group_symop_operation_xyz
x,y,z
-x,y,-z
loop_
_atom_site_type_symbol
_atom_site_label
_atom_site_fract_x
_atom_site_fract_y
_atom_site_fract_z
Si Si1 0.511336 0.478070 0.294803
Si Si2 0.188201 0.894912 0.504942
Si Si3 0.198796 0.316858 0.544207
Si Si4 0.518028 0.733171 0.296078
Si Si5 0.812419 0.858967 0.903847
Si Si6 0.198290 0.315323 0.128679
Si Si7 0.668356 0.077095 0.945454
Si Si8 0.607148 0.113623 0.396349
O O1 0.500000 0.476801 0.500000
O O2 0.692664 0.418413 0.338699
O O3 0.524251 0.605171 0.244149
O O4 0.348634 0.407093 0.156005
O O5 0.317440 0.812458 0.657613
O O6 0.193993 0.875582 0.303934
O O7 0.000000 0.879432 0.500000
O O8 0.248175 0.021818 0.540898
O O9 0.203078 0.302606 0.338317
O O10 0.298102 0.211536 0.664955
O O11 0.000000 0.322064 0.500000
O O12 0.500000 0.731867 0.500000
O O13 0.355470 0.786235 0.132525
O O14 0.797943 0.973824 0.010466
O O15 0.000000 0.806523 0.000000
O O16 0.247129 0.196645 0.058875
O O17 0.000000 0.344185 0.000000
O O18 0.560156 0.044834 0.730597
O O19 0.500000 0.083368 0.000000
O O20 0.500000 0.178369 0.500000
#
# Coordination Sequence:
#
# PCOD9114167 Si02
#       8
#     2   2   2   2   2   2   2   2
#     4   9  19  39  63  86 117 158 201 246 291 344
#     4  11  22  37  63  89 119 158 201 243 289 354
#     4  11  22  37  63  89 119 158 201 243 289 354
#     4   9  19  39  63  86 117 158 201 246 291 344
#     4  11  23  39  59  90 124 156 195 245 299 352
#     4  11  23  39  59  90 124 156 195 245 299 352
#     4  12  25  38  62  87 125 159 192 245 304 352
#     4  12  19  40  62  85 117 161 201 238 292 358
#
# _framework density 21.992878999999999
#
# number of rings (size 3 to 8) (size 9 to 14) (size 15 to 20)
#    0.000    1.250    5.000    1.500    3.500    1.000 
#    0.000    0.000    0.000    5.250    0.000    0.000 
#    0.000    0.000    0.000    0.000    0.000    0.000 
#
# Total GULP energy -89095.448130 kJ/mol
# GULP energy per Si atom -5568.465508 kJ/mol
# Density = 2.194282 g / cm^3
# Si number density = 21.992879 Si / 1000 Ang^3
#
#
#
# Elastic Constant Matrix: (Units=GPa)
#
#
# Indices 1 2 3 4 5 6 
#
# 1 174.4142 80.7192 25.8372 0.0000 36.3893 0.0000
# 2 80.7192 159.8452 26.3541 0.0000 22.9932 0.0000
# 3 25.8372 26.3541 51.2984 0.0000 23.7452 0.0000
# 4 0.0000 0.0000 0.0000 34.0737 0.0000 -30.3098
# 5 36.3893 22.9932 23.7452 0.0000 40.7217 0.0000
# 6 0.0000 0.0000 0.0000 -30.3098 0.0000 51.4616
#
#
#
# Elastic Compliance Matrix: (Units=1/GPa)
#
#
# Indices 1 2 3 4 5 6 
#
# 1 0.008530 -0.003509 0.000161 0.000000 -0.005735 0.000000
# 2 -0.003509 0.008467 -0.002494 0.000000 -0.000190 0.000000
# 3 0.000161 -0.002494 0.027543 0.000000 -0.014796 0.000000
# 4 0.000000 0.000000 0.000000 0.061646 0.000000 0.036308
# 5 -0.005735 -0.000190 -0.014796 0.000000 0.038417 0.000000
# 6 0.000000 0.000000 0.000000 0.036308 0.000000 0.040817
#
#
# Mechanical properties :
#
#
# Convention : Reuss Voigt Hill
#
# Bulk Modulus (GPa) = 30.43620 72.37541 51.40581
# Shear Modulus (GPa) = 24.03206 42.09456 33.06331
#
# Velocity S-wave (km/s) = 3.30922 4.37968 3.88153
# Velocity P-wave (km/s) = 5.33577 7.65216 6.59644
#
# Compressibility (1/GPa) = 0.03285561
#
# Stress axis : x y z
#
# Youngs Moduli (GPa) = 117.22976 118.10894 36.30712
#
# Poissons Ratio (x) = 0.41447 -0.00585
# Poissons Ratio (y) = 0.41138 0.09055
# Poissons Ratio (z) = -0.01890 0.29457
#
# Static dielectric constant tensor:
#      x y z
#    x 1.267610 0.000000 2.363020 
#    y 0.000000 1.782990 0.000000 
#    z 2.363020 0.000000 -8.948000 
# 
# From -- ./inp_files/5871.got.cif
#   From: 2010.05.17/outbox.cif.g08.bks.cpg/sg3_3_cif.got.tgz:5871.got - 2010.06.03 18:33:08.
