data_PCOD9114600
_publ_section_title
;
Structure prediction by ZEFSAII (Michael W. Deem and Ramdas Pophale) SiO2 
 PCOD9114600
Probable space group: P 21
;
_chemical_formula_sum "Si O2"
_cell_formula_units_Z 16
_cell_length_a 9.545824
_cell_length_b 8.761022
_cell_length_c 18.723044
_cell_angle_alpha 90.000000
_cell_angle_beta 143.473225
_cell_angle_gamma 90.000000
_cell_volume 931.979560
_symmetry_space_group_name_H-M "P 21"
_symmetry_group_IT_number 4
_symmetry_cell_setting 'monoclinic'
loop_
_space_group_symop_operation_xyz
x,y,z
-x,1/2+y,-z
loop_
_atom_site_type_symbol
_atom_site_label
_atom_site_fract_x
_atom_site_fract_y
_atom_site_fract_z
Si Si1 0.287883 0.632280 0.851465
Si Si2 0.943069 0.113957 0.819429
Si Si3 0.235996 0.088805 0.341573
Si Si4 0.640054 0.109852 0.951889
Si Si5 0.175000 0.987822 0.780807
Si Si6 0.305418 0.961441 0.066750
Si Si7 0.329122 0.440997 0.405433
Si Si8 0.120103 0.952147 0.145007
O O1 0.256251 0.816305 0.835069
O O2 0.482266 0.563828 0.878039
O O3 0.024293 0.567562 0.731586
O O4 0.353404 0.589679 0.959477
O O5 0.897183 0.282480 0.829085
O O6 0.721732 0.034933 0.688863
O O7 0.134544 0.097025 0.833527
O O8 0.062532 0.020638 0.932099
O O9 0.313858 0.262913 0.383230
O O10 0.432118 0.985453 0.458628
O O11 0.207747 0.055297 0.246289
O O12 0.667738 0.286729 0.946025
O O13 0.385938 0.054264 0.821261
O O14 0.860546 0.010846 0.016243
O O15 0.906108 0.976622 0.643547
O O16 0.283000 0.964304 0.142695
#
# Coordination Sequence:
#
# PCOD9114600 Si02
#       8
#     2   2   2   2   2   2   2   2
#     4  10  18  34  56  79 109 142 190 234 270 333
#     4  10  19  35  55  81 113 149 185 235 275 330
#     4  10  20  36  59  86 104 146 190 236 287 326
#     4  11  19  33  53  83 108 148 191 226 280 331
#     4   9  19  32  55  83 102 140 182 241 273 316
#     4  12  22  35  54  84 121 148 187 232 292 344
#     4   9  19  35  60  85 107 136 195 247 271 328
#     4  11  24  34  54  83 122 155 176 231 296 352
#
# _framework density 17.167759
#
# number of rings (size 3 to 8) (size 9 to 14) (size 15 to 20)
#    0.750    1.000    2.500    3.000    3.500    0.000 
#    0.000    1.250    0.000   10.500    0.000    0.000 
#    0.000    0.000    0.000    0.000    0.000    0.000 
#
# Total GULP energy -89091.811123 kJ/mol
# GULP energy per Si atom -5568.238195 kJ/mol
# Density = 1.712868 g / cm^3
# Si number density = 17.167759 Si / 1000 Ang^3
#
#
#
# Elastic Constant Matrix: (Units=GPa)
#
#
# Indices 1 2 3 4 5 6 
#
# 1 104.0442 32.6270 32.1358 0.0000 1.5178 0.0000
# 2 32.6270 38.3548 1.9870 0.0000 3.1982 0.0000
# 3 32.1358 1.9870 65.5785 0.0000 6.5827 0.0000
# 4 0.0000 0.0000 0.0000 29.1022 0.0000 11.9762
# 5 1.5178 3.1982 6.5827 0.0000 12.0842 0.0000
# 6 0.0000 0.0000 0.0000 11.9762 0.0000 10.2303
#
#
#
# Elastic Compliance Matrix: (Units=1/GPa)
#
#
# Indices 1 2 3 4 5 6 
#
# 1 0.016511 -0.014131 -0.008283 0.000000 0.006178 0.000000
# 2 -0.014131 0.038756 0.006984 0.000000 -0.012286 0.000000
# 3 -0.008283 0.006984 0.020287 0.000000 -0.011859 0.000000
# 4 0.000000 0.000000 0.000000 0.066304 0.000000 -0.077619
# 5 0.006178 -0.012286 -0.011859 0.000000 0.091688 0.000000
# 6 0.000000 0.000000 0.000000 -0.077619 0.000000 0.188615
#
#
# Mechanical properties :
#
#
# Convention : Reuss Voigt Hill
#
# Bulk Modulus (GPa) = 22.37499 37.94190 30.15845
# Shear Modulus (GPa) = 10.68561 19.69850 15.19206
#
# Velocity S-wave (km/s) = 2.49755 3.39102 2.97798
# Velocity P-wave (km/s) = 4.62368 6.12215 5.42490
#
# Compressibility (1/GPa) = 0.04469277
#
# Stress axis : x y z
#
# Youngs Moduli (GPa) = 60.56630 25.80250 49.29374
#
# Poissons Ratio (x) = 0.36462 0.40829
# Poissons Ratio (y) = 0.85587 -0.34426
# Poissons Ratio (z) = 0.50166 -0.18020
#
# Static dielectric constant tensor:
#      x y z
#    x 1.583990 0.000000 0.021080 
#    y 0.000000 1.600030 0.000000 
#    z 0.021080 0.000000 1.586720 
# 
# From -- ./inp_files/10884.got.cif
#   From: 2010.05.17/outbox.cif.g08.bks.cpg/sg4_6_cif.got.tgz:10884.got - 2010.06.03 18:43:04.
