data_PCOD9114222
_publ_section_title
;
Structure prediction by ZEFSAII (Michael W. Deem and Ramdas Pophale) SiO2 
 PCOD9114222
Probable space group: P 2
;
_chemical_formula_sum "Si O2"
_cell_formula_units_Z 15
_cell_length_a 17.969176
_cell_length_b 8.094409
_cell_length_c 6.205986
_cell_angle_alpha 90.000000
_cell_angle_beta 47.198720
_cell_angle_gamma 90.000000
_cell_volume 662.294747
_symmetry_space_group_name_H-M "P 2"
_symmetry_group_IT_number 3
_symmetry_cell_setting 'monoclinic'
loop_
_space_group_symop_operation_xyz
x,y,z
-x,y,-z
loop_
_atom_site_type_symbol
_atom_site_label
_atom_site_fract_x
_atom_site_fract_y
_atom_site_fract_z
Si Si1 0.608960 0.018290 0.261585
Si Si2 0.249071 0.217001 0.349687
Si Si3 0.102507 0.005057 0.937385
Si Si4 0.414939 0.703154 0.981913
Si Si5 0.304715 0.428744 0.630759
Si Si6 0.500000 0.425193 0.500000
Si Si7 0.721791 0.797262 0.377288
Si Si8 0.891694 0.301049 0.747529
O O1 0.500000 0.102523 0.500000
O O2 0.663385 0.948788 0.371144
O O3 0.680198 0.123505 0.961757
O O4 0.579091 0.853983 0.191078
O O5 0.190846 0.088061 0.617219
O O6 0.304232 0.352745 0.390494
O O7 0.159698 0.292528 0.383409
O O8 0.159118 0.835177 0.885324
O O9 0.088198 0.124866 0.171308
O O10 0.000000 0.991031 0.000000
O O11 0.311004 0.748637 0.314508
O O12 0.500000 0.714880 0.000000
O O13 0.441900 0.538828 0.795976
O O14 0.402131 0.356618 0.559797
O O15 0.310534 0.623899 0.662702
O O16 0.194716 0.380787 0.936216
O O17 0.000000 0.384311 0.500000
#
# Coordination Sequence:
#
# PCOD9114222 Si02
#       8
#     2   2   2   2   2   1   2   2
#     4  12  22  41  69 108 141 187 247 304 364 444
#     4  11  25  45  71 101 143 189 242 303 368 453
#     4  11  23  44  75 103 130 183 249 306 371 441
#     4  12  20  38  71  98 136 189 232 301 356 428
#     4  11  27  45  68 109 146 197 247 300 377 453
#     4  12  24  46  68 104 150 202 250 302 380 446
#     4  12  24  43  71 107 141 184 252 301 369 439
#     4  11  24  48  73  94 142 194 236 303 382 448
#
# _framework density 22.648524999999999
#
# number of rings (size 3 to 8) (size 9 to 14) (size 15 to 20)
#    0.000    0.533    8.667    0.000    1.867    0.000 
#    3.600    2.000    0.000    0.000    0.000    0.000 
#    0.000    0.000    0.000    0.000    0.000    0.000 
#
# Total GULP energy -83677.852843 kJ/mol
# GULP energy per Si atom -5578.523523 kJ/mol
# Density = 2.259698 g / cm^3
# Si number density = 22.648525 Si / 1000 Ang^3
#
#
#
# Elastic Constant Matrix: (Units=GPa)
#
#
# Indices 1 2 3 4 5 6 
#
# 1 176.7395 39.9277 49.6362 0.0000 -11.6283 0.0000
# 2 39.9277 39.3386 26.6432 0.0000 -13.3750 0.0000
# 3 49.6362 26.6432 127.7512 0.0000 -14.6205 0.0000
# 4 0.0000 0.0000 0.0000 26.7207 0.0000 -0.4260
# 5 -11.6283 -13.3750 -14.6205 0.0000 38.2704 0.0000
# 6 0.0000 0.0000 0.0000 -0.4260 0.0000 33.7005
#
#
#
# Elastic Compliance Matrix: (Units=1/GPa)
#
#
# Indices 1 2 3 4 5 6 
#
# 1 0.007618 -0.006884 -0.001605 0.000000 -0.000704 0.000000
# 2 -0.006884 0.038617 -0.004260 0.000000 0.009777 0.000000
# 3 -0.001605 -0.004260 0.009530 0.000000 0.001664 0.000000
# 4 0.000000 0.000000 0.000000 0.037432 0.000000 0.000473
# 5 -0.000704 0.009777 0.001664 0.000000 0.029969 0.000000
# 6 0.000000 0.000000 0.000000 0.000473 0.000000 0.029679
#
#
# Mechanical properties :
#
#
# Convention : Reuss Voigt Hill
#
# Bulk Modulus (GPa) = 33.03949 64.02708 48.53329
# Shear Modulus (GPa) = 26.53485 34.91313 30.72399
#
# Velocity S-wave (km/s) = 3.42657 3.93048 3.68714
# Velocity P-wave (km/s) = 5.50225 6.99496 6.29302
#
# Compressibility (1/GPa) = 0.03026681
#
# Stress axis : x y z
#
# Youngs Moduli (GPa) = 131.27459 25.89516 104.93087
#
# Poissons Ratio (x) = 0.17827 0.16837
# Poissons Ratio (y) = 0.90376 0.44701
# Poissons Ratio (z) = 0.21064 0.11031
#
# Static dielectric constant tensor:
#      x y z
#    x 1.869060 0.000000 -0.009210 
#    y 0.000000 1.980710 0.000000 
#    z -0.009210 0.000000 1.956700 
# 
# From -- ./inp_files/3682.got.cif
#   From: 2010.05.17/outbox.cif.g08.bks.cpg/sg3_2_cif.got.tgz:3682.got - 2010.06.03 18:33:08.
