data_PCOD9114677
_publ_section_title
;
Structure prediction by ZEFSAII (Michael W. Deem and Ramdas Pophale) SiO2 
 PCOD9114677
Probable space group: P 21
;
_chemical_formula_sum "Si O2"
_cell_formula_units_Z 16
_cell_length_a 8.409046
_cell_length_b 10.156275
_cell_length_c 8.109255
_cell_angle_alpha 90.000000
_cell_angle_beta 78.626011
_cell_angle_gamma 90.000000
_cell_volume 678.966078
_symmetry_space_group_name_H-M "P 21"
_symmetry_group_IT_number 4
_symmetry_cell_setting 'monoclinic'
loop_
_space_group_symop_operation_xyz
x,y,z
-x,1/2+y,-z
loop_
_atom_site_type_symbol
_atom_site_label
_atom_site_fract_x
_atom_site_fract_y
_atom_site_fract_z
Si Si1 0.342947 0.205170 0.260856
Si Si2 0.520836 0.581032 0.260567
Si Si3 0.740730 0.796895 0.074629
Si Si4 0.402638 0.756481 0.545772
Si Si5 0.342480 0.577556 0.978674
Si Si6 0.174548 0.949990 0.418174
Si Si7 0.163748 0.900754 0.762093
Si Si8 0.074029 0.795888 0.116201
O O1 0.252870 0.267502 0.122532
O O2 0.431207 0.286308 0.389390
O O3 0.501125 0.133181 0.149279
O O4 0.224920 0.096873 0.363382
O O5 0.428916 0.620927 0.444792
O O6 0.678628 0.493192 0.254583
O O7 0.585890 0.720835 0.176776
O O8 0.414394 0.522079 0.136850
O O9 0.895203 0.737510 0.137341
O O10 0.728572 0.952639 0.101786
O O11 0.337798 0.867315 0.432124
O O12 0.247872 0.759491 0.700789
O O13 0.213567 0.687904 0.060102
O O14 0.075300 0.942166 0.611269
O O15 0.098707 0.875896 0.278554
O O16 0.081709 0.891071 0.953969
#
# Coordination Sequence:
#
# PCOD9114677 Si02
#       8
#     2   2   2   2   2   2   2   2
#     4  11  21  40  67  97 127 164 231 278 322 380
#     4  11  21  40  67  97 127 164 231 278 322 380
#     4  11  28  38  66  99 128 181 220 264 338 405
#     4  10  18  38  64 104 120 166 220 272 330 376
#     4  11  22  39  65  93 129 174 219 282 319 389
#     4  10  22  39  68  93 132 171 209 278 330 382
#     4  10  22  39  68  93 132 171 209 278 330 382
#     4  12  24  45  63  92 139 177 219 258 347 406
#
# _framework density 23.565239999999999
#
# number of rings (size 3 to 8) (size 9 to 14) (size 15 to 20)
#    0.750    0.500    3.750    3.000    7.000    0.000 
#    2.250    0.000    5.500    0.000    0.000    0.000 
#    0.000    0.000    0.000    0.000    0.000    0.000 
#
# Total GULP energy -89302.378848 kJ/mol
# GULP energy per Si atom -5581.398678 kJ/mol
# Density = 2.351160 g / cm^3
# Si number density = 23.565240 Si / 1000 Ang^3
#
#
#
# Elastic Constant Matrix: (Units=GPa)
#
#
# Indices 1 2 3 4 5 6 
#
# 1 55.2148 5.8276 27.0888 0.0000 19.5734 0.0000
# 2 5.8276 46.0927 11.5055 0.0000 6.0556 0.0000
# 3 27.0888 11.5055 106.2070 0.0000 33.4579 0.0000
# 4 0.0000 0.0000 0.0000 28.8587 0.0000 10.5487
# 5 19.5734 6.0556 33.4579 0.0000 23.8871 0.0000
# 6 0.0000 0.0000 0.0000 10.5487 0.0000 23.1136
#
#
#
# Elastic Compliance Matrix: (Units=1/GPa)
#
#
# Indices 1 2 3 4 5 6 
#
# 1 0.025538 -0.000507 0.000167 0.000000 -0.021031 0.000000
# 2 -0.000507 0.022531 -0.001151 0.000000 -0.003684 0.000000
# 3 0.000167 -0.001151 0.016911 0.000000 -0.023531 0.000000
# 4 0.000000 0.000000 0.000000 0.041590 0.000000 -0.018981
# 5 -0.021031 -0.003684 -0.023531 0.000000 0.092990 0.000000
# 6 0.000000 0.000000 0.000000 -0.018981 0.000000 0.051927
#
#
# Mechanical properties :
#
#
# Convention : Reuss Voigt Hill
#
# Bulk Modulus (GPa) = 16.12992 32.92869 24.52931
# Shear Modulus (GPa) = 18.17291 26.04474 22.10882
#
# Velocity S-wave (km/s) = 2.78002 3.32809 3.06632
# Velocity P-wave (km/s) = 4.14298 5.36395 4.79251
#
# Compressibility (1/GPa) = 0.06199657
#
# Stress axis : x y z
#
# Youngs Moduli (GPa) = 39.15676 44.38367 59.13459
#
# Poissons Ratio (x) = 0.02252 -0.00985
# Poissons Ratio (y) = 0.01987 0.06805
# Poissons Ratio (z) = -0.00652 0.05108
#
# Static dielectric constant tensor:
#      x y z
#    x 1.859970 0.000000 0.009560 
#    y 0.000000 1.914000 0.000000 
#    z 0.009560 0.000000 1.990940 
# 
# From -- ./inp_files/6101.got.cif
#   From: 2010.05.17/outbox.cif.g08.bks.cpg/sg4_4_cif.got.tgz:6101.got - 2010.06.03 18:43:04.
