data_PCOD9114244
_publ_section_title
;
Structure prediction by ZEFSAII (Michael W. Deem and Ramdas Pophale) SiO2 
 PCOD9114244
Probable space group: P 2
;
_chemical_formula_sum "Si O2"
_cell_formula_units_Z 16
_cell_length_a 9.325514
_cell_length_b 5.210105
_cell_length_c 28.795413
_cell_angle_alpha 90.000000
_cell_angle_beta 149.964738
_cell_angle_gamma 90.000000
_cell_volume 700.285585
_symmetry_space_group_name_H-M "P 2"
_symmetry_group_IT_number 3
_symmetry_cell_setting 'monoclinic'
loop_
_space_group_symop_operation_xyz
x,y,z
-x,y,-z
loop_
_atom_site_type_symbol
_atom_site_label
_atom_site_fract_x
_atom_site_fract_y
_atom_site_fract_z
Si Si1 0.139178 0.278600 0.148786
Si Si2 0.395526 0.649081 0.276560
Si Si3 0.336263 0.992139 0.731495
Si Si4 0.220104 0.510614 0.023531
Si Si5 0.736084 0.743512 0.462011
Si Si6 0.250846 0.237399 0.469803
Si Si7 0.581560 0.997020 0.140245
Si Si8 0.214558 0.905912 0.896856
O O1 0.359311 0.354670 0.251242
O O2 0.871343 0.120202 0.090160
O O3 0.356187 0.129368 0.176850
O O4 0.990356 0.502128 0.079023
O O5 0.586413 0.786856 0.288784
O O6 0.495457 0.685518 0.356602
O O7 0.067091 0.735671 0.183962
O O8 0.282342 0.933303 0.771158
O O9 0.061457 0.159577 0.638793
O O10 0.457444 0.725368 0.088165
O O11 0.356489 0.234536 0.075225
O O12 0.000000 0.602532 0.000000
O O13 0.683865 0.000240 0.477025
O O14 0.000000 0.776913 0.500000
O O15 0.771009 0.502280 0.506946
O O16 0.500000 0.256236 0.500000
O O17 0.777226 0.051521 0.150402
O O18 0.500000 0.787623 0.000000
#
# Coordination Sequence:
#
# PCOD9114244 Si02
#       8
#     2   2   2   2   2   2   2   2
#     4  11  24  43  72 101 150 191 252 304 364 442
#     4  11  26  45  76 106 147 198 258 306 372 460
#     4  11  26  48  72 110 144 198 250 312 376 462
#     4  12  24  44  69 100 141 196 245 299 360 439
#     4  12  26  51  82 114 151 205 262 314 392 475
#     4  12  29  51  81 114 160 192 250 331 401 459
#     4  12  27  43  70 104 146 193 248 300 376 432
#     4  11  25  44  68 109 151 196 248 309 369 435
#
# _framework density 22.847822000000001
#
# number of rings (size 3 to 8) (size 9 to 14) (size 15 to 20)
#    0.000    0.500    3.750    3.375    8.750    0.500 
#    0.000    0.000    0.000    0.000    0.000    0.000 
#    0.000    0.000    0.000    0.000    0.000    0.000 
#
# Total GULP energy -89167.514640 kJ/mol
# GULP energy per Si atom -5572.969665 kJ/mol
# Density = 2.279582 g / cm^3
# Si number density = 22.847822 Si / 1000 Ang^3
#
#
#
# Elastic Constant Matrix: (Units=GPa)
#
#
# Indices 1 2 3 4 5 6 
#
# 1 90.3999 -3.9463 17.7548 0.0000 -3.7117 0.0000
# 2 -3.9463 50.2875 -1.4409 0.0000 -6.0554 0.0000
# 3 17.7548 -1.4409 79.0141 -0.0003 -24.2993 0.0000
# 4 0.0000 0.0000 -0.0003 34.5150 0.0000 -0.7988
# 5 -3.7117 -6.0554 -24.2993 0.0000 37.3690 0.0000
# 6 0.0000 0.0000 0.0000 -0.7988 0.0000 25.0208
#
#
#
# Elastic Compliance Matrix: (Units=1/GPa)
#
#
# Indices 1 2 3 4 5 6 
#
# 1 0.011615 0.000771 -0.002753 0.000000 -0.000512 0.000000
# 2 0.000771 0.020523 0.001559 0.000000 0.004416 0.000000
# 3 -0.002753 0.001559 0.016620 0.000000 0.010787 0.000000
# 4 0.000000 0.000000 0.000000 0.028994 0.000000 0.000926
# 5 -0.000512 0.004416 0.010787 0.000000 0.034439 0.000000
# 6 0.000000 0.000000 0.000000 0.000926 0.000000 0.039996
#
#
# Mechanical properties :
#
#
# Convention : Reuss Voigt Hill
#
# Bulk Modulus (GPa) = 20.87177 27.15964 24.01570
# Shear Modulus (GPa) = 29.58496 33.20323 31.39409
#
# Velocity S-wave (km/s) = 3.60233 3.81627 3.71084
# Velocity P-wave (km/s) = 5.14367 5.59746 5.37535
#
# Compressibility (1/GPa) = 0.04791161
#
# Stress axis : x y z
#
# Youngs Moduli (GPa) = 86.09286 48.72679 60.16754
#
# Poissons Ratio (x) = -0.03757 0.16566
# Poissons Ratio (y) = -0.06638 -0.09380
# Poissons Ratio (z) = 0.23704 -0.07597
#
# Static dielectric constant tensor:
#      x y z
#    x 1.945930 0.000000 -0.034480 
#    y 0.000000 2.158930 0.000000 
#    z -0.034480 0.000000 1.878780 
# 
# From -- ./inp_files/16492.got.cif
#   From: 2010.05.17/outbox.cif.g08.bks.cpg/sg3_9_cif.got.tgz:16492.got - 2010.06.03 18:33:08.
