data_PCOD9114108
_publ_section_title
;
Structure prediction by ZEFSAII (Michael W. Deem and Ramdas Pophale) SiO2 
 PCOD9114108
Probable space group: P 2
;
_chemical_formula_sum "Si O2"
_cell_formula_units_Z 10
_cell_length_a 7.692191
_cell_length_b 5.741478
_cell_length_c 11.328472
_cell_angle_alpha 90.000000
_cell_angle_beta 58.259942
_cell_angle_gamma 90.000000
_cell_volume 425.491195
_symmetry_space_group_name_H-M "P 2"
_symmetry_group_IT_number 3
_symmetry_cell_setting 'monoclinic'
loop_
_space_group_symop_operation_xyz
x,y,z
-x,y,-z
loop_
_atom_site_type_symbol
_atom_site_label
_atom_site_fract_x
_atom_site_fract_y
_atom_site_fract_z
Si Si1 0.095421 0.314220 0.095051
Si Si2 0.500000 0.025569 0.000000
Si Si3 0.144625 0.001452 0.632675
Si Si4 0.768538 0.677323 0.784744
Si Si5 0.241020 0.372875 0.418549
Si Si6 0.500000 0.693106 0.500000
O O1 0.147018 0.572208 0.123099
O O2 0.942620 0.195050 0.246120
O O3 0.307512 0.172756 0.024494
O O4 0.000000 0.310593 0.000000
O O5 0.584750 0.853500 0.869104
O O6 0.238627 0.122136 0.481933
O O7 0.327736 0.852434 0.621790
O O8 0.955605 0.833229 0.669674
O O9 0.700534 0.451130 0.733877
O O10 0.375932 0.534542 0.453754
O O11 0.000000 0.427127 0.500000
#
# Coordination Sequence:
#
# PCOD9114108 Si02
#       6
#     2   1   2   2   2   1
#     4  11  25  48  73 105 147 192 249 296 353 440
#     4  10  26  48  72 112 136 202 240 294 368 430
#     4  11  25  46  72 111 145 195 242 299 367 428
#     4  11  25  49  77 103 150 192 242 304 364 426
#     4  12  25  47  73 106 144 191 244 303 360 439
#     4  12  26  44  70 112 144 192 240 304 372 428
#
# _framework density 23.50225
#
# number of rings (size 3 to 8) (size 9 to 14) (size 15 to 20)
#    0.000    0.800    4.000    1.200    5.600    3.200 
#   14.400    0.000    0.000    0.000    0.000    0.000 
#    0.000    0.000    0.000    0.000    0.000    0.000 
#
# Total GULP energy -55910.105892 kJ/mol
# GULP energy per Si atom -5591.010589 kJ/mol
# Density = 2.344876 g / cm^3
# Si number density = 23.502250 Si / 1000 Ang^3
#
#
#
# Elastic Constant Matrix: (Units=GPa)
#
#
# Indices 1 2 3 4 5 6 
#
# 1 141.4253 39.9859 44.2284 0.0000 7.3558 0.0000
# 2 39.9859 101.3623 36.8699 0.0000 -0.2008 0.0000
# 3 44.2284 36.8699 59.2760 0.0000 4.4187 0.0000
# 4 0.0000 0.0000 0.0000 37.9229 0.0000 -8.7852
# 5 7.3558 -0.2008 4.4187 0.0000 48.0265 0.0000
# 6 0.0000 0.0000 0.0000 -8.7852 0.0000 37.2078
#
#
#
# Elastic Compliance Matrix: (Units=1/GPa)
#
#
# Indices 1 2 3 4 5 6 
#
# 1 0.009433 -0.001534 -0.006017 0.000000 -0.000898 0.000000
# 2 -0.001534 0.013030 -0.007029 0.000000 0.000936 0.000000
# 3 -0.006017 -0.007029 0.025843 0.000000 -0.001485 0.000000
# 4 0.000000 0.000000 0.000000 0.027895 0.000000 0.006586
# 5 -0.000898 0.000936 -0.001485 0.000000 0.021100 0.000000
# 6 0.000000 0.000000 0.000000 0.006586 0.000000 0.028431
#
#
# Mechanical properties :
#
#
# Convention : Reuss Voigt Hill
#
# Bulk Modulus (GPa) = 52.23614 60.47022 56.35318
# Shear Modulus (GPa) = 31.00291 36.69675 33.84983
#
# Velocity S-wave (km/s) = 3.63595 3.95576 3.79922
# Velocity P-wave (km/s) = 6.31673 6.83004 6.57839
#
# Compressibility (1/GPa) = 0.01914383
#
# Stress axis : x y z
#
# Youngs Moduli (GPa) = 106.00928 76.74816 38.69515
#
# Poissons Ratio (x) = 0.11775 0.23284
# Poissons Ratio (y) = 0.16265 0.27201
# Poissons Ratio (z) = 0.63788 0.53950
#
# Static dielectric constant tensor:
#      x y z
#    x 1.819560 0.000000 -0.002850 
#    y 0.000000 1.903190 0.000000 
#    z -0.002850 0.000000 1.984950 
# 
# From -- ./inp_files/9704.got.cif
#   From: 2010.05.17/outbox.cif.g08.bks.cpg/sg3_5_cif.got.tgz:9704.got - 2010.06.03 18:33:08.
