data_PCOD9114598
_publ_section_title
;
Structure prediction by ZEFSAII (Michael W. Deem and Ramdas Pophale) SiO2 
 PCOD9114598
Probable space group: P 21
;
_chemical_formula_sum "Si O2"
_cell_formula_units_Z 16
_cell_length_a 5.058711
_cell_length_b 18.768507
_cell_length_c 8.235869
_cell_angle_alpha 90.000000
_cell_angle_beta 57.422731
_cell_angle_gamma 90.000000
_cell_volume 658.922803
_symmetry_space_group_name_H-M "P 21"
_symmetry_group_IT_number 4
_symmetry_cell_setting 'monoclinic'
loop_
_space_group_symop_operation_xyz
x,y,z
-x,1/2+y,-z
loop_
_atom_site_type_symbol
_atom_site_label
_atom_site_fract_x
_atom_site_fract_y
_atom_site_fract_z
Si Si1 0.405352 0.273620 0.418606
Si Si2 0.129950 0.953969 0.030752
Si Si3 0.375779 0.544177 0.951981
Si Si4 0.267747 0.412512 0.342947
Si Si5 0.088815 0.326210 0.075583
Si Si6 0.388877 0.638647 0.532658
Si Si7 0.994539 0.554149 0.405970
Si Si8 0.759201 0.688720 0.845857
O O1 0.243854 0.350089 0.483209
O O2 0.447628 0.215984 0.545620
O O3 0.245117 0.229753 0.325463
O O4 0.747389 0.297536 0.241511
O O5 0.352436 0.986610 0.095765
O O6 0.847100 0.009712 0.108745
O O7 0.387881 0.948598 0.795330
O O8 0.968212 0.876087 0.061854
O O9 0.133328 0.548629 0.181561
O O10 0.527567 0.622522 0.906413
O O11 0.208497 0.375243 0.186296
O O12 0.024515 0.474246 0.460544
O O13 0.291656 0.253022 0.008898
O O14 0.650282 0.586131 0.515156
O O15 0.224660 0.604372 0.432560
O O16 0.103634 0.654819 0.749811
#
# Coordination Sequence:
#
# PCOD9114598 Si02
#       8
#     2   2   2   2   2   2   2   2
#     4   9  19  36  59  86 116 153 199 239 280 342
#     4  10  18  34  54  88 115 144 188 250 284 326
#     4  11  23  35  60  89 120 149 195 241 298 338
#     4   9  18  34  58  88 112 150 202 245 275 332
#     4   9  17  34  60  85 114 145 207 241 275 329
#     4  11  22  38  57  86 124 153 190 240 296 344
#     4  11  21  36  59  91 116 148 192 247 293 338
#     4  10  22  39  59  89 117 160 191 241 287 355
#
# _framework density 24.282053999999999
#
# number of rings (size 3 to 8) (size 9 to 14) (size 15 to 20)
#    0.000    2.000    3.750    1.500    5.250    0.000 
#    0.000    0.000    0.000    4.500    0.000    0.000 
#    0.000    0.000    0.000    0.000    0.000    0.000 
#
# Total GULP energy -89245.274700 kJ/mol
# GULP energy per Si atom -5577.829669 kJ/mol
# Density = 2.422679 g / cm^3
# Si number density = 24.282054 Si / 1000 Ang^3
#
#
#
# Elastic Constant Matrix: (Units=GPa)
#
#
# Indices 1 2 3 4 5 6 
#
# 1 148.6464 84.3772 16.1792 0.0000 -36.2012 0.0000
# 2 84.3772 277.3676 29.4737 0.0000 -30.9979 0.0000
# 3 16.1792 29.4737 46.3628 0.0000 -7.9976 0.0000
# 4 0.0000 0.0000 0.0000 26.4122 0.0000 -15.9732
# 5 -36.2012 -30.9979 -7.9976 0.0000 21.9487 0.0000
# 6 0.0000 0.0000 0.0000 -15.9732 0.0000 48.5429
#
#
#
# Elastic Compliance Matrix: (Units=1/GPa)
#
#
# Indices 1 2 3 4 5 6 
#
# 1 0.011876 -0.001682 -0.000113 0.000000 0.017172 0.000000
# 2 -0.001682 0.004663 -0.001835 0.000000 0.003143 0.000000
# 3 -0.000113 -0.001835 0.023791 0.000000 0.005890 0.000000
# 4 0.000000 0.000000 0.000000 0.047268 0.000000 0.015554
# 5 0.017172 0.003143 0.005890 0.000000 0.080469 0.000000
# 6 0.000000 0.000000 0.000000 0.015554 0.000000 0.025718
#
#
# Mechanical properties :
#
#
# Convention : Reuss Voigt Hill
#
# Bulk Modulus (GPa) = 30.23864 81.38187 55.81026
# Shear Modulus (GPa) = 23.57712 42.20387 32.89050
#
# Velocity S-wave (km/s) = 3.11942 4.17354 3.68437
# Velocity P-wave (km/s) = 5.04524 7.53741 6.41354
#
# Compressibility (1/GPa) = 0.03307027
#
# Stress axis : x y z
#
# Youngs Moduli (GPa) = 84.20084 214.44309 42.03203
#
# Poissons Ratio (x) = 0.36064 0.00476
# Poissons Ratio (y) = 0.14160 0.07715
# Poissons Ratio (z) = 0.00953 0.39359
#
# Static dielectric constant tensor:
#      x y z
#    x 2.020670 0.000000 0.022950 
#    y 0.000000 2.033810 0.000000 
#    z 0.022950 0.000000 1.981150 
# 
# From -- ./inp_files/2059.got.cif
#   From: 2010.05.17/outbox.cif.g08.bks.cpg/sg4_2_cif.got.tgz:2059.got - 2010.06.03 18:43:04.
