data_PCOD9114376
_publ_section_title
;
Structure prediction by ZEFSAII (Michael W. Deem and Ramdas Pophale) SiO2 
 PCOD9114376
Probable space group: P 2
;
_chemical_formula_sum "Si O2"
_cell_formula_units_Z 9
_cell_length_a 9.481847
_cell_length_b 8.470716
_cell_length_c 9.959498
_cell_angle_alpha 90.000000
_cell_angle_beta 150.223519
_cell_angle_gamma 90.000000
_cell_volume 397.258063
_symmetry_space_group_name_H-M "P 2"
_symmetry_group_IT_number 3
_symmetry_cell_setting 'monoclinic'
loop_
_space_group_symop_operation_xyz
x,y,z
-x,y,-z
loop_
_atom_site_type_symbol
_atom_site_label
_atom_site_fract_x
_atom_site_fract_y
_atom_site_fract_z
Si Si1 0.819301 0.838120 0.219915
Si Si2 0.002718 0.138747 0.216774
Si Si3 0.493128 0.340412 0.331779
Si Si4 0.500000 0.927597 0.500000
Si Si5 0.754260 0.668294 0.902004
O O1 0.000000 0.808575 0.500000
O O2 0.500000 0.812135 0.000000
O O3 0.886973 0.726829 0.149871
O O4 0.861271 0.016017 0.201161
O O5 0.206245 0.264698 0.457844
O O6 0.230237 0.033355 0.319553
O O7 0.763256 0.229811 0.933556
O O8 0.500000 0.348951 0.500000
O O9 0.440659 0.516840 0.238619
O O10 0.590525 0.814989 0.697951
O O11 0.000000 0.621701 0.000000
#
# Coordination Sequence:
#
# PCOD9114376 Si02
#       5
#     2   2   2   1   2
#     4  12  28  51  75 108 149 201 254 304 362 443
#     4  12  26  45  73 107 149 195 239 305 367 434
#     4  12  26  43  70 115 156 182 239 313 381 431
#     4  12  24  42  74 114 144 190 242 312 354 434
#     4  12  26  46  76 114 151 192 247 310 372 442
#
# _framework density 22.655298999999999
#
# number of rings (size 3 to 8) (size 9 to 14) (size 15 to 20)
#    0.000    0.000    4.444    6.000    3.111    0.000 
#    0.000    4.444    0.000    2.667    0.000    0.000 
#    0.000    0.000    0.000    0.000    0.000    0.000 
#
# Total GULP energy -50453.397665 kJ/mol
# GULP energy per Si atom -5605.933074 kJ/mol
# Density = 2.260373 g / cm^3
# Si number density = 22.655299 Si / 1000 Ang^3
#
#
#
# Elastic Constant Matrix: (Units=GPa)
#
#
# Indices 1 2 3 4 5 6 
#
# 1 62.3831 12.3918 37.3886 0.0000 -16.1612 0.0000
# 2 12.3918 113.0155 55.1801 0.0000 -28.5707 0.0000
# 3 37.3886 55.1801 194.1736 0.0000 -22.9775 0.0000
# 4 0.0000 0.0000 0.0000 51.9579 0.0000 10.7028
# 5 -16.1612 -28.5707 -22.9775 0.0000 42.5789 0.0000
# 6 0.0000 0.0000 0.0000 10.7028 0.0000 8.7915
#
#
#
# Elastic Compliance Matrix: (Units=1/GPa)
#
#
# Indices 1 2 3 4 5 6 
#
# 1 0.019430 0.001078 -0.003300 0.000000 0.006317 0.000000
# 2 0.001078 0.011804 -0.002752 0.000000 0.006845 0.000000
# 3 -0.003300 -0.002752 0.006624 0.000000 0.000475 0.000000
# 4 0.000000 0.000000 0.000000 0.025688 0.000000 -0.031273
# 5 0.006317 0.006845 0.000475 0.000000 0.030733 0.000000
# 6 0.000000 0.000000 0.000000 -0.031273 0.000000 0.151817
#
#
# Mechanical properties :
#
#
# Convention : Reuss Voigt Hill
#
# Bulk Modulus (GPa) = 35.82986 64.38814 50.10900
# Shear Modulus (GPa) = 18.84315 38.30644 28.57480
#
# Velocity S-wave (km/s) = 2.88711 4.11644 3.55531
# Velocity P-wave (km/s) = 5.19263 7.14674 6.24657
#
# Compressibility (1/GPa) = 0.02790968
#
# Stress axis : x y z
#
# Youngs Moduli (GPa) = 51.46591 84.71528 150.97074
#
# Poissons Ratio (x) = -0.09131 0.49822
# Poissons Ratio (y) = -0.05547 0.41549
# Poissons Ratio (z) = 0.16984 0.23314
#
# Static dielectric constant tensor:
#      x y z
#    x 1.814580 0.000000 0.018220 
#    y 0.000000 1.851580 0.000000 
#    z 0.018220 0.000000 1.830880 
# 
# From -- ./inp_files/4089.got.cif
#   From: 2010.05.17/outbox.cif.g08.bks.cpg/sg3_3_cif.got.tgz:4089.got - 2010.06.03 18:33:08.
