data_PCOD9114070
_publ_section_title
;
Structure prediction by ZEFSAII (Michael W. Deem and Ramdas Pophale) SiO2 
 PCOD9114070
Probable space group: P 2
;
_chemical_formula_sum "Si O2"
_cell_formula_units_Z 10
_cell_length_a 10.891453
_cell_length_b 4.786188
_cell_length_c 19.466329
_cell_angle_alpha 90.000000
_cell_angle_beta 22.716742
_cell_angle_gamma 90.000000
_cell_volume 391.872203
_symmetry_space_group_name_H-M "P 2"
_symmetry_group_IT_number 3
_symmetry_cell_setting 'monoclinic'
loop_
_space_group_symop_operation_xyz
x,y,z
-x,y,-z
loop_
_atom_site_type_symbol
_atom_site_label
_atom_site_fract_x
_atom_site_fract_y
_atom_site_fract_z
Si Si1 0.819182 0.541470 0.455150
Si Si2 0.736105 0.822937 0.185584
Si Si3 0.199335 0.211815 0.035901
Si Si4 0.579159 0.747498 0.787898
Si Si5 0.851212 0.038404 0.349449
O O1 0.463233 0.636835 0.658888
O O2 0.828569 0.221726 0.429841
O O3 0.077630 0.615706 0.378828
O O4 0.923726 0.724433 0.335042
O O5 0.481558 0.880065 0.256329
O O6 0.930259 0.067643 0.124467
O O7 0.000000 0.680937 0.000000
O O8 0.502057 0.007077 0.876324
O O9 0.068498 0.180755 0.180042
O O10 0.327609 0.509193 0.943943
O O11 0.500000 0.037535 0.500000
#
# Coordination Sequence:
#
# PCOD9114070 Si02
#       5
#     2   2   2   2   2
#     4  12  26  45  73 108 142 190 234 303 361 418
#     4  10  25  45  73 102 141 187 239 289 349 425
#     4  11  25  47  71 106 142 191 236 292 358 428
#     4  11  26  46  73 106 147 184 239 297 362 423
#     4  12  26  44  74 103 146 183 246 293 355 432
#
# _framework density 25.518523999999999
#
# number of rings (size 3 to 8) (size 9 to 14) (size 15 to 20)
#    0.000    0.800    2.000    3.600    5.600   15.200 
#    0.000    6.000    0.000    0.000    0.000    0.000 
#    0.000    0.000    0.000    0.000    0.000    0.000 
#
# Total GULP energy -55895.436917 kJ/mol
# GULP energy per Si atom -5589.543692 kJ/mol
# Density = 2.546044 g / cm^3
# Si number density = 25.518524 Si / 1000 Ang^3
#
#
#
# Elastic Constant Matrix: (Units=GPa)
#
#
# Indices 1 2 3 4 5 6 
#
# 1 64.7679 -2.6997 38.7774 0.0000 -5.0213 0.0000
# 2 -2.6997 88.0735 11.5933 0.0000 11.9021 0.0000
# 3 38.7774 11.5933 73.2775 0.0000 11.6845 0.0000
# 4 0.0000 0.0000 0.0000 32.7474 0.0000 0.6039
# 5 -5.0213 11.9021 11.6845 0.0000 50.7842 0.0000
# 6 0.0000 0.0000 0.0000 0.6039 0.0000 28.8151
#
#
#
# Elastic Compliance Matrix: (Units=1/GPa)
#
#
# Indices 1 2 3 4 5 6 
#
# 1 0.024287 0.001885 -0.013976 0.000000 0.005175 0.000000
# 2 0.001885 0.012027 -0.002575 0.000000 -0.002040 0.000000
# 3 -0.013976 -0.002575 0.022396 0.000000 -0.005931 0.000000
# 4 0.000000 0.000000 0.000000 0.030549 0.000000 -0.000640
# 5 0.005175 -0.002040 -0.005931 0.000000 0.022046 0.000000
# 6 0.000000 0.000000 0.000000 -0.000640 0.000000 0.034717
#
#
# Mechanical properties :
#
#
# Convention : Reuss Voigt Hill
#
# Bulk Modulus (GPa) = 34.03967 35.71790 34.87879
# Shear Modulus (GPa) = 27.00588 34.36588 30.68588
#
# Velocity S-wave (km/s) = 3.25666 3.67373 3.47146
# Velocity P-wave (km/s) = 5.24493 5.65882 5.45580
#
# Compressibility (1/GPa) = 0.02937748
#
# Stress axis : x y z
#
# Youngs Moduli (GPa) = 41.17432 83.14958 44.65153
#
# Poissons Ratio (x) = -0.15672 0.62404
# Poissons Ratio (y) = -0.07760 0.11497
# Poissons Ratio (z) = 0.57544 0.21410
#
# Static dielectric constant tensor:
#      x y z
#    x 2.081630 0.000000 -0.034180 
#    y 0.000000 1.943850 0.000000 
#    z -0.034180 0.000000 2.078070 
# 
# From -- ./inp_files/13164.got.cif
#   From: 2010.05.17/outbox.cif.g08.bks.cpg/sg3_7_cif.got.tgz:13164.got - 2010.06.03 18:33:08.
