data_PCOD9114763
_publ_section_title
;
Structure prediction by ZEFSAII (Michael W. Deem and Ramdas Pophale) SiO2 
 PCOD9114763
Probable space group: P 21
;
_chemical_formula_sum "Si O2"
_cell_formula_units_Z 12
_cell_length_a 14.720796
_cell_length_b 7.139171
_cell_length_c 13.798547
_cell_angle_alpha 90.000000
_cell_angle_beta 159.610338
_cell_angle_gamma 90.000000
_cell_volume 505.235932
_symmetry_space_group_name_H-M "P 21"
_symmetry_group_IT_number 4
_symmetry_cell_setting 'monoclinic'
loop_
_space_group_symop_operation_xyz
x,y,z
-x,1/2+y,-z
loop_
_atom_site_type_symbol
_atom_site_label
_atom_site_fract_x
_atom_site_fract_y
_atom_site_fract_z
Si Si1 0.468207 0.410980 0.179508
Si Si2 0.029406 0.961655 0.640085
Si Si3 0.248413 0.555344 0.341458
Si Si4 0.970623 0.405698 0.581164
Si Si5 0.248414 0.312760 0.155290
Si Si6 0.531781 0.956658 0.243226
O O1 0.754596 0.480370 0.439465
O O2 0.344754 0.439729 0.161657
O O3 0.499979 0.183811 0.206593
O O4 0.259173 0.478487 0.891756
O O5 0.000047 0.183700 0.625292
O O6 0.740827 0.888999 0.373595
O O7 0.110897 0.933563 0.610972
O O8 0.245424 0.887141 0.930477
O O9 0.175616 0.434138 0.175547
O O10 0.499997 0.684078 0.569299
O O11 0.344746 0.428162 0.527686
O O12 0.999996 0.684016 0.121444
#
# Coordination Sequence:
#
# PCOD9114763 Si02
#       6
#     2   2   2   2   2   2
#     4   9  18  34  55  75 105 147 183 217 276 349
#     4  10  19  33  53  77 104 140 183 226 272 329
#     4  11  22  39  62  88 116 153 196 241 290 348
#     4  10  19  33  53  77 104 140 183 226 272 329
#     4  11  22  39  62  88 116 153 196 241 290 348
#     4   9  18  34  55  75 105 147 183 217 276 349
#
# _framework density 23.751280999999999
#
# number of rings (size 3 to 8) (size 9 to 14) (size 15 to 20)
#    0.000    2.000    0.000    7.000    0.000    0.000 
#    0.000    5.000    0.000    0.000    0.000    0.000 
#    0.000    0.000    0.000    0.000    0.000    0.000 
#
# Total GULP energy -67048.796145 kJ/mol
# GULP energy per Si atom -5587.399679 kJ/mol
# Density = 2.369722 g / cm^3
# Si number density = 23.751281 Si / 1000 Ang^3
#
#
#
# Elastic Constant Matrix: (Units=GPa)
#
#
# Indices 1 2 3 4 5 6 
#
# 1 139.4111 -1.5738 48.5409 0.0000 -3.3642 0.0000
# 2 -1.5738 65.6308 5.5032 0.0000 2.0569 0.0000
# 3 48.5409 5.5032 139.2270 0.0000 3.3023 0.0000
# 4 0.0000 0.0000 0.0000 0.0258 0.0000 -6.4431
# 5 -3.3642 2.0569 3.3023 0.0000 41.6364 0.0000
# 6 0.0000 0.0000 0.0000 -6.4431 0.0000 21.9386
#
#
#
# Elastic Compliance Matrix: (Units=1/GPa)
#
#
# Indices 1 2 3 4 5 6 
#
# 1 0.008208 0.000413 -0.002899 0.000000 0.000873 0.000000
# 2 0.000413 0.015329 -0.000734 0.000000 -0.000666 0.000000
# 3 -0.002899 -0.000734 0.008242 0.000000 -0.000852 0.000000
# 4 0.000000 0.000000 0.000000 -0.535754 0.000000 -0.157346
# 5 0.000873 -0.000666 -0.000852 0.000000 0.024188 0.000000
# 6 0.000000 0.000000 0.000000 -0.157346 0.000000 -0.000629
#
#
# Mechanical properties :
#
#
# Convention : Reuss Voigt Hill
#
# Bulk Modulus (GPa) = 39.46456 49.91216 44.68836
# Shear Modulus (GPa) = -10.74049 32.17340 10.71645
#
# Velocity S-wave (km/s) = -2.12882 3.68448 2.12644
# Velocity P-wave (km/s) = 3.25720 6.25785 4.98848
#
# Compressibility (1/GPa) = 0.02533919
#
# Stress axis : x y z
#
# Youngs Moduli (GPa) = 121.83190 65.23564 121.32473
#
# Poissons Ratio (x) = -0.02691 0.35168
# Poissons Ratio (y) = -0.05026 0.08905
# Poissons Ratio (z) = 0.35315 0.04788
#
# Static dielectric constant tensor:
#      x y z
#    x 1.887060 0.000000 -0.004920 
#    y 0.000000 1.946290 0.000000 
#    z -0.004920 0.000000 1.870290 
# 
# From -- ./inp_files/2594.got.cif
#   From: 2010.05.17/outbox.cif.g08.bks.cpg/sg4_2_cif.got.tgz:2594.got - 2010.06.03 18:43:04.
