data_PCOD9114566
_publ_section_title
;
Structure prediction by ZEFSAII (Michael W. Deem and Ramdas Pophale) SiO2 
 PCOD9114566
Probable space group: P 21
;
_chemical_formula_sum "Si O2"
_cell_formula_units_Z 12
_cell_length_a 9.091688
_cell_length_b 7.766171
_cell_length_c 13.797412
_cell_angle_alpha 90.000000
_cell_angle_beta 29.113229
_cell_angle_gamma 90.000000
_cell_volume 473.985524
_symmetry_space_group_name_H-M "P 21"
_symmetry_group_IT_number 4
_symmetry_cell_setting 'monoclinic'
loop_
_space_group_symop_operation_xyz
x,y,z
-x,1/2+y,-z
loop_
_atom_site_type_symbol
_atom_site_label
_atom_site_fract_x
_atom_site_fract_y
_atom_site_fract_z
Si Si1 0.104710 0.925200 0.567502
Si Si2 0.283314 0.556293 0.382260
Si Si3 0.211475 0.998593 0.788487
Si Si4 0.713393 0.056264 0.952109
Si Si5 0.620799 0.118255 0.379182
Si Si6 0.087914 0.925184 0.239805
O O1 0.184460 0.743039 0.476077
O O2 0.412731 0.020027 0.420877
O O3 0.876008 0.021487 0.626737
O O4 0.905235 0.917575 0.779580
O O5 0.642274 0.538194 0.191480
O O6 0.149340 0.417644 0.535519
O O7 0.285123 0.803382 0.714848
O O8 0.396097 0.119078 0.603894
O O9 0.858826 0.038214 0.974790
O O10 0.797278 0.242982 0.863242
O O11 0.367699 0.021491 0.129466
O O12 0.911828 0.019970 0.254520
#
# Coordination Sequence:
#
# PCOD9114566 Si02
#       6
#     2   2   2   2   2   2
#     4  11  21  36  56  81 109 142 179 221 266 316
#     4  11  21  36  56  81 109 142 179 221 266 316
#     4  10  18  32  53  78 105 140 179 218 260 314
#     4  11  21  36  56  81 109 142 179 221 266 316
#     4  10  18  32  53  78 105 140 179 218 260 314
#     4  11  21  36  56  81 109 142 179 221 266 316
#
# _framework density 25.317226999999999
#
# number of rings (size 3 to 8) (size 9 to 14) (size 15 to 20)
#    0.000    1.333    0.000   13.000    0.000    0.000 
#    0.000    1.667    0.000    0.000    0.000    0.000 
#    0.000    0.000    0.000    0.000    0.000    0.000 
#
# Total GULP energy -67166.594354 kJ/mol
# GULP energy per Si atom -5597.216196 kJ/mol
# Density = 2.525960 g / cm^3
# Si number density = 25.317227 Si / 1000 Ang^3
#
#
#
# Elastic Constant Matrix: (Units=GPa)
#
#
# Indices 1 2 3 4 5 6 
#
# 1 220.0009 40.7637 57.0494 0.0000 -79.2333 0.0000
# 2 40.7637 77.7119 4.3086 0.0000 -27.2748 0.0000
# 3 57.0494 4.3086 67.5535 0.0000 -34.2930 0.0000
# 4 0.0000 0.0000 0.0000 25.4870 0.0000 -13.9080
# 5 -79.2333 -27.2748 -34.2930 0.0000 61.7662 0.0000
# 6 0.0000 0.0000 0.0000 -13.9080 0.0000 44.1440
#
#
#
# Elastic Compliance Matrix: (Units=1/GPa)
#
#
# Indices 1 2 3 4 5 6 
#
# 1 0.008799 -0.001209 -0.002638 0.000000 0.009288 0.000000
# 2 -0.001209 0.015977 0.003894 0.000000 0.007666 0.000000
# 3 -0.002638 0.003894 0.022192 0.000000 0.010656 0.000000
# 4 0.000000 0.000000 0.000000 0.047382 0.000000 0.014928
# 5 0.009288 0.007666 0.010656 0.000000 0.037406 0.000000
# 6 0.000000 0.000000 0.000000 0.014928 0.000000 0.027356
#
#
# Mechanical properties :
#
#
# Convention : Reuss Voigt Hill
#
# Bulk Modulus (GPa) = 21.24946 63.27887 42.26417
# Shear Modulus (GPa) = 28.61927 43.82243 36.22085
#
# Velocity S-wave (km/s) = 3.36583 4.16496 3.78654
# Velocity P-wave (km/s) = 4.84939 6.94103 5.98725
#
# Compressibility (1/GPa) = 0.04706002
#
# Stress axis : x y z
#
# Youngs Moduli (GPa) = 113.65138 62.59037 45.06040
#
# Poissons Ratio (x) = 0.07569 0.11889
# Poissons Ratio (y) = 0.13743 -0.17545
# Poissons Ratio (z) = 0.29986 -0.24370
#
# Static dielectric constant tensor:
#      x y z
#    x 2.086560 0.000000 -0.040560 
#    y 0.000000 1.993610 0.000000 
#    z -0.040560 0.000000 2.032690 
# 
# From -- ./inp_files/5220.got.cif
#   From: 2010.05.17/outbox.cif.g08.bks.cpg/sg4_3_cif.got.tgz:5220.got - 2010.06.03 18:43:04.
