data_PCOD9114100
_publ_section_title
;
Structure prediction by ZEFSAII (Michael W. Deem and Ramdas Pophale) SiO2 
 PCOD9114100
Probable space group: P 2
;
_chemical_formula_sum "Si O2"
_cell_formula_units_Z 14
_cell_length_a 15.796140
_cell_length_b 5.866975
_cell_length_c 19.899636
_cell_angle_alpha 90.000000
_cell_angle_beta 160.292385
_cell_angle_gamma 90.000000
_cell_volume 621.905163
_symmetry_space_group_name_H-M "P 2"
_symmetry_group_IT_number 3
_symmetry_cell_setting 'monoclinic'
loop_
_space_group_symop_operation_xyz
x,y,z
-x,y,-z
loop_
_atom_site_type_symbol
_atom_site_label
_atom_site_fract_x
_atom_site_fract_y
_atom_site_fract_z
Si Si1 0.664888 0.242130 0.406314
Si Si2 0.040394 0.508436 0.606071
Si Si3 0.899034 0.893515 0.233581
Si Si4 0.230240 0.930915 0.130366
Si Si5 0.500000 0.205900 0.000000
Si Si6 0.479743 0.532118 0.582329
Si Si7 0.933963 0.798598 0.787442
Si Si8 0.500000 0.154559 0.500000
O O1 0.639253 0.453812 0.437014
O O2 0.797282 0.347969 0.439899
O O3 0.403061 0.108078 0.218478
O O4 0.865731 0.062594 0.584041
O O5 0.068459 0.704578 0.683746
O O6 0.000000 0.595418 0.500000
O O7 0.292200 0.357729 0.806012
O O8 0.911899 0.809674 0.166679
O O9 0.652528 0.041672 0.063957
O O10 0.629908 0.760433 0.713155
O O11 0.111472 0.774304 0.983429
O O12 0.000000 0.034324 0.000000
O O13 0.258652 0.594235 0.366002
O O14 0.589894 0.307262 0.630429
O O15 0.742058 0.010234 0.656215
#
# Coordination Sequence:
#
# PCOD9114100 Si02
#       8
#     2   2   2   2   1   2   2   1
#     4  11  23  47  71 103 144 185 234 293 348 423
#     4  11  25  48  77 105 139 187 233 291 363 426
#     4  11  23  50  73 105 144 178 235 300 353 425
#     4  12  26  43  67 107 146 189 242 286 345 411
#     4  10  26  46  74 110 138 178 234 292 362 430
#     4  12  23  47  67 102 143 185 242 288 346 418
#     4  12  25  45  73 102 141 190 233 296 353 409
#     4  12  24  44  76  96 142 196 234 286 358 414
#
# _framework density 22.511471
#
# number of rings (size 3 to 8) (size 9 to 14) (size 15 to 20)
#    0.000    0.571    4.286    3.429    2.000    5.143 
#    7.714    1.429    0.000    0.000    0.000    0.000 
#    0.000    0.000    0.000    0.000    0.000    0.000 
#
# Total GULP energy -78192.143096 kJ/mol
# GULP energy per Si atom -5585.153078 kJ/mol
# Density = 2.246023 g / cm^3
# Si number density = 22.511471 Si / 1000 Ang^3
#
#
#
# Elastic Constant Matrix: (Units=GPa)
#
#
# Indices 1 2 3 4 5 6 
#
# 1 110.6071 7.7346 39.9269 0.0000 4.9573 0.0000
# 2 7.7346 61.8806 31.7481 0.0000 14.9513 0.0000
# 3 39.9269 31.7481 95.8303 0.0000 16.5299 0.0000
# 4 0.0000 0.0000 0.0000 31.4283 0.0000 13.5012
# 5 4.9573 14.9513 16.5299 0.0000 40.8839 0.0000
# 6 0.0000 0.0000 0.0000 13.5012 0.0000 22.0747
#
#
#
# Elastic Compliance Matrix: (Units=1/GPa)
#
#
# Indices 1 2 3 4 5 6 
#
# 1 0.010711 0.001096 -0.004872 0.000000 0.000271 0.000000
# 2 0.001096 0.020519 -0.006382 0.000000 -0.005056 0.000000
# 3 -0.004872 -0.006382 0.015130 0.000000 -0.003193 0.000000
# 4 0.000000 0.000000 0.000000 0.043158 0.000000 -0.026396
# 5 0.000271 -0.005056 -0.003193 0.000000 0.027567 0.000000
# 6 0.000000 0.000000 0.000000 -0.026396 0.000000 0.061445
#
#
# Mechanical properties :
#
#
# Convention : Reuss Voigt Hill
#
# Bulk Modulus (GPa) = 38.39845 47.45969 42.92907
# Shear Modulus (GPa) = 24.09303 31.47126 27.78214
#
# Velocity S-wave (km/s) = 3.27503 3.74305 3.51683
# Velocity P-wave (km/s) = 5.60316 6.30942 5.96675
#
# Compressibility (1/GPa) = 0.02604272
#
# Stress axis : x y z
#
# Youngs Moduli (GPa) = 93.36128 48.73451 66.09291
#
# Poissons Ratio (x) = -0.05339 0.32203
# Poissons Ratio (y) = -0.10229 0.42182
# Poissons Ratio (z) = 0.45489 0.31104
#
# Static dielectric constant tensor:
#      x y z
#    x 1.866680 0.000000 0.025080 
#    y 0.000000 1.858170 0.000000 
#    z 0.025080 0.000000 1.837580 
# 
# From -- ./inp_files/16046.got.cif
#   From: 2010.05.17/outbox.cif.g08.bks.cpg/sg3_9_cif.got.tgz:16046.got - 2010.06.03 18:33:08.
