data_PCOD9114857
_publ_section_title
;
Structure prediction by ZEFSAII (Michael W. Deem and Ramdas Pophale) SiO2 
 PCOD9114857
Probable space group: P 21
;
_chemical_formula_sum "Si O2"
_cell_formula_units_Z 12
_cell_length_a 6.988432
_cell_length_b 9.941160
_cell_length_c 7.418507
_cell_angle_alpha 90.000000
_cell_angle_beta 86.283455
_cell_angle_gamma 90.000000
_cell_volume 514.302944
_symmetry_space_group_name_H-M "P 21"
_symmetry_group_IT_number 4
_symmetry_cell_setting 'monoclinic'
loop_
_space_group_symop_operation_xyz
x,y,z
-x,1/2+y,-z
loop_
_atom_site_type_symbol
_atom_site_label
_atom_site_fract_x
_atom_site_fract_y
_atom_site_fract_z
Si Si1 0.854869 0.803330 0.833363
Si Si2 0.766300 0.647023 0.318673
Si Si3 0.774553 0.924109 0.475342
Si Si4 0.578525 0.030388 0.825818
Si Si5 0.852128 0.257610 0.883259
Si Si6 0.150606 0.021407 0.308912
O O1 0.900902 0.852529 0.627030
O O2 0.805751 0.647792 0.818157
O O3 0.669462 0.892649 0.897105
O O4 0.034918 0.816925 0.952667
O O5 0.685224 0.796396 0.376431
O O6 0.641225 0.567373 0.181567
O O7 0.979714 0.679053 0.235753
O O8 0.776586 0.560512 0.498966
O O9 0.643660 0.018341 0.608358
O O10 0.919413 0.003081 0.338991
O O11 0.688207 0.149111 0.921326
O O12 0.775794 0.381451 0.771377
#
# Coordination Sequence:
#
# PCOD9114857 Si02
#       6
#     2   2   2   2   2   2
#     4   9  20  38  58  85 122 156 196 247 300 359
#     4  10  20  37  58  87 118 152 203 246 286 358
#     4   8  19  37  58  89 113 152 202 239 297 349
#     4  10  21  36  62  86 119 155 202 243 302 351
#     4  11  21  37  61  85 122 159 197 248 303 356
#     4  10  19  35  63  84 116 158 198 249 294 351
#
# _framework density 23.332552
#
# number of rings (size 3 to 8) (size 9 to 14) (size 15 to 20)
#    1.000    1.333    1.667    1.000    2.333    0.000 
#    0.000    5.000   11.000    0.000    0.000    0.000 
#    0.000    0.000    0.000    0.000    0.000    0.000 
#
# Total GULP energy -66946.581476 kJ/mol
# GULP energy per Si atom -5578.881790 kJ/mol
# Density = 2.327945 g / cm^3
# Si number density = 23.332552 Si / 1000 Ang^3
#
#
#
# Elastic Constant Matrix: (Units=GPa)
#
#
# Indices 1 2 3 4 5 6 
#
# 1 36.9230 49.6646 28.8152 0.0000 17.8771 0.0000
# 2 49.6646 141.2495 42.6071 0.0000 21.7976 0.0000
# 3 28.8152 42.6071 66.7769 0.0000 15.5994 0.0000
# 4 0.0000 0.0000 0.0000 15.8418 0.0000 5.0090
# 5 17.8771 21.7976 15.5994 0.0000 30.9970 0.0000
# 6 0.0000 0.0000 0.0000 5.0090 0.0000 17.1348
#
#
#
# Elastic Compliance Matrix: (Units=1/GPa)
#
#
# Indices 1 2 3 4 5 6 
#
# 1 0.073944 -0.017956 -0.015229 0.000000 -0.022355 0.000000
# 2 -0.017956 0.013540 -0.001231 0.000000 0.001454 0.000000
# 3 -0.015229 -0.001231 0.022753 0.000000 -0.001802 0.000000
# 4 0.000000 0.000000 0.000000 0.069553 0.000000 -0.020332
# 5 -0.022355 0.001454 -0.001802 0.000000 0.045039 0.000000
# 6 0.000000 0.000000 0.000000 -0.020332 0.000000 0.064304
#
#
# Mechanical properties :
#
#
# Convention : Reuss Voigt Hill
#
# Bulk Modulus (GPa) = 24.15086 54.12483 39.13785
# Shear Modulus (GPa) = 13.44929 21.05221 17.25075
#
# Velocity S-wave (km/s) = 2.40347 3.00704 2.72204
# Velocity P-wave (km/s) = 4.25152 5.94170 5.16620
#
# Compressibility (1/GPa) = 0.04140639
#
# Stress axis : x y z
#
# Youngs Moduli (GPa) = 13.52368 73.85516 43.95040
#
# Poissons Ratio (x) = 1.32614 0.66932
# Poissons Ratio (y) = 0.24283 0.05408
# Poissons Ratio (z) = 0.20595 0.09088
#
# Static dielectric constant tensor:
#      x y z
#    x 1.872460 0.000000 -0.009430 
#    y 0.000000 1.903140 0.000000 
#    z -0.009430 0.000000 1.882600 
# 
# From -- ./inp_files/5282.got.cif
#   From: 2010.05.17/outbox.cif.g08.bks.cpg/sg4_3_cif.got.tgz:5282.got - 2010.06.03 18:43:04.
