data_PCOD9114361
_publ_section_title
;
Structure prediction by ZEFSAII (Michael W. Deem and Ramdas Pophale) SiO2 
 PCOD9114361
Probable space group: P 2
;
_chemical_formula_sum "Si O2"
_cell_formula_units_Z 11
_cell_length_a 9.419122
_cell_length_b 5.768898
_cell_length_c 8.767826
_cell_angle_alpha 90.000000
_cell_angle_beta 70.859944
_cell_angle_gamma 90.000000
_cell_volume 450.088874
_symmetry_space_group_name_H-M "P 2"
_symmetry_group_IT_number 3
_symmetry_cell_setting 'monoclinic'
loop_
_space_group_symop_operation_xyz
x,y,z
-x,y,-z
loop_
_atom_site_type_symbol
_atom_site_label
_atom_site_fract_x
_atom_site_fract_y
_atom_site_fract_z
Si Si1 0.668061 0.720800 0.164114
Si Si2 0.737038 0.146354 0.550668
Si Si3 0.500000 0.511392 0.500000
Si Si4 0.500000 0.383761 0.000000
Si Si5 0.000000 0.484066 0.500000
Si Si6 0.933472 0.848127 0.257760
Si Si7 0.267157 0.019317 0.142229
O O1 0.583880 0.684105 0.353872
O O2 0.842913 0.730691 0.150981
O O3 0.592892 0.517384 0.094947
O O4 0.655284 0.920008 0.039515
O O5 0.612069 0.327060 0.540288
O O6 0.864139 0.310409 0.579025
O O7 0.709275 0.942302 0.687678
O O8 0.816971 0.027832 0.376654
O O9 0.636841 0.250843 0.873855
O O10 0.968742 0.647953 0.367468
O O11 0.090564 0.980642 0.172896
#
# Coordination Sequence:
#
# PCOD9114361 Si02
#       7
#     2   2   1   1   1   2   2
#     4  12  30  49  80 121 164 220 278 345 414 486
#     4  12  26  50  85 114 164 218 275 341 420 492
#     4  12  28  54  82 120 168 220 284 342 406 514
#     4  12  30  52  78 116 170 226 266 346 424 494
#     4  12  22  46  84 114 152 216 272 330 418 484
#     4  12  27  50  83 122 162 217 277 348 412 499
#     4  12  27  51  79 121 165 213 273 348 410 496
#
# _framework density 24.439616999999998
#
# number of rings (size 3 to 8) (size 9 to 14) (size 15 to 20)
#    0.000    0.000    7.273    1.091    5.091    6.545 
#    6.545    0.000    0.000    0.000    0.000    0.000 
#    0.000    0.000    0.000    0.000    0.000    0.000 
#
# Total GULP energy -61319.649908 kJ/mol
# GULP energy per Si atom -5574.513628 kJ/mol
# Density = 2.438399 g / cm^3
# Si number density = 24.439617 Si / 1000 Ang^3
#
#
#
# Elastic Constant Matrix: (Units=GPa)
#
#
# Indices 1 2 3 4 5 6 
#
# 1 203.7658 63.6280 67.5344 0.0000 8.5474 0.0000
# 2 63.6280 63.8431 24.3489 0.0000 -4.9241 0.0000
# 3 67.5344 24.3489 120.8165 0.0000 0.2197 0.0000
# 4 0.0000 0.0000 0.0000 37.4343 0.0000 26.2278
# 5 8.5474 -4.9241 0.2197 0.0000 30.0140 0.0000
# 6 0.0000 0.0000 0.0000 26.2278 0.0000 88.5991
#
#
#
# Elastic Compliance Matrix: (Units=1/GPa)
#
#
# Indices 1 2 3 4 5 6 
#
# 1 0.008463 -0.007487 -0.003215 0.000000 -0.003615 0.000000
# 2 -0.007487 0.023831 -0.000629 0.000000 0.006046 0.000000
# 3 -0.003215 -0.000629 0.010200 0.000000 0.000738 0.000000
# 4 0.000000 0.000000 0.000000 0.033704 0.000000 -0.009977
# 5 -0.003615 0.006046 0.000738 0.000000 0.035334 0.000000
# 6 0.000000 0.000000 0.000000 -0.009977 0.000000 0.014240
#
#
# Mechanical properties :
#
#
# Convention : Reuss Voigt Hill
#
# Bulk Modulus (GPa) = 50.42356 77.71645 64.07000
# Shear Modulus (GPa) = 32.24909 46.73709 39.49309
#
# Velocity S-wave (km/s) = 3.63649 4.37779 4.02424
# Velocity P-wave (km/s) = 6.18941 7.57771 6.91847
#
# Compressibility (1/GPa) = 0.01983200
#
# Stress axis : x y z
#
# Youngs Moduli (GPa) = 118.16718 41.96202 98.04343
#
# Poissons Ratio (x) = 0.31416 0.31521
# Poissons Ratio (y) = 0.88468 0.06166
# Poissons Ratio (z) = 0.37991 0.02639
#
# Static dielectric constant tensor:
#      x y z
#    x 1.897950 0.000000 -0.033060 
#    y 0.000000 1.991610 0.000000 
#    z -0.033060 0.000000 2.213720 
# 
# From -- ./inp_files/4881.got.cif
#   From: 2010.05.17/outbox.cif.g08.bks.cpg/sg3_3_cif.got.tgz:4881.got - 2010.06.03 18:33:08.
