data_PCOD9114641
_publ_section_title
;
Structure prediction by ZEFSAII (Michael W. Deem and Ramdas Pophale) SiO2 
 PCOD9114641
Probable space group: P 21
;
_chemical_formula_sum "Si O2"
_cell_formula_units_Z 16
_cell_length_a 9.057649
_cell_length_b 12.006652
_cell_length_c 13.156200
_cell_angle_alpha 90.000000
_cell_angle_beta 33.981144
_cell_angle_gamma 90.000000
_cell_volume 799.682435
_symmetry_space_group_name_H-M "P 21"
_symmetry_group_IT_number 4
_symmetry_cell_setting 'monoclinic'
loop_
_space_group_symop_operation_xyz
x,y,z
-x,1/2+y,-z
loop_
_atom_site_type_symbol
_atom_site_label
_atom_site_fract_x
_atom_site_fract_y
_atom_site_fract_z
Si Si1 0.696714 0.861480 0.739000
Si Si2 0.303807 0.558391 0.106618
Si Si3 0.895189 0.526165 0.821909
Si Si4 0.333800 0.251288 0.752220
Si Si5 0.098894 0.745681 0.634492
Si Si6 0.889531 0.890940 0.938772
Si Si7 0.671546 0.497611 0.176119
Si Si8 0.871805 0.283870 0.852060
O O1 0.586256 0.922942 0.701750
O O2 0.933309 0.775369 0.626392
O O3 0.771629 0.968395 0.765417
O O4 0.426342 0.804254 0.935445
O O5 0.246522 0.499327 0.032077
O O6 0.150583 0.673741 0.202397
O O7 0.615918 0.572331 0.941089
O O8 0.941445 0.400245 0.758668
O O9 0.101078 0.616456 0.666342
O O10 0.844859 0.511607 0.972210
O O11 0.604196 0.288541 0.545286
O O12 0.083170 0.262202 0.820476
O O13 0.375343 0.123268 0.761512
O O14 0.280774 0.326097 0.881092
O O15 0.953414 0.807518 0.810403
O O16 0.153657 0.932322 0.842703
#
# Coordination Sequence:
#
# PCOD9114641 Si02
#       8
#     2   2   2   2   2   2   2   2
#     4   9  20  38  62  86 127 161 200 259 305 368
#     4   9  18  33  63  89 114 166 207 240 312 374
#     4  10  20  36  62  89 123 163 202 255 306 372
#     4  12  23  38  65  96 123 161 214 259 312 381
#     4  11  24  40  62  93 130 160 209 260 317 366
#     4  11  21  40  64  89 122 169 198 264 315 368
#     4  10  20  38  66  87 124 167 210 251 315 373
#     4  10  18  35  62  89 121 161 208 244 308 376
#
# _framework density 20.007943000000001
#
# number of rings (size 3 to 8) (size 9 to 14) (size 15 to 20)
#    0.000    2.000    6.250    0.000    0.000    1.000 
#    2.250    0.000    8.250    0.000    0.000    0.000 
#    0.000    0.000    0.000    0.000    0.000    0.000 
#
# Total GULP energy -89169.202130 kJ/mol
# GULP energy per Si atom -5573.075133 kJ/mol
# Density = 1.996240 g / cm^3
# Si number density = 20.007943 Si / 1000 Ang^3
#
#
#
# Elastic Constant Matrix: (Units=GPa)
#
#
# Indices 1 2 3 4 5 6 
#
# 1 93.3072 10.9001 -3.2995 0.0000 -1.6188 0.0000
# 2 10.9001 67.3574 4.7657 0.0000 1.0956 0.0000
# 3 -3.2995 4.7657 37.1923 0.0000 -3.3167 0.0000
# 4 0.0000 0.0000 0.0000 0.2614 0.0000 -1.5431
# 5 -1.6188 1.0956 -3.3167 0.0000 8.7782 0.0000
# 6 0.0000 0.0000 0.0000 -1.5431 0.0000 36.1257
#
#
#
# Elastic Compliance Matrix: (Units=1/GPa)
#
#
# Indices 1 2 3 4 5 6 
#
# 1 0.011045 -0.001938 0.001481 0.000000 0.002839 0.000000
# 2 -0.001938 0.015384 -0.002428 0.000000 -0.003195 0.000000
# 3 0.001481 -0.002428 0.028336 0.000000 0.011282 0.000000
# 4 0.000000 0.000000 0.000000 5.115651 0.000000 0.218516
# 5 0.002839 -0.003195 0.011282 0.000000 0.119104 0.000000
# 6 0.000000 0.000000 0.000000 0.218516 0.000000 0.037015
#
#
# Mechanical properties :
#
#
# Convention : Reuss Voigt Hill
#
# Bulk Modulus (GPa) = 20.41032 24.73216 22.57124
# Shear Modulus (GPa) = 0.93482 21.39911 11.16696
#
# Velocity S-wave (km/s) = 0.68428 3.27392 2.36503
# Velocity P-wave (km/s) = 3.29356 5.16521 4.33168
#
# Compressibility (1/GPa) = 0.04899483
#
# Stress axis : x y z
#
# Youngs Moduli (GPa) = 90.53572 65.00426 35.29082
#
# Poissons Ratio (x) = 0.12600 -0.05228
# Poissons Ratio (y) = 0.17549 0.08569
# Poissons Ratio (z) = -0.13412 0.15784
#
# Static dielectric constant tensor:
#      x y z
#    x 1.724880 0.000000 0.002910 
#    y 0.000000 1.749780 0.000000 
#    z 0.002910 0.000000 1.699180 
# 
# From -- ./inp_files/11331.got.cif
#   From: 2010.05.17/outbox.cif.g08.bks.cpg/sg4_6_cif.got.tgz:11331.got - 2010.06.03 18:43:04.
