data_PCOD9114806
_publ_section_title
;
Structure prediction by ZEFSAII (Michael W. Deem and Ramdas Pophale) SiO2 
 PCOD9114806
Probable space group: P 21
;
_chemical_formula_sum "Si O2"
_cell_formula_units_Z 16
_cell_length_a 9.952298
_cell_length_b 16.505238
_cell_length_c 5.575074
_cell_angle_alpha 90.000000
_cell_angle_beta 124.086513
_cell_angle_gamma 90.000000
_cell_volume 758.450039
_symmetry_space_group_name_H-M "P 21"
_symmetry_group_IT_number 4
_symmetry_cell_setting 'monoclinic'
loop_
_space_group_symop_operation_xyz
x,y,z
-x,1/2+y,-z
loop_
_atom_site_type_symbol
_atom_site_label
_atom_site_fract_x
_atom_site_fract_y
_atom_site_fract_z
Si Si1 0.499538 0.012740 0.004166
Si Si2 0.858764 0.201609 0.859980
Si Si3 0.975936 0.650403 0.474750
Si Si4 0.113204 0.966810 0.616860
Si Si5 0.491781 0.182624 0.496248
Si Si6 0.399047 0.196797 0.903418
Si Si7 0.519429 0.496744 0.514781
Si Si8 0.152649 0.893528 0.156381
O O1 0.492651 0.110111 0.997303
O O2 0.309804 0.984230 0.814196
O O3 0.573135 0.985540 0.826889
O O4 0.573078 0.985550 0.328675
O O5 0.680918 0.163240 0.684585
O O6 0.834074 0.297754 0.833752
O O7 0.943904 0.177956 0.695218
O O8 0.945689 0.178576 0.196062
O O9 0.970488 0.553564 0.470153
O O10 0.791384 0.681648 0.287990
O O11 0.074697 0.920599 0.331293
O O12 0.073853 0.922151 0.826702
O O13 0.448062 0.231090 0.694027
O O14 0.412139 0.091285 0.416868
O O15 0.447229 0.231047 0.210414
O O16 0.671652 0.436846 0.667157
#
# Coordination Sequence:
#
# PCOD9114806 Si02
#       8
#     2   2   2   2   2   2   2   2
#     4   7  12  22  44  74  88 113 180 241 244 284
#     4  12  24  35  56  97 134 146 188 282 338 329
#     4  11  22  38  60  92 123 159 206 257 306 370
#     4   9  17  33  56  76 105 156 209 234 273 368
#     4  10  19  34  56  86 116 152 199 250 300 366
#     4   9  17  33  56  76 106 156 205 228 273 372
#     4   8  14  27  48  69  97 140 190 222 262 345
#     4  10  19  34  56  84 115 160 207 248 296 368
#
# _framework density 21.095655000000001
#
# number of rings (size 3 to 8) (size 9 to 14) (size 15 to 20)
#    0.000    2.500    0.000    4.500    0.000    2.000 
#    0.000    0.000    0.000    9.000    0.000    0.000 
#    0.000    0.000    0.000    0.000    0.000    0.000 
#
# Total GULP energy -89173.355447 kJ/mol
# GULP energy per Si atom -5573.334715 kJ/mol
# Density = 2.104764 g / cm^3
# Si number density = 21.095655 Si / 1000 Ang^3
#
#
#
# Elastic Constant Matrix: (Units=GPa)
#
#
# Indices 1 2 3 4 5 6 
#
# 1 93.7818 24.4635 75.9373 0.0000 -36.8854 0.0000
# 2 24.4635 69.1616 18.0989 0.0000 -8.1086 0.0000
# 3 75.9373 18.0989 147.6743 0.0000 -61.9199 0.0000
# 4 0.0000 0.0000 0.0000 22.7435 0.0000 -6.8001
# 5 -36.8854 -8.1086 -61.9199 0.0000 57.0301 0.0000
# 6 0.0000 0.0000 0.0000 -6.8001 0.0000 16.5481
#
#
#
# Elastic Compliance Matrix: (Units=1/GPa)
#
#
# Indices 1 2 3 4 5 6 
#
# 1 0.019794 -0.004457 -0.008316 0.000000 0.003140 0.000000
# 2 -0.004457 0.015944 0.000146 0.000000 -0.000457 0.000000
# 3 -0.008316 0.000146 0.016124 0.000000 0.012149 0.000000
# 4 0.000000 0.000000 0.000000 0.050127 0.000000 0.020599
# 5 0.003140 -0.000457 0.012149 0.000000 0.032691 0.000000
# 6 0.000000 0.000000 0.000000 0.020599 0.000000 0.068894
#
#
# Mechanical properties :
#
#
# Convention : Reuss Voigt Hill
#
# Bulk Modulus (GPa) = 37.58250 60.84632 49.21441
# Shear Modulus (GPa) = 21.03520 32.07222 26.55371
#
# Velocity S-wave (km/s) = 3.16117 3.90336 3.55171
# Velocity P-wave (km/s) = 5.58372 7.01574 6.34029
#
# Compressibility (1/GPa) = 0.02660813
#
# Stress axis : x y z
#
# Youngs Moduli (GPa) = 50.52002 62.72103 62.01997
#
# Poissons Ratio (x) = 0.27956 0.51575
# Poissons Ratio (y) = 0.22518 -0.00907
# Poissons Ratio (z) = 0.42011 -0.00918
#
# Static dielectric constant tensor:
#      x y z
#    x 1.735580 0.000000 -0.011670 
#    y 0.000000 1.730490 0.000000 
#    z -0.011670 0.000000 1.741640 
# 
# From -- ./inp_files/3202.got.cif
#   From: 2010.05.17/outbox.cif.g08.bks.cpg/sg4_2_cif.got.tgz:3202.got - 2010.06.03 18:43:04.
