data_PCOD9114468
_publ_section_title
;
Structure prediction by ZEFSAII (Michael W. Deem and Ramdas Pophale) SiO2 
 PCOD9114468
Probable space group: P 21
;
_chemical_formula_sum "Si O2"
_cell_formula_units_Z 16
_cell_length_a 10.869277
_cell_length_b 9.429291
_cell_length_c 6.798863
_cell_angle_alpha 90.000000
_cell_angle_beta 121.096069
_cell_angle_gamma 90.000000
_cell_volume 596.682373
_symmetry_space_group_name_H-M "P 21"
_symmetry_group_IT_number 4
_symmetry_cell_setting 'monoclinic'
loop_
_space_group_symop_operation_xyz
x,y,z
-x,1/2+y,-z
loop_
_atom_site_type_symbol
_atom_site_label
_atom_site_fract_x
_atom_site_fract_y
_atom_site_fract_z
Si Si1 0.424853 0.539920 0.692672
Si Si2 0.291298 0.875617 0.026055
Si Si3 0.042329 0.151802 0.448961
Si Si4 0.924970 0.347880 0.644921
Si Si5 0.151937 0.148609 0.954522
Si Si6 0.711252 0.775985 0.581629
Si Si7 0.560371 0.109102 0.830840
Si Si8 0.614601 0.357749 0.358797
O O1 0.574935 0.463444 0.773186
O O2 0.303499 0.437576 0.503914
O O3 0.413309 0.697745 0.602662
O O4 0.420160 0.568500 0.923443
O O5 0.306316 0.712579 0.104072
O O6 0.157784 0.977133 0.971240
O O7 0.344948 0.873492 0.840283
O O8 0.131593 0.220512 0.351232
O O9 0.919802 0.249676 0.442153
O O10 0.996397 0.993499 0.352435
O O11 0.161319 0.156712 0.724076
O O12 0.767832 0.396314 0.577977
O O13 0.007324 0.242117 0.857736
O O14 0.274479 0.228296 0.178260
O O15 0.583680 0.696825 0.353285
O O16 0.519217 0.957964 0.705354
#
# Coordination Sequence:
#
# PCOD9114468 Si02
#       8
#     2   2   2   2   2   2   2   2
#     4   9  20  33  66 100 127 180 227 281 362 416
#     4   9  17  38  60  91 134 175 228 292 341 419
#     4  10  22  42  62  92 134 185 233 284 355 426
#     4  10  21  40  63  93 136 182 229 291 349 429
#     4  10  23  39  68  96 138 179 240 294 350 432
#     4  11  21  42  67  97 138 184 230 293 356 424
#     4   9  18  35  67  95 129 182 225 289 353 417
#     4  10  16  35  61  98 132 173 240 276 352 429
#
# _framework density 26.814934999999998
#
# number of rings (size 3 to 8) (size 9 to 14) (size 15 to 20)
#    0.750    1.500    2.500    1.500    1.750    0.000 
#    4.500    5.000    0.000    0.000    0.000    0.000 
#    0.000    0.000    0.000    0.000    0.000    0.000 
#
# Total GULP energy -89218.255101 kJ/mol
# GULP energy per Si atom -5576.140944 kJ/mol
# Density = 2.675390 g / cm^3
# Si number density = 26.814935 Si / 1000 Ang^3
#
#
#
# Elastic Constant Matrix: (Units=GPa)
#
#
# Indices 1 2 3 4 5 6 
#
# 1 56.2854 41.5698 30.8385 0.0000 4.6819 0.0000
# 2 41.5698 232.5029 36.9574 0.0000 16.1524 0.0000
# 3 30.8385 36.9574 123.2147 0.0000 -20.5797 0.0000
# 4 0.0000 0.0000 0.0000 33.7466 0.0000 26.0643
# 5 4.6819 16.1524 -20.5797 0.0000 30.2201 0.0000
# 6 0.0000 0.0000 0.0000 26.0643 0.0000 36.0244
#
#
#
# Elastic Compliance Matrix: (Units=1/GPa)
#
#
# Indices 1 2 3 4 5 6 
#
# 1 0.023760 -0.002826 -0.006162 0.000000 -0.006367 0.000000
# 2 -0.002826 0.005267 -0.001432 0.000000 -0.003353 0.000000
# 3 -0.006162 -0.001432 0.011707 0.000000 0.009693 0.000000
# 4 0.000000 0.000000 0.000000 0.067166 0.000000 -0.048596
# 5 -0.006367 -0.003353 0.009693 0.000000 0.042470 0.000000
# 6 0.000000 0.000000 0.000000 -0.048596 0.000000 0.062919
#
#
# Mechanical properties :
#
#
# Convention : Reuss Voigt Hill
#
# Bulk Modulus (GPa) = 50.27269 70.08158 60.17714
# Shear Modulus (GPa) = 20.76751 40.17402 30.47076
#
# Velocity S-wave (km/s) = 2.78596 3.87485 3.37461
# Velocity P-wave (km/s) = 5.39791 6.79789 6.13795
#
# Compressibility (1/GPa) = 0.01989152
#
# Stress axis : x y z
#
# Youngs Moduli (GPa) = 42.08775 189.86364 85.42057
#
# Poissons Ratio (x) = 0.53660 0.52640
# Poissons Ratio (y) = 0.11895 0.12236
# Poissons Ratio (z) = 0.25936 0.27196
#
# Static dielectric constant tensor:
#      x y z
#    x 2.101010 0.000000 -0.092680 
#    y 0.000000 2.124210 0.000000 
#    z -0.092680 0.000000 2.307920 
# 
# From -- ./inp_files/9178.got.cif
#   From: 2010.05.17/outbox.cif.g08.bks.cpg/sg4_5_cif.got.tgz:9178.got - 2010.06.03 18:43:04.
