data_PCOD9114231
_publ_section_title
;
Structure prediction by ZEFSAII (Michael W. Deem and Ramdas Pophale) SiO2 
 PCOD9114231
Probable space group: P 2
;
_chemical_formula_sum "Si O2"
_cell_formula_units_Z 14
_cell_length_a 5.180041
_cell_length_b 16.098805
_cell_length_c 9.420246
_cell_angle_alpha 90.000000
_cell_angle_beta 55.618055
_cell_angle_gamma 90.000000
_cell_volume 648.330492
_symmetry_space_group_name_H-M "P 2"
_symmetry_group_IT_number 3
_symmetry_cell_setting 'monoclinic'
loop_
_space_group_symop_operation_xyz
x,y,z
-x,y,-z
loop_
_atom_site_type_symbol
_atom_site_label
_atom_site_fract_x
_atom_site_fract_y
_atom_site_fract_z
Si Si1 0.655889 0.053390 0.160942
Si Si2 0.986021 0.813481 0.342093
Si Si3 0.500000 0.905314 0.000000
Si Si4 0.184637 0.479275 0.189313
Si Si5 0.500000 0.964036 0.500000
Si Si6 0.622936 0.235325 0.115522
Si Si7 0.121259 0.662571 0.123200
Si Si8 0.552172 0.393660 0.317030
O O1 0.489419 0.141609 0.183184
O O2 0.577000 0.022757 0.343011
O O3 0.000000 0.075334 0.000000
O O4 0.611600 0.970714 0.082600
O O5 0.916313 0.733912 0.265243
O O6 0.000000 0.783433 0.500000
O O7 0.780636 0.897367 0.420665
O O8 0.280435 0.848097 0.163134
O O9 0.084459 0.575470 0.215835
O O10 0.302631 0.447827 0.305792
O O11 0.907820 0.428003 0.199542
O O12 0.500000 0.472567 0.000000
O O13 0.520280 0.301344 0.264376
O O14 0.500000 0.262023 0.000000
O O15 0.000000 0.238344 0.000000
O O16 0.500000 0.678815 0.000000
O O17 0.000000 0.654844 0.000000
O O18 0.500000 0.395168 0.500000
#
# Coordination Sequence:
#
# PCOD9114231 Si02
#       8
#     2   2   1   2   1   2   2   2
#     4  11  24  42  68  97 137 185 233 289 343 410
#     4  12  27  42  69 102 139 183 235 292 353 415
#     4  12  22  46  66  94 138 180 242 282 344 422
#     4  11  23  47  73  99 135 187 234 272 341 427
#     4  12  26  42  68 102 136 184 236 292 350 412
#     4  11  24  43  69 101 135 183 233 280 342 416
#     4  11  26  46  72 102 138 184 234 290 347 415
#     4  12  25  42  71 106 143 178 222 291 350 406
#
# _framework density 21.593924999999999
#
# number of rings (size 3 to 8) (size 9 to 14) (size 15 to 20)
#    0.000    0.571    4.286    4.714    5.000    1.143 
#    1.286    0.000    3.143    0.000    0.000    0.000 
#    0.000    0.000    0.000    0.000    0.000    0.000 
#
# Total GULP energy -78040.543365 kJ/mol
# GULP energy per Si atom -5574.324526 kJ/mol
# Density = 2.154478 g / cm^3
# Si number density = 21.593925 Si / 1000 Ang^3
#
#
#
# Elastic Constant Matrix: (Units=GPa)
#
#
# Indices 1 2 3 4 5 6 
#
# 1 89.2641 22.5310 30.5223 0.0000 20.7150 0.0000
# 2 22.5310 134.1975 38.7509 0.0000 17.6724 0.0000
# 3 30.5223 38.7509 136.2469 0.0000 26.7106 0.0000
# 4 0.0000 0.0000 0.0000 42.3263 0.0000 -0.5769
# 5 20.7150 17.6724 26.7106 0.0000 41.7105 0.0000
# 6 0.0000 0.0000 0.0000 -0.5769 0.0000 50.2719
#
#
#
# Elastic Compliance Matrix: (Units=1/GPa)
#
#
# Indices 1 2 3 4 5 6 
#
# 1 0.013213 -0.001073 -0.001667 0.000000 -0.005040 0.000000
# 2 -0.001073 0.008393 -0.001777 0.000000 -0.001885 0.000000
# 3 -0.001667 -0.001777 0.009044 0.000000 -0.004211 0.000000
# 4 0.000000 0.000000 0.000000 0.023630 0.000000 0.000271
# 5 -0.005040 -0.001885 -0.004211 0.000000 0.029973 0.000000
# 6 0.000000 0.000000 0.000000 0.000271 0.000000 0.019895
#
#
# Mechanical properties :
#
#
# Convention : Reuss Voigt Hill
#
# Bulk Modulus (GPa) = 46.26224 60.36856 53.31540
# Shear Modulus (GPa) = 41.53238 44.72202 43.12720
#
# Velocity S-wave (km/s) = 4.39034 4.55581 4.47384
# Velocity P-wave (km/s) = 6.86807 7.46263 7.17152
#
# Compressibility (1/GPa) = 0.02161590
#
# Stress axis : x y z
#
# Youngs Moduli (GPa) = 75.68216 119.14203 110.57093
#
# Poissons Ratio (x) = 0.12789 0.18428
# Poissons Ratio (y) = 0.08124 0.19651
# Poissons Ratio (z) = 0.12614 0.21174
#
# Static dielectric constant tensor:
#      x y z
#    x 1.691710 0.000000 0.042910 
#    y 0.000000 1.935200 0.000000 
#    z 0.042910 0.000000 1.649590 
# 
# From -- ./inp_files/4420.got.cif
#   From: 2010.05.17/outbox.cif.g08.bks.cpg/sg3_3_cif.got.tgz:4420.got - 2010.06.03 18:33:08.
