data_PCOD9114183
_publ_section_title
;
Structure prediction by ZEFSAII (Michael W. Deem and Ramdas Pophale) SiO2 
 PCOD9114183
Probable space group: P 2
;
_chemical_formula_sum "Si O2"
_cell_formula_units_Z 8
_cell_length_a 13.357688
_cell_length_b 5.149538
_cell_length_c 12.703133
_cell_angle_alpha 90.000000
_cell_angle_beta 22.327124
_cell_angle_gamma 90.000000
_cell_volume 331.950229
_symmetry_space_group_name_H-M "P 2"
_symmetry_group_IT_number 3
_symmetry_cell_setting 'monoclinic'
loop_
_space_group_symop_operation_xyz
x,y,z
-x,y,-z
loop_
_atom_site_type_symbol
_atom_site_label
_atom_site_fract_x
_atom_site_fract_y
_atom_site_fract_z
Si Si1 0.608332 0.625000 0.007883
Si Si2 0.491706 0.426174 0.682954
Si Si3 0.189181 0.946502 0.915211
Si Si4 0.130442 0.782083 0.589507
O O1 0.598254 0.404610 0.107187
O O2 0.400184 0.828801 0.263621
O O3 0.500000 0.553169 0.000000
O O4 0.906286 0.719790 0.722722
O O5 0.332455 0.667281 0.786083
O O6 0.784489 0.540168 0.416567
O O7 0.413587 0.165966 0.700976
O O8 0.000000 0.964061 0.000000
O O9 0.002569 0.975687 0.199615
#
# Coordination Sequence:
#
# PCOD9114183 Si02
#       4
#     2   2   2   2
#     4   9  18  40  71  97 138 180 223 288 352 406
#     4   9  23  39  67 100 139 174 239 277 342 421
#     4  11  22  44  68 100 140 188 226 292 348 410
#     4   9  21  40  65 102 138 171 237 277 339 422
#
# _framework density 24.099996999999998
#
# number of rings (size 3 to 8) (size 9 to 14) (size 15 to 20)
#    1.500    1.000    0.000    1.500    0.000    5.000 
#    0.000    7.500    0.000    0.000    0.000    0.000 
#    0.000    0.000    0.000    0.000    0.000    0.000 
#
# Total GULP energy -44587.474161 kJ/mol
# GULP energy per Si atom -5573.434270 kJ/mol
# Density = 2.404514 g / cm^3
# Si number density = 24.099997 Si / 1000 Ang^3
#
#
#
# Elastic Constant Matrix: (Units=GPa)
#
#
# Indices 1 2 3 4 5 6 
#
# 1 196.4023 40.5178 30.6514 0.0000 -40.1100 0.0000
# 2 40.5178 121.5354 29.7757 0.0000 -18.2818 0.0000
# 3 30.6514 29.7757 120.8004 0.0000 -35.5018 0.0000
# 4 0.0000 0.0000 0.0000 11.2744 0.0000 -9.7619
# 5 -40.1100 -18.2818 -35.5018 0.0000 51.9055 0.0000
# 6 0.0000 0.0000 0.0000 -9.7619 0.0000 15.4436
#
#
#
# Elastic Compliance Matrix: (Units=1/GPa)
#
#
# Indices 1 2 3 4 5 6 
#
# 1 0.006275 -0.001446 0.000050 0.000000 0.004374 0.000000
# 2 -0.001446 0.009261 -0.001609 0.000000 0.001044 0.000000
# 3 0.000050 -0.001609 0.010647 0.000000 0.006754 0.000000
# 4 0.000000 0.000000 0.000000 0.195930 0.000000 0.123848
# 5 0.004374 0.001044 0.006754 0.000000 0.027633 0.000000
# 6 0.000000 0.000000 0.000000 0.123848 0.000000 0.143036
#
#
# Mechanical properties :
#
#
# Convention : Reuss Voigt Hill
#
# Bulk Modulus (GPa) = 49.57279 71.18089 60.37684
# Shear Modulus (GPa) = 12.32989 38.24424 25.28706
#
# Velocity S-wave (km/s) = 2.26434 3.98791 3.24274
# Velocity P-wave (km/s) = 5.23933 7.12772 6.25520
#
# Compressibility (1/GPa) = 0.02017236
#
# Stress axis : x y z
#
# Youngs Moduli (GPa) = 159.35037 107.97419 93.92292
#
# Poissons Ratio (x) = 0.15617 -0.00466
# Poissons Ratio (y) = 0.23048 0.15113
# Poissons Ratio (z) = -0.00791 0.17374
#
# Static dielectric constant tensor:
#      x y z
#    x 1.896150 0.000000 0.018450 
#    y 0.000000 1.948570 0.000000 
#    z 0.018450 0.000000 1.997040 
# 
# From -- ./inp_files/1824.got.cif
#   From: 2010.05.17/outbox.cif.g08.bks.cpg/sg3_1_cif.got.tgz:1824.got - 2010.06.03 18:33:08.
