data_PCOD9114918
_publ_section_title
;
Structure prediction by ZEFSAII (Michael W. Deem and Ramdas Pophale) SiO2 
 PCOD9114918
Probable space group: P 21
;
_chemical_formula_sum "Si O2"
_cell_formula_units_Z 16
_cell_length_a 11.008841
_cell_length_b 11.146183
_cell_length_c 5.745461
_cell_angle_alpha 90.000000
_cell_angle_beta 63.790523
_cell_angle_gamma 90.000000
_cell_volume 632.520802
_symmetry_space_group_name_H-M "P 21"
_symmetry_group_IT_number 4
_symmetry_cell_setting 'monoclinic'
loop_
_space_group_symop_operation_xyz
x,y,z
-x,1/2+y,-z
loop_
_atom_site_type_symbol
_atom_site_label
_atom_site_fract_x
_atom_site_fract_y
_atom_site_fract_z
Si Si1 0.954813 0.053940 0.613910
Si Si2 0.831825 0.762696 0.520441
Si Si3 0.068807 0.017115 0.016647
Si Si4 0.520317 0.328061 0.582316
Si Si5 0.408295 0.074461 0.212704
Si Si6 0.319228 0.673605 0.234254
Si Si7 0.310547 0.895330 0.939300
Si Si8 0.209877 0.281064 0.932928
O O1 0.801881 0.081620 0.669105
O O2 0.036910 0.179945 0.566054
O O3 0.021945 0.994355 0.325224
O O4 0.975617 0.009860 0.864322
O O5 0.700561 0.672184 0.608370
O O6 0.830346 0.837136 0.282865
O O7 0.821153 0.826226 0.779819
O O8 0.133200 0.152160 0.974481
O O9 0.190326 0.923284 0.864326
O O10 0.560419 0.456548 0.660008
O O11 0.622841 0.222173 0.571054
O O12 0.548085 0.353630 0.290688
O O13 0.373134 0.286978 0.784682
O O14 0.338455 0.018317 0.045624
O O15 0.552011 0.126304 0.016761
O O16 0.267229 0.792800 0.150655
#
# Coordination Sequence:
#
# PCOD9114918 Si02
#       8
#     2   2   2   2   2   2   2   2
#     4  10  22  41  65  93 127 174 220 270 332 391
#     4  10  19  39  66  83 125 174 217 255 331 405
#     4  10  21  43  70  89 132 182 222 262 338 416
#     4  11  23  37  66  95 136 172 227 285 336 407
#     4  11  22  41  63  94 131 178 221 277 343 402
#     4  11  25  41  65 102 138 171 224 294 337 393
#     4  11  23  40  69  99 130 182 234 269 344 412
#     4  10  19  36  64  93 121 173 219 270 321 400
#
# _framework density 25.295611000000001
#
# number of rings (size 3 to 8) (size 9 to 14) (size 15 to 20)
#    0.000    1.500    3.750    2.250    5.250    1.000 
#    0.000    5.000    0.000    0.000    0.000    0.000 
#    0.000    0.000    0.000    0.000    0.000    0.000 
#
# Total GULP energy -89362.011419 kJ/mol
# GULP energy per Si atom -5585.125714 kJ/mol
# Density = 2.523804 g / cm^3
# Si number density = 25.295611 Si / 1000 Ang^3
#
#
#
# Elastic Constant Matrix: (Units=GPa)
#
#
# Indices 1 2 3 4 5 6 
#
# 1 99.4613 38.9608 35.0625 0.0000 13.6908 0.0000
# 2 38.9608 70.8754 30.1967 0.0000 5.1919 0.0000
# 3 35.0625 30.1967 157.5118 0.0000 26.6716 0.0000
# 4 0.0000 0.0000 0.0000 26.3554 0.0000 -2.9771
# 5 13.6908 5.1919 26.6716 0.0000 41.0645 0.0000
# 6 0.0000 0.0000 0.0000 -2.9771 0.0000 34.2026
#
#
#
# Elastic Compliance Matrix: (Units=1/GPa)
#
#
# Indices 1 2 3 4 5 6 
#
# 1 0.013503 -0.006685 -0.001242 0.000000 -0.002850 0.000000
# 2 -0.006685 0.018674 -0.002325 0.000000 0.001378 0.000000
# 3 -0.001242 -0.002325 0.007810 0.000000 -0.004365 0.000000
# 4 0.000000 0.000000 0.000000 0.038320 0.000000 0.003335
# 5 -0.002850 0.001378 -0.004365 0.000000 0.027963 0.000000
# 6 0.000000 0.000000 0.000000 0.003335 0.000000 0.029528
#
#
# Mechanical properties :
#
#
# Convention : Reuss Voigt Hill
#
# Bulk Modulus (GPa) = 51.32630 59.58761 55.45696
# Shear Modulus (GPa) = 30.71359 35.23306 32.97333
#
# Velocity S-wave (km/s) = 3.48830 3.73614 3.61435
# Velocity P-wave (km/s) = 6.04640 6.49764 6.27608
#
# Compressibility (1/GPa) = 0.01948319
#
# Stress axis : x y z
#
# Youngs Moduli (GPa) = 74.05912 53.55124 128.04179
#
# Poissons Ratio (x) = 0.35798 0.15897
# Poissons Ratio (y) = 0.49507 0.29773
# Poissons Ratio (z) = 0.09195 0.12452
#
# Static dielectric constant tensor:
#      x y z
#    x 2.031080 0.000000 0.048390 
#    y 0.000000 2.045180 0.000000 
#    z 0.048390 0.000000 2.026890 
# 
# From -- ./inp_files/3039.got.cif
#   From: 2010.05.17/outbox.cif.g08.bks.cpg/sg4_2_cif.got.tgz:3039.got - 2010.06.03 18:43:04.
