data_PCOD9114502
_publ_section_title
;
Structure prediction by ZEFSAII (Michael W. Deem and Ramdas Pophale) SiO2 
 PCOD9114502
Probable space group: P 21
;
_chemical_formula_sum "Si O2"
_cell_formula_units_Z 16
_cell_length_a 19.308277
_cell_length_b 4.958363
_cell_length_c 8.887888
_cell_angle_alpha 90.000000
_cell_angle_beta 105.104711
_cell_angle_gamma 90.000000
_cell_volume 821.506005
_symmetry_space_group_name_H-M "P 21"
_symmetry_group_IT_number 4
_symmetry_cell_setting 'monoclinic'
loop_
_space_group_symop_operation_xyz
x,y,z
-x,1/2+y,-z
loop_
_atom_site_type_symbol
_atom_site_label
_atom_site_fract_x
_atom_site_fract_y
_atom_site_fract_z
Si Si1 0.160394 0.742760 0.639763
Si Si2 0.720179 0.919786 0.670792
Si Si3 0.008408 0.865563 0.606929
Si Si4 0.338052 0.902371 0.195512
Si Si5 0.685497 0.421485 0.167845
Si Si6 0.634860 0.936078 0.317315
Si Si7 0.857092 0.742448 0.579568
Si Si8 0.506669 0.235918 0.604939
O O1 0.089653 0.802169 0.699278
O O2 0.234438 0.807823 0.762227
O O3 0.156779 0.443994 0.569615
O O4 0.154283 0.944014 0.492348
O O5 0.677056 0.671108 0.718166
O O6 0.679662 0.002878 0.493700
O O7 0.799046 0.819352 0.670859
O O8 0.716856 0.172209 0.779918
O O9 0.997275 0.671123 0.454355
O O10 0.940139 0.792610 0.669816
O O11 0.416681 0.787723 0.277192
O O12 0.330135 0.959738 0.015593
O O13 0.675184 0.697541 0.252490
O O14 0.633544 0.198580 0.212741
O O15 0.557774 0.827610 0.324380
O O16 0.502280 0.430595 0.456131
#
# Coordination Sequence:
#
# PCOD9114502 Si02
#       8
#     2   2   2   2   2   2   2   2
#     4  10  17  32  53  80 114 145 176 231 283 323
#     4  12  21  39  62  85 112 151 195 230 276 336
#     4   8  16  27  46  80 111 137 177 230 276 311
#     4  12  26  40  58  86 118 149 185 235 292 337
#     4  12  24  39  58  89 118 147 187 235 286 336
#     4  12  23  39  65  83 110 153 194 230 278 338
#     4  10  18  30  56  83 107 141 193 232 262 325
#     4  12  23  40  62  84 112 147 189 237 281 332
#
# _framework density 19.476426
#
# number of rings (size 3 to 8) (size 9 to 14) (size 15 to 20)
#    0.000    1.000    5.000    3.000    0.000    1.000 
#    0.000    0.000    0.000    1.500    0.000    0.000 
#    0.000    0.000    0.000    0.000    0.000    0.000 
#
# Total GULP energy -89417.144501 kJ/mol
# GULP energy per Si atom -5588.571531 kJ/mol
# Density = 1.943210 g / cm^3
# Si number density = 19.476426 Si / 1000 Ang^3
#
#
#
# Elastic Constant Matrix: (Units=GPa)
#
#
# Indices 1 2 3 4 5 6 
#
# 1 103.7042 -20.3929 20.2614 0.0000 -4.2200 0.0000
# 2 -20.3929 57.6481 -6.1173 0.0000 -4.1431 0.0000
# 3 20.2614 -6.1173 47.2588 0.0000 -8.9487 0.0000
# 4 0.0000 0.0000 0.0000 12.9885 0.0000 -5.6463
# 5 -4.2200 -4.1431 -8.9487 0.0000 16.3236 0.0000
# 6 0.0000 0.0000 0.0000 -5.6463 0.0000 26.3464
#
#
#
# Elastic Compliance Matrix: (Units=1/GPa)
#
#
# Indices 1 2 3 4 5 6 
#
# 1 0.011215 0.003656 -0.004028 0.000000 0.001619 0.000000
# 2 0.003656 0.019395 0.002292 0.000000 0.007124 0.000000
# 3 -0.004028 0.002292 0.025772 0.000000 0.013669 0.000000
# 4 0.000000 0.000000 0.000000 0.084901 0.000000 0.018195
# 5 0.001619 0.007124 0.013669 0.000000 0.070981 0.000000
# 6 0.000000 0.000000 0.000000 0.018195 0.000000 0.041855
#
#
# Mechanical properties :
#
#
# Convention : Reuss Voigt Hill
#
# Bulk Modulus (GPa) = 16.60528 21.79040 19.19784
# Shear Modulus (GPa) = 18.49432 25.45570 21.97501
#
# Velocity S-wave (km/s) = 3.08486 3.61917 3.36264
# Velocity P-wave (km/s) = 4.60791 5.35508 4.99548
#
# Compressibility (1/GPa) = 0.06022180
#
# Stress axis : x y z
#
# Youngs Moduli (GPa) = 89.16896 51.55911 38.80163
#
# Poissons Ratio (x) = -0.18850 0.15630
# Poissons Ratio (y) = -0.32601 -0.08894
# Poissons Ratio (z) = 0.35920 -0.11818
#
# Static dielectric constant tensor:
#      x y z
#    x 1.740650 0.000000 -0.005890 
#    y 0.000000 1.670710 0.000000 
#    z -0.005890 0.000000 1.631350 
# 
# From -- ./inp_files/9367.got.cif
#   From: 2010.05.17/outbox.cif.g08.bks.cpg/sg4_5_cif.got.tgz:9367.got - 2010.06.03 18:43:04.
