data_PCOD9114494
_publ_section_title
;
Structure prediction by ZEFSAII (Michael W. Deem and Ramdas Pophale) SiO2 
 PCOD9114494
Probable space group: P 21
;
_chemical_formula_sum "Si O2"
_cell_formula_units_Z 14
_cell_length_a 23.642138
_cell_length_b 4.944887
_cell_length_c 18.689367
_cell_angle_alpha 90.000000
_cell_angle_beta 161.862927
_cell_angle_gamma 90.000000
_cell_volume 680.150189
_symmetry_space_group_name_H-M "P 21"
_symmetry_group_IT_number 4
_symmetry_cell_setting 'monoclinic'
loop_
_space_group_symop_operation_xyz
x,y,z
-x,1/2+y,-z
loop_
_atom_site_type_symbol
_atom_site_label
_atom_site_fract_x
_atom_site_fract_y
_atom_site_fract_z
Si Si1 0.217281 0.111780 0.625078
Si Si2 0.330044 0.264582 0.910447
Si Si3 0.277558 0.612215 0.601936
Si Si4 0.419909 0.386631 0.367322
Si Si5 0.183355 0.768582 0.803180
Si Si6 0.903866 0.641195 0.092270
Si Si7 0.716405 0.113696 0.928307
O O1 0.271210 0.309289 0.624840
O O2 0.016341 0.189740 0.410517
O O3 0.227825 0.809991 0.608302
O O4 0.343815 0.173386 0.844994
O O5 0.522233 0.204926 0.178738
O O6 0.260729 0.567323 0.836284
O O7 0.187631 0.068722 0.778313
O O8 0.120028 0.640662 0.353339
O O9 0.455574 0.630858 0.464443
O O10 0.444727 0.516696 0.317786
O O11 0.213779 0.268209 0.114015
O O12 0.312137 0.724129 0.027230
O O13 0.840376 0.844389 0.079577
O O14 0.825987 0.346674 0.017391
#
# Coordination Sequence:
#
# PCOD9114494 Si02
#       7
#     2   2   2   2   2   2   2
#     4  12  22  40  60  77 112 159 201 248 291 328
#     4  12  26  36  56  86 116 149 203 250 285 326
#     4  12  22  40  58  82 115 155 198 239 290 345
#     4  10  17  30  53  90 118 127 178 242 280 320
#     4  12  22  40  55  83 116 153 194 241 288 348
#     4  10  18  33  54  82 109 149 176 223 289 333
#     4  10  19  33  56  78 114 146 178 219 295 328
#
# _framework density 20.583691000000002
#
# number of rings (size 3 to 8) (size 9 to 14) (size 15 to 20)
#    0.857    0.000    4.286    5.143    0.000    0.000 
#    0.000    0.000    0.000    0.000    0.000    4.000 
#    0.000    0.000    0.000    0.000    0.000    0.000 
#
# Total GULP energy -78092.174442 kJ/mol
# GULP energy per Si atom -5578.012460 kJ/mol
# Density = 2.053684 g / cm^3
# Si number density = 20.583691 Si / 1000 Ang^3
#
#
#
# Elastic Constant Matrix: (Units=GPa)
#
#
# Indices 1 2 3 4 5 6 
#
# 1 19.2471 4.0589 13.4848 0.0000 -12.2137 0.0000
# 2 4.0589 80.4795 14.7676 0.0000 -7.3459 0.0000
# 3 13.4848 14.7676 88.4884 0.0000 -16.6388 0.0000
# 4 0.0000 0.0000 0.0000 17.4271 0.0000 -3.6114
# 5 -12.2137 -7.3459 -16.6388 0.0000 32.6708 0.0000
# 6 0.0000 0.0000 0.0000 -3.6114 0.0000 29.7633
#
#
#
# Elastic Compliance Matrix: (Units=1/GPa)
#
#
# Indices 1 2 3 4 5 6 
#
# 1 0.071325 -0.000288 -0.006436 0.000000 0.023322 0.000000
# 2 -0.000288 0.012936 -0.001757 0.000000 0.001907 0.000000
# 3 -0.006436 -0.001757 0.013324 0.000000 0.003985 0.000000
# 4 0.000000 0.000000 0.000000 0.058862 0.000000 0.007142
# 5 0.023322 0.001907 0.003985 0.000000 0.041785 0.000000
# 6 0.000000 0.000000 0.000000 0.007142 0.000000 0.034465
#
#
# Mechanical properties :
#
#
# Convention : Reuss Voigt Hill
#
# Bulk Modulus (GPa) = 12.40302 28.09308 20.24805
# Shear Modulus (GPa) = 18.08099 26.36581 22.22340
#
# Velocity S-wave (km/s) = 2.96702 3.58286 3.28938
# Velocity P-wave (km/s) = 4.21620 5.54921 4.92798
#
# Compressibility (1/GPa) = 0.08062553
#
# Stress axis : x y z
#
# Youngs Moduli (GPa) = 14.02027 77.30138 75.05177
#
# Poissons Ratio (x) = 0.02223 0.48303
# Poissons Ratio (y) = 0.00403 0.13184
# Poissons Ratio (z) = 0.09023 0.13579
#
# Static dielectric constant tensor:
#      x y z
#    x 1.747590 0.000000 -0.042190 
#    y 0.000000 1.726900 0.000000 
#    z -0.042190 0.000000 1.808570 
# 
# From -- ./inp_files/15382.got.cif
#   From: 2010.05.17/outbox.cif.g08.bks.cpg/sg4_8_cif.got.tgz:15382.got - 2010.06.03 18:43:04.
