data_PCOD9114595
_publ_section_title
;
Structure prediction by ZEFSAII (Michael W. Deem and Ramdas Pophale) SiO2 
 PCOD9114595
Probable space group: P 21
;
_chemical_formula_sum "Si O2"
_cell_formula_units_Z 16
_cell_length_a 16.759756
_cell_length_b 7.609063
_cell_length_c 11.152672
_cell_angle_alpha 90.000000
_cell_angle_beta 151.004072
_cell_angle_gamma 90.000000
_cell_volume 689.435026
_symmetry_space_group_name_H-M "P 21"
_symmetry_group_IT_number 4
_symmetry_cell_setting 'monoclinic'
loop_
_space_group_symop_operation_xyz
x,y,z
-x,1/2+y,-z
loop_
_atom_site_type_symbol
_atom_site_label
_atom_site_fract_x
_atom_site_fract_y
_atom_site_fract_z
Si Si1 0.126596 0.048890 0.535497
Si Si2 0.555540 0.419157 0.194598
Si Si3 0.627723 0.025754 0.276865
Si Si4 0.986186 0.569996 0.184969
Si Si5 0.972348 0.204169 0.101743
Si Si6 0.146003 0.263871 0.785986
Si Si7 0.351606 0.213266 0.520154
Si Si8 0.227818 0.379342 0.138252
O O1 0.276920 0.963689 0.659907
O O2 0.013684 0.157037 0.294303
O O3 0.192271 0.186285 0.719290
O O4 0.010961 0.893053 0.433064
O O5 0.552060 0.212550 0.212438
O O6 0.564905 0.535520 0.326103
O O7 0.417160 0.482779 0.919280
O O8 0.822030 0.044808 0.549641
O O9 0.581060 0.863586 0.301109
O O10 0.917324 0.405586 0.021581
O O11 0.905588 0.588277 0.208934
O O12 0.939545 0.760352 0.072259
O O13 0.154439 0.189689 0.284238
O O14 0.829438 0.065605 0.883180
O O15 0.258029 0.362300 0.034542
O O16 0.360805 0.284114 0.396689
#
# Coordination Sequence:
#
# PCOD9114595 Si02
#       8
#     2   2   2   2   2   2   2   2
#     4  10  18  34  52  80 112 144 183 229 269 326
#     4  11  21  37  56  83 113 147 190 232 270 335
#     4  11  20  36  54  79 114 147 185 231 276 329
#     4   9  18  33  51  77 112 142 172 225 274 333
#     4   9  18  29  48  75 109 138 174 211 271 333
#     4   9  18  32  53  77 113 141 178 227 274 325
#     4  10  21  32  54  78 112 151 177 222 287 336
#     4   9  20  33  48  85 111 142 175 225 277 343
#
# _framework density 23.207408999999998
#
# number of rings (size 3 to 8) (size 9 to 14) (size 15 to 20)
#    0.750    1.500    2.500    1.500    3.500    1.000 
#    0.000    0.000    0.000    0.000    3.250    0.000 
#    0.000    0.000    0.000    0.000    0.000    0.000 
#
# Total GULP energy -89214.207795 kJ/mol
# GULP energy per Si atom -5575.887987 kJ/mol
# Density = 2.315459 g / cm^3
# Si number density = 23.207409 Si / 1000 Ang^3
#
#
#
# Elastic Constant Matrix: (Units=GPa)
#
#
# Indices 1 2 3 4 5 6 
#
# 1 38.3866 18.1941 19.5838 0.0000 -4.8855 0.0000
# 2 18.1941 113.8797 12.4596 0.0000 7.9324 0.0000
# 3 19.5838 12.4596 69.0728 0.0000 -19.5290 0.0000
# 4 0.0000 0.0000 0.0000 27.4504 0.0000 -7.1379
# 5 -4.8855 7.9324 -19.5290 0.0000 23.8952 0.0000
# 6 0.0000 0.0000 0.0000 -7.1379 0.0000 10.8517
#
#
#
# Elastic Compliance Matrix: (Units=1/GPa)
#
#
# Indices 1 2 3 4 5 6 
#
# 1 0.032398 -0.004420 -0.007934 0.000000 0.001607 0.000000
# 2 -0.004420 0.010173 -0.002331 0.000000 -0.006186 0.000000
# 3 -0.007934 -0.002331 0.021988 0.000000 0.017122 0.000000
# 4 0.000000 0.000000 0.000000 0.043946 0.000000 0.028906
# 5 0.001607 -0.006186 0.017122 0.000000 0.058225 0.000000
# 6 0.000000 0.000000 0.000000 0.028906 0.000000 0.111165
#
#
# Mechanical properties :
#
#
# Convention : Reuss Voigt Hill
#
# Bulk Modulus (GPa) = 28.41717 35.75713 32.08715
# Shear Modulus (GPa) = 15.67420 23.84622 19.76021
#
# Velocity S-wave (km/s) = 2.60166 3.20898 2.92115
# Velocity P-wave (km/s) = 4.61479 5.40103 5.02332
#
# Compressibility (1/GPa) = 0.03518999
#
# Stress axis : x y z
#
# Youngs Moduli (GPa) = 30.86615 98.29698 45.47852
#
# Poissons Ratio (x) = 0.43447 0.36083
# Poissons Ratio (y) = 0.13643 0.10600
# Poissons Ratio (z) = 0.24489 0.22911
#
# Static dielectric constant tensor:
#      x y z
#    x 1.954750 0.000000 -0.027090 
#    y 0.000000 1.898610 0.000000 
#    z -0.027090 0.000000 1.900500 
# 
# From -- ./inp_files/13054.got.cif
#   From: 2010.05.17/outbox.cif.g08.bks.cpg/sg4_7_cif.got.tgz:13054.got - 2010.06.03 18:43:04.
