data_PCOD9114009
_publ_section_title
;
Structure prediction by ZEFSAII (Michael W. Deem and Ramdas Pophale) SiO2 
 PCOD9114009
Probable space group: P 2
;
_chemical_formula_sum "Si O2"
_cell_formula_units_Z 14
_cell_length_a 8.967746
_cell_length_b 8.037119
_cell_length_c 9.172732
_cell_angle_alpha 90.000000
_cell_angle_beta 122.520558
_cell_angle_gamma 90.000000
_cell_volume 557.458167
_symmetry_space_group_name_H-M "P 2"
_symmetry_group_IT_number 3
_symmetry_cell_setting 'monoclinic'
loop_
_space_group_symop_operation_xyz
x,y,z
-x,y,-z
loop_
_atom_site_type_symbol
_atom_site_label
_atom_site_fract_x
_atom_site_fract_y
_atom_site_fract_z
Si Si1 0.888592 0.184080 0.582816
Si Si2 0.750818 0.684786 0.424852
Si Si3 0.500000 0.489738 0.500000
Si Si4 0.828338 0.031736 0.853717
Si Si5 0.500000 0.248741 0.000000
Si Si6 0.258477 0.394770 0.108555
Si Si7 0.414792 0.037322 0.707391
Si Si8 0.064490 0.540085 0.750882
O O1 0.880662 0.062168 0.714693
O O2 0.000000 0.127303 0.500000
O O3 0.978197 0.359732 0.669838
O O4 0.677255 0.183764 0.435909
O O5 0.593507 0.600688 0.427937
O O6 0.697791 0.871791 0.364162
O O7 0.791117 0.583031 0.297513
O O8 0.914464 0.670191 0.623649
O O9 0.340573 0.417153 0.312802
O O10 0.829059 0.212790 0.932043
O O11 0.618598 0.991896 0.770849
O O12 0.000000 0.930769 0.000000
O O13 0.587166 0.362652 0.926070
O O14 0.384559 0.116798 0.850077
O O15 0.137027 0.524766 0.953881
#
# Coordination Sequence:
#
# PCOD9114009 Si02
#       8
#     2   2   1   2   1   2   2   2
#     4  12  24  43  81 115 149 202 268 341 401 473
#     4  11  27  48  74 112 162 220 257 325 420 502
#     4  12  28  42  78 112 162 218 268 334 418 486
#     4  11  25  45  76 114 153 201 269 347 399 468
#     4  10  24  44  78 112 152 210 276 342 394 474
#     4  11  24  44  76 120 152 203 276 348 397 466
#     4  11  28  47  77 114 163 215 270 328 419 495
#     4  11  24  48  76 114 159 208 274 333 404 485
#
# _framework density 25.113993000000001
#
# number of rings (size 3 to 8) (size 9 to 14) (size 15 to 20)
#    0.000    0.857    2.857    3.000   14.000    1.143 
#    0.000    1.429    0.000    0.000    0.000    0.000 
#    0.000    0.000    0.000    0.000    0.000    0.000 
#
# Total GULP energy -78083.010391 kJ/mol
# GULP energy per Si atom -5577.357885 kJ/mol
# Density = 2.505683 g / cm^3
# Si number density = 25.113993 Si / 1000 Ang^3
#
#
#
# Elastic Constant Matrix: (Units=GPa)
#
#
# Indices 1 2 3 4 5 6 
#
# 1 138.5274 26.6157 25.0508 0.0000 -6.8091 0.0000
# 2 26.6157 83.9094 53.8476 0.0000 4.7073 0.0000
# 3 25.0508 53.8476 182.8917 0.0000 4.4154 0.0000
# 4 0.0000 0.0000 0.0000 25.0292 0.0000 1.5088
# 5 -6.8091 4.7073 4.4154 0.0000 47.5178 0.0000
# 6 0.0000 0.0000 0.0000 1.5088 0.0000 0.8809
#
#
#
# Elastic Compliance Matrix: (Units=1/GPa)
#
#
# Indices 1 2 3 4 5 6 
#
# 1 0.007802 -0.002275 -0.000432 0.000000 0.001384 0.000000
# 2 -0.002275 0.015410 -0.004190 0.000000 -0.001463 0.000000
# 3 -0.000432 -0.004190 0.006767 0.000000 -0.000276 0.000000
# 4 0.000000 0.000000 0.000000 0.044553 0.000000 -0.076312
# 5 0.001384 -0.001463 -0.000276 0.000000 0.021414 0.000000
# 6 0.000000 0.000000 0.000000 -0.076312 0.000000 1.265967
#
#
# Mechanical properties :
#
#
# Convention : Reuss Voigt Hill
#
# Bulk Modulus (GPa) = 61.78668 68.48409 65.13539
# Shear Modulus (GPa) = 3.62029 34.67321 19.14675
#
# Velocity S-wave (km/s) = 1.20195 3.71972 2.76414
# Velocity P-wave (km/s) = 5.15579 6.76586 6.01494
#
# Compressibility (1/GPa) = 0.01618472
#
# Stress axis : x y z
#
# Youngs Moduli (GPa) = 128.17121 64.89144 147.76993
#
# Poissons Ratio (x) = 0.14763 0.06387
# Poissons Ratio (y) = 0.29159 0.61919
# Poissons Ratio (z) = 0.05540 0.27191
#
# Static dielectric constant tensor:
#      x y z
#    x 2.139670 0.000000 0.084420 
#    y 0.000000 1.976810 0.000000 
#    z 0.084420 0.000000 2.219250 
# 
# From -- ./inp_files/5664.got.cif
#   From: 2010.05.17/outbox.cif.g08.bks.cpg/sg3_3_cif.got.tgz:5664.got - 2010.06.03 18:33:08.
