data_PCOD9114954
_publ_section_title
;
Structure prediction by ZEFSAII (Michael W. Deem and Ramdas Pophale) SiO2 
 PCOD9114954
Probable space group: P 21
;
_chemical_formula_sum "Si O2"
_cell_formula_units_Z 12
_cell_length_a 13.574089
_cell_length_b 7.470217
_cell_length_c 8.762618
_cell_angle_alpha 90.000000
_cell_angle_beta 35.501243
_cell_angle_gamma 90.000000
_cell_volume 515.994455
_symmetry_space_group_name_H-M "P 21"
_symmetry_group_IT_number 4
_symmetry_cell_setting 'monoclinic'
loop_
_space_group_symop_operation_xyz
x,y,z
-x,1/2+y,-z
loop_
_atom_site_type_symbol
_atom_site_label
_atom_site_fract_x
_atom_site_fract_y
_atom_site_fract_z
Si Si1 0.160001 0.142940 0.756644
Si Si2 0.560299 0.905458 0.597611
Si Si3 0.139574 0.631803 0.418082
Si Si4 0.710396 0.766869 0.711744
Si Si5 0.212683 0.733234 0.658512
Si Si6 0.224378 0.975660 0.126313
O O1 0.305838 0.268351 0.646146
O O2 0.150051 0.205477 0.590687
O O3 0.973452 0.165059 0.058077
O O4 0.221151 0.940593 0.683017
O O5 0.570302 0.830258 0.763326
O O6 0.361717 0.928139 0.824778
O O7 0.645535 0.097681 0.461908
O O8 0.231513 0.443146 0.270681
O O9 0.158788 0.785835 0.271172
O O10 0.223570 0.710000 0.463432
O O11 0.944246 0.585856 0.700897
O O12 0.686600 0.603821 0.857559
#
# Coordination Sequence:
#
# PCOD9114954 Si02
#       6
#     2   2   2   2   2   2
#     4  10  19  37  64  86 109 145 199 236 284 327
#     4   9  23  32  58  88 109 146 193 240 268 341
#     4  11  22  37  57  80 121 161 178 233 287 349
#     4   9  21  35  56  88 108 157 184 237 282 337
#     4  11  19  38  63  84 113 150 192 238 287 335
#     4  12  22  37  56  86 122 149 194 224 296 337
#
# _framework density 23.256067000000002
#
# number of rings (size 3 to 8) (size 9 to 14) (size 15 to 20)
#    1.000    0.667    5.000    0.000    4.667    1.333 
#    0.000    0.000    7.333    0.000    0.000    0.000 
#    0.000    0.000    0.000    0.000    0.000    0.000 
#
# Total GULP energy -66927.575310 kJ/mol
# GULP energy per Si atom -5577.297942 kJ/mol
# Density = 2.320313 g / cm^3
# Si number density = 23.256067 Si / 1000 Ang^3
#
#
#
# Elastic Constant Matrix: (Units=GPa)
#
#
# Indices 1 2 3 4 5 6 
#
# 1 30.4110 17.0310 -6.7272 0.0000 2.8438 0.0000
# 2 17.0310 150.8923 19.5187 0.0000 -11.3027 0.0000
# 3 -6.7272 19.5187 82.2580 0.0000 -19.3257 0.0000
# 4 0.0000 0.0000 0.0000 33.4600 0.0000 0.6879
# 5 2.8438 -11.3027 -19.3257 0.0000 18.4110 0.0000
# 6 0.0000 0.0000 0.0000 0.6879 0.0000 15.2081
#
#
#
# Elastic Compliance Matrix: (Units=1/GPa)
#
#
# Indices 1 2 3 4 5 6 
#
# 1 0.036822 -0.004954 0.002835 0.000000 -0.005753 0.000000
# 2 -0.004954 0.007659 -0.001245 0.000000 0.004160 0.000000
# 3 0.002835 -0.001245 0.016461 0.000000 0.016077 0.000000
# 4 0.000000 0.000000 0.000000 0.029914 0.000000 -0.001353
# 5 -0.005753 0.004160 0.016077 0.000000 0.074633 0.000000
# 6 0.000000 0.000000 0.000000 -0.001353 0.000000 0.065815
#
#
# Mechanical properties :
#
#
# Convention : Reuss Voigt Hill
#
# Bulk Modulus (GPa) = 18.44494 35.91181 27.17837
# Shear Modulus (GPa) = 19.52328 28.99843 24.26085
#
# Velocity S-wave (km/s) = 2.90054 3.53500 3.23337
# Velocity P-wave (km/s) = 4.37790 5.66896 5.06474
#
# Compressibility (1/GPa) = 0.05421542
#
# Stress axis : x y z
#
# Youngs Moduli (GPa) = 27.15753 130.56458 60.74854
#
# Poissons Ratio (x) = 0.64678 -0.17224
# Poissons Ratio (y) = 0.13453 0.07564
# Poissons Ratio (z) = -0.07700 0.16257
#
# Static dielectric constant tensor:
#      x y z
#    x 1.958130 0.000000 -0.024300 
#    y 0.000000 1.882030 0.000000 
#    z -0.024300 0.000000 1.857200 
# 
# From -- ./inp_files/12893.got.cif
#   From: 2010.05.17/outbox.cif.g08.bks.cpg/sg4_7_cif.got.tgz:12893.got - 2010.06.03 18:43:04.
