data_PCOD9114189
_publ_section_title
;
Structure prediction by ZEFSAII (Michael W. Deem and Ramdas Pophale) SiO2 
 PCOD9114189
Probable space group: P 2
;
_chemical_formula_sum "Si O2"
_cell_formula_units_Z 14
_cell_length_a 5.664980
_cell_length_b 4.885654
_cell_length_c 26.539712
_cell_angle_alpha 90.000000
_cell_angle_beta 137.116066
_cell_angle_gamma 90.000000
_cell_volume 499.867928
_symmetry_space_group_name_H-M "P 2"
_symmetry_group_IT_number 3
_symmetry_cell_setting 'monoclinic'
loop_
_space_group_symop_operation_xyz
x,y,z
-x,y,-z
loop_
_atom_site_type_symbol
_atom_site_label
_atom_site_fract_x
_atom_site_fract_y
_atom_site_fract_z
Si Si1 0.183077 0.315790 0.481316
Si Si2 0.340222 0.716861 0.380596
Si Si3 0.733319 0.283096 0.785338
Si Si4 0.830070 0.322824 0.239928
Si Si5 0.636152 0.523397 0.916583
Si Si6 0.289025 0.701527 0.656695
Si Si7 0.642347 0.018774 0.077277
O O1 0.500000 0.182421 0.500000
O O2 0.619705 0.569387 0.459787
O O3 0.000000 0.167180 0.500000
O O4 0.896240 0.439345 0.399264
O O5 0.529666 0.853792 0.362152
O O6 0.107885 0.489242 0.315230
O O7 0.042918 0.844155 0.369521
O O8 0.392973 0.146706 0.756005
O O9 0.575278 0.570971 0.739554
O O10 0.958171 0.184607 0.772195
O O11 0.012339 0.198933 0.871147
O O12 0.524743 0.508747 0.165256
O O13 0.607597 0.209499 0.928922
O O14 0.350543 0.719661 0.897941
O O15 0.000000 0.616949 0.000000
O O16 0.500000 0.986446 0.000000
#
# Coordination Sequence:
#
# PCOD9114189 Si02
#       7
#     2   2   2   2   2   2   2
#     4   8  12  18  32  58  94 134 176 222 274 334
#     4   8  13  22  38  63  98 138 180 227 280 338
#     4   9  18  33  53  78 111 150 193 242 295 351
#     4   9  18  33  53  78 111 150 193 242 295 351
#     4  11  23  40  62  90 122 161 205 256 308 366
#     4   8  13  22  38  63  98 138 180 227 280 338
#     4  11  23  40  62  90 122 161 205 256 308 366
#
# _framework density 28.007394000000001
#
# number of rings (size 3 to 8) (size 9 to 14) (size 15 to 20)
#    0.000    2.857    0.000    1.714    0.000    2.286 
#    0.000    0.000    0.000    0.000    0.000    0.000 
#    0.000   56.000    0.000  268.571    0.000    3.429 
#
# Total GULP energy -78046.430358 kJ/mol
# GULP energy per Si atom -5574.745026 kJ/mol
# Density = 2.794365 g / cm^3
# Si number density = 28.007394 Si / 1000 Ang^3
#
#
#
# Elastic Constant Matrix: (Units=GPa)
#
#
# Indices 1 2 3 4 5 6 
#
# 1 234.8028 7.1202 4.5241 0.0000 -0.2107 0.0000
# 2 7.1202 78.2764 52.8008 0.0000 8.2733 0.0000
# 3 4.5241 52.8008 193.5248 0.0000 17.8501 0.0000
# 4 0.0000 0.0000 0.0000 39.8264 0.0000 -0.1524
# 5 -0.2107 8.2733 17.8501 0.0000 47.5198 0.0000
# 6 0.0000 0.0000 0.0000 -0.1524 0.0000 -26.8958
#
#
#
# Elastic Compliance Matrix: (Units=1/GPa)
#
#
# Indices 1 2 3 4 5 6 
#
# 1 0.004271 -0.000398 0.000001 0.000000 0.000088 0.000000
# 2 -0.000398 0.015756 -0.004181 0.000000 -0.001174 0.000000
# 3 0.000001 -0.004181 0.006465 0.000000 -0.001700 0.000000
# 4 0.000000 0.000000 0.000000 0.025108 0.000000 -0.000142
# 5 0.000088 -0.001174 -0.001700 0.000000 0.021887 0.000000
# 6 0.000000 0.000000 0.000000 -0.000142 0.000000 -0.037180
#
#
# Mechanical properties :
#
#
# Convention : Reuss Voigt Hill
#
# Bulk Modulus (GPa) = 57.68882 70.61048 64.14965
# Shear Modulus (GPa) = 97.57269 41.56732 69.57000
#
# Velocity S-wave (km/s) = 5.90879 3.85665 4.98937
# Velocity P-wave (km/s) = 8.19721 6.71549 7.49306
#
# Compressibility (1/GPa) = 0.01733438
#
# Stress axis : x y z
#
# Youngs Moduli (GPa) = 234.13518 63.46797 154.68108
#
# Poissons Ratio (x) = 0.02528 -0.00011
# Poissons Ratio (y) = 0.09325 0.64675
# Poissons Ratio (z) = -0.00016 0.26537
#
# Static dielectric constant tensor:
#      x y z
#    x 2.357450 0.000000 -0.022360 
#    y 0.000000 2.016990 0.000000 
#    z -0.022360 0.000000 2.211960 
# 
# From -- ./inp_files/16440.got.cif
#   From: 2010.05.17/outbox.cif.g08.bks.cpg/sg3_9_cif.got.tgz:16440.got - 2010.06.03 18:33:08.
