data_PCOD9114804
_publ_section_title
;
Structure prediction by ZEFSAII (Michael W. Deem and Ramdas Pophale) SiO2 
 PCOD9114804
Probable space group: P 21
;
_chemical_formula_sum "Si O2"
_cell_formula_units_Z 14
_cell_length_a 7.918318
_cell_length_b 9.461149
_cell_length_c 6.823516
_cell_angle_alpha 90.000000
_cell_angle_beta 72.883696
_cell_angle_gamma 90.000000
_cell_volume 488.552061
_symmetry_space_group_name_H-M "P 21"
_symmetry_group_IT_number 4
_symmetry_cell_setting 'monoclinic'
loop_
_space_group_symop_operation_xyz
x,y,z
-x,1/2+y,-z
loop_
_atom_site_type_symbol
_atom_site_label
_atom_site_fract_x
_atom_site_fract_y
_atom_site_fract_z
Si Si1 0.727081 0.121450 0.356249
Si Si2 0.727081 0.621449 0.356249
Si Si3 0.706420 0.222621 0.932529
Si Si4 0.293581 0.222619 0.067471
Si Si5 0.929609 0.976223 0.798492
Si Si6 0.500001 0.864138 0.499998
Si Si7 0.070389 0.976223 0.201509
O O1 0.751052 0.209515 0.149308
O O2 0.640439 0.243961 0.523747
O O3 0.604980 0.984613 0.342863
O O4 0.903343 0.044974 0.365443
O O5 0.751051 0.709512 0.149307
O O6 0.640440 0.743961 0.523744
O O7 0.604979 0.484612 0.342866
O O8 0.903344 0.544973 0.365443
O O9 0.500000 0.261574 1.000000
O O10 0.751805 0.067883 0.838356
O O11 0.857537 0.321150 0.789331
O O12 0.142465 0.321150 0.210669
O O13 0.248195 0.067881 0.161646
O O14 0.999999 0.981023 0.000000
#
# Coordination Sequence:
#
# PCOD9114804 Si02
#       7
#     2   2   2   2   2   2   2
#     4  10  20  36  57  84 109 149 191 222 273 326
#     4  10  20  36  57  84 109 149 191 222 273 326
#     4  11  21  34  57  88 116 137 173 239 295 324
#     4  11  21  34  57  88 116 137 173 239 295 324
#     4  10  19  34  56  82 111 142 184 230 273 327
#     4  10  20  34  58  80 112 148 194 230 246 328
#     4  10  19  34  56  82 111 142 184 230 273 327
#
# _framework density 28.656106999999999
#
# number of rings (size 3 to 8) (size 9 to 14) (size 15 to 20)
#    0.000    1.714    0.000    8.571    0.000    0.000 
#    0.000    0.000    0.000   25.714    0.000    0.000 
#    0.000    0.000    0.000    0.000    0.000    0.000 
#
# Total GULP energy -78149.394708 kJ/mol
# GULP energy per Si atom -5582.099622 kJ/mol
# Density = 2.859088 g / cm^3
# Si number density = 28.656107 Si / 1000 Ang^3
#
#
#
# Elastic Constant Matrix: (Units=GPa)
#
#
# Indices 1 2 3 4 5 6 
#
# 1 164.6373 42.3222 37.6583 0.0000 -13.7821 0.0000
# 2 42.3222 195.8442 29.6585 0.0000 -28.2375 0.0000
# 3 37.6583 29.6585 72.3626 0.0000 -24.6134 0.0000
# 4 0.0000 0.0000 0.0000 55.0392 0.0000 -36.3303
# 5 -13.7821 -28.2375 -24.6134 0.0000 48.7855 0.0000
# 6 0.0000 0.0000 0.0000 -36.3303 0.0000 61.4437
#
#
#
# Elastic Compliance Matrix: (Units=1/GPa)
#
#
# Indices 1 2 3 4 5 6 
#
# 1 0.007091 -0.001068 -0.003357 0.000000 -0.000309 0.000000
# 2 -0.001068 0.005858 -0.000959 0.000000 0.002605 0.000000
# 3 -0.003357 -0.000959 0.018648 0.000000 0.007905 0.000000
# 4 0.000000 0.000000 0.000000 0.029799 0.000000 0.017620
# 5 -0.000309 0.002605 0.007905 0.000000 0.025907 0.000000
# 6 0.000000 0.000000 0.000000 0.017620 0.000000 0.026693
#
#
# Mechanical properties :
#
#
# Convention : Reuss Voigt Hill
#
# Bulk Modulus (GPa) = 48.01304 72.45802 60.23553
# Shear Modulus (GPa) = 37.96291 54.60067 46.28179
#
# Velocity S-wave (km/s) = 3.64370 4.36980 4.02316
# Velocity P-wave (km/s) = 5.87310 7.12744 6.53046
#
# Compressibility (1/GPa) = 0.02082767
#
# Stress axis : x y z
#
# Youngs Moduli (GPa) = 141.03037 170.71307 53.62427
#
# Poissons Ratio (x) = 0.18240 0.18003
# Poissons Ratio (y) = 0.15068 0.05141
# Poissons Ratio (z) = 0.47348 0.16368
#
# Static dielectric constant tensor:
#      x y z
#    x 2.245210 0.000000 -0.031620 
#    y 0.000000 2.055210 0.000000 
#    z -0.031620 0.000000 2.430970 
# 
# From -- ./inp_files/10915.got.cif
#   From: 2010.05.17/outbox.cif.g08.bks.cpg/sg4_6_cif.got.tgz:10915.got - 2010.06.03 18:43:04.
