data_PCOD9114431
_publ_section_title
;
Structure prediction by ZEFSAII (Michael W. Deem and Ramdas Pophale) SiO2 
 PCOD9114431
Probable space group: P 2
;
_chemical_formula_sum "Si O2"
_cell_formula_units_Z 16
_cell_length_a 9.000000
_cell_length_b 9.000000
_cell_length_c 18.000000
_cell_angle_alpha 90.000000
_cell_angle_beta 30.000000
_cell_angle_gamma 90.000000
_cell_volume 729.000000
_symmetry_space_group_name_H-M "P 2"
_symmetry_group_IT_number 3
_symmetry_cell_setting 'monoclinic'
loop_
_space_group_symop_operation_xyz
x,y,z
-x,y,-z
loop_
_atom_site_type_symbol
_atom_site_label
_atom_site_fract_x
_atom_site_fract_y
_atom_site_fract_z
Si Si1 0.907544 0.368430 0.122115
Si Si2 0.199152 0.048052 0.599333
Si Si3 0.787444 0.768611 0.781477
Si Si4 0.827796 0.146567 0.890103
Si Si5 0.720570 0.254775 0.572839
Si Si6 0.870239 0.594556 0.475832
Si Si7 0.112389 0.873224 0.032043
Si Si8 0.204704 0.658127 0.738950
O O1 0.598340 0.276045 0.249905
O O2 0.854161 0.491341 0.208546
O O3 0.157691 0.269272 0.052604
O O4 0.000000 0.420380 0.000000
O O5 0.500000 0.976190 0.500000
O O6 0.298267 0.142099 0.486310
O O7 0.052312 0.158679 0.723745
O O8 0.958914 0.921121 0.687669
O O9 0.441715 0.807828 0.911834
O O10 0.869959 0.634140 0.692468
O O11 0.962438 0.715057 0.782250
O O12 0.500000 0.129795 0.000000
O O13 0.926308 0.000149 0.890408
O O14 0.809201 0.420006 0.507860
O O15 0.000000 0.202376 0.500000
O O16 0.564084 0.666640 0.575701
O O17 0.000000 0.644441 0.500000
O O18 0.000000 0.929005 0.000000
O O19 0.872597 0.748882 0.153998
#
# Coordination Sequence:
#
# PCOD9114431 Si02
#       8
#     2   2   2   2   2   2   2   2
#     4  11  26  45  70 104 140 182 232 282 351 415
#     4  12  24  44  69  99 136 181 232 284 343 413
#     4  12  25  43  69 101 135 181 236 287 347 416
#     4  12  25  45  66 101 140 182 233 285 345 410
#     4  10  25  44  68 100 139 180 230 287 342 409
#     4  10  23  43  66 100 136 178 232 288 353 411
#     4  12  25  45  67  95 140 181 229 290 347 415
#     4  11  23  44  68 101 135 180 231 290 344 416
#
# _framework density 21.947873999999999
#
# number of rings (size 3 to 8) (size 9 to 14) (size 15 to 20)
#    0.000    0.750    3.750    3.000    3.500    4.500 
#    0.000    0.000    0.000    0.000    0.000    0.000 
#    0.000    0.000    0.000    0.000    0.000    0.000 
#
# Total GULP energy -89150.938289 kJ/mol
# GULP energy per Si atom -5571.933643 kJ/mol
# Density = 2.189792 g / cm^3
# Si number density = 21.947874 Si / 1000 Ang^3
#
#
#
# Elastic Constant Matrix: (Units=GPa)
#
#
# Indices 1 2 3 4 5 6 
#
# 1 101.6756 27.3609 9.0542 0.0000 -7.8491 0.0000
# 2 27.3609 14.9520 19.2146 0.0000 -4.6554 0.0000
# 3 9.0542 19.2146 55.0215 0.0000 -1.8289 0.0000
# 4 0.0000 0.0000 0.0000 22.0043 0.0000 -0.1452
# 5 -7.8491 -4.6554 -1.8289 0.0000 32.3355 0.0000
# 6 0.0000 0.0000 0.0000 -0.1452 0.0000 31.1223
#
#
#
# Elastic Compliance Matrix: (Units=1/GPa)
#
#
# Indices 1 2 3 4 5 6 
#
# 1 0.035038 -0.105266 0.030832 0.000000 -0.004906 0.000000
# 2 -0.105266 0.445419 -0.137202 0.000000 0.030815 0.000000
# 3 0.030832 -0.137202 0.060721 0.000000 -0.008835 0.000000
# 4 0.000000 0.000000 0.000000 0.045447 0.000000 0.000212
# 5 -0.004906 0.030815 -0.008835 0.000000 0.033672 0.000000
# 6 0.000000 0.000000 0.000000 0.000212 0.000000 0.032132
#
#
# Mechanical properties :
#
#
# Convention : Reuss Voigt Hill
#
# Bulk Modulus (GPa) = 8.48134 31.43428 19.95781
# Shear Modulus (GPa) = 4.48429 24.82704 14.65567
#
# Velocity S-wave (km/s) = 1.43094 3.36695 2.58689
# Velocity P-wave (km/s) = 2.56960 5.42849 4.24684
#
# Compressibility (1/GPa) = 0.11790591
#
# Stress axis : x y z
#
# Youngs Moduli (GPa) = 28.54053 2.24508 16.46872
#
# Poissons Ratio (x) = 0.23633 -0.50776
# Poissons Ratio (y) = 3.00434 2.25955
# Poissons Ratio (z) = -0.87996 0.30803
#
# Static dielectric constant tensor:
#      x y z
#    x 1.827560 0.000000 0.017180 
#    y 0.000000 1.833800 0.000000 
#    z 0.017180 0.000000 1.821540 
# 
# From -- ./inp_files/7520.got.cif
#   From: 2010.05.17/outbox.ucp.g08.bks.cvg/sg3_4_cif.got.tgz:7520.got - 2010.06.11 12:50:29.
