data_PCOD9114567
_publ_section_title
;
Structure prediction by ZEFSAII (Michael W. Deem and Ramdas Pophale) SiO2 
 PCOD9114567
Probable space group: P 21
;
_chemical_formula_sum "Si O2"
_cell_formula_units_Z 12
_cell_length_a 9.350622
_cell_length_b 12.453555
_cell_length_c 7.013193
_cell_angle_alpha 90.000000
_cell_angle_beta 31.249527
_cell_angle_gamma 90.000000
_cell_volume 423.663751
_symmetry_space_group_name_H-M "P 21"
_symmetry_group_IT_number 4
_symmetry_cell_setting 'monoclinic'
loop_
_space_group_symop_operation_xyz
x,y,z
-x,1/2+y,-z
loop_
_atom_site_type_symbol
_atom_site_label
_atom_site_fract_x
_atom_site_fract_y
_atom_site_fract_z
Si Si1 0.320172 0.195660 0.145514
Si Si2 0.104552 0.795038 0.600216
Si Si3 0.030695 0.386787 0.611572
Si Si4 0.395442 0.080461 0.399791
Si Si5 0.530693 0.988709 0.611573
Si Si6 0.179835 0.679836 0.854473
O O1 0.112196 0.260083 0.532484
O O2 0.392691 0.086797 0.174817
O O3 0.104954 0.197751 0.217148
O O4 0.584660 0.272509 0.822736
O O5 0.107312 0.788700 0.825180
O O6 0.983915 0.890484 0.605928
O O7 0.249998 0.437746 0.500006
O O8 0.749999 0.437748 1.000000
O O9 0.604946 0.177748 0.217162
O O10 0.516079 0.985015 0.394079
O O11 0.084653 0.102988 0.822744
O O12 0.612194 0.115412 0.532493
#
# Coordination Sequence:
#
# PCOD9114567 Si02
#       6
#     2   2   2   2   2   2
#     4  10  20  33  56  80 104 136 176 214 256 309
#     4  10  20  33  56  80 104 136 176 214 256 309
#     4  10  18  32  54  78 102 136 176 210 252 312
#     4  10  20  33  56  80 104 136 176 214 256 309
#     4  10  18  32  54  78 102 136 176 210 252 312
#     4  10  20  33  56  80 104 136 176 214 256 309
#
# _framework density 28.324349999999999
#
# number of rings (size 3 to 8) (size 9 to 14) (size 15 to 20)
#    2.000    0.000    3.333    2.000    0.000    0.000 
#    0.000    0.000    0.000   12.000    0.000    0.000 
#    0.000    0.000    0.000    0.000    0.000    0.000 
#
# Total GULP energy -66826.764200 kJ/mol
# GULP energy per Si atom -5568.897017 kJ/mol
# Density = 2.825988 g / cm^3
# Si number density = 28.324350 Si / 1000 Ang^3
#
#
#
# Elastic Constant Matrix: (Units=GPa)
#
#
# Indices 1 2 3 4 5 6 
#
# 1 125.7890 42.9132 57.8406 0.0000 -30.7836 0.0000
# 2 42.9132 60.8236 9.7840 0.0000 -8.9105 0.0000
# 3 57.8406 9.7840 202.5497 0.0000 -51.6215 0.0000
# 4 0.0000 0.0000 0.0000 35.2510 0.0000 -4.7370
# 5 -30.7836 -8.9105 -51.6215 0.0000 52.4451 0.0000
# 6 0.0000 0.0000 0.0000 -4.7370 0.0000 75.0224
#
#
#
# Elastic Compliance Matrix: (Units=1/GPa)
#
#
# Indices 1 2 3 4 5 6 
#
# 1 0.012657 -0.008003 -0.002244 0.000000 0.003861 0.000000
# 2 -0.008003 0.021923 0.001306 0.000000 0.000313 0.000000
# 3 -0.002244 0.001306 0.006989 0.000000 0.005784 0.000000
# 4 0.000000 0.000000 0.000000 0.028611 0.000000 0.001806
# 5 0.003861 0.000313 0.005784 0.000000 0.027080 0.000000
# 6 0.000000 0.000000 0.000000 0.001806 0.000000 0.013443
#
#
# Mechanical properties :
#
#
# Convention : Reuss Voigt Hill
#
# Bulk Modulus (GPa) = 42.21697 67.80421 55.01059
# Shear Modulus (GPa) = 36.63535 51.11868 43.87702
#
# Velocity S-wave (km/s) = 3.60032 4.25286 3.94012
# Velocity P-wave (km/s) = 5.67629 6.93586 6.33745
#
# Compressibility (1/GPa) = 0.02368716
#
# Stress axis : x y z
#
# Youngs Moduli (GPa) = 79.00959 45.61361 143.08656
#
# Poissons Ratio (x) = 0.36506 0.32105
# Poissons Ratio (y) = 0.63233 -0.18689
# Poissons Ratio (z) = 0.17728 -0.05958
#
# Static dielectric constant tensor:
#      x y z
#    x 2.327430 0.000000 0.203500 
#    y 0.000000 2.545930 0.000000 
#    z 0.203500 0.000000 2.289660 
# 
# From -- ./inp_files/1659.got.cif
#   From: 2010.05.17/outbox.cif.g08.bks.cpg/sg4_1_cif.got.tgz:1659.got - 2010.06.03 18:43:04.
