data_PCOD9114913
_publ_section_title
;
Structure prediction by ZEFSAII (Michael W. Deem and Ramdas Pophale) SiO2 
 PCOD9114913
Probable space group: P 21
;
_chemical_formula_sum "Si O2"
_cell_formula_units_Z 16
_cell_length_a 7.185988
_cell_length_b 11.787430
_cell_length_c 8.565310
_cell_angle_alpha 90.000000
_cell_angle_beta 121.012316
_cell_angle_gamma 90.000000
_cell_volume 621.810697
_symmetry_space_group_name_H-M "P 21"
_symmetry_group_IT_number 4
_symmetry_cell_setting 'monoclinic'
loop_
_space_group_symop_operation_xyz
x,y,z
-x,1/2+y,-z
loop_
_atom_site_type_symbol
_atom_site_label
_atom_site_fract_x
_atom_site_fract_y
_atom_site_fract_z
Si Si1 0.228101 0.058810 0.524995
Si Si2 0.915750 0.329087 0.963973
Si Si3 0.693556 0.668026 0.123985
Si Si4 0.550223 0.212598 0.261832
Si Si5 0.907733 0.335371 0.622069
Si Si6 0.639116 0.004479 0.492380
Si Si7 0.045186 0.565726 0.092711
Si Si8 0.833812 0.784769 0.665823
O O1 0.335972 0.095374 0.734176
O O2 0.127075 0.170857 0.408503
O O3 0.056577 0.958059 0.439239
O O4 0.422705 0.017420 0.500763
O O5 0.794899 0.340858 0.745900
O O6 0.912899 0.188500 0.965571
O O7 0.062108 0.449265 0.002257
O O8 0.950974 0.338627 0.166237
O O9 0.876442 0.762982 0.244010
O O10 0.797940 0.582143 0.042675
O O11 0.499961 0.724362 0.943134
O O12 0.746448 0.278047 0.429025
O O13 0.333200 0.256545 0.262175
O O14 0.601488 0.082556 0.327879
O O15 0.710617 0.875383 0.506439
O O16 0.816905 0.058052 0.688196
#
# Coordination Sequence:
#
# PCOD9114913 Si02
#       8
#     2   2   2   2   2   2   2   2
#     4  11  25  42  67 101 139 172 223 286 343 401
#     4  10  19  36  63 101 120 169 230 280 323 396
#     4  11  25  45  62 100 138 179 220 280 349 407
#     4  11  20  42  67  92 132 179 221 272 335 405
#     4  11  22  42  69  93 132 180 218 282 343 398
#     4  10  21  40  71  96 130 176 232 274 332 399
#     4  10  20  38  68  93 134 175 231 278 338 404
#     4  10  20  39  67  98 127 172 227 276 319 404
#
# _framework density 25.731306
#
# number of rings (size 3 to 8) (size 9 to 14) (size 15 to 20)
#    0.000    1.500    6.250    0.750    1.750    2.000 
#    2.250    3.750    0.000    0.000    0.000    0.000 
#    0.000    0.000    0.000    0.000    0.000    0.000 
#
# Total GULP energy -89080.119339 kJ/mol
# GULP energy per Si atom -5567.507459 kJ/mol
# Density = 2.567274 g / cm^3
# Si number density = 25.731306 Si / 1000 Ang^3
#
#
#
# Elastic Constant Matrix: (Units=GPa)
#
#
# Indices 1 2 3 4 5 6 
#
# 1 54.1118 22.1732 26.0046 0.0000 7.8136 0.0000
# 2 22.1732 178.3383 72.2900 0.0000 11.9242 0.0000
# 3 26.0046 72.2900 196.0305 0.0000 23.7253 0.0000
# 4 0.0000 0.0000 0.0000 40.6530 0.0000 4.7948
# 5 7.8136 11.9242 23.7253 0.0000 30.2203 0.0000
# 6 0.0000 0.0000 0.0000 4.7948 0.0000 8.8938
#
#
#
# Elastic Compliance Matrix: (Units=1/GPa)
#
#
# Indices 1 2 3 4 5 6 
#
# 1 0.020447 -0.001627 -0.001713 0.000000 -0.003300 0.000000
# 2 -0.001627 0.006738 -0.002208 0.000000 -0.000505 0.000000
# 3 -0.001713 -0.002208 0.006612 0.000000 -0.003877 0.000000
# 4 0.000000 0.000000 0.000000 0.026269 0.000000 -0.014162
# 5 -0.003300 -0.000505 -0.003877 0.000000 0.037186 0.000000
# 6 0.000000 0.000000 0.000000 -0.014162 0.000000 0.120072
#
#
# Mechanical properties :
#
#
# Convention : Reuss Voigt Hill
#
# Bulk Modulus (GPa) = 44.05143 74.37958 59.21550
# Shear Modulus (GPa) = 21.18758 36.48762 28.83760
#
# Velocity S-wave (km/s) = 2.87264 3.76975 3.35135
# Velocity P-wave (km/s) = 5.30657 6.92221 6.16752
#
# Compressibility (1/GPa) = 0.02270074
#
# Stress axis : x y z
#
# Youngs Moduli (GPa) = 48.90764 148.40350 151.24231
#
# Poissons Ratio (x) = 0.24148 0.25907
# Poissons Ratio (y) = 0.07958 0.33394
# Poissons Ratio (z) = 0.08378 0.32767
#
# Static dielectric constant tensor:
#      x y z
#    x 2.212380 0.000000 0.001840 
#    y 0.000000 2.115600 0.000000 
#    z 0.001840 0.000000 1.979000 
# 
# From -- ./inp_files/6422.got.cif
#   From: 2010.05.17/outbox.cif.g08.bks.cpg/sg4_4_cif.got.tgz:6422.got - 2010.06.03 18:43:04.
