data_PCOD9114973
_publ_section_title
;
Structure prediction by ZEFSAII (Michael W. Deem and Ramdas Pophale) SiO2 
 PCOD9114973
Probable space group: P 21
;
_chemical_formula_sum "Si O2"
_cell_formula_units_Z 16
_cell_length_a 8.026432
_cell_length_b 9.133583
_cell_length_c 11.088569
_cell_angle_alpha 90.000000
_cell_angle_beta 125.008192
_cell_angle_gamma 90.000000
_cell_volume 665.825230
_symmetry_space_group_name_H-M "P 21"
_symmetry_group_IT_number 4
_symmetry_cell_setting 'monoclinic'
loop_
_space_group_symop_operation_xyz
x,y,z
-x,1/2+y,-z
loop_
_atom_site_type_symbol
_atom_site_label
_atom_site_fract_x
_atom_site_fract_y
_atom_site_fract_z
Si Si1 0.897152 0.965570 0.113501
Si Si2 0.583497 0.170338 0.893546
Si Si3 0.841252 0.721818 0.536512
Si Si4 0.981581 0.669038 0.028054
Si Si5 0.862272 0.977862 0.708086
Si Si6 0.577761 0.478101 0.372237
Si Si7 0.696338 0.917984 0.254310
Si Si8 0.760390 0.161742 0.432303
O O1 0.897371 0.917381 0.252184
O O2 0.877293 0.820655 0.022144
O O3 0.695144 0.067719 0.035491
O O4 0.053889 0.073979 0.108828
O O5 0.775979 0.208764 0.886273
O O6 0.469315 0.316893 0.881038
O O7 0.431055 0.064180 0.758041
O O8 0.678663 0.597918 0.503368
O O9 0.742462 0.831594 0.398228
O O10 0.022283 0.645956 0.541402
O O11 0.929219 0.825229 0.677201
O O12 0.978301 0.555166 0.137595
O O13 0.791979 0.090156 0.575405
O O14 0.653604 0.943733 0.690875
O O15 0.697043 0.328448 0.415499
O O16 0.622095 0.071285 0.279945
#
# Coordination Sequence:
#
# PCOD9114973 Si02
#       8
#     2   2   2   2   2   2   2   2
#     4  10  21  42  61  86 116 161 205 255 305 356
#     4   8  21  41  57  83 120 157 196 250 301 358
#     4  10  21  37  61  90 126 158 196 245 308 364
#     4   9  21  41  60  87 117 156 209 249 306 354
#     4  10  20  38  59  86 123 160 194 248 305 362
#     4  10  19  38  59  88 122 157 202 244 298 370
#     4  10  21  40  60  87 121 157 199 245 309 361
#     4  11  22  35  59  93 119 156 199 248 304 363
#
# _framework density 24.030329999999999
#
# number of rings (size 3 to 8) (size 9 to 14) (size 15 to 20)
#    0.750    1.500    0.000    3.000    0.000    4.000 
#    4.500    0.000    0.000    0.000    0.000    0.000 
#    0.000    0.000    0.000    0.000    0.000    0.000 
#
# Total GULP energy -89192.114205 kJ/mol
# GULP energy per Si atom -5574.507138 kJ/mol
# Density = 2.397564 g / cm^3
# Si number density = 24.030330 Si / 1000 Ang^3
#
#
#
# Elastic Constant Matrix: (Units=GPa)
#
#
# Indices 1 2 3 4 5 6 
#
# 1 34.9874 15.2586 11.8533 0.0000 -13.1678 0.0000
# 2 15.2586 115.0320 37.6109 0.0000 -16.5629 0.0000
# 3 11.8533 37.6109 34.6498 0.0000 -9.6261 0.0000
# 4 0.0000 0.0000 0.0000 29.6175 0.0000 -1.5004
# 5 -13.1678 -16.5629 -9.6261 0.0000 25.8446 0.0000
# 6 0.0000 0.0000 0.0000 -1.5004 0.0000 36.8262
#
#
#
# Elastic Compliance Matrix: (Units=1/GPa)
#
#
# Indices 1 2 3 4 5 6 
#
# 1 0.037420 0.000110 -0.008482 0.000000 0.015977 0.000000
# 2 0.000110 0.013776 -0.013968 0.000000 0.003682 0.000000
# 3 -0.008482 -0.013968 0.048226 0.000000 0.004689 0.000000
# 4 0.000000 0.000000 0.000000 0.033834 0.000000 0.001378
# 5 0.015977 0.003682 0.004689 0.000000 0.050939 0.000000
# 6 0.000000 0.000000 0.000000 0.001378 0.000000 0.027211
#
#
# Mechanical properties :
#
#
# Convention : Reuss Voigt Hill
#
# Bulk Modulus (GPa) = 18.26730 34.90164 26.58447
# Shear Modulus (GPa) = 18.22609 26.45411 22.34010
#
# Velocity S-wave (km/s) = 2.75701 3.32153 3.05234
# Velocity P-wave (km/s) = 4.21344 5.40977 4.84864
#
# Compressibility (1/GPa) = 0.05474263
#
# Stress axis : x y z
#
# Youngs Moduli (GPa) = 26.72337 72.59194 20.73582
#
# Poissons Ratio (x) = -0.00799 0.17588
# Poissons Ratio (y) = -0.00294 0.28963
# Poissons Ratio (z) = 0.22667 1.01393
#
# Static dielectric constant tensor:
#      x y z
#    x 1.893560 0.000000 -0.024650 
#    y 0.000000 1.979030 0.000000 
#    z -0.024650 0.000000 2.008820 
# 
# From -- ./inp_files/10910.got.cif
#   From: 2010.05.17/outbox.cif.g08.bks.cpg/sg4_6_cif.got.tgz:10910.got - 2010.06.03 18:43:04.
