data_PCOD9114988
_publ_section_title
;
Structure prediction by ZEFSAII (Michael W. Deem and Ramdas Pophale) SiO2 
 PCOD9114988
Probable space group: P 21
;
_chemical_formula_sum "Si O2"
_cell_formula_units_Z 14
_cell_length_a 7.783217
_cell_length_b 10.574262
_cell_length_c 11.520463
_cell_angle_alpha 90.000000
_cell_angle_beta 142.830972
_cell_angle_gamma 90.000000
_cell_volume 572.845074
_symmetry_space_group_name_H-M "P 21"
_symmetry_group_IT_number 4
_symmetry_cell_setting 'monoclinic'
loop_
_space_group_symop_operation_xyz
x,y,z
-x,1/2+y,-z
loop_
_atom_site_type_symbol
_atom_site_label
_atom_site_fract_x
_atom_site_fract_y
_atom_site_fract_z
Si Si1 0.955598 0.520350 0.480143
Si Si2 0.394779 0.478799 0.059242
Si Si3 0.938880 0.265949 0.826786
Si Si4 0.095845 0.264498 0.660206
Si Si5 0.313491 0.883659 0.007223
Si Si6 0.488203 0.978449 0.343563
Si Si7 0.058609 0.176302 0.141602
O O1 0.009499 0.412456 0.605185
O O2 0.177555 0.472192 0.500185
O O3 0.621645 0.510627 0.278876
O O4 0.007101 0.672582 0.499545
O O5 0.152755 0.580826 0.907557
O O6 0.218705 0.353641 0.994098
O O7 0.593550 0.457019 0.055639
O O8 0.987399 0.211179 0.724787
O O9 0.662715 0.358045 0.678278
O O10 0.948047 0.182185 0.947720
O O11 0.438075 0.276451 0.845017
O O12 0.354418 0.969482 0.141511
O O13 0.010879 0.814862 0.847214
O O14 0.365044 0.112137 0.321434
#
# Coordination Sequence:
#
# PCOD9114988 Si02
#       7
#     2   2   2   2   2   2   2
#     4  11  23  42  63  96 128 171 211 264 324 384
#     4  10  21  38  66  92 117 171 215 252 311 388
#     4   9  21  42  62  88 125 169 211 265 316 375
#     4  10  22  43  64  91 130 170 212 264 319 383
#     4   9  19  39  63  86 122 166 221 252 306 380
#     4   9  21  38  58  92 126 157 207 272 319 370
#     4  10  19  38  64  87 122 162 213 267 311 372
#
# _framework density 24.439419000000001
#
# number of rings (size 3 to 8) (size 9 to 14) (size 15 to 20)
#    0.000    2.286    1.429    0.000    4.000    0.000 
#   12.857    0.000    0.000    0.000    0.000    0.000 
#    0.000    0.000    0.000    0.000    0.000    0.000 
#
# Total GULP energy -78023.186406 kJ/mol
# GULP energy per Si atom -5573.084743 kJ/mol
# Density = 2.438379 g / cm^3
# Si number density = 24.439419 Si / 1000 Ang^3
#
#
#
# Elastic Constant Matrix: (Units=GPa)
#
#
# Indices 1 2 3 4 5 6 
#
# 1 81.3490 25.9166 -4.5767 0.0000 9.1897 0.0000
# 2 25.9166 67.4155 9.5820 0.0000 -7.9685 0.0000
# 3 -4.5767 9.5820 45.9240 0.0000 25.6371 0.0000
# 4 0.0000 0.0000 0.0000 33.1860 0.0000 10.4047
# 5 9.1897 -7.9685 25.6371 0.0000 29.8537 0.0000
# 6 0.0000 0.0000 0.0000 10.4047 0.0000 17.0747
#
#
#
# Elastic Compliance Matrix: (Units=1/GPa)
#
#
# Indices 1 2 3 4 5 6 
#
# 1 0.021387 -0.014628 0.021203 0.000000 -0.028696 0.000000
# 2 -0.014628 0.028521 -0.027223 0.000000 0.035493 0.000000
# 3 0.021203 -0.027223 0.071587 0.000000 -0.075269 0.000000
# 4 0.000000 0.000000 0.000000 0.037250 0.000000 -0.022699
# 5 -0.028696 0.035493 -0.075269 0.000000 0.116442 0.000000
# 6 0.000000 0.000000 0.000000 -0.022699 0.000000 0.072398
#
#
# Mechanical properties :
#
#
# Convention : Reuss Voigt Hill
#
# Bulk Modulus (GPa) = 12.46859 28.50359 20.48609
# Shear Modulus (GPa) = 12.03038 26.94064 19.48551
#
# Velocity S-wave (km/s) = 2.22109 3.32376 2.82671
# Velocity P-wave (km/s) = 3.41914 5.13985 4.36513
#
# Compressibility (1/GPa) = 0.08020153
#
# Stress axis : x y z
#
# Youngs Moduli (GPa) = 46.75642 35.06159 13.96895
#
# Poissons Ratio (x) = 0.51287 -0.29619
# Poissons Ratio (y) = 0.68393 0.38028
# Poissons Ratio (z) = -0.99139 0.95448
#
# Static dielectric constant tensor:
#      x y z
#    x 1.992800 0.000000 -0.030960 
#    y 0.000000 2.037060 0.000000 
#    z -0.030960 0.000000 1.914170 
# 
# From -- ./inp_files/6305.got.cif
#   From: 2010.05.17/outbox.cif.g08.bks.cpg/sg4_4_cif.got.tgz:6305.got - 2010.06.03 18:43:04.
