data_PCOD9114558
_publ_section_title
;
Structure prediction by ZEFSAII (Michael W. Deem and Ramdas Pophale) SiO2 
 PCOD9114558
Probable space group: P 21
;
_chemical_formula_sum "Si O2"
_cell_formula_units_Z 16
_cell_length_a 11.411886
_cell_length_b 7.911648
_cell_length_c 9.080492
_cell_angle_alpha 90.000000
_cell_angle_beta 124.632205
_cell_angle_gamma 90.000000
_cell_volume 674.585576
_symmetry_space_group_name_H-M "P 21"
_symmetry_group_IT_number 4
_symmetry_cell_setting 'monoclinic'
loop_
_space_group_symop_operation_xyz
x,y,z
-x,1/2+y,-z
loop_
_atom_site_type_symbol
_atom_site_label
_atom_site_fract_x
_atom_site_fract_y
_atom_site_fract_z
Si Si1 0.191682 0.772400 0.490101
Si Si2 0.050534 0.865456 0.862877
Si Si3 0.123349 0.177852 0.742949
Si Si4 0.711421 0.774219 0.874453
Si Si5 0.403599 0.205671 0.759411
Si Si6 0.816860 0.101615 0.826405
Si Si7 0.224513 0.146848 0.383975
Si Si8 0.443161 0.818142 0.867928
O O1 0.224776 0.670521 0.363775
O O2 0.300494 0.738733 0.700038
O O3 0.032588 0.723642 0.421772
O O4 0.201095 0.967146 0.444681
O O5 0.920726 0.753711 0.705878
O O6 0.125892 0.980463 0.792907
O O7 0.151615 0.747095 0.032621
O O8 0.964274 0.998074 0.904748
O O9 0.248458 0.229306 0.723996
O O10 0.156533 0.274856 0.918587
O O11 0.739771 0.644613 0.763279
O O12 0.574203 0.733982 0.873185
O O13 0.706400 0.961401 0.802696
O O14 0.362842 0.230807 0.561250
O O15 0.443419 0.012528 0.820712
O O16 0.520635 0.307860 0.933899
#
# Coordination Sequence:
#
# PCOD9114558 Si02
#       8
#     2   2   2   2   2   2   2   2
#     4  10  20  36  59  87 119 152 195 246 291 343
#     4  10  18  31  55  88 119 150 191 245 296 343
#     4  10  21  38  60  88 118 153 194 240 292 348
#     4  10  21  38  60  88 118 153 194 240 292 348
#     4  10  24  43  60  83 120 157 195 241 291 348
#     4  10  18  31  55  88 119 150 191 245 296 343
#     4  10  20  36  59  87 119 152 195 246 291 343
#     4  10  24  43  60  83 120 157 195 241 291 348
#
# _framework density 23.718264000000001
#
# number of rings (size 3 to 8) (size 9 to 14) (size 15 to 20)
#    0.000    2.000    0.000    5.250    0.000    8.000 
#    0.000    5.000    0.000    1.500    0.000    0.000 
#    0.000    0.000    0.000    0.000    0.000    0.000 
#
# Total GULP energy -89471.439603 kJ/mol
# GULP energy per Si atom -5591.964975 kJ/mol
# Density = 2.366428 g / cm^3
# Si number density = 23.718264 Si / 1000 Ang^3
#
#
#
# Elastic Constant Matrix: (Units=GPa)
#
#
# Indices 1 2 3 4 5 6 
#
# 1 47.3850 -1.4405 28.3516 0.0000 14.2720 0.0000
# 2 -1.4405 61.4378 8.5764 0.0000 3.6434 0.0000
# 3 28.3516 8.5764 108.8639 0.0000 20.4985 0.0000
# 4 0.0000 0.0000 0.0000 37.6087 0.0000 -1.0596
# 5 14.2720 3.6434 20.4985 0.0000 28.4010 0.0000
# 6 0.0000 0.0000 0.0000 -1.0596 0.0000 20.2521
#
#
#
# Elastic Compliance Matrix: (Units=1/GPa)
#
#
# Indices 1 2 3 4 5 6 
#
# 1 0.027451 0.001999 -0.005394 0.000000 -0.010158 0.000000
# 2 0.001999 0.016649 -0.001436 0.000000 -0.002104 0.000000
# 3 -0.005394 -0.001436 0.011756 0.000000 -0.005590 0.000000
# 4 0.000000 0.000000 0.000000 0.026629 0.000000 0.001393
# 5 -0.010158 -0.002104 -0.005590 0.000000 0.044620 0.000000
# 6 0.000000 0.000000 0.000000 0.001393 0.000000 0.049451
#
#
# Mechanical properties :
#
#
# Convention : Reuss Voigt Hill
#
# Bulk Modulus (GPa) = 21.64766 32.07352 26.86059
# Shear Modulus (GPa) = 24.79967 29.39895 27.09931
#
# Velocity S-wave (km/s) = 3.23707 3.52448 3.38383
# Velocity P-wave (km/s) = 4.80815 5.48769 5.15912
#
# Compressibility (1/GPa) = 0.04619438
#
# Stress axis : x y z
#
# Youngs Moduli (GPa) = 36.42800 60.06465 85.06064
#
# Poissons Ratio (x) = -0.12007 0.45881
# Poissons Ratio (y) = -0.07282 0.12215
# Poissons Ratio (z) = 0.19649 0.08626
#
# Static dielectric constant tensor:
#      x y z
#    x 1.937250 0.000000 -0.018440 
#    y 0.000000 1.920220 0.000000 
#    z -0.018440 0.000000 1.920660 
# 
# From -- ./inp_files/7897.got.cif
#   From: 2010.05.17/outbox.cif.g08.bks.cpg/sg4_4_cif.got.tgz:7897.got - 2010.06.03 18:43:04.
