data_PCOD9114659
_publ_section_title
;
Structure prediction by ZEFSAII (Michael W. Deem and Ramdas Pophale) SiO2 
 PCOD9114659
Probable space group: P 21
;
_chemical_formula_sum "Si O2"
_cell_formula_units_Z 16
_cell_length_a 7.883746
_cell_length_b 5.825492
_cell_length_c 20.745245
_cell_angle_alpha 90.000000
_cell_angle_beta 43.864418
_cell_angle_gamma 90.000000
_cell_volume 660.219494
_symmetry_space_group_name_H-M "P 21"
_symmetry_group_IT_number 4
_symmetry_cell_setting 'monoclinic'
loop_
_space_group_symop_operation_xyz
x,y,z
-x,1/2+y,-z
loop_
_atom_site_type_symbol
_atom_site_label
_atom_site_fract_x
_atom_site_fract_y
_atom_site_fract_z
Si Si1 0.253795 0.818900 0.513554
Si Si2 0.235145 0.404287 0.370588
Si Si3 0.130324 0.147015 0.263458
Si Si4 0.794450 0.818191 0.404220
Si Si5 0.374184 0.592228 0.903887
Si Si6 0.044358 0.897141 0.907449
Si Si7 0.267037 0.682022 0.724044
Si Si8 0.579763 0.785665 0.235003
O O1 0.545992 0.829249 0.430484
O O2 0.221817 0.550660 0.546394
O O3 0.028244 0.854091 0.525294
O O4 0.203691 0.066582 0.564580
O O5 0.468782 0.304640 0.344669
O O6 0.335155 0.653063 0.322979
O O7 0.203487 0.269958 0.310448
O O8 0.038726 0.883652 0.297673
O O9 0.357584 0.183506 0.153285
O O10 0.880625 0.242878 0.299535
O O11 0.181133 0.778335 0.930518
O O12 0.443569 0.445972 0.821052
O O13 0.230269 0.451740 0.996888
O O14 0.087648 0.749290 0.832159
O O15 0.207392 0.115320 0.845018
O O16 0.330306 0.426084 0.728414
#
# Coordination Sequence:
#
# PCOD9114659 Si02
#       8
#     2   2   2   2   2   2   2   2
#     4   9  18  34  64  93 125 162 205 258 309 367
#     4  10  20  38  64  84 118 163 202 245 313 366
#     4  11  21  40  62  87 123 161 206 251 317 379
#     4   9  19  36  60  97 124 158 213 255 303 379
#     4  11  19  35  60  82 107 158 198 247 308 364
#     4  10  20  36  56  82 116 149 204 256 300 365
#     4  10  23  40  54  90 122 153 209 256 306 378
#     4  10  18  37  58  81 113 152 197 254 298 362
#
# _framework density 24.234365
#
# number of rings (size 3 to 8) (size 9 to 14) (size 15 to 20)
#    0.000    2.000    5.000    0.750    1.750    0.000 
#   15.750    0.000    2.750    0.000    0.000    0.000 
#    0.000    0.000    0.000    0.000    0.000    0.000 
#
# Total GULP energy -89113.069184 kJ/mol
# GULP energy per Si atom -5569.566824 kJ/mol
# Density = 2.417921 g / cm^3
# Si number density = 24.234365 Si / 1000 Ang^3
#
#
#
# Elastic Constant Matrix: (Units=GPa)
#
#
# Indices 1 2 3 4 5 6 
#
# 1 112.7790 22.8211 22.9374 0.0000 -22.1813 0.0000
# 2 22.8211 84.8929 24.1769 0.0000 10.7150 0.0000
# 3 22.9374 24.1769 81.8785 0.0000 -23.3070 0.0000
# 4 0.0000 0.0000 0.0000 23.7129 0.0000 -14.0507
# 5 -22.1813 10.7150 -23.3070 0.0000 39.8817 0.0000
# 6 0.0000 0.0000 0.0000 -14.0507 0.0000 19.5607
#
#
#
# Elastic Compliance Matrix: (Units=1/GPa)
#
#
# Indices 1 2 3 4 5 6 
#
# 1 0.011070 -0.003936 0.000137 0.000000 0.007295 0.000000
# 2 -0.003936 0.016011 -0.006565 0.000000 -0.010327 0.000000
# 3 0.000137 -0.006565 0.017558 0.000000 0.012101 0.000000
# 4 0.000000 0.000000 0.000000 0.073421 0.000000 0.052739
# 5 0.007295 -0.010327 0.012101 0.000000 0.038978 0.000000
# 6 0.000000 0.000000 0.000000 0.052739 0.000000 0.089006
#
#
# Mechanical properties :
#
#
# Convention : Reuss Voigt Hill
#
# Bulk Modulus (GPa) = 41.81918 46.60234 44.21076
# Shear Modulus (GPa) = 18.19906 30.60538 24.40222
#
# Velocity S-wave (km/s) = 2.74334 3.55757 3.17665
# Velocity P-wave (km/s) = 5.22763 6.01221 5.63360
#
# Compressibility (1/GPa) = 0.02391247
#
# Stress axis : x y z
#
# Youngs Moduli (GPa) = 90.33373 62.45872 56.95510
#
# Poissons Ratio (x) = 0.24582 -0.00783
# Poissons Ratio (y) = 0.35553 0.37389
# Poissons Ratio (z) = -0.01241 0.41002
#
# Static dielectric constant tensor:
#      x y z
#    x 2.028640 0.000000 0.001240 
#    y 0.000000 2.019170 0.000000 
#    z 0.001240 0.000000 2.018880 
# 
# From -- ./inp_files/16303.got.cif
#   From: 2010.05.17/outbox.cif.g08.bks.cpg/sg4_9_cif.got.tgz:16303.got - 2010.06.03 18:43:04.
