data_PCOD9114859
_publ_section_title
;
Structure prediction by ZEFSAII (Michael W. Deem and Ramdas Pophale) SiO2 
 PCOD9114859
Probable space group: P 21
;
_chemical_formula_sum "Si O2"
_cell_formula_units_Z 16
_cell_length_a 7.752424
_cell_length_b 15.658503
_cell_length_c 6.631689
_cell_angle_alpha 90.000000
_cell_angle_beta 101.712061
_cell_angle_gamma 90.000000
_cell_volume 788.269073
_symmetry_space_group_name_H-M "P 21"
_symmetry_group_IT_number 4
_symmetry_cell_setting 'monoclinic'
loop_
_space_group_symop_operation_xyz
x,y,z
-x,1/2+y,-z
loop_
_atom_site_type_symbol
_atom_site_label
_atom_site_fract_x
_atom_site_fract_y
_atom_site_fract_z
Si Si1 0.326492 0.244140 0.973304
Si Si2 0.406729 0.748084 0.618510
Si Si3 0.104340 0.124127 0.169798
Si Si4 0.798332 0.928285 0.158437
Si Si5 0.199757 0.582303 0.593069
Si Si6 0.949591 0.349086 0.470816
Si Si7 0.731831 0.712412 0.465104
Si Si8 0.015231 0.495694 0.174976
O O1 0.301828 0.340537 0.895399
O O2 0.318936 0.188042 0.771500
O O3 0.505164 0.240468 0.140666
O O4 0.160147 0.211117 0.066625
O O5 0.331335 0.654688 0.554828
O O6 0.572439 0.767830 0.516698
O O7 0.244717 0.811576 0.556533
O O8 0.241559 0.130171 0.386753
O O9 0.920899 0.117201 0.248695
O O10 0.110479 0.049460 0.005731
O O11 0.980516 0.902847 0.319203
O O12 0.715246 0.997508 0.289528
O O13 0.834399 0.966328 0.946803
O O14 0.084389 0.556079 0.371606
O O15 0.090966 0.270714 0.489189
O O16 0.953527 0.410949 0.277467
#
# Coordination Sequence:
#
# PCOD9114859 Si02
#       8
#     2   2   2   2   2   2   2   2
#     4  10  22  41  64  91 127 169 211 257 313 372
#     4  11  23  38  64  98 121 165 215 254 310 382
#     4  10  19  35  63  88 122 163 210 252 311 367
#     4   9  21  39  65  89 124 173 205 257 319 370
#     4  10  21  38  61  96 128 162 213 259 312 377
#     4  10  21  41  64  87 127 163 211 262 309 375
#     4  10  21  40  61  90 128 162 208 262 307 365
#     4  10  20  36  64  93 121 167 207 255 323 372
#
# _framework density 20.297637000000002
#
# number of rings (size 3 to 8) (size 9 to 14) (size 15 to 20)
#    0.000    2.000    1.250    2.250    1.750    3.000 
#    4.500    0.000   52.250    0.000    0.000    0.000 
#    0.000    0.000    0.000    0.000    0.000    0.000 
#
# Total GULP energy -89097.289461 kJ/mol
# GULP energy per Si atom -5568.580591 kJ/mol
# Density = 2.025144 g / cm^3
# Si number density = 20.297637 Si / 1000 Ang^3
#
#
#
# Elastic Constant Matrix: (Units=GPa)
#
#
# Indices 1 2 3 4 5 6 
#
# 1 58.2732 -5.6366 12.8961 0.0000 7.3096 0.0000
# 2 -5.6366 45.5605 7.1235 0.0000 9.8119 0.0000
# 3 12.8961 7.1235 107.9027 0.0000 3.5454 0.0000
# 4 0.0000 0.0000 0.0000 31.0722 0.0000 3.6577
# 5 7.3096 9.8119 3.5454 0.0000 16.6615 0.0000
# 6 0.0000 0.0000 0.0000 3.6577 0.0000 14.2692
#
#
#
# Elastic Compliance Matrix: (Units=1/GPa)
#
#
# Indices 1 2 3 4 5 6 
#
# 1 0.019573 0.005184 -0.002315 0.000000 -0.011147 0.000000
# 2 0.005184 0.026660 -0.001802 0.000000 -0.017591 0.000000
# 3 -0.002315 -0.001802 0.009663 0.000000 0.000021 0.000000
# 4 0.000000 0.000000 0.000000 0.033184 0.000000 -0.008506
# 5 -0.011147 -0.017591 0.000021 0.000000 0.075264 0.000000
# 6 0.000000 0.000000 0.000000 -0.008506 0.000000 0.072262
#
#
# Mechanical properties :
#
#
# Convention : Reuss Voigt Hill
#
# Bulk Modulus (GPa) = 17.23251 26.72249 21.97750
# Shear Modulus (GPa) = 19.69945 25.55748 22.62847
#
# Velocity S-wave (km/s) = 3.11871 3.55228 3.34253
# Velocity P-wave (km/s) = 4.63431 5.47894 5.07423
#
# Compressibility (1/GPa) = 0.05802984
#
# Stress axis : x y z
#
# Youngs Moduli (GPa) = 51.09188 37.50895 103.49205
#
# Poissons Ratio (x) = -0.19445 0.23961
# Poissons Ratio (y) = -0.26486 0.18646
# Poissons Ratio (z) = 0.11829 0.06758
#
# Static dielectric constant tensor:
#      x y z
#    x 1.717580 0.000000 -0.022180 
#    y 0.000000 1.769920 0.000000 
#    z -0.022180 0.000000 1.771230 
# 
# From -- ./inp_files/2113.got.cif
#   From: 2010.05.17/outbox.cif.g08.bks.cpg/sg4_2_cif.got.tgz:2113.got - 2010.06.03 18:43:04.
