data_PCOD9114173
_publ_section_title
;
Structure prediction by ZEFSAII (Michael W. Deem and Ramdas Pophale) SiO2 
 PCOD9114173
Probable space group: P 2
;
_chemical_formula_sum "Si O2"
_cell_formula_units_Z 10
_cell_length_a 11.745282
_cell_length_b 8.133094
_cell_length_c 11.692917
_cell_angle_alpha 90.000000
_cell_angle_beta 155.713509
_cell_angle_gamma 90.000000
_cell_volume 459.409790
_symmetry_space_group_name_H-M "P 2"
_symmetry_group_IT_number 3
_symmetry_cell_setting 'monoclinic'
loop_
_space_group_symop_operation_xyz
x,y,z
-x,y,-z
loop_
_atom_site_type_symbol
_atom_site_label
_atom_site_fract_x
_atom_site_fract_y
_atom_site_fract_z
Si Si1 0.073451 0.041620 0.304750
Si Si2 0.171865 0.498939 0.979282
Si Si3 0.795921 0.268402 0.213924
Si Si4 0.632422 0.708232 0.496105
Si Si5 0.613952 0.182799 0.727248
O O1 0.335274 0.166739 0.546576
O O2 0.898749 0.094477 0.255172
O O3 0.214079 0.866536 0.415427
O O4 0.860966 0.074222 0.005397
O O5 0.199130 0.397543 0.886481
O O6 0.866368 0.567782 0.718102
O O7 0.387397 0.647293 0.189516
O O8 0.267319 0.365877 0.160991
O O9 0.000000 0.324529 0.500000
O O10 0.500000 0.252282 0.000000
O O11 0.500000 0.739889 0.500000
O O12 0.500000 0.133346 0.500000
#
# Coordination Sequence:
#
# PCOD9114173 Si02
#       5
#     2   2   2   2   2
#     4  11  24  42  67  98 130 174 225 268 328 400
#     4  11  24  42  67  98 131 175 224 268 328 400
#     4  11  23  45  72  95 125 173 231 290 326 367
#     4  12  25  43  65 101 145 174 204 267 338 406
#     4  11  22  40  64  94 130 176 224 269 318 393
#
# _framework density 21.767059
#
# number of rings (size 3 to 8) (size 9 to 14) (size 15 to 20)
#    0.000    0.800    0.000    9.600    0.000    4.800 
#    0.000    9.000    0.000    2.400    0.000    0.000 
#    0.000    0.000    0.000    0.000    0.000    0.000 
#
# Total GULP energy -55957.471476 kJ/mol
# GULP energy per Si atom -5595.747148 kJ/mol
# Density = 2.171752 g / cm^3
# Si number density = 21.767059 Si / 1000 Ang^3
#
#
#
# Elastic Constant Matrix: (Units=GPa)
#
#
# Indices 1 2 3 4 5 6 
#
# 1 127.0028 58.2540 59.0570 0.0000 20.7181 0.0000
# 2 58.2540 95.6618 30.2226 0.0000 6.2862 0.0000
# 3 59.0570 30.2226 148.5287 0.0000 11.8368 0.0000
# 4 0.0000 0.0000 0.0000 45.1342 0.0000 -14.2982
# 5 20.7181 6.2862 11.8368 0.0000 49.7296 0.0000
# 6 0.0000 0.0000 0.0000 -14.2982 0.0000 -137.5172
#
#
#
# Elastic Compliance Matrix: (Units=1/GPa)
#
#
# Indices 1 2 3 4 5 6 
#
# 1 0.013227 -0.006667 -0.003599 0.000000 -0.003811 0.000000
# 2 -0.006667 0.014571 -0.000396 0.000000 0.001030 0.000000
# 3 -0.003599 -0.000396 0.008278 0.000000 -0.000421 0.000000
# 4 0.000000 0.000000 0.000000 0.021450 0.000000 -0.002230
# 5 -0.003811 0.001030 -0.000421 0.000000 0.021667 0.000000
# 6 0.000000 0.000000 0.000000 -0.002230 0.000000 -0.007040
#
#
# Mechanical properties :
#
#
# Convention : Reuss Voigt Hill
#
# Bulk Modulus (GPa) = 67.78939 74.02894 70.90917
# Shear Modulus (GPa) = 50.81596 6.37997 28.59797
#
# Velocity S-wave (km/s) = 4.83694 1.71388 3.62860
# Velocity P-wave (km/s) = 7.89971 6.16441 7.08539
#
# Compressibility (1/GPa) = 0.01475157
#
# Stress axis : x y z
#
# Youngs Moduli (GPa) = 75.60100 68.62912 120.80494
#
# Poissons Ratio (x) = 0.45758 0.43477
# Poissons Ratio (y) = 0.50406 0.04783
# Poissons Ratio (z) = 0.27208 0.02717
#
# Static dielectric constant tensor:
#      x y z
#    x 1.823850 0.000000 0.011370 
#    y 0.000000 1.836000 0.000000 
#    z 0.011370 0.000000 1.821540 
# 
# From -- ./inp_files/11359.got.cif
#   From: 2010.05.17/outbox.cif.g08.bks.cpg/sg3_6_cif.got.tgz:11359.got - 2010.06.03 18:33:08.
