data_PCOD9114359
_publ_section_title
;
Structure prediction by ZEFSAII (Michael W. Deem and Ramdas Pophale) SiO2 
 PCOD9114359
Probable space group: P 2
;
_chemical_formula_sum "Si O2"
_cell_formula_units_Z 10
_cell_length_a 12.021243
_cell_length_b 8.615772
_cell_length_c 10.959475
_cell_angle_alpha 90.000000
_cell_angle_beta 24.628484
_cell_angle_gamma 90.000000
_cell_volume 473.032483
_symmetry_space_group_name_H-M "P 2"
_symmetry_group_IT_number 3
_symmetry_cell_setting 'monoclinic'
loop_
_space_group_symop_operation_xyz
x,y,z
-x,y,-z
loop_
_atom_site_type_symbol
_atom_site_label
_atom_site_fract_x
_atom_site_fract_y
_atom_site_fract_z
Si Si1 0.102095 0.245750 0.143410
Si Si2 0.500000 0.856819 0.000000
Si Si3 0.545668 0.752195 0.223682
Si Si4 0.000000 0.085500 0.500000
Si Si5 0.400618 0.094163 0.461233
Si Si6 0.042840 0.576582 0.813684
O O1 0.040169 0.190690 0.341438
O O2 0.037476 0.423232 0.179808
O O3 0.903770 0.144302 0.255657
O O4 0.407306 0.205875 0.808761
O O5 0.534079 0.757310 0.088682
O O6 0.249653 0.970802 0.266177
O O7 0.341974 0.628188 0.483958
O O8 0.454437 0.920370 0.361807
O O9 0.842079 0.712767 0.972666
O O10 0.500000 0.108472 0.500000
O O11 0.000000 0.548429 0.000000
#
# Coordination Sequence:
#
# PCOD9114359 Si02
#       6
#     2   1   2   1   2   2
#     4  12  25  43  70  98 134 181 219 277 336 387
#     4  12  24  46  70  98 134 168 232 284 320 390
#     4  12  25  44  70  97 135 181 218 278 336 386
#     4  12  22  46  70  98 134 168 230 284 320 390
#     4  12  23  42  68  99 130 179 233 270 324 398
#     4  12  26  45  66 102 143 173 217 277 338 401
#
# _framework density 21.140198000000002
#
# number of rings (size 3 to 8) (size 9 to 14) (size 15 to 20)
#    0.000    0.000    4.000    7.200    0.000    1.600 
#    0.000    0.000    0.000    0.000    0.000    0.000 
#    0.000    0.000    0.000    0.000    0.000    0.000 
#
# Total GULP energy -56033.937807 kJ/mol
# GULP energy per Si atom -5603.393781 kJ/mol
# Density = 2.109208 g / cm^3
# Si number density = 21.140198 Si / 1000 Ang^3
#
#
#
# Elastic Constant Matrix: (Units=GPa)
#
#
# Indices 1 2 3 4 5 6 
#
# 1 110.9859 -17.8603 8.7301 0.0000 24.6782 0.0000
# 2 -17.8603 45.2045 -16.4812 0.0000 1.9923 0.0000
# 3 8.7301 -16.4812 70.6969 0.0000 1.9557 0.0000
# 4 0.0000 0.0000 0.0000 10.2158 0.0000 -35.8678
# 5 24.6782 1.9923 1.9557 0.0000 42.6130 0.0000
# 6 0.0000 0.0000 0.0000 -35.8678 0.0000 13.2452
#
#
#
# Elastic Compliance Matrix: (Units=1/GPa)
#
#
# Indices 1 2 3 4 5 6 
#
# 1 0.011277 0.004714 -0.000107 0.000000 -0.006746 0.000000
# 2 0.004714 0.026230 0.005649 0.000000 -0.004216 0.000000
# 3 -0.000107 0.005649 0.015500 0.000000 -0.000914 0.000000
# 4 0.000000 0.000000 0.000000 -0.011506 0.000000 -0.031157
# 5 -0.006746 -0.004216 -0.000914 0.000000 0.027613 0.000000
# 6 0.000000 0.000000 0.000000 -0.031157 0.000000 -0.008874
#
#
# Mechanical properties :
#
#
# Convention : Reuss Voigt Hill
#
# Bulk Modulus (GPa) = 13.60177 19.51828 16.56002
# Shear Modulus (GPa) = 77.83951 30.04804 53.94378
#
# Velocity S-wave (km/s) = 6.07458 3.77420 5.05693
# Velocity P-wave (km/s) = 7.45981 5.31466 6.47666
#
# Compressibility (1/GPa) = 0.07351985
#
# Stress axis : x y z
#
# Youngs Moduli (GPa) = 88.67397 38.12474 64.51461
#
# Poissons Ratio (x) = -0.17972 0.00690
# Poissons Ratio (y) = -0.41801 -0.36446
# Poissons Ratio (z) = 0.00949 -0.21538
#
# Static dielectric constant tensor:
#      x y z
#    x 1.744190 0.000000 0.000000 
#    y 0.000000 1.724480 0.000000 
#    z 0.000000 0.000000 1.726010 
# 
# From -- ./inp_files/11639.got.cif
#   From: 2010.05.17/outbox.cif.g08.bks.cpg/sg3_6_cif.got.tgz:11639.got - 2010.06.03 18:33:08.
