data_PCOD9114685
_publ_section_title
;
Structure prediction by ZEFSAII (Michael W. Deem and Ramdas Pophale) SiO2 
 PCOD9114685
Probable space group: P 21
;
_chemical_formula_sum "Si O2"
_cell_formula_units_Z 12
_cell_length_a 16.399505
_cell_length_b 7.345163
_cell_length_c 8.345718
_cell_angle_alpha 90.000000
_cell_angle_beta 32.896691
_cell_angle_gamma 90.000000
_cell_volume 546.004779
_symmetry_space_group_name_H-M "P 21"
_symmetry_group_IT_number 4
_symmetry_cell_setting 'monoclinic'
loop_
_space_group_symop_operation_xyz
x,y,z
-x,1/2+y,-z
loop_
_atom_site_type_symbol
_atom_site_label
_atom_site_fract_x
_atom_site_fract_y
_atom_site_fract_z
Si Si1 0.923657 0.100450 0.905607
Si Si2 0.669632 0.515099 0.546390
Si Si3 0.456884 0.798088 0.787990
Si Si4 0.578071 0.171454 0.497123
Si Si5 0.014319 0.011032 0.111948
Si Si6 0.843184 0.338129 0.560488
O O1 0.983150 0.307606 0.821998
O O2 0.746640 0.107877 0.175931
O O3 0.947584 0.010316 0.042140
O O4 0.024417 0.981188 0.619529
O O5 0.553087 0.679511 0.753918
O O6 0.589823 0.348585 0.587903
O O7 0.743645 0.436111 0.585546
O O8 0.812448 0.569599 0.200400
O O9 0.498803 0.721518 0.543521
O O10 0.499481 0.008408 0.718677
O O11 0.278700 0.787386 0.106736
O O12 0.920962 0.156915 0.365061
#
# Coordination Sequence:
#
# PCOD9114685 Si02
#       6
#     2   2   2   2   2   2
#     4  10  20  39  66  90 123 168 206 256 311 371
#     4  10  23  41  66  92 126 170 206 258 318 376
#     4  12  26  42  64  93 130 169 211 257 316 384
#     4  11  23  45  63  85 131 177 205 247 330 380
#     4  10  18  38  66  90 123 156 212 257 310 361
#     4  11  24  39  65 100 119 158 222 265 303 360
#
# _framework density 21.977827999999999
#
# number of rings (size 3 to 8) (size 9 to 14) (size 15 to 20)
#    0.000    1.333    6.667    1.000    4.667    1.333 
#    6.000    0.000    0.000    0.000    0.000    0.000 
#    0.000    0.000    0.000    0.000    0.000    0.000 
#
# Total GULP energy -67086.981240 kJ/mol
# GULP energy per Si atom -5590.581770 kJ/mol
# Density = 2.192781 g / cm^3
# Si number density = 21.977828 Si / 1000 Ang^3
#
#
#
# Elastic Constant Matrix: (Units=GPa)
#
#
# Indices 1 2 3 4 5 6 
#
# 1 20.3957 -12.0455 -14.1410 0.0000 -1.9159 0.0000
# 2 -12.0455 75.6326 42.6987 0.0000 2.7457 0.0000
# 3 -14.1410 42.6987 80.5123 0.0000 6.7948 0.0000
# 4 0.0000 0.0000 0.0000 36.6757 0.0000 -18.1395
# 5 -1.9159 2.7457 6.7948 0.0000 8.8772 0.0000
# 6 0.0000 0.0000 0.0000 -18.1395 0.0000 27.6138
#
#
#
# Elastic Compliance Matrix: (Units=1/GPa)
#
#
# Indices 1 2 3 4 5 6 
#
# 1 0.057321 0.005007 0.006948 0.000000 0.005504 0.000000
# 2 0.005007 0.019341 -0.009583 0.000000 0.002434 0.000000
# 3 0.006948 -0.009583 0.019613 0.000000 -0.010549 0.000000
# 4 0.000000 0.000000 0.000000 0.040388 0.000000 0.026531
# 5 0.005504 0.002434 -0.010549 0.000000 0.121157 0.000000
# 6 0.000000 0.000000 0.000000 0.026531 0.000000 0.053642
#
#
# Mechanical properties :
#
#
# Convention : Reuss Voigt Hill
#
# Bulk Modulus (GPa) = 9.89916 23.28501 16.59208
# Shear Modulus (GPa) = 14.68891 25.30191 19.99541
#
# Velocity S-wave (km/s) = 2.58805 3.39668 3.01956
# Velocity P-wave (km/s) = 3.66669 5.09912 4.44104
#
# Compressibility (1/GPa) = 0.10101872
#
# Stress axis : x y z
#
# Youngs Moduli (GPa) = 17.44553 51.70310 50.98540
#
# Poissons Ratio (x) = -0.25887 -0.35424
# Poissons Ratio (y) = -0.08735 0.48861
# Poissons Ratio (z) = -0.12121 0.49549
#
# Static dielectric constant tensor:
#      x y z
#    x 1.805630 0.000000 0.016200 
#    y 0.000000 1.790850 0.000000 
#    z 0.016200 0.000000 1.810530 
# 
# From -- ./inp_files/9618.got.cif
#   From: 2010.05.17/outbox.cif.g08.bks.cpg/sg4_5_cif.got.tgz:9618.got - 2010.06.03 18:43:04.
