data_PCOD9114576
_publ_section_title
;
Structure prediction by ZEFSAII (Michael W. Deem and Ramdas Pophale) SiO2 
 PCOD9114576
Probable space group: P 21
;
_chemical_formula_sum "Si O2"
_cell_formula_units_Z 10
_cell_length_a 13.754954
_cell_length_b 5.025949
_cell_length_c 19.911871
_cell_angle_alpha 90.000000
_cell_angle_beta 18.325657
_cell_angle_gamma 90.000000
_cell_volume 432.808823
_symmetry_space_group_name_H-M "P 21"
_symmetry_group_IT_number 4
_symmetry_cell_setting 'monoclinic'
loop_
_space_group_symop_operation_xyz
x,y,z
-x,1/2+y,-z
loop_
_atom_site_type_symbol
_atom_site_label
_atom_site_fract_x
_atom_site_fract_y
_atom_site_fract_z
Si Si1 0.694503 0.670100 0.767290
Si Si2 0.683137 0.355695 0.368177
Si Si3 0.310738 0.922881 0.368384
Si Si4 0.811238 0.132415 0.138277
Si Si5 0.662581 0.683430 0.018004
O O1 0.784175 0.626436 0.629160
O O2 0.550989 0.390671 0.883275
O O3 0.425732 0.889057 0.945211
O O4 0.991031 0.273863 0.406854
O O5 0.599584 0.665154 0.425041
O O6 0.745353 0.267478 0.251864
O O7 0.984222 0.274395 0.213636
O O8 0.504109 0.066294 0.298363
O O9 0.539078 0.729916 0.175905
O O10 0.012610 0.353608 0.967832
#
# Coordination Sequence:
#
# PCOD9114576 Si02
#       5
#     2   2   2   2   2
#     4  10  18  32  57  96 117 153 197 267 316 347
#     4  12  25  43  61  91 133 177 204 250 326 386
#     4  10  20  33  62  93 126 148 207 266 312 355
#     4  12  24  40  65  97 127 163 215 270 307 361
#     4  10  19  36  57  85 121 161 201 249 301 373
#
# _framework density 23.104889
#
# number of rings (size 3 to 8) (size 9 to 14) (size 15 to 20)
#    1.200    0.000    4.000    3.600    0.000    0.000 
#    0.000    0.000    0.000    4.800    0.000    2.800 
#    0.000    0.000    0.000    0.000    0.000    0.000 
#
# Total GULP energy -55886.290804 kJ/mol
# GULP energy per Si atom -5588.629080 kJ/mol
# Density = 2.305230 g / cm^3
# Si number density = 23.104889 Si / 1000 Ang^3
#
#
#
# Elastic Constant Matrix: (Units=GPa)
#
#
# Indices 1 2 3 4 5 6 
#
# 1 55.8959 -1.4227 9.1303 0.0000 -13.5117 0.0000
# 2 -1.4227 85.0478 -1.4827 0.0000 0.2605 0.0000
# 3 9.1303 -1.4827 50.1679 0.0000 -16.7326 0.0000
# 4 0.0000 0.0000 0.0000 29.6679 0.0000 -15.9606
# 5 -13.5117 0.2605 -16.7326 0.0000 27.3533 0.0000
# 6 0.0000 0.0000 0.0000 -15.9606 0.0000 24.5380
#
#
#
# Elastic Compliance Matrix: (Units=1/GPa)
#
#
# Indices 1 2 3 4 5 6 
#
# 1 0.020332 0.000303 -0.000430 0.000000 0.009777 0.000000
# 2 0.000303 0.011769 0.000383 0.000000 0.000272 0.000000
# 3 -0.000430 0.000383 0.025064 0.000000 0.015116 0.000000
# 4 0.000000 0.000000 0.000000 0.051850 0.000000 0.033726
# 5 0.009777 0.000272 0.015116 0.000000 0.050633 0.000000
# 6 0.000000 0.000000 0.000000 0.033726 0.000000 0.062690
#
#
# Mechanical properties :
#
#
# Convention : Reuss Voigt Hill
#
# Bulk Modulus (GPa) = 17.33797 22.61795 19.97796
# Shear Modulus (GPa) = 20.74242 28.63761 24.69002
#
# Velocity S-wave (km/s) = 2.99950 3.52442 3.27250
# Velocity P-wave (km/s) = 4.41773 5.13542 4.79003
#
# Compressibility (1/GPa) = 0.05767689
#
# Stress axis : x y z
#
# Youngs Moduli (GPa) = 49.18389 84.96896 39.89715
#
# Poissons Ratio (x) = -0.02572 0.01717
# Poissons Ratio (y) = -0.01489 -0.01530
# Poissons Ratio (z) = 0.02117 -0.03258
#
# Static dielectric constant tensor:
#      x y z
#    x 1.849000 0.000000 0.029470 
#    y 0.000000 1.847070 0.000000 
#    z 0.029470 0.000000 1.951410 
# 
# From -- ./inp_files/15337.got.cif
#   From: 2010.05.17/outbox.cif.g08.bks.cpg/sg4_8_cif.got.tgz:15337.got - 2010.06.03 18:43:04.
