data_PCOD9114114
_publ_section_title
;
Structure prediction by ZEFSAII (Michael W. Deem and Ramdas Pophale) SiO2 
 PCOD9114114
Probable space group: P 2
;
_chemical_formula_sum "Si O2"
_cell_formula_units_Z 13
_cell_length_a 7.771067
_cell_length_b 9.077783
_cell_length_c 11.756448
_cell_angle_alpha 90.000000
_cell_angle_beta 41.688740
_cell_angle_gamma 90.000000
_cell_volume 551.585477
_symmetry_space_group_name_H-M "P 2"
_symmetry_group_IT_number 3
_symmetry_cell_setting 'monoclinic'
loop_
_space_group_symop_operation_xyz
x,y,z
-x,y,-z
loop_
_atom_site_type_symbol
_atom_site_label
_atom_site_fract_x
_atom_site_fract_y
_atom_site_fract_z
Si Si1 0.358588 0.783120 0.184235
Si Si2 0.630791 0.219851 0.147643
Si Si3 0.871693 0.072468 0.221918
Si Si4 0.500722 0.462328 0.627281
Si Si5 0.000000 0.564730 0.500000
Si Si6 0.879992 0.098072 0.682597
Si Si7 0.244076 0.758012 0.810335
O O1 0.557761 0.808871 0.189350
O O2 0.152391 0.667947 0.335358
O O3 0.232763 0.940793 0.222477
O O4 0.500000 0.730301 0.000000
O O5 0.654070 0.379302 0.194744
O O6 0.367414 0.204785 0.206733
O O7 0.633769 0.124544 0.262264
O O8 0.868771 0.148205 0.960748
O O9 0.897244 0.128498 0.336663
O O10 0.854477 0.896045 0.215145
O O11 0.500000 0.400207 0.500000
O O12 0.790784 0.472056 0.533398
O O13 0.381178 0.626070 0.677426
O O14 0.000000 0.083332 0.500000
O O15 0.000000 0.698810 0.000000
#
# Coordination Sequence:
#
# PCOD9114114 Si02
#       7
#     2   2   2   2   1   2   2
#     4  11  22  42  72 108 149 188 245 313 374 437
#     4  11  25  48  65 108 141 197 247 296 381 449
#     4  11  24  45  75 104 145 181 256 317 361 448
#     4  11  29  46  72 101 156 201 243 307 382 458
#     4  10  26  50  66 110 148 194 260 296 376 456
#     4  12  25  40  73 106 143 193 245 315 378 428
#     4  11  22  44  71 111 140 190 251 306 372 445
#
# _framework density 23.568422000000002
#
# number of rings (size 3 to 8) (size 9 to 14) (size 15 to 20)
#    0.000    0.923    3.846    2.308    9.692    0.000 
#    0.000    6.154    0.000    0.000    0.000    0.000 
#    0.000    0.000    0.000    0.000    0.000    0.000 
#
# Total GULP energy -72651.563103 kJ/mol
# GULP energy per Si atom -5588.581777 kJ/mol
# Density = 2.351478 g / cm^3
# Si number density = 23.568422 Si / 1000 Ang^3
#
#
#
# Elastic Constant Matrix: (Units=GPa)
#
#
# Indices 1 2 3 4 5 6 
#
# 1 99.3132 42.0519 41.8428 0.0000 13.9238 0.0000
# 2 42.0519 88.1569 32.1673 0.0000 5.7452 0.0000
# 3 41.8428 32.1673 110.3982 0.0000 13.0411 0.0000
# 4 0.0000 0.0000 0.0000 16.6910 0.0000 -12.3596
# 5 13.9238 5.7452 13.0411 0.0000 41.2025 0.0000
# 6 0.0000 0.0000 0.0000 -12.3596 0.0000 19.5553
#
#
#
# Elastic Compliance Matrix: (Units=1/GPa)
#
#
# Indices 1 2 3 4 5 6 
#
# 1 0.014200 -0.005309 -0.003486 0.000000 -0.002955 0.000000
# 2 -0.005309 0.014693 -0.002326 0.000000 0.000482 0.000000
# 3 -0.003486 -0.002326 0.011302 0.000000 -0.002075 0.000000
# 4 0.000000 0.000000 0.000000 0.112621 0.000000 0.071180
# 5 -0.002955 0.000482 -0.002075 0.000000 0.025859 0.000000
# 6 0.000000 0.000000 0.000000 0.071180 0.000000 0.096125
#
#
# Mechanical properties :
#
#
# Convention : Reuss Voigt Hill
#
# Bulk Modulus (GPa) = 55.69938 58.88803 57.29370
# Shear Modulus (GPa) = 16.50022 27.61019 22.05520
#
# Velocity S-wave (km/s) = 2.64881 3.42642 3.06239
# Velocity P-wave (km/s) = 5.74798 6.37919 6.07179
#
# Compressibility (1/GPa) = 0.01795352
#
# Stress axis : x y z
#
# Youngs Moduli (GPa) = 70.42127 68.05866 88.47812
#
# Poissons Ratio (x) = 0.36133 0.30845
# Poissons Ratio (y) = 0.37387 0.20579
# Poissons Ratio (z) = 0.24550 0.15830
#
# Static dielectric constant tensor:
#      x y z
#    x 2.018640 0.000000 0.005290 
#    y 0.000000 1.952130 0.000000 
#    z 0.005290 0.000000 1.909490 
# 
# From -- ./inp_files/10652.got.cif
#   From: 2010.05.17/outbox.cif.g08.bks.cpg/sg3_6_cif.got.tgz:10652.got - 2010.06.03 18:33:08.
