data_PCOD9114034
_publ_section_title
;
Structure prediction by ZEFSAII (Michael W. Deem and Ramdas Pophale) SiO2 
 PCOD9114034
Probable space group: P 2
;
_chemical_formula_sum "Si O2"
_cell_formula_units_Z 14
_cell_length_a 5.868835
_cell_length_b 5.557776
_cell_length_c 17.833337
_cell_angle_alpha 90.000000
_cell_angle_beta 73.493697
_cell_angle_gamma 90.000000
_cell_volume 557.709914
_symmetry_space_group_name_H-M "P 2"
_symmetry_group_IT_number 3
_symmetry_cell_setting 'monoclinic'
loop_
_space_group_symop_operation_xyz
x,y,z
-x,y,-z
loop_
_atom_site_type_symbol
_atom_site_label
_atom_site_fract_x
_atom_site_fract_y
_atom_site_fract_z
Si Si1 0.300510 0.646790 0.712472
Si Si2 0.966844 0.304246 0.652009
Si Si3 0.000000 0.601208 0.500000
Si Si4 0.432853 0.047742 0.219678
Si Si5 0.551849 0.339742 0.078507
Si Si6 0.146984 0.743251 0.140664
Si Si7 0.000000 0.670283 0.000000
Si Si8 0.300417 0.931336 0.560606
O O1 0.191609 0.396628 0.682897
O O2 0.349244 0.800719 0.633500
O O3 0.072208 0.684500 0.785967
O O4 0.492246 0.795378 0.747935
O O5 0.929257 0.477467 0.585091
O O6 0.718852 0.232509 0.714801
O O7 0.061557 0.068976 0.602273
O O8 0.232392 0.745462 0.502685
O O9 0.614756 0.194559 0.149849
O O10 0.261678 0.968893 0.169224
O O11 0.329760 0.519564 0.116911
O O12 0.778118 0.507710 0.043341
O O13 0.500000 0.224705 0.000000
O O14 0.069032 0.817408 0.065750
O O15 0.500000 0.089830 0.500000
#
# Coordination Sequence:
#
# PCOD9114034 Si02
#       8
#     2   2   1   2   2   2   1   2
#     4  11  26  44  73 112 151 197 262 323 387 475
#     4  11  25  51  75 111 154 201 262 327 394 474
#     4  10  26  48  74 104 154 196 250 324 372 478
#     4  12  26  46  79 109 152 208 257 324 402 461
#     4  10  24  46  74 105 153 196 251 323 393 468
#     4  11  23  48  70 109 151 196 258 321 385 471
#     4  10  24  46  76 110 150 198 254 316 392 464
#     4  11  26  48  72 109 148 196 251 312 399 463
#
# _framework density 25.102651999999999
#
# number of rings (size 3 to 8) (size 9 to 14) (size 15 to 20)
#    0.000    1.143    2.857    1.286    4.000    9.714 
#    2.571    1.429    0.000    0.000    0.000    0.000 
#    0.000    0.000    0.000    0.000    0.000    0.000 
#
# Total GULP energy -77968.625428 kJ/mol
# GULP energy per Si atom -5569.187531 kJ/mol
# Density = 2.504552 g / cm^3
# Si number density = 25.102652 Si / 1000 Ang^3
#
#
#
# Elastic Constant Matrix: (Units=GPa)
#
#
# Indices 1 2 3 4 5 6 
#
# 1 71.0110 10.8602 55.9504 0.0000 1.6054 0.0000
# 2 10.8602 48.4991 34.8920 0.0000 6.9470 0.0000
# 3 55.9504 34.8920 158.6054 0.0000 -0.2537 0.0000
# 4 0.0000 0.0000 0.0000 33.9923 0.0000 -8.8429
# 5 1.6054 6.9470 -0.2537 0.0000 60.4108 0.0000
# 6 0.0000 0.0000 0.0000 -8.8429 0.0000 15.3255
#
#
#
# Elastic Compliance Matrix: (Units=1/GPa)
#
#
# Indices 1 2 3 4 5 6 
#
# 1 0.019547 0.000804 -0.007073 0.000000 -0.000642 0.000000
# 2 0.000804 0.025026 -0.005794 0.000000 -0.002924 0.000000
# 3 -0.007073 -0.005794 0.010076 0.000000 0.000897 0.000000
# 4 0.000000 0.000000 0.000000 0.034614 0.000000 0.019973
# 5 -0.000642 -0.002924 0.000897 0.000000 0.016910 0.000000
# 6 0.000000 0.000000 0.000000 0.019973 0.000000 0.076775
#
#
# Mechanical properties :
#
#
# Convention : Reuss Voigt Hill
#
# Bulk Modulus (GPa) = 32.76282 53.50231 43.13257
# Shear Modulus (GPa) = 23.01496 33.70656 28.36076
#
# Velocity S-wave (km/s) = 3.03121 3.66833 3.36488
# Velocity P-wave (km/s) = 5.03298 6.26912 5.68475
#
# Compressibility (1/GPa) = 0.03052240
#
# Stress axis : x y z
#
# Youngs Moduli (GPa) = 51.15847 39.95854 99.24380
#
# Poissons Ratio (x) = -0.03211 0.70199
# Poissons Ratio (y) = -0.04111 0.57499
# Poissons Ratio (z) = 0.36186 0.23151
#
# Static dielectric constant tensor:
#      x y z
#    x 2.002030 0.000000 -0.024770 
#    y 0.000000 2.071870 0.000000 
#    z -0.024770 0.000000 1.924190 
# 
# From -- ./inp_files/14587.got.cif
#   From: 2010.05.17/outbox.cif.g08.bks.cpg/sg3_8_cif.got.tgz:14587.got - 2010.06.03 18:33:08.
