data_PCOD9114841
_publ_section_title
;
Structure prediction by ZEFSAII (Michael W. Deem and Ramdas Pophale) SiO2 
 PCOD9114841
Probable space group: P 21
;
_chemical_formula_sum "Si O2"
_cell_formula_units_Z 16
_cell_length_a 24.833538
_cell_length_b 5.049869
_cell_length_c 5.330175
_cell_angle_alpha 90.000000
_cell_angle_beta 65.065534
_cell_angle_gamma 90.000000
_cell_volume 606.131949
_symmetry_space_group_name_H-M "P 21"
_symmetry_group_IT_number 4
_symmetry_cell_setting 'monoclinic'
loop_
_space_group_symop_operation_xyz
x,y,z
-x,1/2+y,-z
loop_
_atom_site_type_symbol
_atom_site_label
_atom_site_fract_x
_atom_site_fract_y
_atom_site_fract_z
Si Si1 0.379879 0.375000 0.910851
Si Si2 0.123357 0.885660 0.933759
Si Si3 0.125494 0.196363 0.428301
Si Si4 0.751394 0.900422 0.646615
Si Si5 0.001204 0.700435 0.345361
Si Si6 0.378365 0.876911 0.599321
Si Si7 0.249150 0.890541 0.638016
Si Si8 0.498894 0.727307 0.323110
O O1 0.383199 0.680455 0.828206
O O2 0.439671 0.289521 0.940234
O O3 0.383515 0.182884 0.661107
O O4 0.314213 0.316275 0.138041
O O5 0.188672 0.778297 0.879765
O O6 0.131149 0.970262 0.630366
O O7 0.062589 0.726292 0.078242
O O8 0.116364 0.114238 0.157583
O O9 0.187963 0.344393 0.325035
O O10 0.061311 0.313901 0.635957
O O11 0.758243 0.703960 0.391704
O O12 0.747846 0.214073 0.617714
O O13 0.990307 0.394772 0.432459
O O14 0.312163 0.831796 0.634583
O O15 0.435173 0.786593 0.323898
O O16 0.500180 0.441324 0.448779
#
# Coordination Sequence:
#
# PCOD9114841 Si02
#       8
#     2   2   2   2   2   2   2   2
#     4  10  19  35  59  84 115 159 209 263 319 383
#     4  10  24  45  69  98 133 173 218 268 324 386
#     4  10  24  45  69  98 133 173 218 268 324 386
#     4  11  24  40  59  89 125 164 210 264 321 383
#     4  10  24  44  70 100 134 172 218 268 324 386
#     4  10  19  35  59  84 115 159 209 263 319 383
#     4  11  24  40  59  89 125 164 210 264 321 383
#     4   8  16  30  52  82 112 150 204 258 316 378
#
# _framework density 26.396892000000001
#
# number of rings (size 3 to 8) (size 9 to 14) (size 15 to 20)
#    0.000    2.000    0.000    2.250    0.000   16.000 
#    0.000    1.250    0.000    0.000    0.000    0.000 
#    0.000    0.000    0.000    0.000    0.000    0.625 
#
# Total GULP energy -89245.012198 kJ/mol
# GULP energy per Si atom -5577.813262 kJ/mol
# Density = 2.633681 g / cm^3
# Si number density = 26.396892 Si / 1000 Ang^3
#
#
#
# Elastic Constant Matrix: (Units=GPa)
#
#
# Indices 1 2 3 4 5 6 
#
# 1 231.6594 19.9029 44.8086 0.0000 -61.3352 0.0000
# 2 19.9029 101.8901 28.4341 0.0000 -1.1032 0.0000
# 3 44.8086 28.4341 77.3097 0.0000 -41.3093 0.0000
# 4 0.0000 0.0000 0.0000 38.8272 0.0000 -4.9333
# 5 -61.3352 -1.1032 -41.3093 0.0000 74.6504 0.0000
# 6 0.0000 0.0000 0.0000 -4.9333 0.0000 39.4645
#
#
#
# Elastic Compliance Matrix: (Units=1/GPa)
#
#
# Indices 1 2 3 4 5 6 
#
# 1 0.005649 -0.000866 -0.000685 0.000000 0.004249 0.000000
# 2 -0.000866 0.011541 -0.005724 0.000000 -0.003709 0.000000
# 3 -0.000685 -0.005724 0.021427 0.000000 0.011210 0.000000
# 4 0.000000 0.000000 0.000000 0.026171 0.000000 0.003271
# 5 0.004249 -0.003709 0.011210 0.000000 0.023036 0.000000
# 6 0.000000 0.000000 0.000000 0.003271 0.000000 0.025748
#
#
# Mechanical properties :
#
#
# Convention : Reuss Voigt Hill
#
# Bulk Modulus (GPa) = 41.55264 66.35004 53.95134
# Shear Modulus (GPa) = 36.72573 51.76933 44.24753
#
# Velocity S-wave (km/s) = 3.73405 4.43334 4.09863
# Velocity P-wave (km/s) = 5.86229 7.16911 6.54838
#
# Compressibility (1/GPa) = 0.02406586
#
# Stress axis : x y z
#
# Youngs Moduli (GPa) = 177.03362 86.64712 46.66984
#
# Poissons Ratio (x) = 0.07506 0.03196
# Poissons Ratio (y) = 0.15336 0.26716
# Poissons Ratio (z) = 0.12122 0.49601
#
# Static dielectric constant tensor:
#      x y z
#    x 2.195100 0.000000 -0.030500 
#    y 0.000000 2.055060 0.000000 
#    z -0.030500 0.000000 2.156280 
# 
# From -- ./inp_files/4430.got.cif
#   From: 2010.05.17/outbox.cif.g08.bks.cpg/sg4_3_cif.got.tgz:4430.got - 2010.06.03 18:43:04.
