data_PCOD9114066
_publ_section_title
;
Structure prediction by ZEFSAII (Michael W. Deem and Ramdas Pophale) SiO2 
 PCOD9114066
Probable space group: P 2
;
_chemical_formula_sum "Si O2"
_cell_formula_units_Z 16
_cell_length_a 8.465356
_cell_length_b 5.129441
_cell_length_c 18.585927
_cell_angle_alpha 90.000000
_cell_angle_beta 126.941653
_cell_angle_gamma 90.000000
_cell_volume 645.031650
_symmetry_space_group_name_H-M "P 2"
_symmetry_group_IT_number 3
_symmetry_cell_setting 'monoclinic'
loop_
_space_group_symop_operation_xyz
x,y,z
-x,y,-z
loop_
_atom_site_type_symbol
_atom_site_label
_atom_site_fract_x
_atom_site_fract_y
_atom_site_fract_z
Si Si1 0.607433 0.328900 0.349478
Si Si2 0.938422 0.581792 0.700538
Si Si3 0.647445 0.838004 0.721433
Si Si4 0.341354 0.190093 0.049241
Si Si5 0.787274 0.703990 0.912811
Si Si6 0.789967 0.245069 0.143742
Si Si7 0.876964 0.975367 0.319170
Si Si8 0.280883 0.183313 0.462109
O O1 0.534650 0.628490 0.322542
O O2 0.741181 0.163673 0.329357
O O3 0.701382 0.306766 0.454155
O O4 0.417065 0.137602 0.297109
O O5 0.780381 0.784597 0.688640
O O6 0.800199 0.385266 0.618959
O O7 0.054125 0.473500 0.801492
O O8 0.117830 0.666620 0.695742
O O9 0.769077 0.769729 0.825178
O O10 0.248327 0.403628 0.076824
O O11 0.559475 0.302237 0.094065
O O12 0.362574 0.903967 0.089033
O O13 0.216955 0.160872 0.941331
O O14 0.000000 0.780296 0.000000
O O15 0.852076 0.067097 0.228991
O O16 0.096811 0.988564 0.413621
O O17 0.500000 0.088718 0.500000
#
# Coordination Sequence:
#
# PCOD9114066 Si02
#       8
#     2   2   2   2   2   2   2   2
#     4  12  28  49  77 109 153 195 251 314 382 449
#     4  11  26  45  79 108 150 199 255 309 377 458
#     4  12  27  48  77 109 152 200 249 312 381 452
#     4  11  26  45  72 106 144 198 243 306 364 446
#     4  12  26  45  71 105 150 189 250 302 374 435
#     4  10  25  44  72 103 148 191 250 299 374 438
#     4  11  26  45  76 107 149 197 253 313 377 452
#     4  11  24  49  71 109 147 197 251 308 379 458
#
# _framework density 24.804983
#
# number of rings (size 3 to 8) (size 9 to 14) (size 15 to 20)
#    0.000    0.750    1.250    4.500   14.000    1.500 
#    0.000    0.000    0.000    0.000    0.000    0.000 
#    0.000    0.000    0.000    0.000    0.000    0.000 
#
# Total GULP energy -89316.922049 kJ/mol
# GULP energy per Si atom -5582.307628 kJ/mol
# Density = 2.474853 g / cm^3
# Si number density = 24.804983 Si / 1000 Ang^3
#
#
#
# Elastic Constant Matrix: (Units=GPa)
#
#
# Indices 1 2 3 4 5 6 
#
# 1 67.6815 13.4734 2.0297 0.0000 4.4701 0.0000
# 2 13.4734 55.8318 8.9630 0.0000 1.7719 0.0000
# 3 2.0297 8.9630 148.0070 0.0000 -2.2538 0.0000
# 4 0.0000 0.0000 0.0000 21.2182 0.0000 3.8632
# 5 4.4701 1.7719 -2.2538 0.0000 29.3386 0.0000
# 6 0.0000 0.0000 0.0000 3.8632 0.0000 37.8116
#
#
#
# Elastic Compliance Matrix: (Units=1/GPa)
#
#
# Indices 1 2 3 4 5 6 
#
# 1 0.015656 -0.003706 -0.000023 0.000000 -0.002163 0.000000
# 2 -0.003706 0.019005 -0.001110 0.000000 -0.000668 0.000000
# 3 -0.000023 -0.001110 0.006833 0.000000 0.000596 0.000000
# 4 0.000000 0.000000 0.000000 0.048023 0.000000 -0.004906
# 5 -0.002163 -0.000668 0.000596 0.000000 0.034501 0.000000
# 6 0.000000 0.000000 0.000000 -0.004906 0.000000 0.026948
#
#
# Mechanical properties :
#
#
# Convention : Reuss Voigt Hill
#
# Bulk Modulus (GPa) = 31.43121 35.60585 33.51853
# Shear Modulus (GPa) = 29.19718 34.14394 31.67056
#
# Velocity S-wave (km/s) = 3.43457 3.71414 3.57709
# Velocity P-wave (km/s) = 5.33171 5.72526 5.53199
#
# Compressibility (1/GPa) = 0.03181551
#
# Stress axis : x y z
#
# Youngs Moduli (GPa) = 63.87166 52.61858 146.34735
#
# Poissons Ratio (x) = 0.19500 0.00340
# Poissons Ratio (y) = 0.23670 0.16248
# Poissons Ratio (z) = 0.00148 0.05842
#
# Static dielectric constant tensor:
#      x y z
#    x 2.031480 0.000000 -0.010320 
#    y 0.000000 2.131870 0.000000 
#    z -0.010320 0.000000 1.889840 
# 
# From -- ./inp_files/14880.got.cif
#   From: 2010.05.17/outbox.cif.g08.bks.cpg/sg3_8_cif.got.tgz:14880.got - 2010.06.03 18:33:08.
