data_PCOD9114088
_publ_section_title
;
Structure prediction by ZEFSAII (Michael W. Deem and Ramdas Pophale) SiO2 
 PCOD9114088
Probable space group: P 2
;
_chemical_formula_sum "Si O2"
_cell_formula_units_Z 15
_cell_length_a 11.078315
_cell_length_b 6.168822
_cell_length_c 15.682977
_cell_angle_alpha 90.000000
_cell_angle_beta 142.913098
_cell_angle_gamma 90.000000
_cell_volume 646.309045
_symmetry_space_group_name_H-M "P 2"
_symmetry_group_IT_number 3
_symmetry_cell_setting 'monoclinic'
loop_
_space_group_symop_operation_xyz
x,y,z
-x,y,-z
loop_
_atom_site_type_symbol
_atom_site_label
_atom_site_fract_x
_atom_site_fract_y
_atom_site_fract_z
Si Si1 0.349877 0.179070 0.648998
Si Si2 0.866574 0.797512 0.533106
Si Si3 0.228345 0.474483 0.737525
Si Si4 0.213195 0.274652 0.104424
Si Si5 0.952294 0.395201 0.825781
Si Si6 0.669408 0.479740 0.524574
Si Si7 0.132810 0.078539 0.809055
Si Si8 0.500000 0.784215 0.000000
O O1 0.586816 0.144324 0.794651
O O2 0.320760 0.282006 0.537603
O O3 0.708981 0.353978 0.313292
O O4 0.218486 0.962749 0.585109
O O5 0.671296 0.692451 0.467354
O O6 0.022528 0.603918 0.604176
O O7 0.990861 0.943825 0.667969
O O8 0.200972 0.289888 0.794175
O O9 0.393159 0.637964 0.868208
O O10 0.217461 0.400839 0.196896
O O11 0.155548 0.436584 0.994111
O O12 0.000000 0.152258 0.000000
O O13 0.005573 0.158949 0.817663
O O14 0.869214 0.512400 0.696103
O O15 0.500000 0.451060 0.500000
O O16 0.326501 0.937339 0.940173
#
# Coordination Sequence:
#
# PCOD9114088 Si02
#       8
#     2   2   2   2   2   2   2   1
#     4  12  25  44  74 101 148 195 234 309 376 434
#     4  11  26  43  69 105 135 196 253 296 359 452
#     4  11  26  45  69 107 150 191 250 310 365 438
#     4   8  21  38  71 100 132 187 232 286 373 440
#     4   9  19  42  70  94 139 184 231 289 377 420
#     4  12  23  44  71 103 142 188 243 303 370 442
#     4  11  22  43  74  97 144 192 233 314 359 429
#     4  10  26  40  70 114 134 192 254 290 380 456
#
# _framework density 23.208711999999998
#
# number of rings (size 3 to 8) (size 9 to 14) (size 15 to 20)
#    0.800    0.533    4.000    0.400    3.733    6.933 
#    0.000    0.000    0.000    0.800    0.000    0.000 
#    0.000    0.000    0.000    0.000    0.000    0.000 
#
# Total GULP energy -83626.691907 kJ/mol
# GULP energy per Si atom -5575.112794 kJ/mol
# Density = 2.315589 g / cm^3
# Si number density = 23.208712 Si / 1000 Ang^3
#
#
#
# Elastic Constant Matrix: (Units=GPa)
#
#
# Indices 1 2 3 4 5 6 
#
# 1 99.7169 33.4015 41.0471 0.0000 -12.5028 0.0000
# 2 33.4015 90.6083 44.1536 0.0000 6.0965 0.0000
# 3 41.0471 44.1536 120.0004 0.0000 0.9202 0.0000
# 4 0.0000 0.0000 0.0000 41.1246 0.0000 -4.9415
# 5 -12.5028 6.0965 0.9202 0.0000 38.7905 0.0000
# 6 0.0000 0.0000 0.0000 -4.9415 0.0000 19.1106
#
#
#
# Elastic Compliance Matrix: (Units=1/GPa)
#
#
# Indices 1 2 3 4 5 6 
#
# 1 0.013177 -0.003621 -0.003212 0.000000 0.004893 0.000000
# 2 -0.003621 0.014599 -0.004107 0.000000 -0.003364 0.000000
# 3 -0.003212 -0.004107 0.010948 0.000000 -0.000650 0.000000
# 4 0.000000 0.000000 0.000000 0.025096 0.000000 0.006489
# 5 0.004893 -0.003364 -0.000650 0.000000 0.027901 0.000000
# 6 0.000000 0.000000 0.000000 0.006489 0.000000 0.054005
#
#
# Mechanical properties :
#
#
# Convention : Reuss Voigt Hill
#
# Bulk Modulus (GPa) = 59.37244 60.83667 60.10456
# Shear Modulus (GPa) = 28.86455 32.58671 30.72563
#
# Velocity S-wave (km/s) = 3.53043 3.75116 3.64247
# Velocity P-wave (km/s) = 6.50047 6.71054 6.60634
#
# Compressibility (1/GPa) = 0.01684283
#
# Stress axis : x y z
#
# Youngs Moduli (GPa) = 75.88858 68.49640 91.33795
#
# Poissons Ratio (x) = 0.24805 0.29342
# Poissons Ratio (y) = 0.27482 0.37515
# Poissons Ratio (z) = 0.24379 0.28133
#
# Static dielectric constant tensor:
#      x y z
#    x 1.911530 0.000000 -0.023570 
#    y 0.000000 1.845020 0.000000 
#    z -0.023570 0.000000 1.940580 
# 
# From -- ./inp_files/16559.got.cif
#   From: 2010.05.17/outbox.cif.g08.bks.cpg/sg3_9_cif.got.tgz:16559.got - 2010.06.03 18:33:08.
