data_PCOD9114178
_publ_section_title
;
Structure prediction by ZEFSAII (Michael W. Deem and Ramdas Pophale) SiO2 
 PCOD9114178
Probable space group: P 2
;
_chemical_formula_sum "Si O2"
_cell_formula_units_Z 16
_cell_length_a 20.367577
_cell_length_b 7.911725
_cell_length_c 9.102452
_cell_angle_alpha 90.000000
_cell_angle_beta 29.294086
_cell_angle_gamma 90.000000
_cell_volume 717.690916
_symmetry_space_group_name_H-M "P 2"
_symmetry_group_IT_number 3
_symmetry_cell_setting 'monoclinic'
loop_
_space_group_symop_operation_xyz
x,y,z
-x,y,-z
loop_
_atom_site_type_symbol
_atom_site_label
_atom_site_fract_x
_atom_site_fract_y
_atom_site_fract_z
Si Si1 0.230506 0.667170 0.820814
Si Si2 0.886990 0.228589 0.436615
Si Si3 0.166042 0.343504 0.794594
Si Si4 0.400016 0.142688 0.330462
Si Si5 0.501742 0.847913 0.320797
Si Si6 0.143302 0.910881 0.782904
Si Si7 0.801284 0.833113 0.626904
Si Si8 0.859872 0.525333 0.702816
O O1 0.155454 0.535465 0.862473
O O2 0.383774 0.724587 0.492970
O O3 0.147589 0.836986 0.938127
O O4 0.227457 0.588556 0.988847
O O5 0.850579 0.305088 0.345975
O O6 0.823037 0.363084 0.675900
O O7 0.840429 0.034621 0.561216
O O8 0.050581 0.243261 0.110605
O O9 0.319833 0.304688 0.541150
O O10 0.468517 0.033706 0.322460
O O11 0.270132 0.035151 0.531051
O O12 0.500000 0.170044 0.000000
O O13 0.500000 0.846208 0.500000
O O14 0.647864 0.807892 0.974304
O O15 0.180561 0.784042 0.578577
O O16 0.000000 0.974154 0.000000
O O17 0.879366 0.695097 0.569494
O O18 0.000000 0.474812 0.500000
#
# Coordination Sequence:
#
# PCOD9114178 Si02
#       8
#     2   2   2   2   2   2   2   2
#     4  11  25  43  70  99 146 196 230 302 363 435
#     4  11  25  45  75 108 143 189 239 313 376 428
#     4  11  23  46  67 106 144 177 247 307 365 437
#     4  11  22  43  69  98 139 182 243 299 355 439
#     4  11  24  47  65  98 143 195 246 284 358 440
#     4  11  22  41  72 106 132 177 242 300 365 414
#     4  12  24  46  77 102 142 195 242 306 368 432
#     4  12  25  46  69 105 152 183 245 297 369 453
#
# _framework density 22.293718999999999
#
# number of rings (size 3 to 8) (size 9 to 14) (size 15 to 20)
#    0.000    0.750    5.000    2.250    1.750    2.500 
#    6.750    0.625    0.000    0.000    0.000    0.000 
#    0.000    0.000    0.000    0.000    0.000    0.000 
#
# Total GULP energy -89143.536967 kJ/mol
# GULP energy per Si atom -5571.471060 kJ/mol
# Density = 2.224298 g / cm^3
# Si number density = 22.293719 Si / 1000 Ang^3
#
#
#
# Elastic Constant Matrix: (Units=GPa)
#
#
# Indices 1 2 3 4 5 6 
#
# 1 71.1194 27.4092 13.9097 0.0000 7.4976 0.0000
# 2 27.4092 104.0649 26.5092 0.0000 14.3030 0.0000
# 3 13.9097 26.5092 123.0660 0.0000 -1.8674 0.0000
# 4 0.0000 0.0000 0.0000 28.6994 0.0000 1.4500
# 5 7.4976 14.3030 -1.8674 0.0000 31.8007 0.0000
# 6 0.0000 0.0000 0.0000 1.4500 0.0000 23.6201
#
#
#
# Elastic Compliance Matrix: (Units=1/GPa)
#
#
# Indices 1 2 3 4 5 6 
#
# 1 0.015891 -0.003618 -0.001050 0.000000 -0.002181 0.000000
# 2 -0.003618 0.011747 -0.002191 0.000000 -0.004559 0.000000
# 3 -0.001050 -0.002191 0.008743 0.000000 0.001746 0.000000
# 4 0.000000 0.000000 0.000000 0.034952 0.000000 -0.002146
# 5 -0.002181 -0.004559 0.001746 0.000000 0.034113 0.000000
# 6 0.000000 0.000000 0.000000 -0.002146 0.000000 0.042469
#
#
# Mechanical properties :
#
#
# Convention : Reuss Voigt Hill
#
# Bulk Modulus (GPa) = 44.12450 48.21185 46.16817
# Shear Modulus (GPa) = 29.55332 32.18551 30.86942
#
# Velocity S-wave (km/s) = 3.64488 3.80373 3.72515
# Velocity P-wave (km/s) = 6.12771 6.40030 6.26549
#
# Compressibility (1/GPa) = 0.02266315
#
# Stress axis : x y z
#
# Youngs Moduli (GPa) = 62.93054 85.12812 114.38066
#
# Poissons Ratio (x) = 0.30801 0.12007
# Poissons Ratio (y) = 0.22770 0.25056
# Poissons Ratio (z) = 0.06606 0.18648
#
# Static dielectric constant tensor:
#      x y z
#    x 1.843030 0.000000 0.019480 
#    y 0.000000 1.998330 0.000000 
#    z 0.019480 0.000000 1.910200 
# 
# From -- ./inp_files/9467.got.cif
#   From: 2010.05.17/outbox.cif.g08.bks.cpg/sg3_5_cif.got.tgz:9467.got - 2010.06.03 18:33:08.
