data_PCOD9114226
_publ_section_title
;
Structure prediction by ZEFSAII (Michael W. Deem and Ramdas Pophale) SiO2 
 PCOD9114226
Probable space group: P 2
;
_chemical_formula_sum "Si O2"
_cell_formula_units_Z 10
_cell_length_a 14.435394
_cell_length_b 5.127112
_cell_length_c 15.461693
_cell_angle_alpha 90.000000
_cell_angle_beta 19.572552
_cell_angle_gamma 90.000000
_cell_volume 383.357178
_symmetry_space_group_name_H-M "P 2"
_symmetry_group_IT_number 3
_symmetry_cell_setting 'monoclinic'
loop_
_space_group_symop_operation_xyz
x,y,z
-x,y,-z
loop_
_atom_site_type_symbol
_atom_site_label
_atom_site_fract_x
_atom_site_fract_y
_atom_site_fract_z
Si Si1 0.466865 0.713080 0.432866
Si Si2 0.093391 0.279840 0.319840
Si Si3 0.583865 0.092888 0.680308
Si Si4 0.897016 0.490513 0.928533
Si Si5 0.665864 0.768804 0.971176
O O1 0.500000 0.819962 0.500000
O O2 0.744369 0.587888 0.149648
O O3 0.389154 0.934925 0.431717
O O4 0.224817 0.494909 0.650983
O O5 0.825777 0.294383 0.491539
O O6 0.000000 0.316435 0.500000
O O7 0.309718 0.499187 0.100050
O O8 0.221321 0.997097 0.188476
O O9 0.289886 0.243921 0.935784
O O10 0.599584 0.890737 0.747723
O O11 0.840183 0.704555 0.904255
#
# Coordination Sequence:
#
# PCOD9114226 Si02
#       5
#     2   2   2   2   2
#     4  11  25  46  76 118 157 204 265 327 395 474
#     4  12  26  48  75 113 159 207 268 327 389 469
#     4  11  26  47  78 105 162 210 258 328 398 472
#     4  11  23  46  77 106 155 209 256 321 397 468
#     4  11  24  47  71 108 153 200 263 317 397 458
#
# _framework density 26.085332999999999
#
# number of rings (size 3 to 8) (size 9 to 14) (size 15 to 20)
#    0.000    0.800    4.000    2.400    2.800    1.600 
#    3.600    8.000    0.000    0.000    0.000    0.000 
#    0.000    0.000    0.000    0.000    0.000    0.000 
#
# Total GULP energy -55982.666391 kJ/mol
# GULP energy per Si atom -5598.266639 kJ/mol
# Density = 2.602596 g / cm^3
# Si number density = 26.085333 Si / 1000 Ang^3
#
#
#
# Elastic Constant Matrix: (Units=GPa)
#
#
# Indices 1 2 3 4 5 6 
#
# 1 150.8183 37.1014 78.7469 0.0000 38.1340 0.0000
# 2 37.1014 150.8262 51.0217 0.0000 12.3859 0.0000
# 3 78.7469 51.0217 129.8364 0.0000 12.2863 0.0000
# 4 0.0000 0.0000 0.0000 20.7776 0.0000 53.5143
# 5 38.1340 12.3859 12.2863 0.0000 55.1806 0.0000
# 6 0.0000 0.0000 0.0000 53.5143 0.0000 -47.9926
#
#
#
# Elastic Compliance Matrix: (Units=1/GPa)
#
#
# Indices 1 2 3 4 5 6 
#
# 1 0.011682 -0.000168 -0.006393 0.000000 -0.006612 0.000000
# 2 -0.000168 0.007711 -0.002835 0.000000 -0.000984 0.000000
# 3 -0.006393 -0.002835 0.012479 0.000000 0.002276 0.000000
# 4 0.000000 0.000000 0.000000 0.012430 0.000000 0.013860
# 5 -0.006612 -0.000984 0.002276 0.000000 0.022405 0.000000
# 6 0.000000 0.000000 0.000000 0.013860 0.000000 -0.005381
#
#
# Mechanical properties :
#
#
# Convention : Reuss Voigt Hill
#
# Bulk Modulus (GPa) = 76.46340 85.02455 80.74397
# Shear Modulus (GPa) = 59.18634 23.23383 41.21009
#
# Velocity S-wave (km/s) = 4.76852 2.98767 3.97900
# Velocity P-wave (km/s) = 7.72624 6.67586 7.22018
#
# Compressibility (1/GPa) = 0.01307815
#
# Stress axis : x y z
#
# Youngs Moduli (GPa) = 85.60332 129.67830 80.13758
#
# Poissons Ratio (x) = 0.02176 0.51236
# Poissons Ratio (y) = 0.01437 0.22723
# Poissons Ratio (z) = 0.54730 0.36770
#
# Static dielectric constant tensor:
#      x y z
#    x 2.063320 0.000000 0.081560 
#    y 0.000000 2.057550 0.000000 
#    z 0.081560 0.000000 2.274810 
# 
# From -- ./inp_files/2717.got.cif
#   From: 2010.05.17/outbox.cif.g08.bks.cpg/sg3_2_cif.got.tgz:2717.got - 2010.06.03 18:33:08.
