data_PCOD9114636
_publ_section_title
;
Structure prediction by ZEFSAII (Michael W. Deem and Ramdas Pophale) SiO2 
 PCOD9114636
Probable space group: P 21
;
_chemical_formula_sum "Si O2"
_cell_formula_units_Z 16
_cell_length_a 7.369087
_cell_length_b 10.449078
_cell_length_c 8.394492
_cell_angle_alpha 90.000000
_cell_angle_beta 106.479660
_cell_angle_gamma 90.000000
_cell_volume 619.824413
_symmetry_space_group_name_H-M "P 21"
_symmetry_group_IT_number 4
_symmetry_cell_setting 'monoclinic'
loop_
_space_group_symop_operation_xyz
x,y,z
-x,1/2+y,-z
loop_
_atom_site_type_symbol
_atom_site_label
_atom_site_fract_x
_atom_site_fract_y
_atom_site_fract_z
Si Si1 0.679342 0.784710 0.863624
Si Si2 0.311824 0.227552 0.766295
Si Si3 0.709262 0.946289 0.610174
Si Si4 0.928767 0.348574 0.668345
Si Si5 0.429341 0.720014 0.549284
Si Si6 0.866221 0.473790 0.186692
Si Si7 0.013290 0.090232 0.125054
Si Si8 0.730462 0.254124 0.939461
O O1 0.664833 0.924852 0.786654
O O2 0.507989 0.703276 0.747616
O O3 0.866395 0.720163 0.832735
O O4 0.696650 0.776575 0.052660
O O5 0.256352 0.078529 0.750847
O O6 0.533905 0.246628 0.798301
O O7 0.129651 0.301457 0.653443
O O8 0.597328 0.816379 0.524067
O O9 0.617555 0.077856 0.525650
O O10 0.938468 0.953760 0.666011
O O11 0.760423 0.303609 0.512619
O O12 0.940823 0.496704 0.719158
O O13 0.875141 0.283802 0.827867
O O14 0.924943 0.532636 0.029044
O O15 0.743563 0.357655 0.085091
O O16 0.797567 0.127824 0.047198
#
# Coordination Sequence:
#
# PCOD9114636 Si02
#       8
#     2   2   2   2   2   2   2   2
#     4   9  19  36  58  86 117 157 199 252 304 357
#     4  11  22  37  60  90 121 155 205 255 300 361
#     4  10  18  35  60  87 118 163 203 244 309 358
#     4  11  21  37  59  90 118 159 202 256 293 364
#     4  10  20  33  62  86 118 163 202 243 303 367
#     4  10  19  37  58  87 124 151 202 256 296 354
#     4  10  18  35  60  86 117 154 202 253 295 357
#     4  11  21  36  61  90 119 160 201 251 314 354
#
# _framework density 25.813763999999999
#
# number of rings (size 3 to 8) (size 9 to 14) (size 15 to 20)
#    0.750    1.000    5.000    1.500    1.750    0.000 
#    0.000    0.000    5.500    0.000    0.000    0.000 
#    0.000    0.000    0.000    0.000    0.000    0.000 
#
# Total GULP energy -89288.452623 kJ/mol
# GULP energy per Si atom -5580.528289 kJ/mol
# Density = 2.575501 g / cm^3
# Si number density = 25.813764 Si / 1000 Ang^3
#
#
#
# Elastic Constant Matrix: (Units=GPa)
#
#
# Indices 1 2 3 4 5 6 
#
# 1 105.5868 16.4106 26.0761 0.0000 29.5872 0.0000
# 2 16.4106 46.0407 10.6462 0.0000 19.5764 0.0000
# 3 26.0761 10.6462 127.4301 0.0000 51.2937 0.0000
# 4 0.0000 0.0000 0.0000 48.5038 0.0000 17.0463
# 5 29.5872 19.5764 51.2937 0.0000 36.7390 0.0000
# 6 0.0000 0.0000 0.0000 17.0463 0.0000 17.6810
#
#
#
# Elastic Compliance Matrix: (Units=1/GPa)
#
#
# Indices 1 2 3 4 5 6 
#
# 1 0.012970 0.001655 0.004034 0.000000 -0.016960 0.000000
# 2 0.001655 0.032868 0.010278 0.000000 -0.033196 0.000000
# 3 0.004034 0.010278 0.022090 0.000000 -0.039566 0.000000
# 4 0.000000 0.000000 0.000000 0.031182 0.000000 -0.030063
# 5 -0.016960 -0.033196 -0.039566 0.000000 0.113807 0.000000
# 6 0.000000 0.000000 0.000000 -0.030063 0.000000 0.085542
#
#
# Mechanical properties :
#
#
# Convention : Reuss Voigt Hill
#
# Bulk Modulus (GPa) = 10.01380 42.81370 26.41375
# Shear Modulus (GPa) = 16.67720 35.64641 26.16180
#
# Velocity S-wave (km/s) = 2.54453 3.72009 3.18698
# Velocity P-wave (km/s) = 3.53843 5.92230 4.87823
#
# Compressibility (1/GPa) = 0.09986224
#
# Stress axis : x y z
#
# Youngs Moduli (GPa) = 77.10312 30.42452 45.27031
#
# Poissons Ratio (x) = -0.05037 -0.18264
# Poissons Ratio (y) = -0.12764 -0.46527
# Poissons Ratio (z) = -0.31107 -0.31269
#
# Static dielectric constant tensor:
#      x y z
#    x 2.143820 0.000000 -0.052670 
#    y 0.000000 2.064450 0.000000 
#    z -0.052670 0.000000 2.082590 
# 
# From -- ./inp_files/11275.got.cif
#   From: 2010.05.17/outbox.cif.g08.bks.cpg/sg4_6_cif.got.tgz:11275.got - 2010.06.03 18:43:04.
