data_PCOD9114747
_publ_section_title
;
Structure prediction by ZEFSAII (Michael W. Deem and Ramdas Pophale) SiO2 
 PCOD9114747
Probable space group: P 21
;
_chemical_formula_sum "Si O2"
_cell_formula_units_Z 12
_cell_length_a 8.632024
_cell_length_b 5.024428
_cell_length_c 15.636014
_cell_angle_alpha 90.000000
_cell_angle_beta 40.890946
_cell_angle_gamma 90.000000
_cell_volume 443.931019
_symmetry_space_group_name_H-M "P 21"
_symmetry_group_IT_number 4
_symmetry_cell_setting 'monoclinic'
loop_
_space_group_symop_operation_xyz
x,y,z
-x,1/2+y,-z
loop_
_atom_site_type_symbol
_atom_site_label
_atom_site_fract_x
_atom_site_fract_y
_atom_site_fract_z
Si Si1 0.599368 0.919380 0.685943
Si Si2 0.088262 0.747809 0.569351
Si Si3 0.666327 0.604434 0.418003
Si Si4 0.769235 0.584197 0.840565
Si Si5 0.388265 0.441546 0.853653
Si Si6 0.909216 0.091507 0.881091
O O1 0.437835 0.652823 0.756391
O O2 0.849490 0.800474 0.616496
O O3 0.702622 0.104751 0.567671
O O4 0.462033 0.141903 0.799847
O O5 0.160408 0.034496 0.575457
O O6 0.007605 0.574935 0.684480
O O7 0.502600 0.849571 0.506054
O O8 0.822376 0.604427 0.266235
O O9 0.564201 0.524715 0.858651
O O10 0.776057 0.878610 0.875703
O O11 0.796257 0.375712 0.905443
O O12 0.135607 0.495396 0.003863
#
# Coordination Sequence:
#
# PCOD9114747 Si02
#       6
#     2   2   2   2   2   2
#     4  11  23  36  61  90 123 157 187 241 301 368
#     4  10  22  40  61  92 124 154 201 244 297 351
#     4  11  24  40  62  88 116 159 206 252 292 337
#     4  10  19  32  56  84 117 155 188 241 302 352
#     4  11  21  34  54  88 121 155 189 231 308 366
#     4  11  21  36  56  82 119 152 197 249 290 350
#
# _framework density 27.031224000000002
#
# number of rings (size 3 to 8) (size 9 to 14) (size 15 to 20)
#    0.000    1.333    0.000    9.000    0.000    6.667 
#    0.000    0.000    0.000    4.000    0.000    0.000 
#    0.000    0.000    0.000    0.000    0.000    0.000 
#
# Total GULP energy -67194.724912 kJ/mol
# GULP energy per Si atom -5599.560409 kJ/mol
# Density = 2.696970 g / cm^3
# Si number density = 27.031224 Si / 1000 Ang^3
#
#
#
# Elastic Constant Matrix: (Units=GPa)
#
#
# Indices 1 2 3 4 5 6 
#
# 1 31.8732 4.7512 12.5629 0.0000 -5.7896 0.0000
# 2 4.7512 133.2687 33.2338 0.0000 -2.0469 0.0000
# 3 12.5629 33.2338 197.8518 0.0000 -6.0305 0.0000
# 4 0.0000 0.0000 0.0000 45.5308 0.0000 6.4210
# 5 -5.7896 -2.0469 -6.0305 0.0000 30.4729 0.0000
# 6 0.0000 0.0000 0.0000 6.4210 0.0000 41.1347
#
#
#
# Elastic Compliance Matrix: (Units=1/GPa)
#
#
# Indices 1 2 3 4 5 6 
#
# 1 0.033263 -0.000640 -0.001824 0.000000 0.005916 0.000000
# 2 -0.000640 0.007846 -0.001273 0.000000 0.000154 0.000000
# 3 -0.001824 -0.001273 0.005403 0.000000 0.000637 0.000000
# 4 0.000000 0.000000 0.000000 0.022458 0.000000 -0.003506
# 5 0.005916 0.000154 0.000637 0.000000 0.034076 0.000000
# 6 0.000000 0.000000 0.000000 -0.003506 0.000000 0.024858
#
#
# Mechanical properties :
#
#
# Convention : Reuss Voigt Hill
#
# Bulk Modulus (GPa) = 25.61553 51.56551 38.59052
# Shear Modulus (GPa) = 33.69471 44.25740 38.97606
#
# Velocity S-wave (km/s) = 3.53443 4.05071 3.80134
# Velocity P-wave (km/s) = 5.11401 6.40276 5.79433
#
# Compressibility (1/GPa) = 0.03903882
#
# Stress axis : x y z
#
# Youngs Moduli (GPa) = 30.06315 127.45068 185.07173
#
# Poissons Ratio (x) = 0.08158 0.33762
# Poissons Ratio (y) = 0.01924 0.23553
# Poissons Ratio (z) = 0.05484 0.16220
#
# Static dielectric constant tensor:
#      x y z
#    x 2.268520 0.000000 0.023260 
#    y 0.000000 2.067130 0.000000 
#    z 0.023260 0.000000 2.192620 
# 
# From -- ./inp_files/13503.got.cif
#   From: 2010.05.17/outbox.cif.g08.bks.cpg/sg4_7_cif.got.tgz:13503.got - 2010.06.03 18:43:04.
