data_PCOD9114342
_publ_section_title
;
Structure prediction by ZEFSAII (Michael W. Deem and Ramdas Pophale) SiO2 
 PCOD9114342
Probable space group: P 2
;
_chemical_formula_sum "Si O2"
_cell_formula_units_Z 12
_cell_length_a 8.574909
_cell_length_b 6.697306
_cell_length_c 14.453358
_cell_angle_alpha 90.000000
_cell_angle_beta 38.639929
_cell_angle_gamma 90.000000
_cell_volume 518.296249
_symmetry_space_group_name_H-M "P 2"
_symmetry_group_IT_number 3
_symmetry_cell_setting 'monoclinic'
loop_
_space_group_symop_operation_xyz
x,y,z
-x,y,-z
loop_
_atom_site_type_symbol
_atom_site_label
_atom_site_fract_x
_atom_site_fract_y
_atom_site_fract_z
Si Si1 0.000000 0.918970 0.000000
Si Si2 0.430410 0.444921 0.188872
Si Si3 0.000000 0.955608 0.500000
Si Si4 0.535034 0.172921 0.286142
Si Si5 0.500000 0.119421 0.000000
Si Si6 0.792701 0.749074 0.925000
Si Si7 0.941471 0.605648 0.377779
Si Si8 0.500000 0.340183 0.500000
O O1 0.978602 0.781002 0.921585
O O2 0.246932 0.047738 0.865062
O O3 0.551503 0.389657 0.229905
O O4 0.138697 0.471259 0.340843
O O5 0.463095 0.261273 0.104018
O O6 0.558081 0.634574 0.079815
O O7 0.953205 0.809604 0.432142
O O8 0.737737 0.080104 0.616255
O O9 0.579271 0.199102 0.375960
O O10 0.721328 0.966771 0.919898
O O11 0.920798 0.632286 0.784120
O O12 0.695384 0.486827 0.462106
#
# Coordination Sequence:
#
# PCOD9114342 Si02
#       8
#     1   2   1   2   1   2   2   1
#     4  12  30  44  80 114 156 192 260 332 388 438
#     4  12  24  48  79 111 152 201 258 311 389 471
#     4  12  28  54  80 106 160 214 266 302 394 488
#     4  12  29  51  78 114 153 209 257 323 387 469
#     4  12  20  46  72 120 140 192 254 316 380 458
#     4  12  26  45  76 117 149 193 254 327 385 453
#     4  12  26  48  76 108 154 205 255 313 387 471
#     4  12  32  46  74 112 160 200 254 326 398 446
#
# _framework density 23.152781999999998
#
# number of rings (size 3 to 8) (size 9 to 14) (size 15 to 20)
#    0.000    0.000    5.000    4.000   11.667    0.000 
#    0.000    0.000    0.000    0.000    0.000    0.000 
#    0.000    0.000    0.000    0.000    0.000    0.000 
#
# Total GULP energy -66996.932066 kJ/mol
# GULP energy per Si atom -5583.077672 kJ/mol
# Density = 2.310009 g / cm^3
# Si number density = 23.152782 Si / 1000 Ang^3
#
#
#
# Elastic Constant Matrix: (Units=GPa)
#
#
# Indices 1 2 3 4 5 6 
#
# 1 77.8671 23.4173 37.7619 0.0000 11.2049 0.0000
# 2 23.4173 69.3812 27.7311 0.0000 -7.6464 0.0000
# 3 37.7619 27.7311 112.3520 0.0000 4.1736 0.0000
# 4 0.0000 0.0000 0.0000 28.9810 0.0000 10.5420
# 5 11.2049 -7.6464 4.1736 0.0000 50.2987 0.0000
# 6 0.0000 0.0000 0.0000 10.5420 0.0000 47.4776
#
#
#
# Elastic Compliance Matrix: (Units=1/GPa)
#
#
# Indices 1 2 3 4 5 6 
#
# 1 0.016900 -0.004373 -0.004450 0.000000 -0.004060 0.000000
# 2 -0.004373 0.017515 -0.002998 0.000000 0.003886 0.000000
# 3 -0.004450 -0.002998 0.011151 0.000000 -0.000390 0.000000
# 4 0.000000 0.000000 0.000000 0.037537 0.000000 -0.008335
# 5 -0.004060 0.003886 -0.000390 0.000000 0.021409 0.000000
# 6 0.000000 0.000000 0.000000 -0.008335 0.000000 0.022913
#
#
# Mechanical properties :
#
#
# Convention : Reuss Voigt Hill
#
# Bulk Modulus (GPa) = 45.61072 48.60232 47.10652
# Shear Modulus (GPa) = 31.57078 36.73080 34.15079
#
# Velocity S-wave (km/s) = 3.69668 3.98735 3.84476
# Velocity P-wave (km/s) = 6.16143 6.49894 6.33243
#
# Compressibility (1/GPa) = 0.02192467
#
# Stress axis : x y z
#
# Youngs Moduli (GPa) = 59.17261 57.09246 89.68093
#
# Poissons Ratio (x) = 0.24965 0.39907
# Poissons Ratio (y) = 0.25875 0.26885
# Poissons Ratio (z) = 0.26331 0.17115
#
# Static dielectric constant tensor:
#      x y z
#    x 2.186510 0.000000 0.000390 
#    y 0.000000 1.910230 0.000000 
#    z 0.000390 0.000000 1.909450 
# 
# From -- ./inp_files/8193.got.cif
#   From: 2010.05.17/outbox.cif.g08.bks.cpg/sg3_5_cif.got.tgz:8193.got - 2010.06.03 18:33:08.
