data_PCOD9114692
_publ_section_title
;
Structure prediction by ZEFSAII (Michael W. Deem and Ramdas Pophale) SiO2 
 PCOD9114692
Probable space group: P 21
;
_chemical_formula_sum "Si O2"
_cell_formula_units_Z 16
_cell_length_a 9.759731
_cell_length_b 11.074115
_cell_length_c 12.871913
_cell_angle_alpha 90.000000
_cell_angle_beta 145.629281
_cell_angle_gamma 90.000000
_cell_volume 785.396089
_symmetry_space_group_name_H-M "P 21"
_symmetry_group_IT_number 4
_symmetry_cell_setting 'monoclinic'
loop_
_space_group_symop_operation_xyz
x,y,z
-x,1/2+y,-z
loop_
_atom_site_type_symbol
_atom_site_label
_atom_site_fract_x
_atom_site_fract_y
_atom_site_fract_z
Si Si1 0.477424 0.968860 0.282768
Si Si2 0.942441 0.948208 0.880604
Si Si3 0.146547 0.617107 0.365756
Si Si4 0.063952 0.323702 0.481685
Si Si5 0.269624 0.589180 0.078291
Si Si6 0.813602 0.574755 0.336516
Si Si7 0.642139 0.251845 0.665344
Si Si8 0.102691 0.221970 0.281296
O O1 0.663353 0.879205 0.339524
O O2 0.406271 0.890536 0.339001
O O3 0.639446 0.081917 0.419759
O O4 0.224129 0.987953 0.067409
O O5 0.907445 0.813437 0.820959
O O6 0.834931 0.026124 0.719382
O O7 0.810887 0.972813 0.906715
O O8 0.191295 0.739797 0.331852
O O9 0.895851 0.596042 0.268801
O O10 0.057367 0.191578 0.529079
O O11 0.017493 0.294605 0.330763
O O12 0.903089 0.437772 0.417784
O O13 0.534376 0.583464 0.193784
O O14 0.269410 0.689583 0.171949
O O15 0.076557 0.617777 0.867430
O O16 0.381658 0.190267 0.477519
#
# Coordination Sequence:
#
# PCOD9114692 Si02
#       8
#     2   2   2   2   2   2   2   2
#     4  10  18  39  61  82 121 161 202 251 327 360
#     4  11  20  36  62  89 111 162 208 256 311 380
#     4  10  22  37  59  85 122 159 205 256 309 371
#     4  10  22  41  69  88 129 177 210 259 322 382
#     4  11  23  37  64  89 128 157 211 264 312 386
#     4  11  21  45  59  97 129 171 213 258 318 383
#     4  10  19  36  61  86 111 161 205 253 310 375
#     4  11  19  41  63  86 125 170 198 263 339 359
#
# _framework density 20.371886
#
# number of rings (size 3 to 8) (size 9 to 14) (size 15 to 20)
#    0.000    1.500    7.500    0.750    0.000    1.000 
#    4.500    1.250    0.000    0.000    0.000    0.000 
#    0.000    0.000    0.000    0.000    0.000    0.000 
#
# Total GULP energy -89096.540508 kJ/mol
# GULP energy per Si atom -5568.533782 kJ/mol
# Density = 2.032552 g / cm^3
# Si number density = 20.371886 Si / 1000 Ang^3
#
#
#
# Elastic Constant Matrix: (Units=GPa)
#
#
# Indices 1 2 3 4 5 6 
#
# 1 64.9511 19.2899 8.2363 0.0000 2.7376 0.0000
# 2 19.2899 57.9589 10.2681 0.0000 -8.2696 0.0000
# 3 8.2363 10.2681 99.8155 0.0000 0.6689 0.0000
# 4 0.0000 0.0000 0.0000 17.3988 0.0000 -0.7529
# 5 2.7376 -8.2696 0.6689 0.0000 7.1975 0.0000
# 6 0.0000 0.0000 0.0000 -0.7529 0.0000 37.3355
#
#
#
# Elastic Compliance Matrix: (Units=1/GPa)
#
#
# Indices 1 2 3 4 5 6 
#
# 1 0.018713 -0.008538 -0.000553 0.000000 -0.016876 0.000000
# 2 -0.008538 0.025066 -0.002090 0.000000 0.032241 0.000000
# 3 -0.000553 -0.002090 0.010300 0.000000 -0.003148 0.000000
# 4 0.000000 0.000000 0.000000 0.057526 0.000000 0.001160
# 5 -0.016876 0.032241 -0.003148 0.000000 0.182692 0.000000
# 6 0.000000 0.000000 0.000000 0.001160 0.000000 0.026808
#
#
# Mechanical properties :
#
#
# Convention : Reuss Voigt Hill
#
# Bulk Modulus (GPa) = 31.52848 33.14602 32.33725
# Shear Modulus (GPa) = 14.12274 24.71510 19.41892
#
# Velocity S-wave (km/s) = 2.63581 3.48688 3.09078
# Velocity P-wave (km/s) = 4.97729 5.70236 5.35212
#
# Compressibility (1/GPa) = 0.03171736
#
# Stress axis : x y z
#
# Youngs Moduli (GPa) = 53.43769 39.89513 97.08547
#
# Poissons Ratio (x) = 0.34063 0.05366
# Poissons Ratio (y) = 0.45626 0.20291
# Poissons Ratio (z) = 0.02954 0.08338
#
# Static dielectric constant tensor:
#      x y z
#    x 1.756390 0.000000 0.013890 
#    y 0.000000 1.846930 0.000000 
#    z 0.013890 0.000000 1.731190 
# 
# From -- ./inp_files/8155.got.cif
#   From: 2010.05.17/outbox.cif.g08.bks.cpg/sg4_5_cif.got.tgz:8155.got - 2010.06.03 18:43:04.
