data_PCOD9114297
_publ_section_title
;
Structure prediction by ZEFSAII (Michael W. Deem and Ramdas Pophale) SiO2 
 PCOD9114297
Probable space group: P 2
;
_chemical_formula_sum "Si O2"
_cell_formula_units_Z 14
_cell_length_a 17.428793
_cell_length_b 5.278513
_cell_length_c 5.879688
_cell_angle_alpha 90.000000
_cell_angle_beta 94.557448
_cell_angle_gamma 90.000000
_cell_volume 539.209886
_symmetry_space_group_name_H-M "P 2"
_symmetry_group_IT_number 3
_symmetry_cell_setting 'monoclinic'
loop_
_space_group_symop_operation_xyz
x,y,z
-x,y,-z
loop_
_atom_site_type_symbol
_atom_site_label
_atom_site_fract_x
_atom_site_fract_y
_atom_site_fract_z
Si Si1 0.714457 0.291940 0.201111
Si Si2 0.224422 0.677439 0.172301
Si Si3 0.500000 0.557092 0.000000
Si Si4 0.142786 0.346802 0.532207
Si Si5 0.923233 0.728718 0.120490
Si Si6 0.000000 0.089174 0.500000
Si Si7 0.424366 0.359704 0.566017
Si Si8 0.375602 0.954353 0.172976
O O1 0.789075 0.178371 0.344693
O O2 0.662648 0.423840 0.385871
O O3 0.741542 0.489641 0.014769
O O4 0.663896 0.086906 0.055216
O O5 0.185973 0.528383 0.368885
O O6 0.298515 0.836523 0.265028
O O7 0.150411 0.817279 0.044038
O O8 0.543772 0.359068 0.170606
O O9 0.435607 0.743060 0.096156
O O10 0.106221 0.495011 0.736131
O O11 0.068334 0.236631 0.391322
O O12 0.952315 0.931629 0.307975
O O13 0.000000 0.663328 0.000000
O O14 0.500000 0.518685 0.500000
O O15 0.413955 0.138807 0.374106
#
# Coordination Sequence:
#
# PCOD9114297 Si02
#       8
#     2   2   1   2   2   1   2   2
#     4  11  25  48  74 114 154 201 268 328 393 491
#     4  11  25  49  74 109 156 206 256 329 402 479
#     4  12  28  54  84 120 166 210 272 352 402 488
#     4  11  26  46  75 109 153 200 256 323 390 474
#     4  11  25  44  73 108 149 198 256 318 392 471
#     4  12  24  44  70 110 148 198 256 318 388 474
#     4  12  27  49  81 117 155 205 275 329 401 491
#     4  12  27  50  81 110 157 215 259 333 418 471
#
# _framework density 25.963912000000001
#
# number of rings (size 3 to 8) (size 9 to 14) (size 15 to 20)
#    0.000    0.571    1.429    5.571    2.000   11.429 
#    0.000    0.000    0.000    0.000    0.000    0.000 
#    0.000    0.000    0.000    0.000    0.000    0.000 
#
# Total GULP energy -78120.193024 kJ/mol
# GULP energy per Si atom -5580.013787 kJ/mol
# Density = 2.590482 g / cm^3
# Si number density = 25.963912 Si / 1000 Ang^3
#
#
#
# Elastic Constant Matrix: (Units=GPa)
#
#
# Indices 1 2 3 4 5 6 
#
# 1 247.2292 60.6281 77.5522 0.0000 3.4747 0.0000
# 2 60.6281 48.3079 39.8600 0.0000 16.1324 0.0000
# 3 77.5522 39.8600 87.0360 0.0000 20.6002 0.0000
# 4 0.0000 0.0000 0.0000 327.2824 0.0000 205.8920
# 5 3.4747 16.1324 20.6002 0.0000 82.0710 0.0000
# 6 0.0000 0.0000 0.0000 205.8920 0.0000 212.7294
#
#
#
# Elastic Compliance Matrix: (Units=1/GPa)
#
#
# Indices 1 2 3 4 5 6 
#
# 1 0.006596 -0.005909 -0.003593 0.000000 0.001784 0.000000
# 2 -0.005909 0.039224 -0.011623 0.000000 -0.004543 0.000000
# 3 -0.003593 -0.011623 0.020665 0.000000 -0.002750 0.000000
# 4 0.000000 0.000000 0.000000 0.007812 0.000000 -0.007561
# 5 0.001784 -0.004543 -0.002750 0.000000 0.013692 0.000000
# 6 0.000000 0.000000 0.000000 -0.007561 0.000000 0.012019
#
#
# Mechanical properties :
#
#
# Convention : Reuss Voigt Hill
#
# Bulk Modulus (GPa) = 41.26388 82.07262 61.66825
# Shear Modulus (GPa) = 33.25833 138.05207 85.65520
#
# Velocity S-wave (km/s) = 3.58291 7.29974 5.74993
# Velocity P-wave (km/s) = 5.74836 10.13544 8.23926
#
# Compressibility (1/GPa) = 0.02423427
#
# Stress axis : x y z
#
# Youngs Moduli (GPa) = 151.60589 25.49441 48.39009
#
# Poissons Ratio (x) = 0.15065 0.17389
# Poissons Ratio (y) = 0.89586 0.56245
# Poissons Ratio (z) = 0.54478 0.29633
#
# Static dielectric constant tensor:
#      x y z
#    x 1.941780 0.000000 -0.336700 
#    y 0.000000 2.118880 0.000000 
#    z -0.336700 0.000000 1.503610 
# 
# From -- ./inp_files/3556.got.cif
#   From: 2010.05.17/outbox.cif.g08.bks.cpg/sg3_2_cif.got.tgz:3556.got - 2010.06.03 18:33:08.
