data_PCOD9114547
_publ_section_title
;
Structure prediction by ZEFSAII (Michael W. Deem and Ramdas Pophale) SiO2 
 PCOD9114547
Probable space group: P 21
;
_chemical_formula_sum "Si O2"
_cell_formula_units_Z 16
_cell_length_a 7.121140
_cell_length_b 8.077769
_cell_length_c 10.013739
_cell_angle_alpha 90.000000
_cell_angle_beta 106.112418
_cell_angle_gamma 90.000000
_cell_volume 553.392939
_symmetry_space_group_name_H-M "P 21"
_symmetry_group_IT_number 4
_symmetry_cell_setting 'monoclinic'
loop_
_space_group_symop_operation_xyz
x,y,z
-x,1/2+y,-z
loop_
_atom_site_type_symbol
_atom_site_label
_atom_site_fract_x
_atom_site_fract_y
_atom_site_fract_z
Si Si1 0.071193 0.408540 0.957290
Si Si2 0.165882 0.113620 0.286773
Si Si3 0.614706 0.141750 0.275109
Si Si4 0.787562 0.927512 0.518539
Si Si5 0.465768 0.871209 0.969362
Si Si6 0.653405 0.460546 0.455713
Si Si7 0.919630 0.082348 0.787335
Si Si8 0.484611 0.161531 0.789595
O O1 0.985056 0.562755 0.856492
O O2 0.000990 0.249217 0.864300
O O3 0.302469 0.386765 0.005854
O O4 0.005364 0.436504 0.098086
O O5 0.382947 0.131898 0.265408
O O6 0.137280 0.267389 0.381948
O O7 0.192055 0.964292 0.396620
O O8 0.617777 0.211037 0.124877
O O9 0.683423 0.303315 0.370428
O O10 0.751462 0.993000 0.358634
O O11 0.559673 0.942195 0.519612
O O12 0.920572 0.058984 0.628874
O O13 0.392437 0.038074 0.882825
O O14 0.458296 0.831326 0.125313
O O15 0.647258 0.630394 0.366558
O O16 0.689308 0.091965 0.777677
#
# Coordination Sequence:
#
# PCOD9114547 Si02
#       8
#     2   2   2   2   2   2   2   2
#     4  11  21  34  54  82 119 147 178 226 282 343
#     4  10  18  30  52  82 113 146 179 225 283 334
#     4   9  17  32  52  80 111 141 185 235 274 316
#     4   9  17  30  52  83 113 140 183 234 278 323
#     4  10  21  36  55  81 111 145 183 229 280 331
#     4   8  16  31  51  76 107 141 184 232 271 317
#     4  10  20  35  54  81 111 145 182 228 281 331
#     4   9  20  36  54  77 107 143 188 231 271 327
#
# _framework density 28.912551000000001
#
# number of rings (size 3 to 8) (size 9 to 14) (size 15 to 20)
#    0.000    2.500    0.000    4.500    0.000    6.000 
#    0.000    0.000    0.000   10.500    0.000    3.500 
#    0.000    0.000    0.000    0.000    0.000    0.000 
#
# Total GULP energy -89455.119011 kJ/mol
# GULP energy per Si atom -5590.944938 kJ/mol
# Density = 2.884674 g / cm^3
# Si number density = 28.912551 Si / 1000 Ang^3
#
#
#
# Elastic Constant Matrix: (Units=GPa)
#
#
# Indices 1 2 3 4 5 6 
#
# 1 93.3959 6.2204 12.3060 0.0000 17.2443 0.0000
# 2 6.2204 109.6757 36.6953 0.0000 4.1323 0.0000
# 3 12.3060 36.6953 200.0578 0.0000 10.5796 0.0000
# 4 0.0000 0.0000 0.0000 61.5463 0.0000 -2.7359
# 5 17.2443 4.1323 10.5796 0.0000 25.6898 0.0000
# 6 0.0000 0.0000 0.0000 -2.7359 0.0000 27.5775
#
#
#
# Elastic Compliance Matrix: (Units=1/GPa)
#
#
# Indices 1 2 3 4 5 6 
#
# 1 0.012252 -0.000300 -0.000272 0.000000 -0.008064 0.000000
# 2 -0.000300 0.009739 -0.001734 0.000000 -0.000651 0.000000
# 3 -0.000272 -0.001734 0.005427 0.000000 -0.001773 0.000000
# 4 0.000000 0.000000 0.000000 0.016320 0.000000 0.001619
# 5 -0.008064 -0.000651 -0.001773 0.000000 0.045174 0.000000
# 6 0.000000 0.000000 0.000000 0.001619 0.000000 0.036422
#
#
# Mechanical properties :
#
#
# Convention : Reuss Voigt Hill
#
# Bulk Modulus (GPa) = 43.84659 57.06367 50.45513
# Shear Modulus (GPa) = 36.35103 46.15656 41.25379
#
# Velocity S-wave (km/s) = 3.54965 3.99986 3.78146
# Velocity P-wave (km/s) = 5.65670 6.41181 6.04605
#
# Compressibility (1/GPa) = 0.02280679
#
# Stress axis : x y z
#
# Youngs Moduli (GPa) = 81.62064 102.67624 184.26211
#
# Poissons Ratio (x) = 0.03080 0.05015
# Poissons Ratio (y) = 0.02449 0.31942
# Poissons Ratio (z) = 0.02222 0.17799
#
# Static dielectric constant tensor:
#      x y z
#    x 2.241060 0.000000 -0.017910 
#    y 0.000000 2.362820 0.000000 
#    z -0.017910 0.000000 2.258530 
# 
# From -- ./inp_files/11035.got.cif
#   From: 2010.05.17/outbox.cif.g08.bks.cpg/sg4_6_cif.got.tgz:11035.got - 2010.06.03 18:43:04.
