data_PCOD9114696
_publ_section_title
;
Structure prediction by ZEFSAII (Michael W. Deem and Ramdas Pophale) SiO2 
 PCOD9114696
Probable space group: P 21
;
_chemical_formula_sum "Si O2"
_cell_formula_units_Z 10
_cell_length_a 5.928883
_cell_length_b 6.939863
_cell_length_c 9.960524
_cell_angle_alpha 90.000000
_cell_angle_beta 66.337687
_cell_angle_gamma 90.000000
_cell_volume 375.376189
_symmetry_space_group_name_H-M "P 21"
_symmetry_group_IT_number 4
_symmetry_cell_setting 'monoclinic'
loop_
_space_group_symop_operation_xyz
x,y,z
-x,1/2+y,-z
loop_
_atom_site_type_symbol
_atom_site_label
_atom_site_fract_x
_atom_site_fract_y
_atom_site_fract_z
Si Si1 0.675199 0.233780 0.795467
Si Si2 0.347064 0.456341 0.422083
Si Si3 0.531107 0.075011 0.326683
Si Si4 0.788220 0.581068 0.943875
Si Si5 0.140975 0.884771 0.812000
O O1 0.541176 0.376658 0.721624
O O2 0.821682 0.389968 0.847227
O O3 0.778519 0.072959 0.668766
O O4 0.487860 0.127407 0.940615
O O5 0.315364 0.226580 0.416405
O O6 0.305870 0.538946 0.579278
O O7 0.650998 0.474007 0.335089
O O8 0.687712 0.201940 0.184902
O O9 0.893422 0.767857 0.843937
O O10 0.909446 0.533825 0.058859
#
# Coordination Sequence:
#
# PCOD9114696 Si02
#       5
#     2   2   2   2   2
#     4  11  21  36  63  92 125 160 206 257 309 369
#     4   9  20  36  66  89 119 168 208 252 305 371
#     4  10  18  39  65  88 121 165 213 247 309 367
#     4  11  22  39  61  96 127 162 204 258 316 372
#     4   9  21  36  59  91 122 163 199 256 309 365
#
# _framework density 26.639942000000001
#
# number of rings (size 3 to 8) (size 9 to 14) (size 15 to 20)
#    1.200    0.800    2.000    2.400    0.000    0.000 
#    0.000    0.000    8.800    0.000    0.000    0.000 
#    0.000    0.000    0.000    0.000    0.000    0.000 
#
# Total GULP energy -55716.649315 kJ/mol
# GULP energy per Si atom -5571.664931 kJ/mol
# Density = 2.657931 g / cm^3
# Si number density = 26.639942 Si / 1000 Ang^3
#
#
#
# Elastic Constant Matrix: (Units=GPa)
#
#
# Indices 1 2 3 4 5 6 
#
# 1 25.4060 27.7389 33.5412 0.0000 -10.6534 0.0000
# 2 27.7389 123.9663 37.6372 0.0000 1.3105 0.0000
# 3 33.5412 37.6372 105.6958 0.0000 3.0060 0.0000
# 4 0.0000 0.0000 0.0000 48.4006 0.0000 19.2990
# 5 -10.6534 1.3105 3.0060 0.0000 25.0496 0.0000
# 6 0.0000 0.0000 0.0000 19.2990 0.0000 46.7984
#
#
#
# Elastic Compliance Matrix: (Units=1/GPa)
#
#
# Indices 1 2 3 4 5 6 
#
# 1 0.141312 -0.020331 -0.039478 0.000000 0.065900 0.000000
# 2 -0.020331 0.011970 0.002462 0.000000 -0.009568 0.000000
# 3 -0.039478 0.002462 0.021668 0.000000 -0.019519 0.000000
# 4 0.000000 0.000000 0.000000 0.024727 0.000000 -0.010197
# 5 0.065900 -0.009568 -0.019519 0.000000 0.070791 0.000000
# 6 0.000000 0.000000 0.000000 -0.010197 0.000000 0.025573
#
#
# Mechanical properties :
#
#
# Convention : Reuss Voigt Hill
#
# Bulk Modulus (GPa) = 16.59635 50.32253 33.45944
# Shear Modulus (GPa) = 11.60579 34.45978 23.03279
#
# Velocity S-wave (km/s) = 2.08950 3.60048 2.94359
# Velocity P-wave (km/s) = 3.47343 6.01793 4.91326
#
# Compressibility (1/GPa) = 0.06025421
#
# Stress axis : x y z
#
# Youngs Moduli (GPa) = 7.07655 83.54360 46.15198
#
# Poissons Ratio (x) = 1.69852 1.82199
# Poissons Ratio (y) = 0.14387 -0.11361
# Poissons Ratio (z) = 0.27937 -0.20565
#
# Static dielectric constant tensor:
#      x y z
#    x 2.204030 0.000000 -0.043450 
#    y 0.000000 2.002430 0.000000 
#    z -0.043450 0.000000 2.055750 
# 
# From -- ./inp_files/5181.got.cif
#   From: 2010.05.17/outbox.cif.g08.bks.cpg/sg4_3_cif.got.tgz:5181.got - 2010.06.03 18:43:04.
