data_PCOD9114443
_publ_section_title
;
Structure prediction by ZEFSAII (Michael W. Deem and Ramdas Pophale) SiO2 
 PCOD9114443
Probable space group: P 21
;
_chemical_formula_sum "Si O2"
_cell_formula_units_Z 14
_cell_length_a 16.549971
_cell_length_b 5.442181
_cell_length_c 6.686846
_cell_angle_alpha 90.000000
_cell_angle_beta 80.661092
_cell_angle_gamma 90.000000
_cell_volume 594.287785
_symmetry_space_group_name_H-M "P 21"
_symmetry_group_IT_number 4
_symmetry_cell_setting 'monoclinic'
loop_
_space_group_symop_operation_xyz
x,y,z
-x,1/2+y,-z
loop_
_atom_site_type_symbol
_atom_site_label
_atom_site_fract_x
_atom_site_fract_y
_atom_site_fract_z
Si Si1 0.261312 0.461610 0.170555
Si Si2 0.403276 0.961548 0.609971
Si Si3 0.219441 0.961605 0.632401
Si Si4 0.792411 0.461606 0.842480
Si Si5 0.018051 0.961613 0.120138
Si Si6 0.859362 0.961607 0.397340
Si Si7 0.572647 0.961548 0.655104
O O1 0.245703 0.711485 0.063217
O O2 0.188771 0.461611 0.371093
O O3 0.353229 0.461592 0.218588
O O4 0.245698 0.211734 0.063219
O O5 0.308120 0.961597 0.692439
O O6 0.475568 0.961584 0.746934
O O7 0.415206 0.710886 0.477641
O O8 0.415218 0.212142 0.477552
O O9 0.230615 0.961603 0.385123
O O10 0.170075 0.713475 0.692461
O O11 0.170078 0.209740 0.692456
O O12 0.889098 0.461600 0.839922
O O13 0.956859 0.961605 0.336267
O O14 0.999997 0.711620 0.999993
#
# Coordination Sequence:
#
# PCOD9114443 Si02
#       7
#     2   2   2   2   2   2   2
#     4  10  17  32  52  83 105 127 164 195 258 303
#     4  10  16  25  43  74 118 141 150 181 234 313
#     4  10  17  32  52  83 105 127 164 195 258 303
#     4  10  20  33  54  71 101 130 162 216 249 304
#     4  12  26  42  52  70  96 132 180 218 258 296
#     4  10  20  33  54  71 101 130 162 216 249 304
#     4  10  16  25  43  74 118 141 150 181 234 313
#
# _framework density 23.557608999999999
#
# number of rings (size 3 to 8) (size 9 to 14) (size 15 to 20)
#    0.000    1.714    5.714    1.714    0.000    4.571 
#    0.000    0.000    0.000    0.000    0.000    0.000 
#    0.000   38.857    0.000    0.000    0.000    0.000 
#
# Total GULP energy -78142.612718 kJ/mol
# GULP energy per Si atom -5581.615194 kJ/mol
# Density = 2.350399 g / cm^3
# Si number density = 23.557609 Si / 1000 Ang^3
#
#
#
# Elastic Constant Matrix: (Units=GPa)
#
#
# Indices 1 2 3 4 5 6 
#
# 1 165.9068 63.7306 16.2825 0.0000 29.9811 0.0000
# 2 63.7306 239.1942 5.9977 0.0000 4.1501 0.0000
# 3 16.2825 5.9977 76.2587 0.0000 9.8466 0.0000
# 4 0.0000 0.0000 0.0000 -6.1382 0.0000 6.6651
# 5 29.9811 4.1501 9.8466 0.0000 11.3652 0.0000
# 6 0.0000 0.0000 0.0000 6.6651 0.0000 43.0398
#
#
#
# Elastic Compliance Matrix: (Units=1/GPa)
#
#
# Indices 1 2 3 4 5 6 
#
# 1 0.013596 -0.003040 0.002054 0.000000 -0.036535 0.000000
# 2 -0.003040 0.004889 -0.000608 0.000000 0.006762 0.000000
# 3 0.002054 -0.000608 0.015080 0.000000 -0.018260 0.000000
# 4 0.000000 0.000000 0.000000 -0.139462 0.000000 0.021597
# 5 -0.036535 0.006762 -0.018260 0.000000 0.197716 0.000000
# 6 0.000000 0.000000 0.000000 0.021597 0.000000 0.019890
#
#
# Mechanical properties :
#
#
# Convention : Reuss Voigt Hill
#
# Bulk Modulus (GPa) = 32.92180 72.59794 52.75987
# Shear Modulus (GPa) = 39.99244 36.00995 38.00119
#
# Velocity S-wave (km/s) = 4.12472 3.91396 4.02072
# Velocity P-wave (km/s) = 6.05721 7.16307 6.63322
#
# Compressibility (1/GPa) = 0.03037501
#
# Stress axis : x y z
#
# Youngs Moduli (GPa) = 73.55136 204.55589 66.31106
#
# Poissons Ratio (x) = 0.62187 -0.13617
# Poissons Ratio (y) = 0.22360 0.04035
# Poissons Ratio (z) = -0.15104 0.12446
#
# Static dielectric constant tensor:
#      x y z
#    x 1.862070 0.000000 0.000250 
#    y 0.000000 2.000030 0.000000 
#    z 0.000250 0.000000 1.891380 
# 
# From -- ./inp_files/8820.got.cif
#   From: 2010.05.17/outbox.cif.g08.bks.cpg/sg4_5_cif.got.tgz:8820.got - 2010.06.03 18:43:04.
