data_PCOD9114257
_publ_section_title
;
Structure prediction by ZEFSAII (Michael W. Deem and Ramdas Pophale) SiO2 
 PCOD9114257
Probable space group: P 2
;
_chemical_formula_sum "Si O2"
_cell_formula_units_Z 14
_cell_length_a 6.713483
_cell_length_b 6.884135
_cell_length_c 16.765321
_cell_angle_alpha 90.000000
_cell_angle_beta 113.789151
_cell_angle_gamma 90.000000
_cell_volume 709.001829
_symmetry_space_group_name_H-M "P 2"
_symmetry_group_IT_number 3
_symmetry_cell_setting 'monoclinic'
loop_
_space_group_symop_operation_xyz
x,y,z
-x,y,-z
loop_
_atom_site_type_symbol
_atom_site_label
_atom_site_fract_x
_atom_site_fract_y
_atom_site_fract_z
Si Si1 0.670520 0.897410 0.802634
Si Si2 0.500105 0.614658 0.906040
Si Si3 0.826791 0.298011 0.901361
Si Si4 0.088675 0.567431 0.398734
Si Si5 0.260508 0.909789 0.619323
Si Si6 0.996941 0.583629 0.791970
Si Si7 0.500000 0.811472 0.500000
Si Si8 0.000000 0.238882 0.500000
O O1 0.628281 0.774838 0.876124
O O2 0.444574 0.913082 0.716929
O O3 0.848478 0.775723 0.780627
O O4 0.756268 0.104906 0.844224
O O5 0.618976 0.411450 0.904595
O O6 0.251511 0.624005 0.838919
O O7 0.500000 0.648827 0.000000
O O8 0.932211 0.439416 0.852507
O O9 0.000000 0.261616 0.000000
O O10 0.309252 0.686749 0.430904
O O11 0.130277 0.392645 0.466760
O O12 0.893963 0.718090 0.394366
O O13 0.041115 0.497652 0.301861
O O14 0.385191 0.915816 0.554815
O O15 0.111823 0.099676 0.583758
#
# Coordination Sequence:
#
# PCOD9114257 Si02
#       8
#     2   2   2   2   2   2   1   1
#     4  11  27  42  72  99 137 177 223 277 334 397
#     4  11  24  45  69  98 137 182 218 271 337 398
#     4  11  26  44  65 106 138 168 227 280 326 402
#     4  12  25  46  68 100 137 175 226 276 334 395
#     4  12  25  46  64 105 137 169 228 281 326 400
#     4  11  25  45  70  96 136 180 219 275 335 397
#     4  12  22  46  70  88 138 178 210 284 330 378
#     4  12  26  42  72  98 136 176 224 274 336 402
#
# _framework density 19.746071000000001
#
# number of rings (size 3 to 8) (size 9 to 14) (size 15 to 20)
#    0.000    0.571    7.143    0.000    4.000    5.714 
#    0.000    0.000    0.000    0.000    0.000    0.000 
#    0.000    0.000    0.000    0.000    0.000    0.000 
#
# Total GULP energy -78144.976400 kJ/mol
# GULP energy per Si atom -5581.784029 kJ/mol
# Density = 1.970113 g / cm^3
# Si number density = 19.746071 Si / 1000 Ang^3
#
#
#
# Elastic Constant Matrix: (Units=GPa)
#
#
# Indices 1 2 3 4 5 6 
#
# 1 79.9239 18.8822 -2.5861 0.0000 5.5956 0.0000
# 2 18.8822 69.0134 -5.2637 0.0000 17.9385 0.0000
# 3 -2.5861 -5.2637 78.4080 0.0000 5.1029 0.0000
# 4 0.0000 0.0000 0.0000 28.9255 0.0000 2.4110
# 5 5.5956 17.9385 5.1029 0.0000 39.3295 0.0000
# 6 0.0000 0.0000 0.0000 2.4110 0.0000 2.0193
#
#
#
# Elastic Compliance Matrix: (Units=1/GPa)
#
#
# Indices 1 2 3 4 5 6 
#
# 1 0.013383 -0.003565 0.000222 0.000000 -0.000307 0.000000
# 2 -0.003565 0.017591 0.001566 0.000000 -0.007719 0.000000
# 3 0.000222 0.001566 0.013025 0.000000 -0.002436 0.000000
# 4 0.000000 0.000000 0.000000 0.038393 0.000000 -0.045841
# 5 -0.000307 -0.007719 -0.002436 0.000000 0.029307 0.000000
# 6 0.000000 0.000000 0.000000 -0.045841 0.000000 0.549963
#
#
# Mechanical properties :
#
#
# Convention : Reuss Voigt Hill
#
# Bulk Modulus (GPa) = 24.72516 27.71225 26.21871
# Shear Modulus (GPa) = 7.36706 28.47571 17.92138
#
# Velocity S-wave (km/s) = 1.93365 3.80161 3.01590
# Velocity P-wave (km/s) = 4.18737 5.77360 5.04324
#
# Compressibility (1/GPa) = 0.04044463
#
# Stress axis : x y z
#
# Youngs Moduli (GPa) = 74.72295 56.84658 76.77693
#
# Poissons Ratio (x) = 0.20265 -0.01705
# Poissons Ratio (y) = 0.26638 -0.12021
# Poissons Ratio (z) = -0.01659 -0.08901
#
# Static dielectric constant tensor:
#      x y z
#    x 1.680740 0.000000 0.002950 
#    y 0.000000 1.673790 0.000000 
#    z 0.002950 0.000000 1.737110 
# 
# From -- ./inp_files/14610.got.cif
#   From: 2010.05.17/outbox.cif.g08.bks.cpg/sg3_8_cif.got.tgz:14610.got - 2010.06.03 18:33:08.
