data_PCOD9114476
_publ_section_title
;
Structure prediction by ZEFSAII (Michael W. Deem and Ramdas Pophale) SiO2 
 PCOD9114476
Probable space group: P 21
;
_chemical_formula_sum "Si O2"
_cell_formula_units_Z 16
_cell_length_a 21.242743
_cell_length_b 5.441981
_cell_length_c 26.741706
_cell_angle_alpha 90.000000
_cell_angle_beta 29.616610
_cell_angle_gamma 90.000000
_cell_volume 1527.756417
_symmetry_space_group_name_H-M "P 21"
_symmetry_group_IT_number 4
_symmetry_cell_setting 'monoclinic'
loop_
_space_group_symop_operation_xyz
x,y,z
-x,1/2+y,-z
loop_
_atom_site_type_symbol
_atom_site_label
_atom_site_fract_x
_atom_site_fract_y
_atom_site_fract_z
Si Si1 0.583332 0.686530 0.515053
Si Si2 0.160294 0.186527 0.938038
Si Si3 0.447293 0.186528 0.737017
Si Si4 0.088639 0.686522 0.825027
Si Si5 0.509204 0.686527 0.675127
Si Si6 0.789966 0.186527 0.151933
Si Si7 0.566074 0.686531 0.375818
Si Si8 0.802472 0.686523 0.283880
O O1 0.597474 0.686526 0.565399
O O2 0.505676 0.435307 0.557849
O O3 0.711494 0.686526 0.394934
O O4 0.505679 0.937758 0.557847
O O5 0.305861 0.186527 0.856977
O O6 0.151653 0.437756 0.911833
O O7 0.151653 0.935300 0.911833
O O8 0.052023 0.186525 0.054331
O O9 0.519794 0.436517 0.698085
O O10 0.431171 0.186531 0.686738
O O11 0.519794 0.936539 0.698084
O O12 0.182614 0.686524 0.808432
O O13 0.117348 0.436515 0.775541
O O14 0.117350 0.936528 0.775540
O O15 0.360875 0.686528 0.757048
O O16 0.704698 0.686525 0.304273
#
# Coordination Sequence:
#
# PCOD9114476 Si02
#       8
#     2   2   2   2   2   2   2   2
#     4  10  18  27  36  41  48  58  62  69  80  83
#     4  10  18  27  36  41  48  58  62  69  80  83
#     4   8  14  23  34  43  48  52  62  73  80  87
#     4  12  21  27  32  41  51  58  65  69  72  83
#     4   8  14  23  34  43  48  52  62  73  80  87
#     4  10  17  27  36  43  47  52  63  73  80  87
#     4  10  17  27  36  43  47  52  63  73  80  87
#     4  12  21  27  32  41  51  58  65  69  72  83
#
# _framework density 10.472873999999999
#
# number of rings (size 3 to 8) (size 9 to 14) (size 15 to 20)
#    0.000    2.000    0.000    9.000    0.000    0.000 
#    0.000    0.000    0.000    0.000    0.000    0.000 
#    0.000    0.000    0.000    0.000    0.000    0.000 
#
# Total GULP energy -89193.946550 kJ/mol
# GULP energy per Si atom -5574.621659 kJ/mol
# Density = 1.044904 g / cm^3
# Si number density = 10.472874 Si / 1000 Ang^3
#
#
#
# Elastic Constant Matrix: (Units=GPa)
#
#
# Indices 1 2 3 4 5 6 
#
# 1 0.1140 1.5111 2.8986 0.0000 0.5779 0.0000
# 2 1.5111 124.7629 37.8306 0.0000 7.5610 0.0000
# 3 2.8986 37.8306 72.4406 0.0000 14.4876 0.0000
# 4 0.0000 0.0000 0.0000 17.1311 0.0000 3.4252
# 5 0.5779 7.5610 14.4876 0.0000 2.8985 0.0000
# 6 0.0000 0.0000 0.0000 3.4252 0.0000 0.6848
#
#
#
# Elastic Compliance Matrix: (Units=1/GPa)
#
#
# Indices 1 2 3 4 5 6 
#
# 1 ********** -0.020387 74.875322 0.000000********** 0.000000
# 2 -0.020387 0.009523 -0.005983 0.000000 0.009126 0.000000
# 3 74.875322 -0.005983 9.556260 0.000000-62.679288 -0.000001
# 4 0.000000 0.000000 0.000000********** 0.000000**********
# 5 ********** 0.009126-62.679288 -0.000001380.018427 0.000005
# 6 0.000001 0.000000 0.000000********** 0.000002**********
#
#
# Mechanical properties :
#
#
# Convention : Reuss Voigt Hill
#
# Bulk Modulus (GPa) = -0.02121 31.31090 15.64484
# Shear Modulus (GPa) = -0.00016 14.48135 7.24060
#
# Velocity S-wave (km/s) = -0.01223 3.72257 2.63224
# Velocity P-wave (km/s) = 0.14318 6.95979 4.92028
#
# Compressibility (1/GPa) = -47.13651861
#
# Stress axis : x y z
#
# Youngs Moduli (GPa) = -0.00484 105.00771 0.10464
#
# Poissons Ratio (x) = 2.14084 -7.83521
# Poissons Ratio (y) = -0.00010 0.00063
# Poissons Ratio (z) = 0.36277 0.62821
#
# Static dielectric constant tensor:
#      x y z
#    x 1.271070 0.000000 0.018850 
#    y 0.000000 1.415830 0.000000 
#    z 0.018850 0.000000 1.361870 
# 
# From -- ./inp_files/15972.got.cif
#   From: 2010.05.17/outbox.cif.g08.bks.cpg/sg4_8_cif.got.tgz:15972.got - 2010.06.03 18:43:04.
