data_PCOD9114960
_publ_section_title
;
Structure prediction by ZEFSAII (Michael W. Deem and Ramdas Pophale) SiO2 
 PCOD9114960
Probable space group: P 21
;
_chemical_formula_sum "Si O2"
_cell_formula_units_Z 16
_cell_length_a 7.985970
_cell_length_b 12.779928
_cell_length_c 7.525985
_cell_angle_alpha 90.000000
_cell_angle_beta 53.660209
_cell_angle_gamma 90.000000
_cell_volume 618.719937
_symmetry_space_group_name_H-M "P 21"
_symmetry_group_IT_number 4
_symmetry_cell_setting 'monoclinic'
loop_
_space_group_symop_operation_xyz
x,y,z
-x,1/2+y,-z
loop_
_atom_site_type_symbol
_atom_site_label
_atom_site_fract_x
_atom_site_fract_y
_atom_site_fract_z
Si Si1 0.302327 0.960010 0.118592
Si Si2 0.708472 0.339789 0.524521
Si Si3 0.941884 0.176168 0.830721
Si Si4 0.093485 0.981274 0.895484
Si Si5 0.893145 0.776707 0.586374
Si Si6 0.502322 0.131014 0.176422
Si Si7 0.140801 0.509665 0.428617
Si Si8 0.354113 0.462151 0.648506
O O1 0.343545 0.868899 0.236450
O O2 0.085628 0.005798 0.333013
O O3 0.478035 0.047972 0.030506
O O4 0.251160 0.943411 0.947392
O O5 0.832516 0.425516 0.329413
O O6 0.482823 0.352725 0.574413
O O7 0.894655 0.254885 0.433231
O O8 0.042642 0.271986 0.663877
O O9 0.888970 0.095987 0.702708
O O10 0.715961 0.194903 0.054432
O O11 0.082974 0.107115 0.872731
O O12 0.859356 0.952846 0.104500
O O13 0.695963 0.703300 0.720366
O O14 0.824493 0.893802 0.672595
O O15 0.509082 0.051140 0.337563
O O16 0.300400 0.510429 0.491666
#
# Coordination Sequence:
#
# PCOD9114960 Si02
#       8
#     2   2   2   2   2   2   2   2
#     4   9  18  38  64  90 120 167 210 253 320 375
#     4  10  20  39  62  88 126 165 202 273 310 375
#     4  11  21  40  64  90 125 175 207 262 329 374
#     4  10  19  37  65  89 122 168 212 251 328 374
#     4  11  22  42  62  93 135 162 218 268 321 374
#     4  10  21  39  62  93 129 164 215 270 308 393
#     4  10  20  42  67  89 130 173 204 268 323 375
#     4   9  21  39  64  92 121 164 220 255 313 388
#
# _framework density 25.859843000000001
#
# number of rings (size 3 to 8) (size 9 to 14) (size 15 to 20)
#    0.000    2.000    3.750    0.750    1.750    1.000 
#    6.750    3.750    0.000    0.000    0.000    0.000 
#    0.000    0.000    0.000    0.000    0.000    0.000 
#
# Total GULP energy -89272.871574 kJ/mol
# GULP energy per Si atom -5579.554473 kJ/mol
# Density = 2.580098 g / cm^3
# Si number density = 25.859843 Si / 1000 Ang^3
#
#
#
# Elastic Constant Matrix: (Units=GPa)
#
#
# Indices 1 2 3 4 5 6 
#
# 1 109.7112 15.6583 2.3108 0.0000 25.1946 0.0000
# 2 15.6583 51.5343 -0.6571 0.0000 6.1729 0.0000
# 3 2.3108 -0.6571 62.0940 0.0000 -4.9865 0.0000
# 4 0.0000 0.0000 0.0000 28.8700 0.0000 -4.6563
# 5 25.1946 6.1729 -4.9865 0.0000 42.0058 0.0000
# 6 0.0000 0.0000 0.0000 -4.6563 0.0000 28.0302
#
#
#
# Elastic Compliance Matrix: (Units=1/GPa)
#
#
# Indices 1 2 3 4 5 6 
#
# 1 0.010950 -0.002585 -0.000941 0.000000 -0.006300 0.000000
# 2 -0.002585 0.020362 0.000198 0.000000 -0.001419 0.000000
# 3 -0.000941 0.000198 0.016340 0.000000 0.002475 0.000000
# 4 0.000000 0.000000 0.000000 0.035592 0.000000 0.005912
# 5 -0.006300 -0.001419 0.002475 0.000000 0.028087 0.000000
# 6 0.000000 0.000000 0.000000 0.005912 0.000000 0.036658
#
#
# Mechanical properties :
#
#
# Convention : Reuss Voigt Hill
#
# Bulk Modulus (GPa) = 24.39150 28.66260 26.52705
# Shear Modulus (GPa) = 29.70698 33.51637 31.61167
#
# Velocity S-wave (km/s) = 3.39303 3.60401 3.50011
# Velocity P-wave (km/s) = 4.98024 5.33165 5.15894
#
# Compressibility (1/GPa) = 0.04099788
#
# Stress axis : x y z
#
# Youngs Moduli (GPa) = 91.32240 49.11039 61.19775
#
# Poissons Ratio (x) = 0.12693 0.05757
# Poissons Ratio (y) = 0.23603 -0.01210
# Poissons Ratio (z) = 0.08591 -0.00971
#
# Static dielectric constant tensor:
#      x y z
#    x 2.079870 0.000000 -0.029650 
#    y 0.000000 2.137410 0.000000 
#    z -0.029650 0.000000 2.061220 
# 
# From -- ./inp_files/6587.got.cif
#   From: 2010.05.17/outbox.cif.g08.bks.cpg/sg4_4_cif.got.tgz:6587.got - 2010.06.03 18:43:04.
