data_PCOD9114281
_publ_section_title
;
Structure prediction by ZEFSAII (Michael W. Deem and Ramdas Pophale) SiO2 
 PCOD9114281
Probable space group: P 2
;
_chemical_formula_sum "Si O2"
_cell_formula_units_Z 8
_cell_length_a 4.953705
_cell_length_b 9.324891
_cell_length_c 7.103159
_cell_angle_alpha 90.000000
_cell_angle_beta 69.612092
_cell_angle_gamma 90.000000
_cell_volume 307.559954
_symmetry_space_group_name_H-M "P 2"
_symmetry_group_IT_number 3
_symmetry_cell_setting 'monoclinic'
loop_
_space_group_symop_operation_xyz
x,y,z
-x,y,-z
loop_
_atom_site_type_symbol
_atom_site_label
_atom_site_fract_x
_atom_site_fract_y
_atom_site_fract_z
Si Si1 0.972880 0.500000 0.777333
Si Si2 0.500000 0.316749 0.000000
Si Si3 0.500000 0.314387 0.500000
Si Si4 0.814377 0.804775 0.861557
Si Si5 0.243785 0.111973 0.287784
O O1 0.222614 0.414018 0.610775
O O2 0.656077 0.432562 0.821521
O O3 0.973717 0.668583 0.733274
O O4 0.000000 0.486791 0.000000
O O5 0.757293 0.198094 0.907191
O O6 0.501528 0.198557 0.326748
O O7 0.752764 0.944255 0.751720
O O8 0.500000 0.751439 0.000000
O O9 0.000000 0.847683 0.000000
O O10 0.000000 0.138201 0.500000
#
# Coordination Sequence:
#
# PCOD9114281 Si02
#       5
#     2   1   1   2   2
#     4  11  24  48  78 109 151 204 262 322 385 459
#     4  12  22  44  76 106 150 202 260 316 382 466
#     4  12  26  46  82 118 148 204 268 322 386 464
#     4  11  27  51  79 111 159 209 256 319 397 463
#     4  12  27  45  75 115 156 200 257 320 395 458
#
# _framework density 26.011189999999999
#
# number of rings (size 3 to 8) (size 9 to 14) (size 15 to 20)
#    0.000    0.500    7.500    0.000    3.500    1.000 
#   13.500    0.000    0.000    0.000    0.000    0.000 
#    0.000    0.000    0.000    0.000    0.000    0.000 
#
# Total GULP energy -44565.754911 kJ/mol
# GULP energy per Si atom -5570.719364 kJ/mol
# Density = 2.595199 g / cm^3
# Si number density = 26.011190 Si / 1000 Ang^3
#
#
#
# Elastic Constant Matrix: (Units=GPa)
#
#
# Indices 1 2 3 4 5 6 
#
# 1 102.6170 41.2131 45.0039 0.0000 -3.6565 0.0000
# 2 41.2131 285.3631 79.6188 0.0000 -3.1278 0.0000
# 3 45.0039 79.6188 211.2711 0.0000 -26.3945 0.0000
# 4 0.0000 0.0000 0.0000 22.6016 0.0000 -12.5016
# 5 -3.6565 -3.1278 -26.3945 0.0000 46.4979 0.0000
# 6 0.0000 0.0000 0.0000 -12.5016 0.0000 36.4793
#
#
#
# Elastic Compliance Matrix: (Units=1/GPa)
#
#
# Indices 1 2 3 4 5 6 
#
# 1 0.011027 -0.001038 -0.002000 0.000000 -0.000338 0.000000
# 2 -0.001038 0.004030 -0.001371 0.000000 -0.000589 0.000000
# 3 -0.002000 -0.001371 0.006076 0.000000 0.003199 0.000000
# 4 0.000000 0.000000 0.000000 0.054593 0.000000 0.018709
# 5 -0.000338 -0.000589 0.003199 0.000000 0.023256 0.000000
# 6 0.000000 0.000000 0.000000 0.018709 0.000000 0.033825
#
#
# Mechanical properties :
#
#
# Convention : Reuss Voigt Hill
#
# Bulk Modulus (GPa) = 81.20649 103.43587 92.32118
# Shear Modulus (GPa) = 34.30979 50.01012 42.15995
#
# Velocity S-wave (km/s) = 3.63580 4.38955 4.03033
# Velocity P-wave (km/s) = 6.99378 8.09587 7.56492
#
# Compressibility (1/GPa) = 0.01231429
#
# Stress axis : x y z
#
# Youngs Moduli (GPa) = 90.68655 248.11383 164.58902
#
# Poissons Ratio (x) = 0.25761 0.32915
# Poissons Ratio (y) = 0.09416 0.22570
# Poissons Ratio (z) = 0.18136 0.34024
#
# Static dielectric constant tensor:
#      x y z
#    x 0.624760 0.000000 -1.498040 
#    y 0.000000 2.014900 0.000000 
#    z -1.498040 0.000000 0.490880 
# 
# From -- ./inp_files/798.got.cif
#   From: 2010.05.17/outbox.cif.g08.bks.cpg/sg3_1_cif.got.tgz:798.got - 2010.06.03 18:33:08.
