data_PCOD9114441
_publ_section_title
;
Structure prediction by ZEFSAII (Michael W. Deem and Ramdas Pophale) SiO2 
 PCOD9114441
Probable space group: P 21
;
_chemical_formula_sum "Si O2"
_cell_formula_units_Z 6
_cell_length_a 6.207695
_cell_length_b 5.124682
_cell_length_c 10.219643
_cell_angle_alpha 90.000000
_cell_angle_beta 139.775451
_cell_angle_gamma 90.000000
_cell_volume 209.952424
_symmetry_space_group_name_H-M "P 21"
_symmetry_group_IT_number 4
_symmetry_cell_setting 'monoclinic'
loop_
_space_group_symop_operation_xyz
x,y,z
-x,1/2+y,-z
loop_
_atom_site_type_symbol
_atom_site_label
_atom_site_fract_x
_atom_site_fract_y
_atom_site_fract_z
Si Si1 0.341683 0.135980 0.572263
Si Si2 0.008865 0.899731 0.196101
Si Si3 0.441329 0.124070 0.181993
O O1 0.672677 0.206616 0.640453
O O2 0.352788 0.365957 0.683818
O O3 0.043821 0.104243 0.330212
O O4 0.390409 0.868689 0.670537
O O5 0.097661 0.061926 0.105765
O O6 0.690170 0.721894 0.019342
#
# Coordination Sequence:
#
# PCOD9114441 Si02
#       3
#     2   2   2
#     4  10  17  22  30  38  42  50  58  62  70  78
#     4  10  16  24  30  36  44  50  56  64  70  76
#     4  10  17  22  30  38  42  50  58  62  70  78
#
# _framework density 28.577901000000001
#
# number of rings (size 3 to 8) (size 9 to 14) (size 15 to 20)
#    2.000    0.000    6.667    0.000    0.000    0.000 
#    0.000    0.000    0.000    0.000    0.000    0.000 
#    0.000    0.000    0.000    0.000    0.000    0.000 
#
# Total GULP energy -33556.807419 kJ/mol
# GULP energy per Si atom -5592.801236 kJ/mol
# Density = 2.851286 g / cm^3
# Si number density = 28.577901 Si / 1000 Ang^3
#
#
#
# Elastic Constant Matrix: (Units=GPa)
#
#
# Indices 1 2 3 4 5 6 
#
# 1 57.5295 22.2422 27.6986 0.0000 0.5571 0.0000
# 2 22.2422 234.3891 98.2120 0.0000 -14.3160 0.0000
# 3 27.6986 98.2120 242.7888 0.0000 -1.0672 0.0000
# 4 0.0000 0.0000 0.0000 63.8823 0.0000 -19.1988
# 5 0.5571 -14.3160 -1.0672 0.0000 40.8161 0.0000
# 6 0.0000 0.0000 0.0000 -19.1988 0.0000 37.0118
#
#
#
# Elastic Compliance Matrix: (Units=1/GPa)
#
#
# Indices 1 2 3 4 5 6 
#
# 1 0.018626 -0.001105 -0.001681 0.000000 -0.000686 0.000000
# 2 -0.001105 0.005330 -0.002022 0.000000 0.001832 0.000000
# 3 -0.001681 -0.002022 0.005126 0.000000 -0.000552 0.000000
# 4 0.000000 0.000000 0.000000 0.018545 0.000000 0.009620
# 5 -0.000686 0.001832 -0.000552 0.000000 0.025138 0.000000
# 6 0.000000 0.000000 0.000000 0.009620 0.000000 0.032008
#
#
# Mechanical properties :
#
#
# Convention : Reuss Voigt Hill
#
# Bulk Modulus (GPa) = 51.37160 92.33478 71.85319
# Shear Modulus (GPa) = 41.36414 54.11233 47.73824
#
# Velocity S-wave (km/s) = 3.80862 4.35616 4.09156
# Velocity P-wave (km/s) = 6.11194 7.59483 6.89338
#
# Compressibility (1/GPa) = 0.01946601
#
# Stress axis : x y z
#
# Youngs Moduli (GPa) = 53.68961 187.60126 195.07881
#
# Poissons Ratio (x) = 0.20730 0.32791
# Poissons Ratio (y) = 0.05933 0.39448
# Poissons Ratio (z) = 0.09025 0.37936
#
# Static dielectric constant tensor:
#      x y z
#    x 2.372040 0.000000 0.040550 
#    y 0.000000 2.134540 0.000000 
#    z 0.040550 0.000000 2.122220 
# 
# From -- ./inp_files/5140.got.cif
#   From: 2010.05.17/outbox.cif.g08.bks.cpg/sg4_3_cif.got.tgz:5140.got - 2010.06.03 18:43:04.
