data_PCOD9114340
_publ_section_title
;
Structure prediction by ZEFSAII (Michael W. Deem and Ramdas Pophale) SiO2 
 PCOD9114340
Probable space group: P 2
;
_chemical_formula_sum "Si O2"
_cell_formula_units_Z 14
_cell_length_a 7.764301
_cell_length_b 6.818560
_cell_length_c 16.733012
_cell_angle_alpha 90.000000
_cell_angle_beta 137.595764
_cell_angle_gamma 90.000000
_cell_volume 597.391461
_symmetry_space_group_name_H-M "P 2"
_symmetry_group_IT_number 3
_symmetry_cell_setting 'monoclinic'
loop_
_space_group_symop_operation_xyz
x,y,z
-x,y,-z
loop_
_atom_site_type_symbol
_atom_site_label
_atom_site_fract_x
_atom_site_fract_y
_atom_site_fract_z
Si Si1 0.335982 0.707560 0.365741
Si Si2 0.860157 0.467530 0.843023
Si Si3 0.362571 0.299669 0.756221
Si Si4 0.274184 0.126670 0.011626
Si Si5 0.289111 0.923375 0.628465
Si Si6 0.500000 0.801531 0.000000
Si Si7 0.807981 0.680169 0.251487
Si Si8 0.000000 0.819889 0.000000
O O1 0.500000 0.655718 0.500000
O O2 0.249897 0.523970 0.281007
O O3 0.502612 0.853450 0.366009
O O4 0.066147 0.781115 0.309150
O O5 0.622795 0.406297 0.816798
O O6 0.072372 0.296571 0.922919
O O7 0.971372 0.669465 0.917387
O O8 0.149023 0.460228 0.701515
O O9 0.304373 0.144179 0.667404
O O10 0.449650 0.209469 0.870943
O O11 0.282059 0.957678 0.948887
O O12 0.219402 0.984448 0.069384
O O13 0.311666 0.790833 0.714881
O O14 0.000000 0.888924 0.500000
O O15 0.606136 0.677623 0.109681
#
# Coordination Sequence:
#
# PCOD9114340 Si02
#       8
#     2   2   2   2   2   1   2   1
#     4  12  28  51  83 112 155 209 270 329 394 474
#     4  12  25  42  76 114 150 204 264 318 396 472
#     4  12  25  47  76 112 156 208 260 326 394 473
#     4  12  25  42  68 112 158 200 260 317 389 475
#     4  12  27  54  83 109 155 212 266 329 400 472
#     4  12  28  46  76 116 170 200 252 338 398 486
#     4  12  28  51  79 116 161 208 258 326 406 470
#     4  12  20  44  72 100 150 200 254 314 386 470
#
# _framework density 23.435222
#
# number of rings (size 3 to 8) (size 9 to 14) (size 15 to 20)
#    0.000    0.000    7.143    2.571    6.000    1.714 
#    0.000    0.714    0.000    0.000    0.000    0.000 
#    0.000    0.000    0.000    0.000    0.000    0.000 
#
# Total GULP energy -78173.395944 kJ/mol
# GULP energy per Si atom -5583.813996 kJ/mol
# Density = 2.338188 g / cm^3
# Si number density = 23.435222 Si / 1000 Ang^3
#
#
#
# Elastic Constant Matrix: (Units=GPa)
#
#
# Indices 1 2 3 4 5 6 
#
# 1 111.5690 50.3762 36.3605 0.0000 -3.5443 0.0000
# 2 50.3762 134.0636 41.1571 0.0000 -3.2998 0.0000
# 3 36.3605 41.1571 142.2104 0.0000 -16.1514 0.0000
# 4 0.0000 0.0000 0.0000 23.1846 0.0000 1.2340
# 5 -3.5443 -3.2998 -16.1514 0.0000 38.7507 0.0000
# 6 0.0000 0.0000 0.0000 1.2340 0.0000 35.4290
#
#
#
# Elastic Compliance Matrix: (Units=1/GPa)
#
#
# Indices 1 2 3 4 5 6 
#
# 1 0.011202 -0.003654 -0.001811 0.000000 -0.000042 0.000000
# 2 -0.003654 0.009382 -0.001814 0.000000 -0.000291 0.000000
# 3 -0.001811 -0.001814 0.008380 0.000000 0.003173 0.000000
# 4 0.000000 0.000000 0.000000 0.043212 0.000000 -0.001505
# 5 -0.000042 -0.000291 0.003173 0.000000 0.027100 0.000000
# 6 0.000000 0.000000 0.000000 -0.001505 0.000000 0.028278
#
#
# Mechanical properties :
#
#
# Convention : Reuss Voigt Hill
#
# Bulk Modulus (GPa) = 69.41942 71.51450 70.46696
# Shear Modulus (GPa) = 34.03328 36.80282 35.41805
#
# Velocity S-wave (km/s) = 3.81494 3.96713 3.89178
# Velocity P-wave (km/s) = 7.00651 7.18097 7.09428
#
# Compressibility (1/GPa) = 0.01440519
#
# Stress axis : x y z
#
# Youngs Moduli (GPa) = 89.26943 106.58691 119.32766
#
# Poissons Ratio (x) = 0.38950 0.21614
# Poissons Ratio (y) = 0.32622 0.21646
# Poissons Ratio (z) = 0.16169 0.19335
#
# Static dielectric constant tensor:
#      x y z
#    x 2.139570 0.000000 -0.002840 
#    y 0.000000 1.899550 0.000000 
#    z -0.002840 0.000000 1.872460 
# 
# From -- ./inp_files/14913.got.cif
#   From: 2010.05.17/outbox.cif.g08.bks.cpg/sg3_8_cif.got.tgz:14913.got - 2010.06.03 18:33:08.
