data_PCOD9114413
_publ_section_title
;
Structure prediction by ZEFSAII (Michael W. Deem and Ramdas Pophale) SiO2 
 PCOD9114413
Probable space group: P 2
;
_chemical_formula_sum "Si O2"
_cell_formula_units_Z 7
_cell_length_a 4.654783
_cell_length_b 8.491625
_cell_length_c 6.410306
_cell_angle_alpha 90.000000
_cell_angle_beta 96.396807
_cell_angle_gamma 90.000000
_cell_volume 251.800562
_symmetry_space_group_name_H-M "P 2"
_symmetry_group_IT_number 3
_symmetry_cell_setting 'monoclinic'
loop_
_space_group_symop_operation_xyz
x,y,z
-x,y,-z
loop_
_atom_site_type_symbol
_atom_site_label
_atom_site_fract_x
_atom_site_fract_y
_atom_site_fract_z
Si Si1 0.715824 0.783470 0.847457
Si Si2 0.777983 0.469965 0.642390
Si Si3 0.500000 0.009291 0.500000
Si Si4 0.208425 0.200282 0.850668
O O1 0.641705 0.605588 0.772544
O O2 0.708603 0.894892 0.647997
O O3 0.500000 0.852726 0.000000
O O4 0.000000 0.761771 0.000000
O O5 0.500000 0.400618 0.500000
O O6 0.010121 0.340644 0.237965
O O7 0.000000 0.552797 0.500000
O O8 0.317883 0.106380 0.657084
O O9 0.500000 0.250123 0.000000
O O10 0.000000 0.111052 0.000000
#
# Coordination Sequence:
#
# PCOD9114413 Si02
#       4
#     2   2   1   2
#     4  12  29  57  92 128 175 235 300 364 448 531
#     4  12  27  55  90 131 173 233 298 375 442 524
#     4  12  32  62  88 132 190 232 294 372 450 552
#     4  12  31  58  90 132 184 237 299 369 455 533
#
# _framework density 27.799780999999999
#
# number of rings (size 3 to 8) (size 9 to 14) (size 15 to 20)
#    0.000    0.000    1.429    5.143    6.000    9.143 
#    5.143    0.000    0.000    0.000    0.000    0.000 
#    0.000    0.000    0.000    0.000    0.000    0.000 
#
# Total GULP energy -39281.828733 kJ/mol
# GULP energy per Si atom -5611.689819 kJ/mol
# Density = 2.773651 g / cm^3
# Si number density = 27.799781 Si / 1000 Ang^3
#
#
#
# Elastic Constant Matrix: (Units=GPa)
#
#
# Indices 1 2 3 4 5 6 
#
# 1 176.6242 43.9843 85.6870 0.0000 16.6614 0.0000
# 2 43.9843 162.1457 104.4258 0.0000 8.4092 0.0000
# 3 85.6870 104.4258 208.7910 0.0000 16.1357 0.0000
# 4 0.0000 0.0000 0.0000 49.5680 0.0000 0.1000
# 5 16.6614 8.4092 16.1357 0.0000 89.2351 0.0000
# 6 0.0000 0.0000 0.0000 0.1000 0.0000 51.4502
#
#
#
# Elastic Compliance Matrix: (Units=1/GPa)
#
#
# Indices 1 2 3 4 5 6 
#
# 1 0.007127 -0.000071 -0.002827 0.000000 -0.000813 0.000000
# 2 -0.000071 0.009099 -0.004519 0.000000 -0.000027 0.000000
# 3 -0.002827 -0.004519 0.008252 0.000000 -0.000538 0.000000
# 4 0.000000 0.000000 0.000000 0.020174 0.000000 -0.000039
# 5 -0.000813 -0.000027 -0.000538 0.000000 0.011458 0.000000
# 6 0.000000 0.000000 0.000000 -0.000039 0.000000 0.019436
#
#
# Mechanical properties :
#
#
# Convention : Reuss Voigt Hill
#
# Bulk Modulus (GPa) = 103.69693 112.86167 108.27930
# Shear Modulus (GPa) = 53.42165 58.94826 56.18495
#
# Velocity S-wave (km/s) = 4.38843 4.60984 4.50049
# Velocity P-wave (km/s) = 7.94104 8.30785 8.12651
#
# Compressibility (1/GPa) = 0.00964349
#
# Stress axis : x y z
#
# Youngs Moduli (GPa) = 140.30229 109.90789 121.18801
#
# Poissons Ratio (x) = 0.00777 0.34259
# Poissons Ratio (y) = 0.00991 0.54771
# Poissons Ratio (z) = 0.39662 0.49673
#
# Static dielectric constant tensor:
#      x y z
#    x 2.101230 0.000000 -0.063320 
#    y 0.000000 2.154730 0.000000 
#    z -0.063320 0.000000 2.219340 
# 
# From -- ./inp_files/107.got.cif
#   From: 2010.05.17/outbox.cif.g08.bks.cpg/sg3_1_cif.got.tgz:107.got - 2010.06.03 18:33:08.
