data_PCOD9114420
_publ_section_title
;
Structure prediction by ZEFSAII (Michael W. Deem and Ramdas Pophale) SiO2 
 PCOD9114420
Probable space group: P 2
;
_chemical_formula_sum "Si O2"
_cell_formula_units_Z 16
_cell_length_a 12.000000
_cell_length_b 9.000000
_cell_length_c 9.000000
_cell_angle_alpha 90.000000
_cell_angle_beta 50.000000
_cell_angle_gamma 90.000000
_cell_volume 744.595199
_symmetry_space_group_name_H-M "P 2"
_symmetry_group_IT_number 3
_symmetry_cell_setting 'monoclinic'
loop_
_space_group_symop_operation_xyz
x,y,z
-x,y,-z
loop_
_atom_site_type_symbol
_atom_site_label
_atom_site_fract_x
_atom_site_fract_y
_atom_site_fract_z
Si Si1 0.328368 0.845930 0.154434
Si Si2 0.893452 0.665492 0.451059
Si Si3 0.651698 0.444198 0.055466
Si Si4 0.318552 0.429580 0.324118
Si Si5 0.584835 0.153365 0.283834
Si Si6 0.834232 0.714750 0.984783
Si Si7 0.156185 0.967110 0.801351
Si Si8 0.299847 0.080676 0.391548
O O1 0.239304 0.760893 0.362165
O O2 0.259338 0.802684 0.058121
O O3 0.296135 0.014360 0.230089
O O4 0.500000 0.814737 0.000000
O O5 0.808240 0.516756 0.484414
O O6 0.000000 0.641020 0.500000
O O7 0.003580 0.715303 0.226727
O O8 0.481237 0.488313 0.219076
O O9 0.645785 0.278172 0.122985
O O10 0.692531 0.446875 0.845801
O O11 0.762779 0.551774 0.045052
O O12 0.299390 0.257842 0.382860
O O13 0.500000 0.221592 0.500000
O O14 0.462946 0.049038 0.312770
O O15 0.717658 0.061097 0.230301
O O16 0.822362 0.801511 0.149625
O O17 0.183314 0.008095 0.604754
O O18 0.000000 0.013216 0.000000
#
# Coordination Sequence:
#
# PCOD9114420 Si02
#       8
#     2   2   2   2   2   2   2   2
#     4  11  21  36  62  96 120 161 208 265 324 371
#     4  10  20  37  54  89 130 159 206 260 311 370
#     4  10  20  38  66  96 122 166 211 265 326 373
#     4  10  20  37  64  96 131 156 208 275 320 377
#     4   9  21  42  64  90 129 164 214 264 314 383
#     4  11  23  39  65  89 128 171 211 264 311 375
#     4  11  24  45  60  87 129 176 212 255 313 385
#     4  10  23  40  65  96 126 162 208 267 324 376
#
# _framework density 21.488185999999999
#
# number of rings (size 3 to 8) (size 9 to 14) (size 15 to 20)
#    0.000    1.750    2.500    2.250    5.250    1.000 
#    0.000   14.375    0.000    0.000    0.000    0.000 
#    0.000    0.000    0.000    0.000    0.000    0.000 
#
# Total GULP energy -89260.005057 kJ/mol
# GULP energy per Si atom -5578.750316 kJ/mol
# Density = 2.143928 g / cm^3
# Si number density = 21.488186 Si / 1000 Ang^3
#
#
#
# Elastic Constant Matrix: (Units=GPa)
#
#
# Indices 1 2 3 4 5 6 
#
# 1 65.5685 33.1980 39.5523 0.0000 -17.4202 0.0000
# 2 33.1980 58.2611 45.3285 0.0000 -14.9524 0.0000
# 3 39.5523 45.3285 103.2497 0.0000 -30.7190 0.0000
# 4 0.0000 0.0000 0.0000 25.8389 0.0000 1.4026
# 5 -17.4202 -14.9524 -30.7190 0.0000 30.9596 0.0000
# 6 0.0000 0.0000 0.0000 1.4026 0.0000 24.0480
#
#
#
# Elastic Compliance Matrix: (Units=1/GPa)
#
#
# Indices 1 2 3 4 5 6 
#
# 1 0.023413 -0.009456 -0.003202 0.000000 0.005430 0.000000
# 2 -0.009456 0.029955 -0.009658 0.000000 -0.000437 0.000000
# 3 -0.003202 -0.009658 0.018769 0.000000 0.012157 0.000000
# 4 0.000000 0.000000 0.000000 0.038824 0.000000 -0.002264
# 5 0.005430 -0.000437 0.012157 0.000000 0.047207 0.000000
# 6 0.000000 0.000000 0.000000 -0.002264 0.000000 0.041716
#
#
# Mechanical properties :
#
#
# Convention : Reuss Voigt Hill
#
# Bulk Modulus (GPa) = 36.35880 51.47077 43.91478
# Shear Modulus (GPa) = 19.70956 23.43599 21.57277
#
# Velocity S-wave (km/s) = 3.03186 3.30607 3.17193
# Velocity P-wave (km/s) = 5.40494 6.21116 5.82202
#
# Compressibility (1/GPa) = 0.02750366
#
# Stress axis : x y z
#
# Youngs Moduli (GPa) = 42.71099 33.38381 53.27980
#
# Poissons Ratio (x) = 0.31569 0.17060
# Poissons Ratio (y) = 0.40389 0.51458
# Poissons Ratio (z) = 0.13676 0.32242
#
# Static dielectric constant tensor:
#      x y z
#    x 1.814610 0.000000 0.028560 
#    y 0.000000 1.857150 0.000000 
#    z 0.028560 0.000000 1.757320 
# 
# From -- ./inp_files/7391.got.cif
#   From: 2010.05.17/outbox.ucp.g08.bks.cvg/sg3_4_cif.got.tgz:7391.got - 2010.06.11 12:50:29.
