data_PCOD9114314
_publ_section_title
;
Structure prediction by ZEFSAII (Michael W. Deem and Ramdas Pophale) SiO2 
 PCOD9114314
Probable space group: P 2
;
_chemical_formula_sum "Si O2"
_cell_formula_units_Z 14
_cell_length_a 5.552729
_cell_length_b 4.899771
_cell_length_c 20.593215
_cell_angle_alpha 90.000000
_cell_angle_beta 115.011435
_cell_angle_gamma 90.000000
_cell_volume 507.740374
_symmetry_space_group_name_H-M "P 2"
_symmetry_group_IT_number 3
_symmetry_cell_setting 'monoclinic'
loop_
_space_group_symop_operation_xyz
x,y,z
-x,y,-z
loop_
_atom_site_type_symbol
_atom_site_label
_atom_site_fract_x
_atom_site_fract_y
_atom_site_fract_z
Si Si1 0.189496 0.110520 0.958654
Si Si2 0.219793 0.771145 0.478319
Si Si3 0.574562 0.262676 0.208120
Si Si4 0.026717 0.180150 0.352190
Si Si5 0.831668 0.581162 0.131604
Si Si6 0.424460 0.166083 0.612132
Si Si7 0.340052 0.778027 0.248269
O O1 0.600573 0.993007 0.803409
O O2 0.225913 0.835706 0.920783
O O3 0.500000 0.206566 0.000000
O O4 0.000000 0.064614 0.000000
O O5 0.500000 0.621461 0.500000
O O6 0.685369 0.025148 0.464907
O O7 0.000000 0.640947 0.500000
O O8 0.101570 0.899264 0.398722
O O9 0.864220 0.166695 0.267299
O O10 0.603996 0.417644 0.143939
O O11 0.952949 0.348196 0.099343
O O12 0.479333 0.495729 0.246550
O O13 0.820131 0.305224 0.379575
O O14 0.304488 0.325373 0.370830
O O15 0.033220 0.694819 0.209052
O O16 0.535553 0.932125 0.675499
#
# Coordination Sequence:
#
# PCOD9114314 Si02
#       7
#     2   2   2   2   2   2   2
#     4  12  30  54  82 116 156 205 252 307 378 472
#     4   8  14  30  56  90 126 188 236 300 360 440
#     4  11  26  44  72 112 151 198 253 321 384 457
#     4   9  19  35  62  97 137 188 242 304 368 438
#     4  12  28  48  82 112 157 202 252 318 384 463
#     4   9  19  35  62  97 137 188 242 304 368 438
#     4  11  26  44  72 112 151 198 253 321 384 457
#
# _framework density 27.573149000000001
#
# number of rings (size 3 to 8) (size 9 to 14) (size 15 to 20)
#    0.000    1.714    0.000    2.571   16.000    0.000 
#    0.000    0.000    0.000   21.429    0.000    0.000 
#    0.000    0.000    0.000    0.000    0.000    0.000 
#
# Total GULP energy -78319.635189 kJ/mol
# GULP energy per Si atom -5594.259656 kJ/mol
# Density = 2.751039 g / cm^3
# Si number density = 27.573149 Si / 1000 Ang^3
#
#
#
# Elastic Constant Matrix: (Units=GPa)
#
#
# Indices 1 2 3 4 5 6 
#
# 1 191.5182 27.2497 22.3730 0.0000 -3.5890 0.0000
# 2 27.2497 132.2032 35.2288 0.0000 -7.6494 0.0000
# 3 22.3730 35.2288 88.0415 0.0000 -9.6848 0.0000
# 4 0.0000 0.0000 0.0000 68.4687 0.0000 -6.1115
# 5 -3.5890 -7.6494 -9.6848 0.0000 45.5539 0.0000
# 6 0.0000 0.0000 0.0000 -6.1115 0.0000 10.9322
#
#
#
# Elastic Compliance Matrix: (Units=1/GPa)
#
#
# Indices 1 2 3 4 5 6 
#
# 1 0.005465 -0.000844 -0.001043 0.000000 0.000067 0.000000
# 2 -0.000844 0.008620 -0.003157 0.000000 0.000710 0.000000
# 3 -0.001043 -0.003157 0.013126 0.000000 0.002178 0.000000
# 4 0.000000 0.000000 0.000000 0.015372 0.000000 0.008594
# 5 0.000067 0.000710 0.002178 0.000000 0.022540 0.000000
# 6 0.000000 0.000000 0.000000 0.008594 0.000000 0.096277
#
#
# Mechanical properties :
#
#
# Convention : Reuss Voigt Hill
#
# Bulk Modulus (GPa) = 58.40380 64.60732 61.50556
# Shear Modulus (GPa) = 28.21723 46.78505 37.50114
#
# Velocity S-wave (km/s) = 3.20247 4.12365 3.69190
# Velocity P-wave (km/s) = 5.90777 6.79373 6.36618
#
# Compressibility (1/GPa) = 0.01712217
#
# Stress axis : x y z
#
# Youngs Moduli (GPa) = 182.99145 116.00347 76.18371
#
# Poissons Ratio (x) = 0.09796 0.07949
# Poissons Ratio (y) = 0.15453 0.24049
# Poissons Ratio (z) = 0.19094 0.36619
#
# Static dielectric constant tensor:
#      x y z
#    x 2.245010 0.000000 -0.002360 
#    y 0.000000 2.019120 0.000000 
#    z -0.002360 0.000000 2.207510 
# 
# From -- ./inp_files/15610.got.cif
#   From: 2010.05.17/outbox.cif.g08.bks.cpg/sg3_8_cif.got.tgz:15610.got - 2010.06.03 18:33:08.
