data_PCOD9114205
_publ_section_title
;
Structure prediction by ZEFSAII (Michael W. Deem and Ramdas Pophale) SiO2 
 PCOD9114205
Probable space group: P 2
;
_chemical_formula_sum "Si O2"
_cell_formula_units_Z 16
_cell_length_a 8.852031
_cell_length_b 17.427091
_cell_length_c 8.377528
_cell_angle_alpha 90.000000
_cell_angle_beta 147.616202
_cell_angle_gamma 90.000000
_cell_volume 692.172856
_symmetry_space_group_name_H-M "P 2"
_symmetry_group_IT_number 3
_symmetry_cell_setting 'monoclinic'
loop_
_space_group_symop_operation_xyz
x,y,z
-x,y,-z
loop_
_atom_site_type_symbol
_atom_site_label
_atom_site_fract_x
_atom_site_fract_y
_atom_site_fract_z
Si Si1 0.173152 0.257290 0.495013
Si Si2 0.788275 0.896629 0.175772
Si Si3 0.418320 0.653968 0.243978
Si Si4 0.771707 0.182951 0.942028
Si Si5 0.300861 0.011533 0.186685
Si Si6 0.591320 0.490013 0.906021
Si Si7 0.869957 0.416863 0.708720
Si Si8 0.949600 0.736626 0.642296
O O1 0.506586 0.237655 0.761386
O O2 0.108196 0.328363 0.320382
O O3 0.000000 0.281624 0.500000
O O4 0.992364 0.183191 0.283146
O O5 0.946922 0.823354 0.243386
O O6 0.000000 0.927645 0.500000
O O7 0.500000 0.868542 0.000000
O O8 0.708186 0.960689 0.977835
O O9 0.500000 0.635149 0.500000
O O10 0.475612 0.578037 0.191700
O O11 0.622455 0.723479 0.379847
O O12 0.112097 0.682198 0.913151
O O13 0.632915 0.100590 0.788667
O O14 0.000000 0.199898 0.000000
O O15 0.500000 0.978115 0.500000
O O16 0.000000 0.013136 0.000000
O O17 0.437079 0.442055 0.627804
O O18 0.500000 0.465278 0.000000
O O19 0.922387 0.473422 0.200622
O O20 0.000000 0.425185 0.000000
O O21 0.000000 0.716722 0.500000
#
# Coordination Sequence:
#
# PCOD9114205 Si02
#       8
#     2   2   2   2   2   2   2   2
#     4  12  25  43  68 102 137 180 233 291 351 420
#     4  11  24  43  67  97 134 176 223 280 342 410
#     4  12  25  42  66  98 131 170 221 277 333 400
#     4  11  24  44  68  97 137 183 233 289 354 422
#     4  11  24  43  68  99 135 178 229 286 345 412
#     4  12  25  45  69  97 133 176 220 274 336 405
#     4  12  26  45  69  99 135 175 221 278 339 407
#     4  11  23  43  65  93 130 174 219 269 333 402
#
# _framework density 23.115614999999998
#
# number of rings (size 3 to 8) (size 9 to 14) (size 15 to 20)
#    0.000    0.500    0.000   10.125    0.000    4.000 
#    0.000    0.000    0.000    0.000    0.000    0.000 
#    0.000    0.000    0.000    0.000    0.000    0.000 
#
# Total GULP energy -89288.681560 kJ/mol
# GULP energy per Si atom -5580.542598 kJ/mol
# Density = 2.306300 g / cm^3
# Si number density = 23.115615 Si / 1000 Ang^3
#
#
#
# Elastic Constant Matrix: (Units=GPa)
#
#
# Indices 1 2 3 4 5 6 
#
# 1 58.9399 14.1908 23.4055 0.0000 9.0758 0.0000
# 2 14.1908 77.6836 16.5448 0.0000 -2.7776 0.0000
# 3 23.4055 16.5448 128.3017 0.0000 -0.4906 0.0000
# 4 0.0000 0.0000 0.0000 27.4486 0.0000 -0.8260
# 5 9.0758 -2.7776 -0.4906 0.0000 50.4090 0.0000
# 6 0.0000 0.0000 0.0000 -0.8260 0.0000 22.7678
#
#
#
# Elastic Compliance Matrix: (Units=1/GPa)
#
#
# Indices 1 2 3 4 5 6 
#
# 1 0.019532 -0.003022 -0.003188 0.000000 -0.003714 0.000000
# 2 -0.003022 0.013729 -0.001214 0.000000 0.001289 0.000000
# 3 -0.003188 -0.001214 0.008534 0.000000 0.000590 0.000000
# 4 0.000000 0.000000 0.000000 0.036472 0.000000 0.001323
# 5 -0.003714 0.001289 0.000590 0.000000 0.020583 0.000000
# 6 0.000000 0.000000 0.000000 0.001323 0.000000 0.043970
#
#
# Mechanical properties :
#
#
# Convention : Reuss Voigt Hill
#
# Bulk Modulus (GPa) = 37.10821 41.46748 39.28785
# Shear Modulus (GPa) = 30.00295 34.17734 32.09014
#
# Velocity S-wave (km/s) = 3.60662 3.84935 3.72996
# Velocity P-wave (km/s) = 5.78202 6.14286 5.96517
#
# Compressibility (1/GPa) = 0.02694821
#
# Stress axis : x y z
#
# Youngs Moduli (GPa) = 51.19871 72.83619 117.17197
#
# Poissons Ratio (x) = 0.22010 0.37350
# Poissons Ratio (y) = 0.15472 0.14228
# Poissons Ratio (z) = 0.16320 0.08844
#
# Static dielectric constant tensor:
#      x y z
#    x 1.935510 0.000000 -0.020220 
#    y 0.000000 1.839820 0.000000 
#    z -0.020220 0.000000 1.878110 
# 
# From -- ./inp_files/6313.got.cif
#   From: 2010.05.17/outbox.cif.g08.bks.cpg/sg3_4_cif.got.tgz:6313.got - 2010.06.03 18:33:08.
