data_PCOD9114315
_publ_section_title
;
Structure prediction by ZEFSAII (Michael W. Deem and Ramdas Pophale) SiO2 
 PCOD9114315
Probable space group: P 2
;
_chemical_formula_sum "Si O2"
_cell_formula_units_Z 8
_cell_length_a 7.560955
_cell_length_b 6.531900
_cell_length_c 5.736482
_cell_angle_alpha 90.000000
_cell_angle_beta 82.468246
_cell_angle_gamma 90.000000
_cell_volume 280.865649
_symmetry_space_group_name_H-M "P 2"
_symmetry_group_IT_number 3
_symmetry_cell_setting 'monoclinic'
loop_
_space_group_symop_operation_xyz
x,y,z
-x,y,-z
loop_
_atom_site_type_symbol
_atom_site_label
_atom_site_fract_x
_atom_site_fract_y
_atom_site_fract_z
Si Si1 0.423458 0.532790 0.743867
Si Si2 0.409289 0.953079 0.263977
Si Si3 0.958283 0.701798 0.265112
Si Si4 0.163808 0.287358 0.128330
O O1 0.500000 0.424540 0.500000
O O2 0.578895 0.702335 0.767936
O O3 0.252159 0.668069 0.706484
O O4 0.325937 0.379934 0.941401
O O5 0.500000 0.985379 0.500000
O O6 0.242046 0.108837 0.275202
O O7 0.500000 0.005369 0.000000
O O8 0.000000 0.810180 0.500000
O O9 0.069203 0.487320 0.256998
O O10 0.000000 0.782792 0.000000
O O11 0.000000 0.208859 0.000000
#
# Coordination Sequence:
#
# PCOD9114315 Si02
#       4
#     2   2   2   2
#     4   9  21  44  75 108 146 195 249 307 372 445
#     4  11  26  45  70 111 153 191 244 313 377 441
#     4   9  20  39  68 101 137 189 245 295 360 441
#     4   9  22  46  76 106 146 199 252 303 371 451
#
# _framework density 28.483371000000002
#
# number of rings (size 3 to 8) (size 9 to 14) (size 15 to 20)
#    0.000    3.000    0.000    0.000    0.000   18.000 
#    0.000   11.250    0.000   54.000    0.000    0.000 
#    0.000    0.000    0.000    0.000    0.000    0.000 
#
# Total GULP energy -44621.233538 kJ/mol
# GULP energy per Si atom -5577.654192 kJ/mol
# Density = 2.841854 g / cm^3
# Si number density = 28.483371 Si / 1000 Ang^3
#
#
#
# Elastic Constant Matrix: (Units=GPa)
#
#
# Indices 1 2 3 4 5 6 
#
# 1 180.8671 91.4290 65.2118 0.0000 19.6732 0.0000
# 2 91.4290 208.5214 74.2989 0.0000 3.3902 0.0000
# 3 65.2118 74.2989 242.6107 0.0000 2.0815 0.0000
# 4 0.0000 0.0000 0.0000 -63.8396 0.0000 45.4962
# 5 19.6732 3.3902 2.0815 0.0000 75.2150 0.0000
# 6 0.0000 0.0000 0.0000 45.4962 0.0000 22.6393
#
#
#
# Elastic Compliance Matrix: (Units=1/GPa)
#
#
# Indices 1 2 3 4 5 6 
#
# 1 0.007604 -0.002898 -0.001141 0.000000 -0.001827 0.000000
# 2 -0.002898 0.006490 -0.001213 0.000000 0.000499 0.000000
# 3 -0.001141 -0.001213 0.004798 0.000000 0.000220 0.000000
# 4 0.000000 0.000000 0.000000 -0.006440 0.000000 0.012943
# 5 -0.001827 0.000499 0.000220 0.000000 0.013744 0.000000
# 6 0.000000 0.000000 0.000000 0.012943 0.000000 0.018161
#
#
# Mechanical properties :
#
#
# Convention : Reuss Voigt Hill
#
# Bulk Modulus (GPa) = 119.20305 121.54207 120.37256
# Shear Modulus (GPa) = 86.72020 33.54022 60.13021
#
# Velocity S-wave (km/s) = 5.52377 3.43525 4.59962
# Velocity P-wave (km/s) = 9.08975 7.64843 8.40006
#
# Compressibility (1/GPa) = 0.00838905
#
# Stress axis : x y z
#
# Youngs Moduli (GPa) = 131.51402 154.07456 208.41845
#
# Poissons Ratio (x) = 0.44648 0.23774
# Poissons Ratio (y) = 0.38110 0.25282
# Poissons Ratio (z) = 0.15002 0.18690
#
# Static dielectric constant tensor:
#      x y z
#    x 2.307920 0.000000 0.182120 
#    y 0.000000 2.167240 0.000000 
#    z 0.182120 0.000000 2.499720 
# 
# From -- ./inp_files/738.got.cif
#   From: 2010.05.17/outbox.cif.g08.bks.cpg/sg3_1_cif.got.tgz:738.got - 2010.06.03 18:33:08.
