data_PCOD9114246
_publ_section_title
;
Structure prediction by ZEFSAII (Michael W. Deem and Ramdas Pophale) SiO2 
 PCOD9114246
Probable space group: P 2
;
_chemical_formula_sum "Si O2"
_cell_formula_units_Z 16
_cell_length_a 10.717262
_cell_length_b 6.400860
_cell_length_c 26.305256
_cell_angle_alpha 90.000000
_cell_angle_beta 23.583502
_cell_angle_gamma 90.000000
_cell_volume 721.966665
_symmetry_space_group_name_H-M "P 2"
_symmetry_group_IT_number 3
_symmetry_cell_setting 'monoclinic'
loop_
_space_group_symop_operation_xyz
x,y,z
-x,y,-z
loop_
_atom_site_type_symbol
_atom_site_label
_atom_site_fract_x
_atom_site_fract_y
_atom_site_fract_z
Si Si1 0.335147 0.348460 0.009212
Si Si2 0.112496 0.466383 0.338483
Si Si3 0.087282 0.689531 0.793734
Si Si4 0.737999 0.078875 0.213139
Si Si5 0.849949 0.747565 0.348105
Si Si6 0.313345 0.098275 0.204714
Si Si7 0.335212 0.784557 0.858320
Si Si8 0.313835 0.427094 0.410878
O O1 0.217200 0.582529 0.067357
O O2 0.016868 0.244771 0.107183
O O3 0.500000 0.272590 0.000000
O O4 0.566844 0.272099 0.879153
O O5 0.223789 0.232339 0.287248
O O6 0.401032 0.609017 0.250542
O O7 0.008836 0.582223 0.326215
O O8 0.805794 0.440774 0.487020
O O9 0.103950 0.670194 0.726751
O O10 0.391990 0.577147 0.702822
O O11 0.134484 0.927453 0.790573
O O12 0.430511 0.204053 0.345899
O O13 0.697076 0.938922 0.178051
O O14 0.500000 0.771464 0.500000
O O15 0.029100 0.967208 0.287876
O O16 0.557747 0.926282 0.133535
O O17 0.000000 0.692035 0.000000
O O18 0.000000 0.495236 0.500000
#
# Coordination Sequence:
#
# PCOD9114246 Si02
#       8
#     2   2   2   2   2   2   2   2
#     4  11  24  44  66 102 135 176 239 279 347 423
#     4  11  25  43  72 101 141 187 227 293 352 423
#     4  11  25  43  71  97 138 185 226 291 349 416
#     4  11  25  43  71  97 138 185 226 291 349 416
#     4  11  24  45  68 108 143 181 239 289 357 422
#     4  11  25  43  72 101 141 187 227 293 352 423
#     4  11  24  45  68 108 143 181 239 289 357 422
#     4  11  24  44  66 102 135 176 239 279 347 423
#
# _framework density 22.161687000000001
#
# number of rings (size 3 to 8) (size 9 to 14) (size 15 to 20)
#    0.000    1.000    2.500    3.000    3.500    6.000 
#    0.000    0.000    0.000    0.000    0.000    0.000 
#    0.000    0.000    0.000    0.000    0.000    0.000 
#
# Total GULP energy -89316.320925 kJ/mol
# GULP energy per Si atom -5582.270058 kJ/mol
# Density = 2.211125 g / cm^3
# Si number density = 22.161687 Si / 1000 Ang^3
#
#
#
# Elastic Constant Matrix: (Units=GPa)
#
#
# Indices 1 2 3 4 5 6 
#
# 1 81.0064 2.5266 4.4661 0.0000 -5.5434 0.0000
# 2 2.5266 56.5452 38.0132 0.0000 -3.0974 0.0000
# 3 4.4661 38.0132 103.7731 0.0000 -7.9744 0.0000
# 4 0.0000 0.0000 0.0000 21.5178 0.0000 -1.3558
# 5 -5.5434 -3.0974 -7.9744 0.0000 35.4902 0.0000
# 6 0.0000 0.0000 0.0000 -1.3558 0.0000 23.9543
#
#
#
# Elastic Compliance Matrix: (Units=1/GPa)
#
#
# Indices 1 2 3 4 5 6 
#
# 1 0.012497 -0.000253 -0.000302 0.000000 0.001862 0.000000
# 2 -0.000253 0.023469 -0.008580 0.000000 0.000081 0.000000
# 3 -0.000302 -0.008580 0.012955 0.000000 0.002115 0.000000
# 4 0.000000 0.000000 0.000000 0.046639 0.000000 0.002640
# 5 0.001862 0.000081 0.002115 0.000000 0.028950 0.000000
# 6 0.000000 0.000000 0.000000 0.002640 0.000000 0.041896
#
#
# Mechanical properties :
#
#
# Convention : Reuss Voigt Hill
#
# Bulk Modulus (GPa) = 32.62650 36.81517 34.72083
# Shear Modulus (GPa) = 25.65531 29.28039 27.46785
#
# Velocity S-wave (km/s) = 3.40611 3.63880 3.52437
# Velocity P-wave (km/s) = 5.49752 5.85684 5.68002
#
# Compressibility (1/GPa) = 0.03064993
#
# Stress axis : x y z
#
# Youngs Moduli (GPa) = 80.02132 42.61027 77.19174
#
# Poissons Ratio (x) = 0.01080 0.02330
# Poissons Ratio (y) = 0.02028 0.66228
# Poissons Ratio (z) = 0.02416 0.36558
#
# Static dielectric constant tensor:
#      x y z
#    x 1.863310 0.000000 0.037410 
#    y 0.000000 1.819180 0.000000 
#    z 0.037410 0.000000 1.849770 
# 
# From -- ./inp_files/12754.got.cif
#   From: 2010.05.17/outbox.cif.g08.bks.cpg/sg3_7_cif.got.tgz:12754.got - 2010.06.03 18:33:08.
