data_PCOD9114464
_publ_section_title
;
Structure prediction by ZEFSAII (Michael W. Deem and Ramdas Pophale) SiO2 
 PCOD9114464
Probable space group: P 21
;
_chemical_formula_sum "Si O2"
_cell_formula_units_Z 16
_cell_length_a 17.238046
_cell_length_b 5.684544
_cell_length_c 9.953186
_cell_angle_alpha 90.000000
_cell_angle_beta 123.197265
_cell_angle_gamma 90.000000
_cell_volume 816.135940
_symmetry_space_group_name_H-M "P 21"
_symmetry_group_IT_number 4
_symmetry_cell_setting 'monoclinic'
loop_
_space_group_symop_operation_xyz
x,y,z
-x,1/2+y,-z
loop_
_atom_site_type_symbol
_atom_site_label
_atom_site_fract_x
_atom_site_fract_y
_atom_site_fract_z
Si Si1 0.974467 0.053610 0.548782
Si Si2 0.219171 0.766592 0.674345
Si Si3 0.712811 0.959179 0.019958
Si Si4 0.440547 0.068184 0.070486
Si Si5 0.596064 0.391324 0.261751
Si Si6 0.686321 0.349654 0.835430
Si Si7 0.149135 0.076516 0.847287
Si Si8 0.451778 0.035744 0.495858
O O1 0.865956 0.113228 0.461362
O O2 0.011500 0.294963 0.507176
O O3 0.039342 0.046313 0.742886
O O4 0.277461 0.623354 0.840877
O O5 0.293720 0.857918 0.639330
O O6 0.178512 0.976387 0.728029
O O7 0.813447 0.838783 0.109779
O O8 0.629831 0.784394 0.972606
O O9 0.696349 0.071168 0.857711
O O10 0.542129 0.142607 0.212582
O O11 0.393138 0.885133 0.125494
O O12 0.435700 0.001757 0.910315
O O13 0.563195 0.534417 0.359084
O O14 0.646126 0.479634 0.669991
O O15 0.784585 0.444917 0.983485
O O16 0.508318 0.790155 0.513929
#
# Coordination Sequence:
#
# PCOD9114464 Si02
#       8
#     2   2   2   2   2   2   2   2
#     4  10  19  32  54  87 126 152 186 252 314 362
#     4  10  19  33  52  89 116 150 193 249 311 350
#     4  10  16  34  58  80 117 148 201 240 296 355
#     4  11  22  35  54  86 113 156 196 250 301 350
#     4  12  23  38  60  87 123 160 203 257 300 359
#     4  10  21  39  58  83 119 160 205 243 294 372
#     4   9  18  33  56  87 115 155 192 246 302 361
#     4  12  28  46  60  89 125 171 208 247 298 365
#
# _framework density 19.604578
#
# number of rings (size 3 to 8) (size 9 to 14) (size 15 to 20)
#    0.000    1.500    6.250    1.500    3.500    1.000 
#    0.000    0.000    0.000    0.000    3.250    0.000 
#    0.000    0.000    0.000    0.000    0.000    0.000 
#
# Total GULP energy -89075.297986 kJ/mol
# GULP energy per Si atom -5567.206124 kJ/mol
# Density = 1.955996 g / cm^3
# Si number density = 19.604578 Si / 1000 Ang^3
#
#
#
# Elastic Constant Matrix: (Units=GPa)
#
#
# Indices 1 2 3 4 5 6 
#
# 1 51.4570 0.9041 16.6756 0.0000 16.7080 0.0000
# 2 0.9041 57.0670 4.1115 0.0000 6.6069 0.0000
# 3 16.6756 4.1115 72.8730 0.0000 17.2871 0.0000
# 4 0.0000 0.0000 0.0000 28.6295 0.0000 10.4023
# 5 16.7080 6.6069 17.2871 0.0000 35.4082 0.0000
# 6 0.0000 0.0000 0.0000 10.4023 0.0000 18.0797
#
#
#
# Elastic Compliance Matrix: (Units=1/GPa)
#
#
# Indices 1 2 3 4 5 6 
#
# 1 0.023613 0.000986 -0.003135 0.000000 -0.009795 0.000000
# 2 0.000986 0.017955 -0.000377 0.000000 -0.003631 0.000000
# 3 -0.003135 -0.000377 0.015940 0.000000 -0.006232 0.000000
# 4 0.000000 0.000000 0.000000 0.044161 0.000000 -0.025408
# 5 -0.009795 -0.003631 -0.006232 0.000000 0.036584 0.000000
# 6 0.000000 0.000000 0.000000 -0.025408 0.000000 0.069929
#
#
# Mechanical properties :
#
#
# Convention : Reuss Voigt Hill
#
# Bulk Modulus (GPa) = 19.06411 24.97550 22.01981
# Shear Modulus (GPa) = 21.67121 27.07055 24.37088
#
# Velocity S-wave (km/s) = 3.32839 3.71998 3.52962
# Velocity P-wave (km/s) = 4.95139 5.58733 5.27895
#
# Compressibility (1/GPa) = 0.05245458
#
# Stress axis : x y z
#
# Youngs Moduli (GPa) = 42.34957 55.69407 62.73655
#
# Poissons Ratio (x) = -0.05491 0.19670
# Poissons Ratio (y) = -0.04175 0.02366
# Poissons Ratio (z) = 0.13278 0.02101
#
# Static dielectric constant tensor:
#      x y z
#    x 1.712580 0.000000 0.035210 
#    y 0.000000 1.830640 0.000000 
#    z 0.035210 0.000000 1.734570 
# 
# From -- ./inp_files/8695.got.cif
#   From: 2010.05.17/outbox.cif.g08.bks.cpg/sg4_5_cif.got.tgz:8695.got - 2010.06.03 18:43:04.
