data_PCOD9114021
_publ_section_title
;
Structure prediction by ZEFSAII (Michael W. Deem and Ramdas Pophale) SiO2 
 PCOD9114021
Probable space group: P 2
;
_chemical_formula_sum "Si O2"
_cell_formula_units_Z 12
_cell_length_a 8.675969
_cell_length_b 5.285744
_cell_length_c 19.320904
_cell_angle_alpha 90.000000
_cell_angle_beta 150.475550
_cell_angle_gamma 90.000000
_cell_volume 436.634237
_symmetry_space_group_name_H-M "P 2"
_symmetry_group_IT_number 3
_symmetry_cell_setting 'monoclinic'
loop_
_space_group_symop_operation_xyz
x,y,z
-x,y,-z
loop_
_atom_site_type_symbol
_atom_site_label
_atom_site_fract_x
_atom_site_fract_y
_atom_site_fract_z
Si Si1 0.299646 0.835320 0.199396
Si Si2 0.839955 0.204048 0.099918
Si Si3 0.460128 0.561092 0.127581
Si Si4 0.098620 0.778655 0.369578
Si Si5 0.625898 0.532005 0.642040
Si Si6 0.857138 0.186686 0.376855
O O1 0.294054 0.728873 0.119999
O O2 0.376043 0.604258 0.279623
O O3 0.608243 0.005929 0.318543
O O4 0.012847 0.992746 0.120685
O O5 0.104010 0.317996 0.256281
O O6 0.500000 0.134091 0.000000
O O7 0.747024 0.432438 0.011410
O O8 0.641448 0.345061 0.241027
O O9 0.741962 0.728180 0.209214
O O10 0.271967 0.533137 0.473670
O O11 0.263485 0.777486 0.359535
O O12 0.080594 0.004603 0.417442
O O13 0.000000 0.324797 0.500000
#
# Coordination Sequence:
#
# PCOD9114021 Si02
#       6
#     2   2   2   2   2   2
#     4  11  27  47  78 110 156 206 266 329 399 480
#     4  12  28  51  76 119 161 225 266 334 403 487
#     4  11  27  48  77 111 159 206 273 335 398 481
#     4  10  24  45  74 116 151 204 260 333 406 478
#     4  11  24  45  77 112 159 204 261 333 406 482
#     4  11  24  45  76 114 151 202 262 337 405 477
#
# _framework density 27.482955
#
# number of rings (size 3 to 8) (size 9 to 14) (size 15 to 20)
#    0.000    1.000    3.333    1.000    7.000    7.333 
#    0.000    3.333    0.000    0.000    0.000    0.000 
#    0.000    0.000    0.000    0.000    0.000    0.000 
#
# Total GULP energy -67096.971831 kJ/mol
# GULP energy per Si atom -5591.414319 kJ/mol
# Density = 2.742040 g / cm^3
# Si number density = 27.482955 Si / 1000 Ang^3
#
#
#
# Elastic Constant Matrix: (Units=GPa)
#
#
# Indices 1 2 3 4 5 6 
#
# 1 135.6125 31.7279 36.3945 0.0000 22.8191 0.0000
# 2 31.7279 87.2464 40.1738 0.0000 7.2770 0.0000
# 3 36.3945 40.1738 154.3716 0.0000 5.3175 0.0000
# 4 0.0000 0.0000 0.0000 36.3951 0.0000 -15.7185
# 5 22.8191 7.2770 5.3175 0.0000 51.7660 0.0000
# 6 0.0000 0.0000 0.0000 -15.7185 0.0000 27.9200
#
#
#
# Elastic Compliance Matrix: (Units=1/GPa)
#
#
# Indices 1 2 3 4 5 6 
#
# 1 0.008860 -0.002304 -0.001371 0.000000 -0.003441 0.000000
# 2 -0.002304 0.013737 -0.003011 0.000000 -0.000606 0.000000
# 3 -0.001371 -0.003011 0.007576 0.000000 0.000249 0.000000
# 4 0.000000 0.000000 0.000000 0.036303 0.000000 0.020438
# 5 -0.003441 -0.000606 0.000249 0.000000 0.020894 0.000000
# 6 0.000000 0.000000 0.000000 0.020438 0.000000 0.047323
#
#
# Mechanical properties :
#
#
# Convention : Reuss Voigt Hill
#
# Bulk Modulus (GPa) = 59.51772 65.98032 62.74902
# Shear Modulus (GPa) = 32.53863 41.14518 36.84190
#
# Velocity S-wave (km/s) = 3.44460 3.87346 3.66531
# Velocity P-wave (km/s) = 6.12565 6.63813 6.38703
#
# Compressibility (1/GPa) = 0.01680172
#
# Stress axis : x y z
#
# Youngs Moduli (GPa) = 112.86951 72.79874 131.99622
#
# Poissons Ratio (x) = 0.16771 0.18093
# Poissons Ratio (y) = 0.26003 0.39741
# Poissons Ratio (z) = 0.15471 0.21918
#
# Static dielectric constant tensor:
#      x y z
#    x 2.154930 0.000000 0.155670 
#    y 0.000000 2.156680 0.000000 
#    z 0.155670 0.000000 2.306600 
# 
# From -- ./inp_files/6526.got.cif
#   From: 2010.05.17/outbox.cif.g08.bks.cpg/sg3_4_cif.got.tgz:6526.got - 2010.06.03 18:33:08.
