data_PCOD9114339
_publ_section_title
;
Structure prediction by ZEFSAII (Michael W. Deem and Ramdas Pophale) SiO2 
 PCOD9114339
Probable space group: P 2
;
_chemical_formula_sum "Si O2"
_cell_formula_units_Z 13
_cell_length_a 14.146049
_cell_length_b 5.246260
_cell_length_c 9.301486
_cell_angle_alpha 90.000000
_cell_angle_beta 138.215627
_cell_angle_gamma 90.000000
_cell_volume 459.966391
_symmetry_space_group_name_H-M "P 2"
_symmetry_group_IT_number 3
_symmetry_cell_setting 'monoclinic'
loop_
_space_group_symop_operation_xyz
x,y,z
-x,y,-z
loop_
_atom_site_type_symbol
_atom_site_label
_atom_site_fract_x
_atom_site_fract_y
_atom_site_fract_z
Si Si1 0.763805 0.391170 0.307292
Si Si2 0.263875 0.680956 0.320121
Si Si3 0.500000 0.754531 0.000000
Si Si4 0.468421 0.979772 0.266747
Si Si5 0.167760 0.114149 0.899774
Si Si6 0.000000 0.740673 0.500000
Si Si7 0.500000 0.437874 0.500000
Si Si8 0.869438 0.179630 0.696093
O O1 0.774931 0.315330 0.152769
O O2 0.785617 0.164290 0.446314
O O3 0.902417 0.563412 0.486517
O O4 0.629062 0.565689 0.181053
O O5 0.466862 0.236307 0.595302
O O6 0.337299 0.529449 0.270998
O O7 0.177894 0.451301 0.295571
O O8 0.175814 0.932491 0.262921
O O9 0.535591 0.934524 0.906748
O O10 0.572620 0.756820 0.442509
O O11 0.304713 0.993143 0.130323
O O12 0.037515 0.186766 0.854140
O O13 0.096683 0.907366 0.712786
#
# Coordination Sequence:
#
# PCOD9114339 Si02
#       8
#     2   2   1   2   2   1   1   2
#     4  12  25  42  70 119 184 218 263 352 446 518
#     4  12  28  51  84 112 155 224 286 349 409 508
#     4  12  28  44  84 136 168 214 298 358 422 516
#     4  12  29  52  86 121 174 220 290 356 427 513
#     4  12  27  42  74 122 172 230 269 353 439 521
#     4  12  20  44  64 106 178 224 252 324 448 514
#     4  12  30  60  86 114 166 236 284 356 438 502
#     4  12  25  48  78 119 164 220 277 343 424 512
#
# _framework density 28.262931999999999
#
# number of rings (size 3 to 8) (size 9 to 14) (size 15 to 20)
#    0.000    0.000    7.692    1.385    6.462    0.000 
#    0.000    0.769    3.385    0.000    0.000    0.000 
#    0.000    0.000    0.000    0.000    0.000    0.000 
#
# Total GULP energy -72782.503264 kJ/mol
# GULP energy per Si atom -5598.654097 kJ/mol
# Density = 2.819860 g / cm^3
# Si number density = 28.262932 Si / 1000 Ang^3
#
#
#
# Elastic Constant Matrix: (Units=GPa)
#
#
# Indices 1 2 3 4 5 6 
#
# 1 170.3362 51.9032 34.7129 0.0000 36.8214 0.0000
# 2 51.9032 135.7071 19.7309 0.0000 28.1069 0.0000
# 3 34.7129 19.7309 116.2546 0.0000 29.2386 0.0000
# 4 0.0000 0.0000 0.0000 31.5243 0.0000 8.8296
# 5 36.8214 28.1069 29.2386 0.0000 60.8158 0.0000
# 6 0.0000 0.0000 0.0000 8.8296 0.0000 40.7338
#
#
#
# Elastic Compliance Matrix: (Units=1/GPa)
#
#
# Indices 1 2 3 4 5 6 
#
# 1 0.007361 -0.002037 -0.001101 0.000000 -0.002986 0.000000
# 2 -0.002037 0.008738 -0.000193 0.000000 -0.002712 0.000000
# 3 -0.001101 -0.000193 0.009980 0.000000 -0.004042 0.000000
# 4 0.000000 0.000000 0.000000 0.033772 0.000000 -0.007321
# 5 -0.002986 -0.002712 -0.004042 0.000000 0.021448 0.000000
# 6 0.000000 0.000000 0.000000 -0.007321 0.000000 0.026136
#
#
# Mechanical properties :
#
#
# Convention : Reuss Voigt Hill
#
# Bulk Modulus (GPa) = 51.50014 70.55465 61.02740
# Shear Modulus (GPa) = 41.46986 47.67816 44.57401
#
# Velocity S-wave (km/s) = 3.83467 4.11171 3.97560
# Velocity P-wave (km/s) = 6.15367 6.89633 6.53556
#
# Compressibility (1/GPa) = 0.01941742
#
# Stress axis : x y z
#
# Youngs Moduli (GPa) = 135.84476 114.44778 100.20029
#
# Poissons Ratio (x) = 0.23311 0.11035
# Poissons Ratio (y) = 0.27670 0.01930
# Poissons Ratio (z) = 0.14961 0.02204
#
# Static dielectric constant tensor:
#      x y z
#    x 2.577180 0.000000 0.003720 
#    y 0.000000 2.800680 0.000000 
#    z 0.003720 0.000000 2.185300 
# 
# From -- ./inp_files/12115.got.cif
#   From: 2010.05.17/outbox.cif.g08.bks.cpg/sg3_7_cif.got.tgz:12115.got - 2010.06.03 18:33:08.
