data_PCOD9114388
_publ_section_title
;
Structure prediction by ZEFSAII (Michael W. Deem and Ramdas Pophale) SiO2 
 PCOD9114388
Probable space group: P 2
;
_chemical_formula_sum "Si O2"
_cell_formula_units_Z 10
_cell_length_a 9.370890
_cell_length_b 5.896327
_cell_length_c 7.897200
_cell_angle_alpha 90.000000
_cell_angle_beta 116.080358
_cell_angle_gamma 90.000000
_cell_volume 391.920622
_symmetry_space_group_name_H-M "P 2"
_symmetry_group_IT_number 3
_symmetry_cell_setting 'monoclinic'
loop_
_space_group_symop_operation_xyz
x,y,z
-x,y,-z
loop_
_atom_site_type_symbol
_atom_site_label
_atom_site_fract_x
_atom_site_fract_y
_atom_site_fract_z
Si Si1 0.289751 0.286250 0.131986
Si Si2 0.000000 0.186369 0.500000
Si Si3 0.500000 0.581067 0.000000
Si Si4 0.500000 0.047423 0.500000
Si Si5 0.087874 0.545696 0.297344
Si Si6 0.000000 0.929462 0.000000
Si Si7 0.723476 0.827615 0.376816
O O1 0.442307 0.192908 0.312417
O O2 0.206188 0.465346 0.212892
O O3 0.157680 0.085241 0.057549
O O4 0.365264 0.420267 0.013901
O O5 0.000331 0.324930 0.677870
O O6 0.843014 0.031247 0.403009
O O7 0.408658 0.747077 0.822615
O O8 0.641243 0.894467 0.509566
O O9 0.004659 0.761443 0.166860
O O10 0.171636 0.615209 0.515484
#
# Coordination Sequence:
#
# PCOD9114388 Si02
#       7
#     2   1   1   1   2   1   2
#     4  12  28  56  84 123 170 222 279 354 413 512
#     4  12  28  54  88 116 168 224 294 346 410 504
#     4  12  32  54  88 132 172 216 286 340 446 492
#     4  12  24  60  80 112 178 220 264 354 424 474
#     4  12  26  54  84 120 164 226 284 342 423 493
#     4  12  28  54  88 116 168 224 294 346 410 504
#     4  12  28  56  84 123 170 222 279 354 413 512
#
# _framework density 25.515369
#
# number of rings (size 3 to 8) (size 9 to 14) (size 15 to 20)
#    0.000    0.000    4.000    3.600    0.000   10.400 
#    7.200    0.000    0.000    0.000    0.000    0.000 
#    0.000    0.000    0.000    0.000    0.000    0.000 
#
# Total GULP energy -56013.165340 kJ/mol
# GULP energy per Si atom -5601.316534 kJ/mol
# Density = 2.545729 g / cm^3
# Si number density = 25.515369 Si / 1000 Ang^3
#
#
#
# Elastic Constant Matrix: (Units=GPa)
#
#
# Indices 1 2 3 4 5 6 
#
# 1 144.4706 56.9458 12.5894 0.0000 -22.7510 0.0000
# 2 56.9458 123.0547 51.6266 0.0000 -0.8500 0.0000
# 3 12.5894 51.6266 125.3006 0.0000 10.1332 0.0000
# 4 0.0000 0.0000 0.0000 -91.4095 0.0000 -22.1734
# 5 -22.7510 -0.8500 10.1332 0.0000 46.6750 0.0000
# 6 0.0000 0.0000 0.0000 -22.1734 0.0000 13.9502
#
#
#
# Elastic Compliance Matrix: (Units=1/GPa)
#
#
# Indices 1 2 3 4 5 6 
#
# 1 0.009344 -0.004537 0.000579 0.000000 0.004346 0.000000
# 2 -0.004537 0.012081 -0.004439 0.000000 -0.001028 0.000000
# 3 0.000579 -0.004439 0.009909 0.000000 -0.001950 0.000000
# 4 0.000000 0.000000 0.000000 -0.007896 0.000000 -0.012550
# 5 0.004346 -0.001028 -0.001950 0.000000 0.023948 0.000000
# 6 0.000000 0.000000 0.000000 -0.012550 0.000000 0.051736
#
#
# Mechanical properties :
#
#
# Convention : Reuss Voigt Hill
#
# Bulk Modulus (GPa) = 68.77108 70.57218 69.67163
# Shear Modulus (GPa) = 41.40318 11.95409 26.67863
#
# Velocity S-wave (km/s) = 4.03262 2.16685 3.23707
# Velocity P-wave (km/s) = 6.97811 5.82915 6.42935
#
# Compressibility (1/GPa) = 0.01454100
#
# Stress axis : x y z
#
# Youngs Moduli (GPa) = 107.01816 82.77290 100.91649
#
# Poissons Ratio (x) = 0.37555 -0.05844
# Poissons Ratio (y) = 0.48555 0.44794
# Poissons Ratio (z) = -0.06197 0.36741
#
# Static dielectric constant tensor:
#      x y z
#    x 1.991970 0.000000 0.058570 
#    y 0.000000 2.120860 0.000000 
#    z 0.058570 0.000000 2.066120 
# 
# From -- ./inp_files/4912.got.cif
#   From: 2010.05.17/outbox.cif.g08.bks.cpg/sg3_3_cif.got.tgz:4912.got - 2010.06.03 18:33:08.
