data_PCOD9114851
_publ_section_title
;
Structure prediction by ZEFSAII (Michael W. Deem and Ramdas Pophale) SiO2 
 PCOD9114851
Probable space group: P 21
;
_chemical_formula_sum "Si O2"
_cell_formula_units_Z 16
_cell_length_a 10.763713
_cell_length_b 8.876632
_cell_length_c 8.799895
_cell_angle_alpha 90.000000
_cell_angle_beta 65.263998
_cell_angle_gamma 90.000000
_cell_volume 763.644163
_symmetry_space_group_name_H-M "P 21"
_symmetry_group_IT_number 4
_symmetry_cell_setting 'monoclinic'
loop_
_space_group_symop_operation_xyz
x,y,z
-x,1/2+y,-z
loop_
_atom_site_type_symbol
_atom_site_label
_atom_site_fract_x
_atom_site_fract_y
_atom_site_fract_z
Si Si1 0.275689 0.263660 0.361005
Si Si2 0.229243 0.127154 0.078871
Si Si3 0.079327 0.094637 0.659015
Si Si4 0.546766 0.203176 0.390025
Si Si5 0.785420 0.014468 0.359340
Si Si6 0.641370 0.548909 0.292168
Si Si7 0.059685 0.856438 0.121530
Si Si8 0.045640 0.788124 0.789377
O O1 0.280783 0.243031 0.178669
O O2 0.141334 0.166457 0.476158
O O3 0.418822 0.192545 0.342518
O O4 0.258435 0.416440 0.471071
O O5 0.092513 0.207394 0.087219
O O6 0.335729 0.085465 0.894912
O O7 0.164137 0.964541 0.157477
O O8 0.217062 0.089066 0.693127
O O9 0.961556 0.196483 0.790600
O O10 0.023263 0.927136 0.689666
O O11 0.659981 0.071258 0.319365
O O12 0.602548 0.374393 0.348269
O O13 0.475236 0.161046 0.586102
O O14 0.859510 0.173181 0.351117
O O15 0.905527 0.924716 0.211186
O O16 0.104588 0.841948 0.922881
#
# Coordination Sequence:
#
# PCOD9114851 Si02
#       8
#     2   2   2   2   2   2   2   2
#     4  10  24  40  58  94 132 172 214 266 327 379
#     4  11  23  40  61  94 137 165 206 278 330 378
#     4  10  19  35  61  96 122 167 217 254 322 390
#     4  11  21  40  68  91 123 178 228 258 311 388
#     4  10  20  37  65  89 125 171 219 262 312 391
#     4  11  21  38  66  93 127 170 218 272 308 387
#     4  10  19  36  62  98 128 163 211 267 321 387
#     4  11  19  34  67  95 124 168 213 263 327 380
#
# _framework density 20.952168
#
# number of rings (size 3 to 8) (size 9 to 14) (size 15 to 20)
#    0.000    1.500    5.000    0.750    0.000    3.000 
#    0.000    3.750    0.000    0.000    0.000    0.000 
#    0.000    0.000    0.000    0.000    0.000    0.000 
#
# Total GULP energy -89110.579314 kJ/mol
# GULP energy per Si atom -5569.411207 kJ/mol
# Density = 2.090448 g / cm^3
# Si number density = 20.952168 Si / 1000 Ang^3
#
#
#
# Elastic Constant Matrix: (Units=GPa)
#
#
# Indices 1 2 3 4 5 6 
#
# 1 45.5269 11.2654 24.1114 0.0000 -6.0422 0.0000
# 2 11.2654 107.4833 34.3115 0.0000 -4.9198 0.0000
# 3 24.1114 34.3115 87.2819 0.0000 -7.7226 0.0000
# 4 0.0000 0.0000 0.0000 25.1283 0.0000 -7.4650
# 5 -6.0422 -4.9198 -7.7226 0.0000 23.5314 0.0000
# 6 0.0000 0.0000 0.0000 -7.4650 0.0000 25.1253
#
#
#
# Elastic Compliance Matrix: (Units=1/GPa)
#
#
# Indices 1 2 3 4 5 6 
#
# 1 0.026195 -0.000409 -0.006682 0.000000 0.004448 0.000000
# 2 -0.000409 0.010663 -0.004007 0.000000 0.000809 0.000000
# 3 -0.006682 -0.004007 0.015091 0.000000 0.002399 0.000000
# 4 0.000000 0.000000 0.000000 0.043648 0.000000 0.012968
# 5 0.004448 0.000809 0.002399 0.000000 0.044595 0.000000
# 6 0.000000 0.000000 0.000000 0.012968 0.000000 0.043654
#
#
# Mechanical properties :
#
#
# Convention : Reuss Voigt Hill
#
# Bulk Modulus (GPa) = 33.61057 42.18540 37.89799
# Shear Modulus (GPa) = 23.15250 26.13060 24.64155
#
# Velocity S-wave (km/s) = 3.32779 3.53534 3.43313
# Velocity P-wave (km/s) = 5.55355 6.06982 5.81741
#
# Compressibility (1/GPa) = 0.02975254
#
# Stress axis : x y z
#
# Youngs Moduli (GPa) = 38.17459 93.78355 66.26660
#
# Poissons Ratio (x) = 0.03834 0.44280
# Poissons Ratio (y) = 0.01561 0.26554
# Poissons Ratio (z) = 0.25509 0.37580
#
# Static dielectric constant tensor:
#      x y z
#    x 1.790970 0.000000 -0.018340 
#    y 0.000000 1.816230 0.000000 
#    z -0.018340 0.000000 1.778750 
# 
# From -- ./inp_files/7782.got.cif
#   From: 2010.05.17/outbox.cif.g08.bks.cpg/sg4_4_cif.got.tgz:7782.got - 2010.06.03 18:43:04.
