data_PCOD9114285
_publ_section_title
;
Structure prediction by ZEFSAII (Michael W. Deem and Ramdas Pophale) SiO2 
 PCOD9114285
Probable space group: P 2
;
_chemical_formula_sum "Si O2"
_cell_formula_units_Z 13
_cell_length_a 18.592333
_cell_length_b 6.037597
_cell_length_c 13.544471
_cell_angle_alpha 90.000000
_cell_angle_beta 158.841700
_cell_angle_gamma 90.000000
_cell_volume 548.784964
_symmetry_space_group_name_H-M "P 2"
_symmetry_group_IT_number 3
_symmetry_cell_setting 'monoclinic'
loop_
_space_group_symop_operation_xyz
x,y,z
-x,y,-z
loop_
_atom_site_type_symbol
_atom_site_label
_atom_site_fract_x
_atom_site_fract_y
_atom_site_fract_z
Si Si1 0.500000 0.504740 0.500000
Si Si2 0.714867 0.847820 0.655114
Si Si3 0.471939 0.126372 0.749146
Si Si4 0.871778 0.187956 0.008688
Si Si5 0.784908 0.509575 0.581614
Si Si6 0.285179 0.823092 0.679741
Si Si7 0.070162 0.085566 0.688087
O O1 0.547657 0.675782 0.474867
O O2 0.686576 0.350386 0.757878
O O3 0.821710 0.695801 0.710398
O O4 0.615555 0.043121 0.466337
O O5 0.823193 0.961934 0.887019
O O6 0.430783 0.388990 0.696600
O O7 0.351869 0.016493 0.686956
O O8 0.698011 0.042591 0.039975
O O9 0.059560 0.313295 0.202856
O O10 0.913545 0.169033 0.178440
O O11 0.804703 0.627616 0.501740
O O12 0.109288 0.905769 0.527152
O O13 0.500000 0.757561 0.000000
O O14 0.000000 0.219408 0.500000
#
# Coordination Sequence:
#
# PCOD9114285 Si02
#       7
#     1   2   2   2   2   2   2
#     4  12  26  46  74 112 160 200 260 324 396 492
#     4  11  26  47  75 108 159 206 250 334 392 476
#     4  11  24  49  76 112 155 202 262 325 402 467
#     4  12  27  47  73 118 155 205 267 321 399 470
#     4  11  27  47  77 112 157 209 267 327 398 477
#     4  11  25  49  75 113 153 206 268 334 390 474
#     4  12  25  47  80 106 150 209 252 328 394 454
#
# _framework density 23.688694999999999
#
# number of rings (size 3 to 8) (size 9 to 14) (size 15 to 20)
#    0.000    0.615    3.077    4.154    4.308    5.538 
#    0.000    0.769    0.000    0.000    0.000    0.000 
#    0.000    0.000    0.000    0.000    0.000    0.000 
#
# Total GULP energy -72583.983782 kJ/mol
# GULP energy per Si atom -5583.383368 kJ/mol
# Density = 2.363478 g / cm^3
# Si number density = 23.688695 Si / 1000 Ang^3
#
#
#
# Elastic Constant Matrix: (Units=GPa)
#
#
# Indices 1 2 3 4 5 6 
#
# 1 99.2628 38.9706 54.3581 0.0000 -4.4315 0.0000
# 2 38.9706 84.6596 32.9554 0.0000 4.4658 0.0000
# 3 54.3581 32.9554 121.3387 0.0000 13.9246 0.0000
# 4 0.0000 0.0000 0.0000 40.8806 0.0000 -0.4352
# 5 -4.4315 4.4658 13.9246 0.0000 57.7611 0.0000
# 6 0.0000 0.0000 0.0000 -0.4352 0.0000 45.9871
#
#
#
# Elastic Compliance Matrix: (Units=1/GPa)
#
#
# Indices 1 2 3 4 5 6 
#
# 1 0.015370 -0.004941 -0.005886 0.000000 0.002980 0.000000
# 2 -0.004941 0.014799 -0.001677 0.000000 -0.001119 0.000000
# 3 -0.005886 -0.001677 0.011694 0.000000 -0.003141 0.000000
# 4 0.000000 0.000000 0.000000 0.024464 0.000000 0.000232
# 5 0.002980 -0.001119 -0.003141 0.000000 0.018385 0.000000
# 6 0.000000 0.000000 0.000000 0.000232 0.000000 0.021747
#
#
# Mechanical properties :
#
#
# Convention : Reuss Voigt Hill
#
# Bulk Modulus (GPa) = 59.33122 61.98104 60.65613
# Shear Modulus (GPa) = 36.47345 40.85756 38.66551
#
# Velocity S-wave (km/s) = 3.92816 4.15754 4.04448
# Velocity P-wave (km/s) = 6.75829 7.01915 6.88995
#
# Compressibility (1/GPa) = 0.01685453
#
# Stress axis : x y z
#
# Youngs Moduli (GPa) = 65.06014 67.57425 85.51362
#
# Poissons Ratio (x) = 0.33391 0.50330
# Poissons Ratio (y) = 0.32149 0.14342
# Poissons Ratio (z) = 0.38292 0.11333
#
# Static dielectric constant tensor:
#      x y z
#    x 1.932860 0.000000 0.099460 
#    y 0.000000 1.847620 0.000000 
#    z 0.099460 0.000000 1.854210 
# 
# From -- ./inp_files/14304.got.cif
#   From: 2010.05.17/outbox.cif.g08.bks.cpg/sg3_8_cif.got.tgz:14304.got - 2010.06.03 18:33:08.
