data_PCOD9114564
_publ_section_title
;
Structure prediction by ZEFSAII (Michael W. Deem and Ramdas Pophale) SiO2 
 PCOD9114564
Probable space group: P 21
;
_chemical_formula_sum "Si O2"
_cell_formula_units_Z 16
_cell_length_a 12.774964
_cell_length_b 5.574551
_cell_length_c 9.957991
_cell_angle_alpha 90.000000
_cell_angle_beta 124.370061
_cell_angle_gamma 90.000000
_cell_volume 585.342822
_symmetry_space_group_name_H-M "P 21"
_symmetry_group_IT_number 4
_symmetry_cell_setting 'monoclinic'
loop_
_space_group_symop_operation_xyz
x,y,z
-x,1/2+y,-z
loop_
_atom_site_type_symbol
_atom_site_label
_atom_site_fract_x
_atom_site_fract_y
_atom_site_fract_z
Si Si1 0.887180 0.986940 0.038874
Si Si2 0.267904 0.969528 0.465614
Si Si3 0.470776 0.485418 0.203495
Si Si4 0.208169 0.483225 0.756749
Si Si5 0.943592 0.713279 0.546509
Si Si6 0.352158 0.471532 0.414523
Si Si7 0.526854 0.987901 0.207109
Si Si8 0.037919 0.490437 0.192040
O O1 0.964413 0.740555 0.122951
O O2 0.778770 0.982280 0.072716
O O3 0.954403 0.246508 0.107604
O O4 0.865585 0.977888 0.864504
O O5 0.375679 0.977717 0.657487
O O6 0.129617 0.003679 0.428207
O O7 0.294345 0.205508 0.395829
O O8 0.283260 0.724752 0.397212
O O9 0.412585 0.485272 0.311112
O O10 0.450016 0.228282 0.120145
O O11 0.455764 0.741394 0.121489
O O12 0.132748 0.251817 0.645152
O O13 0.336463 0.500935 0.766460
O O14 0.093316 0.673213 0.646563
O O15 0.916247 0.940256 0.623998
O O16 0.451668 0.478218 0.614808
#
# Coordination Sequence:
#
# PCOD9114564 Si02
#       8
#     2   2   2   2   2   2   2   2
#     4   9  19  36  53  69  95 140 188 218 244 293
#     4  10  19  30  45  69  97 131 167 206 245 308
#     4  10  18  32  48  65  96 138 165 207 257 306
#     4  11  22  32  50  78 111 146 169 210 262 312
#     4  11  22  32  50  78 111 146 169 210 262 312
#     4  10  18  32  48  65  96 138 165 207 257 306
#     4  10  19  30  45  69  97 131 167 206 245 308
#     4   9  19  36  53  69  95 140 188 218 244 293
#
# _framework density 27.334409000000001
#
# number of rings (size 3 to 8) (size 9 to 14) (size 15 to 20)
#    0.000    2.000    2.500    4.500    3.500    4.000 
#    0.000    0.000    0.000    0.000    0.000    0.000 
#    0.000    6.000    0.000    0.500    0.000    0.000 
#
# Total GULP energy -89457.465941 kJ/mol
# GULP energy per Si atom -5591.091621 kJ/mol
# Density = 2.727219 g / cm^3
# Si number density = 27.334409 Si / 1000 Ang^3
#
#
#
# Elastic Constant Matrix: (Units=GPa)
#
#
# Indices 1 2 3 4 5 6 
#
# 1 156.9289 70.0917 24.6828 0.0000 -28.2637 0.0000
# 2 70.0917 256.4539 36.0204 0.0000 -1.7675 0.0000
# 3 24.6828 36.0204 64.5994 0.0000 -28.3120 0.0000
# 4 0.0000 0.0000 0.0000 30.5867 0.0000 0.5369
# 5 -28.2637 -1.7675 -28.3120 0.0000 43.5198 0.0000
# 6 0.0000 0.0000 0.0000 0.5369 0.0000 55.5624
#
#
#
# Elastic Compliance Matrix: (Units=1/GPa)
#
#
# Indices 1 2 3 4 5 6 
#
# 1 0.008347 -0.002329 0.000621 0.000000 0.005730 0.000000
# 2 -0.002329 0.004997 -0.003455 0.000000 -0.003558 0.000000
# 3 0.000621 -0.003455 0.024178 0.000000 0.015992 0.000000
# 4 0.000000 0.000000 0.000000 0.032699 0.000000 -0.000316
# 5 0.005730 -0.003558 0.015992 0.000000 0.036959 0.000000
# 6 0.000000 0.000000 0.000000 -0.000316 0.000000 0.018001
#
#
# Mechanical properties :
#
#
# Convention : Reuss Voigt Hill
#
# Bulk Modulus (GPa) = 36.77202 82.17467 59.47334
# Shear Modulus (GPa) = 34.58452 49.07963 41.83207
#
# Velocity S-wave (km/s) = 3.56088 4.24196 3.91625
# Velocity P-wave (km/s) = 5.51256 7.35665 6.50033
#
# Compressibility (1/GPa) = 0.02719459
#
# Stress axis : x y z
#
# Youngs Moduli (GPa) = 119.80443 200.13254 41.35911
#
# Poissons Ratio (x) = 0.46611 -0.02567
# Poissons Ratio (y) = 0.27902 0.14291
# Poissons Ratio (z) = -0.07436 0.69154
#
# Static dielectric constant tensor:
#      x y z
#    x 2.197190 0.000000 0.067730 
#    y 0.000000 2.168580 0.000000 
#    z 0.067730 0.000000 2.198930 
# 
# From -- ./inp_files/11773.got.cif
#   From: 2010.05.17/outbox.cif.g08.bks.cpg/sg4_6_cif.got.tgz:11773.got - 2010.06.03 18:43:04.
