data_PCOD9114110
_publ_section_title
;
Structure prediction by ZEFSAII (Michael W. Deem and Ramdas Pophale) SiO2 
 PCOD9114110
Probable space group: P 2
;
_chemical_formula_sum "Si O2"
_cell_formula_units_Z 13
_cell_length_a 11.364136
_cell_length_b 5.375664
_cell_length_c 11.061851
_cell_angle_alpha 90.000000
_cell_angle_beta 124.106047
_cell_angle_gamma 90.000000
_cell_volume 559.535039
_symmetry_space_group_name_H-M "P 2"
_symmetry_group_IT_number 3
_symmetry_cell_setting 'monoclinic'
loop_
_space_group_symop_operation_xyz
x,y,z
-x,y,-z
loop_
_atom_site_type_symbol
_atom_site_label
_atom_site_fract_x
_atom_site_fract_y
_atom_site_fract_z
Si Si1 0.164376 0.875000 0.258403
Si Si2 0.767395 0.563918 0.924977
Si Si3 0.779643 0.363194 0.561506
Si Si4 0.764253 0.668799 0.189736
Si Si5 0.500000 0.007075 0.000000
Si Si6 0.545254 0.371991 0.228402
Si Si7 0.000000 0.159824 0.000000
Si Si8 0.000000 0.529949 0.500000
O O1 0.219475 0.796966 0.157436
O O2 0.188939 0.622384 0.349069
O O3 0.227299 0.111036 0.365058
O O4 0.012715 0.989655 0.127659
O O5 0.599950 0.516923 0.836417
O O6 0.819799 0.576403 0.093367
O O7 0.864387 0.343610 0.925590
O O8 0.633717 0.369729 0.402004
O O9 0.906634 0.361103 0.536087
O O10 0.653329 0.482817 0.190822
O O11 0.892446 0.695321 0.357812
O O12 0.656559 0.887608 0.097622
O O13 0.504212 0.127437 0.869045
#
# Coordination Sequence:
#
# PCOD9114110 Si02
#       8
#     2   2   2   2   1   2   1   1
#     4  12  28  50  74 111 162 207 260 325 386 486
#     4  12  25  50  76 114 159 215 263 327 392 482
#     4  11  28  53  74 118 160 203 271 322 408 470
#     4  11  24  46  77 117 155 205 271 329 401 467
#     4  12  22  44  80 120 150 202 268 334 398 476
#     4  11  26  49  76 114 153 205 269 332 400 469
#     4  12  28  48  74 112 152 216 266 318 394 476
#     4  10  26  48  82 116 160 214 254 350 396 470
#
# _framework density 23.233574000000001
#
# number of rings (size 3 to 8) (size 9 to 14) (size 15 to 20)
#    0.000    0.615    4.615    1.385    8.615    1.231 
#    5.538    0.000    0.000    0.000    0.000    0.000 
#    0.000    0.000    0.000    0.000    0.000    0.000 
#
# Total GULP energy -72519.189158 kJ/mol
# GULP energy per Si atom -5578.399166 kJ/mol
# Density = 2.318069 g / cm^3
# Si number density = 23.233574 Si / 1000 Ang^3
#
#
#
# Elastic Constant Matrix: (Units=GPa)
#
#
# Indices 1 2 3 4 5 6 
#
# 1 73.5791 45.0893 59.9783 0.0000 -6.3961 0.0000
# 2 45.0893 127.7985 81.3543 0.0000 -6.0348 0.0000
# 3 59.9783 81.3543 202.5581 0.0000 -4.8161 0.0000
# 4 0.0000 0.0000 0.0000 44.0551 0.0000 -2.9972
# 5 -6.3961 -6.0348 -4.8161 0.0000 30.8957 0.0000
# 6 0.0000 0.0000 0.0000 -2.9972 0.0000 25.0431
#
#
#
# Elastic Compliance Matrix: (Units=1/GPa)
#
#
# Indices 1 2 3 4 5 6 
#
# 1 0.019746 -0.004246 -0.004079 0.000000 0.002623 0.000000
# 2 -0.004246 0.011486 -0.003336 0.000000 0.000845 0.000000
# 3 -0.004079 -0.003336 0.007477 0.000000 -0.000331 0.000000
# 4 0.000000 0.000000 0.000000 0.022885 0.000000 0.002739
# 5 0.002623 0.000845 -0.000331 0.000000 0.033023 0.000000
# 6 0.000000 0.000000 0.000000 0.002739 0.000000 0.040259
#
#
# Mechanical properties :
#
#
# Convention : Reuss Voigt Hill
#
# Bulk Modulus (GPa) = 64.99155 86.30884 75.65019
# Shear Modulus (GPa) = 30.61329 34.49970 32.55650
#
# Velocity S-wave (km/s) = 3.63386 3.85763 3.74741
# Velocity P-wave (km/s) = 6.75577 7.55452 7.16628
#
# Compressibility (1/GPa) = 0.01538661
#
# Stress axis : x y z
#
# Youngs Moduli (GPa) = 50.64332 87.05935 133.74938
#
# Poissons Ratio (x) = 0.36967 0.54558
# Poissons Ratio (y) = 0.21504 0.44618
# Poissons Ratio (z) = 0.20658 0.29043
#
# Static dielectric constant tensor:
#      x y z
#    x 1.972980 0.000000 -0.058220 
#    y 0.000000 2.011540 0.000000 
#    z -0.058220 0.000000 1.907010 
# 
# From -- ./inp_files/11184.got.cif
#   From: 2010.05.17/outbox.cif.g08.bks.cpg/sg3_6_cif.got.tgz:11184.got - 2010.06.03 18:33:08.
