data_PCOD9114117
_publ_section_title
;
Structure prediction by ZEFSAII (Michael W. Deem and Ramdas Pophale) SiO2 
 PCOD9114117
Probable space group: P 2
;
_chemical_formula_sum "Si O2"
_cell_formula_units_Z 13
_cell_length_a 8.866851
_cell_length_b 6.858332
_cell_length_c 8.608136
_cell_angle_alpha 90.000000
_cell_angle_beta 87.456676
_cell_angle_gamma 90.000000
_cell_volume 522.960665
_symmetry_space_group_name_H-M "P 2"
_symmetry_group_IT_number 3
_symmetry_cell_setting 'monoclinic'
loop_
_space_group_symop_operation_xyz
x,y,z
-x,y,-z
loop_
_atom_site_type_symbol
_atom_site_label
_atom_site_fract_x
_atom_site_fract_y
_atom_site_fract_z
Si Si1 0.065272 0.083520 0.207457
Si Si2 0.339056 0.565361 0.597070
Si Si3 0.000000 0.447372 0.000000
Si Si4 0.255373 0.749394 0.019331
Si Si5 0.728046 0.956812 0.278689
Si Si6 0.274505 0.204910 0.440400
Si Si7 0.547701 0.409207 0.836166
O O1 0.134132 0.095890 0.375246
O O2 0.158988 0.912205 0.117705
O O3 0.070116 0.295671 0.122458
O O4 0.888443 0.040670 0.222422
O O5 0.500000 0.592842 0.500000
O O6 0.254473 0.763023 0.622370
O O7 0.237192 0.415655 0.509865
O O8 0.397181 0.477579 0.755844
O O9 0.866497 0.597828 0.050080
O O10 0.356707 0.604980 0.122336
O O11 0.340426 0.874555 0.880127
O O12 0.656017 0.098206 0.411894
O O13 0.372913 0.259064 0.284056
O O14 0.500000 0.314426 0.000000
#
# Coordination Sequence:
#
# PCOD9114117 Si02
#       7
#     2   2   1   2   2   2   2
#     4  12  26  47  74 116 151 205 263 312 404 464
#     4  10  26  50  73 105 157 203 259 319 389 455
#     4  12  22  46  76 102 154 194 264 330 368 452
#     4  12  25  46  79 109 150 205 262 327 376 469
#     4  12  25  47  75 113 151 199 254 326 395 455
#     4  11  28  46  71 112 161 196 260 321 390 468
#     4  11  24  50  79 109 144 213 267 311 390 464
#
# _framework density 24.858466
#
# number of rings (size 3 to 8) (size 9 to 14) (size 15 to 20)
#    0.000    0.615    6.154    0.462    6.462    3.077 
#    5.538    0.769    3.385    0.000    0.000    0.000 
#    0.000    0.000    0.000    0.000    0.000    0.000 
#
# Total GULP energy -72591.716970 kJ/mol
# GULP energy per Si atom -5583.978228 kJ/mol
# Density = 2.480189 g / cm^3
# Si number density = 24.858466 Si / 1000 Ang^3
#
#
#
# Elastic Constant Matrix: (Units=GPa)
#
#
# Indices 1 2 3 4 5 6 
#
# 1 59.3005 24.7390 42.5561 0.0000 5.2407 0.0000
# 2 24.7390 131.5204 65.0211 0.0000 -11.2193 0.0000
# 3 42.5561 65.0211 152.6976 0.0000 -12.1631 0.0000
# 4 0.0000 0.0000 0.0000 60.0805 0.0000 2.8937
# 5 5.2407 -11.2193 -12.1631 0.0000 40.4974 0.0000
# 6 0.0000 0.0000 0.0000 2.8937 0.0000 38.0826
#
#
#
# Elastic Compliance Matrix: (Units=1/GPa)
#
#
# Indices 1 2 3 4 5 6 
#
# 1 0.022250 -0.001716 -0.005878 0.000000 -0.005120 0.000000
# 2 -0.001716 0.009850 -0.003566 0.000000 0.001880 0.000000
# 3 -0.005878 -0.003566 0.009925 0.000000 0.002754 0.000000
# 4 0.000000 0.000000 0.000000 0.016705 0.000000 -0.001269
# 5 -0.005120 0.001880 0.002754 0.000000 0.026703 0.000000
# 6 0.000000 0.000000 0.000000 -0.001269 0.000000 0.026355
#
#
# Mechanical properties :
#
#
# Convention : Reuss Voigt Hill
#
# Bulk Modulus (GPa) = 50.75108 67.57232 59.16170
# Shear Modulus (GPa) = 35.54245 41.81225 38.67735
#
# Velocity S-wave (km/s) = 3.78536 4.10568 3.94877
# Velocity P-wave (km/s) = 6.29012 7.05105 6.68143
#
# Compressibility (1/GPa) = 0.01970401
#
# Stress axis : x y z
#
# Youngs Moduli (GPa) = 44.94385 101.52773 100.75621
#
# Poissons Ratio (x) = 0.17422 0.59226
# Poissons Ratio (y) = 0.07712 0.35931
# Poissons Ratio (z) = 0.26419 0.36206
#
# Static dielectric constant tensor:
#      x y z
#    x 1.985490 0.000000 -0.064670 
#    y 0.000000 1.957150 0.000000 
#    z -0.064670 0.000000 2.070680 
# 
# From -- ./inp_files/6552.got.cif
#   From: 2010.05.17/outbox.cif.g08.bks.cpg/sg3_4_cif.got.tgz:6552.got - 2010.06.03 18:33:08.
