data_PCOD9114084
_publ_section_title
;
Structure prediction by ZEFSAII (Michael W. Deem and Ramdas Pophale) SiO2 
 PCOD9114084
Probable space group: P 2
;
_chemical_formula_sum "Si O2"
_cell_formula_units_Z 15
_cell_length_a 13.283831
_cell_length_b 5.238384
_cell_length_c 9.894863
_cell_angle_alpha 90.000000
_cell_angle_beta 59.330435
_cell_angle_gamma 90.000000
_cell_volume 592.231079
_symmetry_space_group_name_H-M "P 2"
_symmetry_group_IT_number 3
_symmetry_cell_setting 'monoclinic'
loop_
_space_group_symop_operation_xyz
x,y,z
-x,y,-z
loop_
_atom_site_type_symbol
_atom_site_label
_atom_site_fract_x
_atom_site_fract_y
_atom_site_fract_z
Si Si1 0.066517 0.184710 0.696420
Si Si2 0.657344 0.675329 0.412425
Si Si3 0.500000 0.205364 0.000000
Si Si4 0.528593 0.804808 0.761160
Si Si5 0.914559 0.687007 0.745786
Si Si6 0.208599 0.829890 0.433336
Si Si7 0.736369 0.178133 0.224539
Si Si8 0.683405 0.461842 0.999680
O O1 0.138664 0.199172 0.786741
O O2 0.990226 0.433422 0.719562
O O3 0.162805 0.106379 0.514970
O O4 0.981921 0.937468 0.750068
O O5 0.445148 0.766705 0.415675
O O6 0.768152 0.681816 0.441688
O O7 0.654715 0.391958 0.355083
O O8 0.687853 0.895264 0.284228
O O9 0.626486 0.342155 0.903849
O O10 0.517784 0.047566 0.125887
O O11 0.663116 0.815955 0.719648
O O12 0.436123 0.590427 0.863754
O O13 0.880455 0.719951 0.612321
O O14 0.789158 0.653264 0.903265
O O15 0.735543 0.262671 0.071145
#
# Coordination Sequence:
#
# PCOD9114084 Si02
#       8
#     2   2   1   2   2   2   2   2
#     4  11  26  47  74 115 155 207 264 324 373 463
#     4   9  24  45  77 110 151 190 255 316 378 456
#     4  12  26  50  76 116 158 196 264 306 410 472
#     4  10  25  49  77 113 155 200 249 334 387 473
#     4  12  27  46  77 115 158 209 260 319 394 455
#     4   9  22  46  75 114 149 198 254 330 382 448
#     4  11  25  52  75 111 150 203 260 315 386 454
#     4  12  30  48  79 114 159 208 255 323 398 483
#
# _framework density 25.327952
#
# number of rings (size 3 to 8) (size 9 to 14) (size 15 to 20)
#    0.800    0.533    0.000    4.000    7.467    6.400 
#    0.000    2.667    0.000    0.000    0.000    0.000 
#    0.000    0.000    0.000    0.000    0.000    0.000 
#
# Total GULP energy -83817.677563 kJ/mol
# GULP energy per Si atom -5587.845171 kJ/mol
# Density = 2.527030 g / cm^3
# Si number density = 25.327952 Si / 1000 Ang^3
#
#
#
# Elastic Constant Matrix: (Units=GPa)
#
#
# Indices 1 2 3 4 5 6 
#
# 1 175.5069 64.7273 36.1115 0.0000 -7.7614 0.0000
# 2 64.7273 138.9537 28.4315 0.0000 -4.0204 0.0000
# 3 36.1115 28.4315 72.1915 0.0000 -11.6597 0.0000
# 4 0.0000 0.0000 0.0000 46.8999 0.0000 -4.0092
# 5 -7.7614 -4.0204 -11.6597 0.0000 40.2807 0.0000
# 6 0.0000 0.0000 0.0000 -4.0092 0.0000 47.5340
#
#
#
# Elastic Compliance Matrix: (Units=1/GPa)
#
#
# Indices 1 2 3 4 5 6 
#
# 1 0.007280 -0.002880 -0.002442 0.000000 0.000409 0.000000
# 2 -0.002880 0.008967 -0.002136 0.000000 -0.000278 0.000000
# 3 -0.002442 -0.002136 0.016579 0.000000 0.004115 0.000000
# 4 0.000000 0.000000 0.000000 0.021477 0.000000 0.001811
# 5 0.000409 -0.000278 0.004115 0.000000 0.026068 0.000000
# 6 0.000000 0.000000 0.000000 0.001811 0.000000 0.021190
#
#
# Mechanical properties :
#
#
# Convention : Reuss Voigt Hill
#
# Bulk Modulus (GPa) = 55.82866 71.68809 63.75837
# Shear Modulus (GPa) = 40.83386 44.10170 42.46778
#
# Velocity S-wave (km/s) = 4.01958 4.17733 4.09921
# Velocity P-wave (km/s) = 6.60552 7.18555 6.90163
#
# Compressibility (1/GPa) = 0.01791195
#
# Stress axis : x y z
#
# Youngs Moduli (GPa) = 137.35635 111.51817 60.31645
#
# Poissons Ratio (x) = 0.32116 0.14727
# Poissons Ratio (y) = 0.39558 0.12883
# Poissons Ratio (z) = 0.33536 0.23819
#
# Static dielectric constant tensor:
#      x y z
#    x 2.013810 0.000000 0.022940 
#    y 0.000000 2.026190 0.000000 
#    z 0.022940 0.000000 1.950640 
# 
# From -- ./inp_files/11283.got.cif
#   From: 2010.05.17/outbox.cif.g08.bks.cpg/sg3_6_cif.got.tgz:11283.got - 2010.06.03 18:33:08.
