data_PCOD9114958
_publ_section_title
;
Structure prediction by ZEFSAII (Michael W. Deem and Ramdas Pophale) SiO2 
 PCOD9114958
Probable space group: P 21
;
_chemical_formula_sum "Si O2"
_cell_formula_units_Z 16
_cell_length_a 10.740472
_cell_length_b 12.495811
_cell_length_c 13.121854
_cell_angle_alpha 90.000000
_cell_angle_beta 21.553609
_cell_angle_gamma 90.000000
_cell_volume 646.976660
_symmetry_space_group_name_H-M "P 21"
_symmetry_group_IT_number 4
_symmetry_cell_setting 'monoclinic'
loop_
_space_group_symop_operation_xyz
x,y,z
-x,1/2+y,-z
loop_
_atom_site_type_symbol
_atom_site_label
_atom_site_fract_x
_atom_site_fract_y
_atom_site_fract_z
Si Si1 0.699585 0.042430 0.883256
Si Si2 0.309444 0.708777 0.464917
Si Si3 0.149067 0.771862 0.064863
Si Si4 0.706199 0.579922 0.337916
Si Si5 0.923096 0.963057 0.113992
Si Si6 0.687496 0.598465 0.009805
Si Si7 0.961318 0.773117 0.421216
Si Si8 0.689932 0.406408 0.662467
O O1 0.839984 0.162016 0.752636
O O2 0.416771 0.034196 0.010221
O O3 0.004786 0.965927 0.623822
O O4 0.542563 0.995670 0.106797
O O5 0.513428 0.656560 0.402996
O O6 0.439014 0.822760 0.325272
O O7 0.918323 0.698626 0.796596
O O8 0.367999 0.634135 0.321021
O O9 0.967996 0.657127 0.193949
O O10 0.009407 0.826609 0.274107
O O11 0.558094 0.763602 0.750384
O O12 0.001869 0.842276 0.084571
O O13 0.446193 0.516760 0.607063
O O14 0.892982 0.491447 0.129594
O O15 0.098450 0.029220 0.073295
O O16 0.146701 0.835456 0.370462
#
# Coordination Sequence:
#
# PCOD9114958 Si02
#       8
#     2   2   2   2   2   2   2   2
#     4  12  25  40  65 101 138 176 214 270 354 405
#     4  10  21  39  65  89 125 166 223 272 320 380
#     4  12  25  46  69 100 139 179 224 279 345 402
#     4  10  23  44  68  96 130 171 228 284 322 390
#     4  10  21  41  71 100 120 180 232 269 328 394
#     4  10  19  37  64  90 129 166 217 275 307 393
#     4  12  26  44  68 102 142 177 218 285 338 407
#     4  12  24  41  66 100 133 177 222 268 342 415
#
# _framework density 24.730416000000002
#
# number of rings (size 3 to 8) (size 9 to 14) (size 15 to 20)
#    0.000    1.000    1.250    6.000    1.750    2.000 
#    6.750    0.000    0.000    0.000    0.000    0.000 
#    0.000    0.000    0.000    0.000    0.000    0.000 
#
# Total GULP energy -89516.364250 kJ/mol
# GULP energy per Si atom -5594.772766 kJ/mol
# Density = 2.467413 g / cm^3
# Si number density = 24.730416 Si / 1000 Ang^3
#
#
#
# Elastic Constant Matrix: (Units=GPa)
#
#
# Indices 1 2 3 4 5 6 
#
# 1 33.2515 -48.8692 -19.3149 0.0000 -25.9279 0.0000
# 2 -48.8692 18.9309 -18.7242 0.0000 -35.5007 0.0000
# 3 -19.3149 -18.7242 111.5291 0.0000 -9.6781 0.0000
# 4 0.0000 0.0000 0.0000 1.5372 0.0000 12.4485
# 5 -25.9279 -35.5007 -9.6781 0.0000 14.9045 0.0000
# 6 0.0000 0.0000 0.0000 12.4485 0.0000 40.3095
#
#
#
# Elastic Compliance Matrix: (Units=1/GPa)
#
#
# Indices 1 2 3 4 5 6 
#
# 1 0.006034 -0.009173 -0.001569 0.000000 -0.012371 0.000000
# 2 -0.009173 0.001781 -0.002444 0.000000 -0.013302 0.000000
# 3 -0.001569 -0.002444 0.007993 0.000000 -0.003360 0.000000
# 4 0.000000 0.000000 0.000000 -0.433435 0.000000 0.133854
# 5 -0.012371 -0.013302 -0.003360 0.000000 0.011708 0.000000
# 6 0.000000 0.000000 0.000000 0.133854 0.000000 -0.016529
#
#
# Mechanical properties :
#
#
# Convention : Reuss Voigt Hill
#
# Bulk Modulus (GPa) = -94.66951 -1.12278 -47.89615
# Shear Modulus (GPa) = -12.51264 28.05825 7.77280
#
# Velocity S-wave (km/s) = -2.25180 3.37198 1.77478
# Velocity P-wave (km/s) = 6.71748 3.83476 3.89994
#
# Compressibility (1/GPa) = -0.01056306
#
# Stress axis : x y z
#
# Youngs Moduli (GPa) = 165.71891 561.33307 125.11271
#
# Poissons Ratio (x) = 5.14933 0.19625
# Poissons Ratio (y) = 1.52020 0.30576
# Poissons Ratio (z) = 0.25994 1.37182
#
# Static dielectric constant tensor:
#      x y z
#    x 2.089670 0.000000 -0.083800 
#    y 0.000000 2.014900 0.000000 
#    z -0.083800 0.000000 1.894960 
# 
# From -- ./inp_files/12252.got.cif
#   From: 2010.05.17/outbox.cif.g08.bks.cpg/sg4_7_cif.got.tgz:12252.got - 2010.06.03 18:43:04.
