data_PCOD9114740
_publ_section_title
;
Structure prediction by ZEFSAII (Michael W. Deem and Ramdas Pophale) SiO2 
 PCOD9114740
Probable space group: P 21
;
_chemical_formula_sum "Si O2"
_cell_formula_units_Z 12
_cell_length_a 12.485566
_cell_length_b 5.502090
_cell_length_c 7.429827
_cell_angle_alpha 90.000000
_cell_angle_beta 52.067570
_cell_angle_gamma 90.000000
_cell_volume 402.574662
_symmetry_space_group_name_H-M "P 21"
_symmetry_group_IT_number 4
_symmetry_cell_setting 'monoclinic'
loop_
_space_group_symop_operation_xyz
x,y,z
-x,1/2+y,-z
loop_
_atom_site_type_symbol
_atom_site_label
_atom_site_fract_x
_atom_site_fract_y
_atom_site_fract_z
Si Si1 0.430531 0.341870 0.142217
Si Si2 0.078786 0.857472 0.384252
Si Si3 0.725730 0.875012 0.021051
Si Si4 0.591304 0.372234 0.299765
Si Si5 0.949299 0.594577 0.937675
Si Si6 0.787285 0.346503 0.397916
O O1 0.710014 0.860913 0.820965
O O2 0.507204 0.583845 0.987658
O O3 0.447291 0.357310 0.341091
O O4 0.101718 0.888537 0.147931
O O5 0.995763 0.104021 0.508516
O O6 0.203571 0.865074 0.397124
O O7 0.877809 0.830871 0.927527
O O8 0.647818 0.636249 0.179980
O O9 0.659915 0.123852 0.155199
O O10 0.640009 0.353524 0.457576
O O11 0.110812 0.623582 0.757572
O O12 0.875578 0.551811 0.202636
#
# Coordination Sequence:
#
# PCOD9114740 Si02
#       6
#     2   2   2   2   2   2
#     4   8  14  26  42  66  96 122 158 198 234 284
#     4  10  22  36  50  72 102 134 164 198 244 294
#     4   9  17  28  46  71  97 127 161 199 241 285
#     4   9  17  28  46  71  97 127 161 199 241 285
#     4  10  19  32  52  75 101 131 164 203 244 291
#     4  10  19  32  52  75 101 131 164 203 244 291
#
# _framework density 29.808133999999999
#
# number of rings (size 3 to 8) (size 9 to 14) (size 15 to 20)
#    0.000    2.667    0.000    2.000    0.000    8.000 
#    0.000    0.000    0.000    0.000    0.000   39.667 
#    0.000    0.000    0.000    0.000    0.000    0.000 
#
# Total GULP energy -67054.952678 kJ/mol
# GULP energy per Si atom -5587.912723 kJ/mol
# Density = 2.974029 g / cm^3
# Si number density = 29.808134 Si / 1000 Ang^3
#
#
#
# Elastic Constant Matrix: (Units=GPa)
#
#
# Indices 1 2 3 4 5 6 
#
# 1 143.4725 34.1355 69.5622 0.0000 63.8215 0.0000
# 2 34.1355 237.5163 73.6296 0.0000 -16.1145 0.0000
# 3 69.5622 73.6296 63.0905 0.0000 28.8139 0.0000
# 4 0.0000 0.0000 0.0000 79.9385 0.0000 -13.7467
# 5 63.8215 -16.1145 28.8139 0.0000 60.8570 0.0000
# 6 0.0000 0.0000 0.0000 -13.7467 0.0000 45.7205
#
#
#
# Elastic Compliance Matrix: (Units=1/GPa)
#
#
# Indices 1 2 3 4 5 6 
#
# 1 0.023054 0.003149 -0.023519 0.000000 -0.012208 0.000000
# 2 0.003149 0.010459 -0.019693 0.000000 0.008791 0.000000
# 3 -0.023519 -0.019693 0.071300 0.000000 -0.014308 0.000000
# 4 0.000000 0.000000 0.000000 0.013192 0.000000 0.003966
# 5 -0.012208 0.008791 -0.014308 0.000000 0.038337 0.000000
# 6 0.000000 0.000000 0.000000 0.003966 0.000000 0.023065
#
#
# Mechanical properties :
#
#
# Convention : Reuss Voigt Hill
#
# Bulk Modulus (GPa) = 40.50809 88.74819 64.62814
# Shear Modulus (GPa) = 18.67332 55.08666 36.87999
#
# Velocity S-wave (km/s) = 2.50561 4.30355 3.52127
# Velocity P-wave (km/s) = 4.68934 7.38457 6.18554
#
# Compressibility (1/GPa) = 0.02468642
#
# Stress axis : x y z
#
# Youngs Moduli (GPa) = 43.37553 95.61199 14.02528
#
# Poissons Ratio (x) = -0.30112 0.32987
# Poissons Ratio (y) = -0.13661 0.27620
# Poissons Ratio (z) = 1.02017 1.88292
#
# Static dielectric constant tensor:
#      x y z
#    x 2.272850 0.000000 0.030430 
#    y 0.000000 2.287530 0.000000 
#    z 0.030430 0.000000 2.383830 
# 
# From -- ./inp_files/8814.got.cif
#   From: 2010.05.17/outbox.cif.g08.bks.cpg/sg4_5_cif.got.tgz:8814.got - 2010.06.03 18:43:04.
