data_PCOD9114136
_publ_section_title
;
Structure prediction by ZEFSAII (Michael W. Deem and Ramdas Pophale) SiO2 
 PCOD9114136
Probable space group: P 2
;
_chemical_formula_sum "Si O2"
_cell_formula_units_Z 15
_cell_length_a 17.673263
_cell_length_b 8.240295
_cell_length_c 9.583668
_cell_angle_alpha 90.000000
_cell_angle_beta 34.875436
_cell_angle_gamma 90.000000
_cell_volume 798.051666
_symmetry_space_group_name_H-M "P 2"
_symmetry_group_IT_number 3
_symmetry_cell_setting 'monoclinic'
loop_
_space_group_symop_operation_xyz
x,y,z
-x,y,-z
loop_
_atom_site_type_symbol
_atom_site_label
_atom_site_fract_x
_atom_site_fract_y
_atom_site_fract_z
Si Si1 0.833688 0.120350 0.968723
Si Si2 0.216377 0.900310 0.207822
Si Si3 0.000000 0.662682 0.500000
Si Si4 0.789367 0.412848 0.826651
Si Si5 0.326968 0.149204 0.505057
Si Si6 0.485974 0.822834 0.187709
Si Si7 0.493835 0.463076 0.178498
Si Si8 0.140607 0.187843 0.523739
O O1 0.789411 0.265485 0.933949
O O2 0.987065 0.146544 0.773317
O O3 0.820668 0.962014 0.890800
O O4 0.743730 0.125248 0.240437
O O5 0.101242 0.777490 0.430749
O O6 0.208905 0.050410 0.324734
O O7 0.364670 0.835670 0.981140
O O8 0.109538 0.545739 0.265910
O O9 0.846277 0.348298 0.591819
O O10 0.642024 0.468138 0.015137
O O11 0.422484 0.306360 0.351975
O O12 0.218422 0.187052 0.550150
O O13 0.403802 0.980796 0.357368
O O14 0.431686 0.641428 0.302062
O O15 0.500000 0.830193 0.000000
O O16 0.500000 0.440962 0.000000
#
# Coordination Sequence:
#
# PCOD9114136 Si02
#       8
#     2   2   1   2   2   2   2   2
#     4  11  24  40  59  92 126 162 205 248 315 366
#     4  11  21  39  68  89 118 162 207 256 300 364
#     4  12  20  38  66 100 120 150 210 264 302 346
#     4  11  21  39  68  89 118 162 207 256 300 364
#     4  12  24  42  62  90 131 167 196 257 310 364
#     4  11  23  40  65  94 119 160 213 254 302 367
#     4  11  23  40  65  94 119 160 213 254 302 367
#     4  11  20  41  65  87 117 170 211 240 304 368
#
# _framework density 18.795774999999999
#
# number of rings (size 3 to 8) (size 9 to 14) (size 15 to 20)
#    0.000    0.800    6.667    3.200    0.000    2.133 
#    2.400    1.333    0.000    3.200    0.000    0.000 
#    0.000    0.000    0.000    0.000    0.000    0.000 
#
# Total GULP energy -83658.904176 kJ/mol
# GULP energy per Si atom -5577.260278 kJ/mol
# Density = 1.875300 g / cm^3
# Si number density = 18.795775 Si / 1000 Ang^3
#
#
#
# Elastic Constant Matrix: (Units=GPa)
#
#
# Indices 1 2 3 4 5 6 
#
# 1 98.8973 30.7718 46.7795 0.0000 -17.7409 0.0000
# 2 30.7718 106.4046 40.4632 0.0000 -1.2618 0.0000
# 3 46.7795 40.4632 84.8247 0.0000 1.4834 0.0000
# 4 0.0000 0.0000 0.0000 11.2096 0.0000 -8.7471
# 5 -17.7409 -1.2618 1.4834 0.0000 26.3435 0.0000
# 6 0.0000 0.0000 0.0000 -8.7471 0.0000 -14.0993
#
#
#
# Elastic Compliance Matrix: (Units=1/GPa)
#
#
# Indices 1 2 3 4 5 6 
#
# 1 0.016825 -0.001368 -0.008832 0.000000 0.011762 0.000000
# 2 -0.001368 0.011611 -0.004783 0.000000 -0.000096 0.000000
# 3 -0.008832 -0.004783 0.019068 0.000000 -0.007251 0.000000
# 4 0.000000 0.000000 0.000000 0.060110 0.000000 -0.037292
# 5 0.011762 -0.000096 -0.007251 0.000000 0.046285 0.000000
# 6 0.000000 0.000000 0.000000 -0.037292 0.000000 -0.047790
#
#
# Mechanical properties :
#
#
# Convention : Reuss Voigt Hill
#
# Bulk Modulus (GPa) = 57.01536 58.46173 57.73854
# Shear Modulus (GPa) = 35.23120 16.16490 25.69805
#
# Velocity S-wave (km/s) = 4.33416 2.93581 3.70161
# Velocity P-wave (km/s) = 7.44624 6.53170 7.00391
#
# Compressibility (1/GPa) = 0.01753913
#
# Stress axis : x y z
#
# Youngs Moduli (GPa) = 59.43696 86.12292 52.44386
#
# Poissons Ratio (x) = 0.11778 0.46317
# Poissons Ratio (y) = 0.08128 0.25084
# Poissons Ratio (z) = 0.52494 0.41192
#
# Static dielectric constant tensor:
#      x y z
#    x 1.661820 0.000000 -0.031330 
#    y 0.000000 1.733100 0.000000 
#    z -0.031330 0.000000 1.626530 
# 
# From -- ./inp_files/7136.got.cif
#   From: 2010.05.17/outbox.cif.g08.bks.cpg/sg3_4_cif.got.tgz:7136.got - 2010.06.03 18:33:08.
