data_PCOD9114949
_publ_section_title
;
Structure prediction by ZEFSAII (Michael W. Deem and Ramdas Pophale) SiO2 
 PCOD9114949
Probable space group: P 21
;
_chemical_formula_sum "Si O2"
_cell_formula_units_Z 16
_cell_length_a 5.896713
_cell_length_b 17.270260
_cell_length_c 7.638592
_cell_angle_alpha 90.000000
_cell_angle_beta 113.600875
_cell_angle_gamma 90.000000
_cell_volume 712.831199
_symmetry_space_group_name_H-M "P 21"
_symmetry_group_IT_number 4
_symmetry_cell_setting 'monoclinic'
loop_
_space_group_symop_operation_xyz
x,y,z
-x,1/2+y,-z
loop_
_atom_site_type_symbol
_atom_site_label
_atom_site_fract_x
_atom_site_fract_y
_atom_site_fract_z
Si Si1 0.556189 0.286980 0.801222
Si Si2 0.118221 0.923650 0.255398
Si Si3 0.829933 0.149623 0.744243
Si Si4 0.819241 0.517489 0.163278
Si Si5 0.322786 0.072771 0.487129
Si Si6 0.074952 0.222306 0.475536
Si Si7 0.863749 0.375356 0.357882
Si Si8 0.408004 0.408067 0.032782
O O1 0.716336 0.355664 0.769171
O O2 0.722527 0.209110 0.854667
O O3 0.334132 0.261994 0.606190
O O4 0.444127 0.327735 0.938091
O O5 0.032938 0.894199 0.420442
O O6 0.873951 0.932384 0.063490
O O7 0.264286 0.002155 0.341765
O O8 0.604308 0.101269 0.588004
O O9 0.028770 0.086907 0.873498
O O10 0.946454 0.198797 0.619837
O O11 0.745908 0.549396 0.333784
O O12 0.969544 0.438847 0.256657
O O13 0.572058 0.479852 0.004521
O O14 0.144385 0.145320 0.392602
O O15 0.918022 0.287363 0.329692
O O16 0.567059 0.391683 0.257735
#
# Coordination Sequence:
#
# PCOD9114949 Si02
#       8
#     2   2   2   2   2   2   2   2
#     4  11  21  35  65  93 125 163 206 253 311 358
#     4  11  21  40  61  92 121 161 211 252 298 377
#     4  10  19  37  62  94 120 164 209 251 307 369
#     4   8  20  37  59  87 124 163 204 250 306 360
#     4   9  21  35  62  89 116 166 206 252 306 368
#     4  10  19  39  61  89 125 161 203 254 315 360
#     4   9  19  40  63  84 121 169 195 256 306 361
#     4  10  22  39  59  94 124 161 204 256 305 361
#
# _framework density 22.445705
#
# number of rings (size 3 to 8) (size 9 to 14) (size 15 to 20)
#    0.750    1.500    2.500    0.000    1.750    2.000 
#    2.250    6.250    0.000    1.500    0.000    0.000 
#    0.000    0.000    0.000    0.000    0.000    0.000 
#
# Total GULP energy -89179.641423 kJ/mol
# GULP energy per Si atom -5573.727589 kJ/mol
# Density = 2.239462 g / cm^3
# Si number density = 22.445705 Si / 1000 Ang^3
#
#
#
# Elastic Constant Matrix: (Units=GPa)
#
#
# Indices 1 2 3 4 5 6 
#
# 1 51.6909 39.4472 24.8332 0.0000 17.5017 0.0000
# 2 39.4472 151.5979 26.5377 0.0000 23.6819 0.0000
# 3 24.8332 26.5377 54.9675 0.0000 12.9617 0.0000
# 4 0.0000 0.0000 0.0000 26.0757 0.0000 13.9961
# 5 17.5017 23.6819 12.9617 0.0000 26.3213 0.0000
# 6 0.0000 0.0000 0.0000 13.9961 0.0000 40.0338
#
#
#
# Elastic Compliance Matrix: (Units=1/GPa)
#
#
# Indices 1 2 3 4 5 6 
#
# 1 0.031397 -0.004678 -0.009046 0.000000 -0.012213 0.000000
# 2 -0.004678 0.008650 -0.001087 0.000000 -0.004137 0.000000
# 3 -0.009046 -0.001087 0.023934 0.000000 -0.004793 0.000000
# 4 0.000000 0.000000 0.000000 0.047209 0.000000 -0.016504
# 5 -0.012213 -0.004137 -0.004793 0.000000 0.052195 0.000000
# 6 0.000000 0.000000 0.000000 -0.016504 0.000000 0.030749
#
#
# Mechanical properties :
#
#
# Convention : Reuss Voigt Hill
#
# Bulk Modulus (GPa) = 29.10485 48.87695 38.99090
# Shear Modulus (GPa) = 21.25760 29.64872 25.45316
#
# Velocity S-wave (km/s) = 3.08079 3.63837 3.37113
# Velocity P-wave (km/s) = 5.06457 6.28277 5.70628
#
# Compressibility (1/GPa) = 0.03435854
#
# Stress axis : x y z
#
# Youngs Moduli (GPa) = 31.85028 115.60285 41.78071
#
# Poissons Ratio (x) = 0.54084 0.37795
# Poissons Ratio (y) = 0.14901 0.04542
# Poissons Ratio (z) = 0.28812 0.12568
#
# Static dielectric constant tensor:
#      x y z
#    x 1.870870 0.000000 -0.008500 
#    y 0.000000 1.869320 0.000000 
#    z -0.008500 0.000000 1.811260 
# 
# From -- ./inp_files/2054.got.cif
#   From: 2010.05.17/outbox.cif.g08.bks.cpg/sg4_2_cif.got.tgz:2054.got - 2010.06.03 18:43:04.
