data_PCOD9114395
_publ_section_title
;
Structure prediction by ZEFSAII (Michael W. Deem and Ramdas Pophale) SiO2 
 PCOD9114395
Probable space group: P 2
;
_chemical_formula_sum "Si O2"
_cell_formula_units_Z 12
_cell_length_a 14.254026
_cell_length_b 5.715736
_cell_length_c 19.148103
_cell_angle_alpha 90.000000
_cell_angle_beta 161.415663
_cell_angle_gamma 90.000000
_cell_volume 497.184758
_symmetry_space_group_name_H-M "P 2"
_symmetry_group_IT_number 3
_symmetry_cell_setting 'monoclinic'
loop_
_space_group_symop_operation_xyz
x,y,z
-x,y,-z
loop_
_atom_site_type_symbol
_atom_site_label
_atom_site_fract_x
_atom_site_fract_y
_atom_site_fract_z
Si Si1 0.944269 0.779550 0.378663
Si Si2 0.418843 0.376072 0.203521
Si Si3 0.500000 0.122822 0.000000
Si Si4 0.500000 0.787327 0.500000
Si Si5 0.910977 0.885144 0.017164
Si Si6 0.797999 0.600003 0.573279
Si Si7 0.432223 0.470339 0.057865
O O1 0.000000 0.809059 0.500000
O O2 0.183837 0.751517 0.486461
O O3 0.748219 0.990278 0.216240
O O4 0.712119 0.564075 0.212331
O O5 0.648084 0.376801 0.429502
O O6 0.208722 0.612307 0.062277
O O7 0.543937 0.423887 0.214259
O O8 0.283109 0.115794 0.103254
O O9 0.665794 0.245949 0.053355
O O10 0.587666 0.654463 0.490099
O O11 0.798674 0.917266 0.730825
O O12 0.000000 0.912387 0.000000
O O13 0.130484 0.617261 0.839094
#
# Coordination Sequence:
#
# PCOD9114395 Si02
#       7
#     2   2   1   1   2   2   2
#     4  12  26  48  78 113 160 202 270 332 408 478
#     4  12  29  48  81 116 161 209 268 338 401 482
#     4  12  26  44  78 116 150 212 254 348 394 488
#     4  12  28  48  86 112 164 218 268 338 400 486
#     4  12  28  52  77 116 161 213 274 328 404 477
#     4  12  25  50  77 115 159 212 270 327 405 480
#     4  12  26  48  76 115 159 202 269 331 406 484
#
# _framework density 24.135898999999998
#
# number of rings (size 3 to 8) (size 9 to 14) (size 15 to 20)
#    0.000    0.000    8.333    0.500    4.667    5.333 
#    0.000    0.000    0.000    0.000    0.000    0.000 
#    0.000    0.000    0.000    0.000    0.000    0.000 
#
# Total GULP energy -66833.226548 kJ/mol
# GULP energy per Si atom -5569.435546 kJ/mol
# Density = 2.408096 g / cm^3
# Si number density = 24.135899 Si / 1000 Ang^3
#
#
#
# Elastic Constant Matrix: (Units=GPa)
#
#
# Indices 1 2 3 4 5 6 
#
# 1 188.3760 20.5900 19.8897 0.0000 -14.5971 0.0000
# 2 20.5900 69.3819 13.9583 0.0000 7.5592 0.0000
# 3 19.8897 13.9583 103.9043 0.0000 -22.6031 0.0000
# 4 0.0000 0.0000 0.0000 36.7191 0.0000 0.0217
# 5 -14.5971 7.5592 -22.6031 0.0000 50.6412 0.0000
# 6 0.0000 0.0000 0.0000 0.0217 0.0000 14.2901
#
#
#
# Elastic Compliance Matrix: (Units=1/GPa)
#
#
# Indices 1 2 3 4 5 6 
#
# 1 0.005684 -0.001774 -0.000483 0.000000 0.001688 0.000000
# 2 -0.001774 0.015926 -0.002689 0.000000 -0.004089 0.000000
# 3 -0.000483 -0.002689 0.011225 0.000000 0.005272 0.000000
# 4 0.000000 0.000000 0.000000 0.027234 0.000000 -0.000041
# 5 0.001688 -0.004089 0.005272 0.000000 0.023197 0.000000
# 6 0.000000 0.000000 0.000000 -0.000041 0.000000 0.069978
#
#
# Mechanical properties :
#
#
# Convention : Reuss Voigt Hill
#
# Bulk Modulus (GPa) = 43.58537 52.28201 47.93369
# Shear Modulus (GPa) = 29.27690 40.81169 35.04430
#
# Velocity S-wave (km/s) = 3.48660 4.11653 3.81459
# Velocity P-wave (km/s) = 5.85713 6.65605 6.26933
#
# Compressibility (1/GPa) = 0.02294348
#
# Stress axis : x y z
#
# Youngs Moduli (GPa) = 175.92823 62.79097 89.08792
#
# Poissons Ratio (x) = 0.11137 0.04300
# Poissons Ratio (y) = 0.31203 0.23959
# Poissons Ratio (z) = 0.08491 0.16887
#
# Static dielectric constant tensor:
#      x y z
#    x 1.918640 0.000000 0.062800 
#    y 0.000000 2.039160 0.000000 
#    z 0.062800 0.000000 2.101830 
# 
# From -- ./inp_files/15962.got.cif
#   From: 2010.05.17/outbox.cif.g08.bks.cpg/sg3_8_cif.got.tgz:15962.got - 2010.06.03 18:33:08.
