data_PCOD9114102
_publ_section_title
;
Structure prediction by ZEFSAII (Michael W. Deem and Ramdas Pophale) SiO2 
 PCOD9114102
Probable space group: P 2
;
_chemical_formula_sum "Si O2"
_cell_formula_units_Z 8
_cell_length_a 7.250135
_cell_length_b 5.392233
_cell_length_c 7.802723
_cell_angle_alpha 90.000000
_cell_angle_beta 95.290995
_cell_angle_gamma 90.000000
_cell_volume 303.743183
_symmetry_space_group_name_H-M "P 2"
_symmetry_group_IT_number 3
_symmetry_cell_setting 'monoclinic'
loop_
_space_group_symop_operation_xyz
x,y,z
-x,y,-z
loop_
_atom_site_type_symbol
_atom_site_label
_atom_site_fract_x
_atom_site_fract_y
_atom_site_fract_z
Si Si1 0.365732 0.936440 0.831917
Si Si2 0.971475 0.914418 0.681380
Si Si3 0.806282 0.302915 0.943114
Si Si4 0.379988 0.617948 0.346995
O O1 0.496615 0.860326 0.687404
O O2 0.500000 0.861949 0.000000
O O3 0.167300 0.817097 0.769996
O O4 0.289043 0.200526 0.892991
O O5 0.876639 0.078582 0.823653
O O6 0.000000 0.051769 0.500000
O O7 0.824894 0.702845 0.621256
O O8 0.659445 0.452843 0.821596
O O9 0.000000 0.438004 0.000000
O O10 0.500000 0.480254 0.500000
#
# Coordination Sequence:
#
# PCOD9114102 Si02
#       4
#     2   2   2   2
#     4  11  24  46  73 105 144 191 235 298 356 425
#     4  11  24  48  71 105 152 187 235 297 360 423
#     4  10  26  47  73 108 146 188 240 299 355 425
#     4  12  26  47  76 107 144 190 242 291 362 428
#
# _framework density 26.338038999999998
#
# number of rings (size 3 to 8) (size 9 to 14) (size 15 to 20)
#    0.000    1.000    5.000    0.000    3.500    5.000 
#    4.500    0.000    0.000    0.000    0.000    0.000 
#    0.000    0.000    0.000    0.000    0.000    0.000 
#
# Total GULP energy -44652.156735 kJ/mol
# GULP energy per Si atom -5581.519592 kJ/mol
# Density = 2.627809 g / cm^3
# Si number density = 26.338039 Si / 1000 Ang^3
#
#
#
# Elastic Constant Matrix: (Units=GPa)
#
#
# Indices 1 2 3 4 5 6 
#
# 1 222.4685 43.0121 58.7338 0.0000 50.2241 0.0000
# 2 43.0121 36.2015 30.1030 0.0000 5.8832 0.0000
# 3 58.7338 30.1030 96.5973 0.0000 25.7595 0.0000
# 4 0.0000 0.0000 0.0000 29.8849 0.0000 7.5346
# 5 50.2241 5.8832 25.7595 0.0000 65.6361 0.0000
# 6 0.0000 0.0000 0.0000 7.5346 0.0000 -145.6113
#
#
#
# Elastic Compliance Matrix: (Units=1/GPa)
#
#
# Indices 1 2 3 4 5 6 
#
# 1 0.007082 -0.006877 -0.000985 0.000000 -0.004416 0.000000
# 2 -0.006877 0.044073 -0.011060 0.000000 0.005653 0.000000
# 3 -0.000985 -0.011060 0.015561 0.000000 -0.004362 0.000000
# 4 0.000000 0.000000 0.000000 0.033031 0.000000 0.001709
# 5 -0.004416 0.005653 -0.004362 0.000000 0.019820 0.000000
# 6 0.000000 0.000000 0.000000 0.001709 0.000000 -0.006779
#
#
# Mechanical properties :
#
#
# Convention : Reuss Voigt Hill
#
# Bulk Modulus (GPa) = 34.63786 68.77389 51.70588
# Shear Modulus (GPa) = 31.20016 4.87649 18.03833
#
# Velocity S-wave (km/s) = 3.44554 1.36217 2.61986
# Velocity P-wave (km/s) = 5.38599 5.35189 5.36896
#
# Compressibility (1/GPa) = 0.02887014
#
# Stress axis : x y z
#
# Youngs Moduli (GPa) = 141.21075 22.68980 64.26213
#
# Poissons Ratio (x) = 0.15604 0.06331
# Poissons Ratio (y) = 0.97112 0.71077
# Poissons Ratio (z) = 0.13911 0.25096
#
# Static dielectric constant tensor:
#      x y z
#    x 2.022260 0.000000 -0.026070 
#    y 0.000000 2.109020 0.000000 
#    z -0.026070 0.000000 2.119530 
# 
# From -- ./inp_files/771.got.cif
#   From: 2010.05.17/outbox.cif.g08.bks.cpg/sg3_1_cif.got.tgz:771.got - 2010.06.03 18:33:08.
