data_PCOD9114296
_publ_section_title
;
Structure prediction by ZEFSAII (Michael W. Deem and Ramdas Pophale) SiO2 
 PCOD9114296
Probable space group: P 2
;
_chemical_formula_sum "Si O2"
_cell_formula_units_Z 15
_cell_length_a 13.584716
_cell_length_b 7.230112
_cell_length_c 14.467221
_cell_angle_alpha 90.000000
_cell_angle_beta 27.944472
_cell_angle_gamma 90.000000
_cell_volume 665.882315
_symmetry_space_group_name_H-M "P 2"
_symmetry_group_IT_number 3
_symmetry_cell_setting 'monoclinic'
loop_
_space_group_symop_operation_xyz
x,y,z
-x,y,-z
loop_
_atom_site_type_symbol
_atom_site_label
_atom_site_fract_x
_atom_site_fract_y
_atom_site_fract_z
Si Si1 0.217117 0.819040 0.856793
Si Si2 0.500000 0.566242 0.500000
Si Si3 0.160757 0.917662 0.449358
Si Si4 0.413869 0.261624 0.307723
Si Si5 0.470888 0.603255 0.128258
Si Si6 0.168852 0.213675 0.925055
Si Si7 0.121832 0.393123 0.702209
Si Si8 0.110144 0.775025 0.154299
O O1 0.404068 0.697386 0.660904
O O2 0.218308 0.031167 0.822811
O O3 0.187725 0.851534 0.990341
O O4 0.000000 0.736239 0.000000
O O5 0.316150 0.444486 0.608354
O O6 0.271557 0.729173 0.321229
O O7 0.960155 0.877236 0.352776
O O8 0.000000 0.976182 0.500000
O O9 0.342765 0.069323 0.319698
O O10 0.473996 0.421020 0.187160
O O11 0.602212 0.261399 0.226522
O O12 0.211219 0.327268 0.531391
O O13 0.500000 0.541262 0.000000
O O14 0.673863 0.729617 0.975253
O O15 0.000000 0.321429 0.000000
O O16 0.029643 0.234337 0.133218
O O17 0.999440 0.583668 0.786113
#
# Coordination Sequence:
#
# PCOD9114296 Si02
#       8
#     2   1   2   2   2   2   2   2
#     4  11  25  44  70 104 146 199 253 314 377 460
#     4  12  26  42  78 110 150 204 266 304 382 458
#     4  12  28  50  78 113 150 200 263 327 392 461
#     4  12  27  47  75 111 150 197 255 317 388 462
#     4  12  26  49  75 105 151 200 251 318 393 464
#     4  11  26  45  68 104 152 195 245 308 375 445
#     4  12  25  42  72 104 147 195 246 312 374 450
#     4  12  24  46  75 104 148 194 251 312 385 451
#
# _framework density 22.526503999999999
#
# number of rings (size 3 to 8) (size 9 to 14) (size 15 to 20)
#    0.000    0.267    5.333    3.200    3.733    4.267 
#    2.400    0.000    0.000    0.000    0.000    0.000 
#    0.000    0.000    0.000    0.000    0.000    0.000 
#
# Total GULP energy -83677.915827 kJ/mol
# GULP energy per Si atom -5578.527722 kJ/mol
# Density = 2.247523 g / cm^3
# Si number density = 22.526504 Si / 1000 Ang^3
#
#
#
# Elastic Constant Matrix: (Units=GPa)
#
#
# Indices 1 2 3 4 5 6 
#
# 1 65.8029 3.7894 -0.9343 0.0000 -11.1955 0.0000
# 2 3.7894 93.7059 26.2543 0.0000 -4.9084 0.0000
# 3 -0.9343 26.2543 102.4579 0.0000 -1.7006 0.0000
# 4 0.0000 0.0000 0.0000 111.0257 0.0000 -25.0113
# 5 -11.1955 -4.9084 -1.7006 0.0000 35.1197 0.0000
# 6 0.0000 0.0000 0.0000 -25.0113 0.0000 33.2497
#
#
#
# Elastic Compliance Matrix: (Units=1/GPa)
#
#
# Indices 1 2 3 4 5 6 
#
# 1 0.016094 -0.000484 0.000355 0.000000 0.005080 0.000000
# 2 -0.000484 0.011588 -0.002952 0.000000 0.001322 0.000000
# 3 0.000355 -0.002952 0.010523 0.000000 0.000210 0.000000
# 4 0.000000 0.000000 0.000000 0.010845 0.000000 0.008158
# 5 0.005080 0.001322 0.000210 0.000000 0.030288 0.000000
# 6 0.000000 0.000000 0.000000 0.008158 0.000000 0.036212
#
#
# Mechanical properties :
#
#
# Convention : Reuss Voigt Hill
#
# Bulk Modulus (GPa) = 31.20778 35.57614 33.39196
# Shear Modulus (GPa) = 37.76655 51.40286 44.58471
#
# Velocity S-wave (km/s) = 4.09900 4.78209 4.45366
# Velocity P-wave (km/s) = 6.02381 6.80577 6.42669
#
# Compressibility (1/GPa) = 0.03204329
#
# Stress axis : x y z
#
# Youngs Moduli (GPa) = 62.13447 86.29960 95.02814
#
# Poissons Ratio (x) = 0.04179 -0.03375
# Poissons Ratio (y) = 0.03009 0.28050
# Poissons Ratio (z) = -0.02207 0.25473
#
# Static dielectric constant tensor:
#      x y z
#    x 1.429240 0.000000 -0.379430 
#    y 0.000000 1.935640 0.000000 
#    z -0.379430 0.000000 1.510100 
# 
# From -- ./inp_files/11696.got.cif
#   From: 2010.05.17/outbox.cif.g08.bks.cpg/sg3_6_cif.got.tgz:11696.got - 2010.06.03 18:33:08.
