data_PCOD9114422
_publ_section_title
;
Structure prediction by ZEFSAII (Michael W. Deem and Ramdas Pophale) SiO2 
 PCOD9114422
Probable space group: P 2
;
_chemical_formula_sum "Si O2"
_cell_formula_units_Z 14
_cell_length_a 9.000000
_cell_length_b 9.000000
_cell_length_c 12.000000
_cell_angle_alpha 90.000000
_cell_angle_beta 140.000000
_cell_angle_gamma 90.000000
_cell_volume 624.789557
_symmetry_space_group_name_H-M "P 2"
_symmetry_group_IT_number 3
_symmetry_cell_setting 'monoclinic'
loop_
_space_group_symop_operation_xyz
x,y,z
-x,y,-z
loop_
_atom_site_type_symbol
_atom_site_label
_atom_site_fract_x
_atom_site_fract_y
_atom_site_fract_z
Si Si1 0.760125 0.972020 0.799595
Si Si2 0.384431 0.218291 0.633590
Si Si3 0.500000 0.438712 0.500000
Si Si4 0.752475 0.470667 0.299769
Si Si5 0.963065 0.473112 0.178968
Si Si6 0.980253 0.128733 0.245749
Si Si7 0.371994 0.708169 0.126909
Si Si8 0.500000 0.942869 0.000000
O O1 0.684339 0.806146 0.795102
O O2 0.559918 0.081161 0.729656
O O3 0.843030 0.019787 0.722642
O O4 0.000000 0.000393 0.000000
O O5 0.482131 0.334759 0.598654
O O6 0.362006 0.311979 0.734376
O O7 0.131750 0.170928 0.442112
O O8 0.760125 0.510155 0.653545
O O9 0.811372 0.493910 0.204528
O O10 0.592326 0.599579 0.257990
O O11 0.000000 0.473516 0.500000
O O12 0.953244 0.289064 0.163475
O O13 0.836150 0.591724 0.024153
O O14 0.735803 0.046820 0.134881
O O15 0.439041 0.830423 0.068883
#
# Coordination Sequence:
#
# PCOD9114422 Si02
#       8
#     2   2   1   2   2   2   2   1
#     4  12  26  48  69 112 148 191 252 298 374 447
#     4  11  24  46  77 111 138 190 257 310 364 434
#     4  10  20  44  74 108 140 184 246 312 360 420
#     4  12  25  45  75 114 144 188 257 302 371 445
#     4  11  24  48  74 110 147 193 246 312 366 437
#     4  11  25  48  78 103 146 199 251 314 358 432
#     4  12  29  47  70 108 157 194 240 303 379 452
#     4  12  26  48  70 104 154 198 240 298 380 430
#
# _framework density 22.407544999999999
#
# number of rings (size 3 to 8) (size 9 to 14) (size 15 to 20)
#    0.000    0.571    8.571    0.000    6.000    2.286 
#    0.000    0.000    0.000    0.000    0.000    0.000 
#    0.000    0.000    0.000    0.000    0.000    0.000 
#
# Total GULP energy -78238.360851 kJ/mol
# GULP energy per Si atom -5588.454347 kJ/mol
# Density = 2.235654 g / cm^3
# Si number density = 22.407545 Si / 1000 Ang^3
#
#
#
# Elastic Constant Matrix: (Units=GPa)
#
#
# Indices 1 2 3 4 5 6 
#
# 1 127.4678 64.6038 36.0246 0.0000 26.1858 0.0000
# 2 64.6038 152.4977 48.5769 0.0000 22.0415 0.0000
# 3 36.0246 48.5769 59.5691 0.0000 40.0598 0.0000
# 4 0.0000 0.0000 0.0000 45.0788 0.0000 1.3322
# 5 26.1858 22.0415 40.0598 0.0000 55.3739 0.0000
# 6 0.0000 0.0000 0.0000 1.3322 0.0000 57.9590
#
#
#
# Elastic Compliance Matrix: (Units=1/GPa)
#
#
# Indices 1 2 3 4 5 6 
#
# 1 0.010675 -0.003525 -0.002201 0.000000 -0.002053 0.000000
# 2 -0.003525 0.010345 -0.009068 0.000000 0.004109 0.000000
# 3 -0.002201 -0.009068 0.043595 0.000000 -0.026888 0.000000
# 4 0.000000 0.000000 0.000000 0.022198 0.000000 -0.000510
# 5 -0.002053 0.004109 -0.026888 0.000000 0.036846 0.000000
# 6 0.000000 0.000000 0.000000 -0.000510 0.000000 0.017265
#
#
# Mechanical properties :
#
#
# Convention : Reuss Voigt Hill
#
# Bulk Modulus (GPa) = 28.54847 70.88280 49.71563
# Shear Modulus (GPa) = 27.44394 44.37096 35.90745
#
# Velocity S-wave (km/s) = 3.50346 4.45475 4.00743
# Velocity P-wave (km/s) = 5.39758 7.62639 6.60665
#
# Compressibility (1/GPa) = 0.03502815
#
# Stress axis : x y z
#
# Youngs Moduli (GPa) = 93.67445 96.66251 22.93827
#
# Poissons Ratio (x) = 0.34069 0.05049
# Poissons Ratio (y) = 0.33016 0.20801
# Poissons Ratio (z) = 0.20619 0.87655
#
# Static dielectric constant tensor:
#      x y z
#    x 1.884910 0.000000 -0.061150 
#    y 0.000000 1.841030 0.000000 
#    z -0.061150 0.000000 1.877170 
# 
# From -- ./inp_files/10881.got.cif
#   From: 2010.05.17/outbox.ucp.g08.bks.cvg/sg3_6_cif.got.tgz:10881.got - 2010.06.11 12:50:29.
