data_PCOD9114835
_publ_section_title
;
Structure prediction by ZEFSAII (Michael W. Deem and Ramdas Pophale) SiO2 
 PCOD9114835
Probable space group: P 21
;
_chemical_formula_sum "Si O2"
_cell_formula_units_Z 14
_cell_length_a 10.946404
_cell_length_b 8.172567
_cell_length_c 11.688616
_cell_angle_alpha 90.000000
_cell_angle_beta 33.838272
_cell_angle_gamma 90.000000
_cell_volume 582.279793
_symmetry_space_group_name_H-M "P 21"
_symmetry_group_IT_number 4
_symmetry_cell_setting 'monoclinic'
loop_
_space_group_symop_operation_xyz
x,y,z
-x,1/2+y,-z
loop_
_atom_site_type_symbol
_atom_site_label
_atom_site_fract_x
_atom_site_fract_y
_atom_site_fract_z
Si Si1 0.430316 0.020590 0.926260
Si Si2 0.590402 0.763009 0.632277
Si Si3 0.308001 0.472426 0.919510
Si Si4 0.110257 0.964794 0.593473
Si Si5 0.290223 0.859265 0.681006
Si Si6 0.704795 0.324222 0.755915
Si Si7 0.858551 0.667373 0.049641
O O1 0.603923 0.144500 0.848974
O O2 0.579491 0.912656 0.726419
O O3 0.248436 0.102786 0.985684
O O4 0.298771 0.916914 0.122097
O O5 0.801842 0.650481 0.487041
O O6 0.524001 0.820036 0.556749
O O7 0.379846 0.652113 0.828805
O O8 0.246017 0.349534 0.864967
O O9 0.110556 0.468708 0.162738
O O10 0.516071 0.407688 0.826330
O O11 0.280251 0.885688 0.553075
O O12 0.096229 0.862116 0.486487
O O13 0.114260 0.713730 0.840868
O O14 0.204181 0.029357 0.808398
#
# Coordination Sequence:
#
# PCOD9114835 Si02
#       7
#     2   2   2   2   2   2   2
#     4  10  21  40  62  85 115 158 197 240 297 347
#     4  10  21  37  59  86 119 155 194 239 292 350
#     4   9  19  38  59  86 117 154 195 238 292 346
#     4  10  21  36  58  87 116 152 195 241 292 347
#     4  10  19  35  57  88 121 154 194 240 290 346
#     4  10  20  39  61  81 116 152 194 246 290 345
#     4   9  19  35  60  87 116 153 195 234 287 347
#
# _framework density 24.043422
#
# number of rings (size 3 to 8) (size 9 to 14) (size 15 to 20)
#    0.000    2.286    0.000    3.429    0.000    4.571 
#    0.000   24.286    0.000    0.000    0.000    0.000 
#    0.000    0.000    0.000    0.000    0.000    0.000 
#
# Total GULP energy -78159.089832 kJ/mol
# GULP energy per Si atom -5582.792131 kJ/mol
# Density = 2.398870 g / cm^3
# Si number density = 24.043422 Si / 1000 Ang^3
#
#
#
# Elastic Constant Matrix: (Units=GPa)
#
#
# Indices 1 2 3 4 5 6 
#
# 1 44.7313 13.6686 7.2263 0.0000 19.1704 0.0000
# 2 13.6686 92.9302 21.6447 0.0000 7.4318 0.0000
# 3 7.2263 21.6447 96.6184 0.0000 16.7031 0.0000
# 4 0.0000 0.0000 0.0000 20.9087 0.0000 0.7787
# 5 19.1704 7.4318 16.7031 0.0000 27.0080 0.0000
# 6 0.0000 0.0000 0.0000 0.7787 0.0000 35.1343
#
#
#
# Elastic Compliance Matrix: (Units=1/GPa)
#
#
# Indices 1 2 3 4 5 6 
#
# 1 0.033461 -0.003559 0.002498 0.000000 -0.024317 0.000000
# 2 -0.003559 0.011805 -0.002523 0.000000 0.000838 0.000000
# 3 0.002498 -0.002523 0.012222 0.000000 -0.008638 0.000000
# 4 0.000000 0.000000 0.000000 0.047867 0.000000 -0.001061
# 5 -0.024317 0.000838 -0.008638 0.000000 0.059397 0.000000
# 6 0.000000 0.000000 0.000000 -0.001061 0.000000 0.028486
#
#
# Mechanical properties :
#
#
# Convention : Reuss Voigt Hill
#
# Bulk Modulus (GPa) = 19.87284 35.48435 27.67860
# Shear Modulus (GPa) = 23.02259 29.39286 26.20773
#
# Velocity S-wave (km/s) = 3.09778 3.50021 3.30512
# Velocity P-wave (km/s) = 4.59111 5.57905 5.10901
#
# Compressibility (1/GPa) = 0.05031993
#
# Stress axis : x y z
#
# Youngs Moduli (GPa) = 29.88563 84.71065 81.82201
#
# Poissons Ratio (x) = 0.30147 -0.20443
# Poissons Ratio (y) = 0.10636 0.20646
# Poissons Ratio (z) = -0.07467 0.21375
#
# Static dielectric constant tensor:
#      x y z
#    x 1.933890 0.000000 -0.009120 
#    y 0.000000 1.998960 0.000000 
#    z -0.009120 0.000000 1.990670 
# 
# From -- ./inp_files/11957.got.cif
#   From: 2010.05.17/outbox.cif.g08.bks.cpg/sg4_6_cif.got.tgz:11957.got - 2010.06.03 18:43:04.
