data_PCOD9114090
_publ_section_title
;
Structure prediction by ZEFSAII (Michael W. Deem and Ramdas Pophale) SiO2 
 PCOD9114090
Probable space group: P 2
;
_chemical_formula_sum "Si O2"
_cell_formula_units_Z 14
_cell_length_a 19.375965
_cell_length_b 6.509623
_cell_length_c 9.582490
_cell_angle_alpha 90.000000
_cell_angle_beta 31.441516
_cell_angle_gamma 90.000000
_cell_volume 630.461287
_symmetry_space_group_name_H-M "P 2"
_symmetry_group_IT_number 3
_symmetry_cell_setting 'monoclinic'
loop_
_space_group_symop_operation_xyz
x,y,z
-x,y,-z
loop_
_atom_site_type_symbol
_atom_site_label
_atom_site_fract_x
_atom_site_fract_y
_atom_site_fract_z
Si Si1 0.218207 0.526510 0.092768
Si Si2 0.837147 0.155445 0.602781
Si Si3 0.307887 0.354062 0.641666
Si Si4 0.000000 0.867729 0.500000
Si Si5 0.152750 0.051246 0.714743
Si Si6 0.387251 0.871714 0.895921
Si Si7 0.500000 0.139207 0.500000
Si Si8 0.613915 0.732765 0.683295
O O1 0.172490 0.349258 0.277791
O O2 0.117208 0.715085 0.259281
O O3 0.243298 0.444535 0.894642
O O4 0.343694 0.638913 0.945933
O O5 0.847756 0.197414 0.421468
O O6 0.957795 0.014280 0.446725
O O7 0.709572 0.009244 0.844910
O O8 0.214521 0.180880 0.735349
O O9 0.446101 0.269156 0.465017
O O10 0.339949 0.523069 0.469199
O O11 0.254182 0.863017 0.509191
O O12 0.000000 0.986301 0.000000
O O13 0.532339 0.862996 0.709586
O O14 0.386350 0.990014 0.750976
O O15 0.500000 0.703451 0.000000
#
# Coordination Sequence:
#
# PCOD9114090 Si02
#       8
#     2   2   2   1   2   2   1   2
#     4  11  25  45  76 111 143 199 263 321 381 457
#     4  11  25  47  75 106 150 200 258 312 389 460
#     4  12  28  44  76 113 152 198 255 324 383 458
#     4  10  26  42  78 100 146 200 260 312 374 460
#     4  12  31  49  75 111 163 205 251 319 392 468
#     4  11  23  43  74 107 145 191 255 319 386 445
#     4  12  22  46  74 112 150 190 256 330 378 444
#     4  12  27  49  76 108 152 207 257 315 391 467
#
# _framework density 22.205963000000001
#
# number of rings (size 3 to 8) (size 9 to 14) (size 15 to 20)
#    0.000    0.571    4.286    2.143    8.000    1.143 
#    0.000    0.000    0.000    0.000    0.000    0.000 
#    0.000    0.000    0.000    0.000    0.000    0.000 
#
# Total GULP energy -78220.239075 kJ/mol
# GULP energy per Si atom -5587.159934 kJ/mol
# Density = 2.215542 g / cm^3
# Si number density = 22.205963 Si / 1000 Ang^3
#
#
#
# Elastic Constant Matrix: (Units=GPa)
#
#
# Indices 1 2 3 4 5 6 
#
# 1 97.3846 52.3175 52.5327 0.0000 -8.3459 0.0000
# 2 52.3175 116.7747 46.0612 0.0000 0.9718 0.0000
# 3 52.5327 46.0612 105.5877 0.0000 6.3581 0.0000
# 4 0.0000 0.0000 0.0000 33.4217 0.0000 3.7446
# 5 -8.3459 0.9718 6.3581 0.0000 42.7839 0.0000
# 6 0.0000 0.0000 0.0000 3.7446 0.0000 35.1734
#
#
#
# Elastic Compliance Matrix: (Units=1/GPa)
#
#
# Indices 1 2 3 4 5 6 
#
# 1 0.016815 -0.005032 -0.006432 0.000000 0.004350 0.000000
# 2 -0.005032 0.011858 -0.002617 0.000000 -0.000862 0.000000
# 3 -0.006432 -0.002617 0.014010 0.000000 -0.003277 0.000000
# 4 0.000000 0.000000 0.000000 0.030282 0.000000 -0.003224
# 5 0.004350 -0.000862 -0.003277 0.000000 0.024729 0.000000
# 6 0.000000 0.000000 0.000000 -0.003224 0.000000 0.028774
#
#
# Mechanical properties :
#
#
# Convention : Reuss Voigt Hill
#
# Bulk Modulus (GPa) = 68.87651 69.06330 68.96991
# Shear Modulus (GPa) = 31.35386 33.53152 32.44269
#
# Velocity S-wave (km/s) = 3.76168 3.89012 3.82644
# Velocity P-wave (km/s) = 7.06763 7.16562 7.11679
#
# Compressibility (1/GPa) = 0.01451874
#
# Stress axis : x y z
#
# Youngs Moduli (GPa) = 59.47144 84.33453 71.37681
#
# Poissons Ratio (x) = 0.42440 0.45913
# Poissons Ratio (y) = 0.29928 0.18680
# Poissons Ratio (z) = 0.38255 0.22071
#
# Static dielectric constant tensor:
#      x y z
#    x 1.846240 0.000000 -0.025480 
#    y 0.000000 1.815070 0.000000 
#    z -0.025480 0.000000 1.893300 
# 
# From -- ./inp_files/8847.got.cif
#   From: 2010.05.17/outbox.cif.g08.bks.cpg/sg3_5_cif.got.tgz:8847.got - 2010.06.03 18:33:08.
