data_PCOD9114318
_publ_section_title
;
Structure prediction by ZEFSAII (Michael W. Deem and Ramdas Pophale) SiO2 
 PCOD9114318
Probable space group: P 2
;
_chemical_formula_sum "Si O2"
_cell_formula_units_Z 14
_cell_length_a 7.887134
_cell_length_b 6.389168
_cell_length_c 16.605004
_cell_angle_alpha 90.000000
_cell_angle_beta 135.392145
_cell_angle_gamma 90.000000
_cell_volume 587.617430
_symmetry_space_group_name_H-M "P 2"
_symmetry_group_IT_number 3
_symmetry_cell_setting 'monoclinic'
loop_
_space_group_symop_operation_xyz
x,y,z
-x,y,-z
loop_
_atom_site_type_symbol
_atom_site_label
_atom_site_fract_x
_atom_site_fract_y
_atom_site_fract_z
Si Si1 0.566658 0.456590 0.173947
Si Si2 0.062105 0.256491 0.346880
Si Si3 0.000000 0.135461 0.500000
Si Si4 0.500000 0.718971 0.000000
Si Si5 0.218469 0.117598 0.136119
Si Si6 0.379471 0.793422 0.686629
Si Si7 0.005515 0.927692 0.788564
Si Si8 0.620092 0.603411 0.620691
O O1 0.442517 0.568123 0.056225
O O2 0.381608 0.317049 0.164646
O O3 0.698392 0.637553 0.270010
O O4 0.795815 0.320397 0.225375
O O5 0.273257 0.385239 0.375588
O O6 0.073089 0.269254 0.446853
O O7 0.061120 0.015991 0.321302
O O8 0.787299 0.980865 0.399989
O O9 0.723648 0.865153 0.099696
O O10 0.391802 0.914962 0.197049
O O11 0.096340 0.099978 0.182878
O O12 0.000000 0.097789 0.000000
O O13 0.433422 0.640981 0.629602
O O14 0.850656 0.717458 0.737751
O O15 0.500000 0.701045 0.500000
#
# Coordination Sequence:
#
# PCOD9114318 Si02
#       8
#     2   2   1   1   2   2   2   2
#     4  12  27  45  72 111 145 192 245 301 361 441
#     4  12  27  45  72 111 145 192 245 301 361 441
#     4  12  26  46  82 108 152 196 244 302 380 432
#     4  12  26  46  82 108 152 196 244 302 380 432
#     4  11  26  46  75 105 147 193 243 305 366 438
#     4  11  26  49  72 106 148 197 243 301 367 440
#     4  11  26  49  72 106 148 197 243 301 367 440
#     4  11  26  46  75 105 147 193 243 305 366 438
#
# _framework density 23.825025
#
# number of rings (size 3 to 8) (size 9 to 14) (size 15 to 20)
#    0.000    0.571    2.857    3.429    8.000    5.714 
#    0.000    0.000    0.000    0.000    0.000    0.000 
#    0.000    0.000    0.000    0.000    0.000    0.000 
#
# Total GULP energy -78223.781481 kJ/mol
# GULP energy per Si atom -5587.412963 kJ/mol
# Density = 2.377080 g / cm^3
# Si number density = 23.825025 Si / 1000 Ang^3
#
#
#
# Elastic Constant Matrix: (Units=GPa)
#
#
# Indices 1 2 3 4 5 6 
#
# 1 57.1153 39.8078 13.3158 0.0000 -13.1692 0.0000
# 2 39.8078 92.7068 31.5609 0.0000 -3.6755 0.0000
# 3 13.3158 31.5609 110.0770 0.0000 5.7496 0.0000
# 4 0.0000 0.0000 0.0000 -51.7555 0.0000 -86.8043
# 5 -13.1692 -3.6755 5.7496 0.0000 48.2945 0.0000
# 6 0.0000 0.0000 0.0000 -86.8043 0.0000 -47.5665
#
#
#
# Elastic Compliance Matrix: (Units=1/GPa)
#
#
# Indices 1 2 3 4 5 6 
#
# 1 0.026874 -0.011146 -0.000396 0.000000 0.006527 0.000000
# 2 -0.011146 0.016661 -0.003357 0.000000 -0.001372 0.000000
# 3 -0.000396 -0.003357 0.010177 0.000000 -0.001575 0.000000
# 4 0.000000 0.000000 0.000000 0.009376 0.000000 -0.017110
# 5 0.006527 -0.001372 -0.001575 0.000000 0.022569 0.000000
# 6 0.000000 0.000000 0.000000 -0.017110 0.000000 0.010202
#
#
# Mechanical properties :
#
#
# Convention : Reuss Voigt Hill
#
# Bulk Modulus (GPa) = 41.81598 47.69646 44.75622
# Shear Modulus (GPa) = 37.41681 1.47547 19.44614
#
# Velocity S-wave (km/s) = 3.96723 0.78781 2.86003
# Velocity P-wave (km/s) = 6.21085 4.57061 5.45276
#
# Compressibility (1/GPa) = 0.02391430
#
# Stress axis : x y z
#
# Youngs Moduli (GPa) = 37.21037 60.01961 98.25817
#
# Poissons Ratio (x) = 0.66898 0.03892
# Poissons Ratio (y) = 0.41475 0.32986
# Poissons Ratio (z) = 0.01474 0.20149
#
# Static dielectric constant tensor:
#      x y z
#    x 2.003110 0.000000 -0.051690 
#    y 0.000000 1.907800 0.000000 
#    z -0.051690 0.000000 1.922950 
# 
# From -- ./inp_files/14836.got.cif
#   From: 2010.05.17/outbox.cif.g08.bks.cpg/sg3_8_cif.got.tgz:14836.got - 2010.06.03 18:33:08.
