data_PCOD9114752
_publ_section_title
;
Structure prediction by ZEFSAII (Michael W. Deem and Ramdas Pophale) SiO2 
 PCOD9114752
Probable space group: P 21
;
_chemical_formula_sum "Si O2"
_cell_formula_units_Z 10
_cell_length_a 10.419342
_cell_length_b 5.208984
_cell_length_c 18.814833
_cell_angle_alpha 90.000000
_cell_angle_beta 158.003721
_cell_angle_gamma 90.000000
_cell_volume 382.471682
_symmetry_space_group_name_H-M "P 21"
_symmetry_group_IT_number 4
_symmetry_cell_setting 'monoclinic'
loop_
_space_group_symop_operation_xyz
x,y,z
-x,1/2+y,-z
loop_
_atom_site_type_symbol
_atom_site_label
_atom_site_fract_x
_atom_site_fract_y
_atom_site_fract_z
Si Si1 0.976642 0.460740 0.785087
Si Si2 0.939477 0.945798 0.014432
Si Si3 0.250040 0.782304 0.816139
Si Si4 0.780036 0.425483 0.395294
Si Si5 0.134185 0.790668 0.412979
O O1 0.082780 0.738920 0.809016
O O2 0.735129 0.337454 0.600343
O O3 0.871347 0.452581 0.812501
O O4 0.346870 0.319929 0.969616
O O5 0.536899 0.889866 0.819977
O O6 0.936187 0.215738 0.971623
O O7 0.157149 0.512556 0.731788
O O8 0.959671 0.514714 0.326020
O O9 0.931455 0.710097 0.468835
O O10 0.642392 0.357879 0.404036
#
# Coordination Sequence:
#
# PCOD9114752 Si02
#       5
#     2   2   2   2   2
#     4  10  21  37  65  94 131 180 227 282 335 418
#     4  12  29  46  67 103 154 190 223 280 371 435
#     4  10  19  32  67  97 127 158 242 289 336 370
#     4  12  25  44  73 104 141 183 241 295 344 409
#     4  10  20  35  60  98 123 167 227 292 328 386
#
# _framework density 26.145726
#
# number of rings (size 3 to 8) (size 9 to 14) (size 15 to 20)
#    1.200    0.000    2.000    4.800    2.800    0.000 
#    0.000    2.000    0.000    0.000    0.000    0.000 
#    0.000    0.000    0.000    0.000    0.000    0.000 
#
# Total GULP energy -55902.660728 kJ/mol
# GULP energy per Si atom -5590.266073 kJ/mol
# Density = 2.608622 g / cm^3
# Si number density = 26.145726 Si / 1000 Ang^3
#
#
#
# Elastic Constant Matrix: (Units=GPa)
#
#
# Indices 1 2 3 4 5 6 
#
# 1 104.2328 15.4658 31.7887 0.0000 -39.9436 0.0000
# 2 15.4658 135.3122 1.1219 0.0000 0.7376 0.0000
# 3 31.7887 1.1219 61.7725 0.0000 -24.6166 0.0000
# 4 0.0000 0.0000 0.0000 34.4143 0.0000 0.2523
# 5 -39.9436 0.7376 -24.6166 0.0000 70.8673 0.0000
# 6 0.0000 0.0000 0.0000 0.2523 0.0000 47.1536
#
#
#
# Elastic Compliance Matrix: (Units=1/GPa)
#
#
# Indices 1 2 3 4 5 6 
#
# 1 0.013526 -0.001542 -0.004513 0.000000 0.006072 0.000000
# 2 -0.001542 0.007568 0.000323 0.000000 -0.000836 0.000000
# 3 -0.004513 0.000323 0.020300 0.000000 0.004504 0.000000
# 4 0.000000 0.000000 0.000000 0.029059 0.000000 -0.000155
# 5 0.006072 -0.000836 0.004504 0.000000 0.019107 0.000000
# 6 0.000000 0.000000 0.000000 -0.000155 0.000000 0.021208
#
#
# Mechanical properties :
#
#
# Convention : Reuss Voigt Hill
#
# Bulk Modulus (GPa) = 33.40986 44.23003 38.81995
# Shear Modulus (GPa) = 37.81917 47.34979 42.58448
#
# Velocity S-wave (km/s) = 3.80738 4.26020 4.04014
# Velocity P-wave (km/s) = 5.66871 6.41502 6.05338
#
# Compressibility (1/GPa) = 0.02993128
#
# Stress axis : x y z
#
# Youngs Moduli (GPa) = 73.93209 132.12826 49.26121
#
# Poissons Ratio (x) = 0.20370 0.22230
# Poissons Ratio (y) = 0.11398 -0.01591
# Poissons Ratio (z) = 0.33364 -0.04267
#
# Static dielectric constant tensor:
#      x y z
#    x 2.238710 0.000000 -0.099140 
#    y 0.000000 1.976430 0.000000 
#    z -0.099140 0.000000 2.009080 
# 
# From -- ./inp_files/9816.got.cif
#   From: 2010.05.17/outbox.cif.g08.bks.cpg/sg4_5_cif.got.tgz:9816.got - 2010.06.03 18:43:04.
