data_PCOD9114970
_publ_section_title
;
Structure prediction by ZEFSAII (Michael W. Deem and Ramdas Pophale) SiO2 
 PCOD9114970
Probable space group: P 21
;
_chemical_formula_sum "Si O2"
_cell_formula_units_Z 16
_cell_length_a 8.466299
_cell_length_b 5.383334
_cell_length_c 16.628656
_cell_angle_alpha 90.000000
_cell_angle_beta 113.982915
_cell_angle_gamma 90.000000
_cell_volume 692.452320
_symmetry_space_group_name_H-M "P 21"
_symmetry_group_IT_number 4
_symmetry_cell_setting 'monoclinic'
loop_
_space_group_symop_operation_xyz
x,y,z
-x,1/2+y,-z
loop_
_atom_site_type_symbol
_atom_site_label
_atom_site_fract_x
_atom_site_fract_y
_atom_site_fract_z
Si Si1 0.269444 0.320690 0.282800
Si Si2 0.526302 0.157772 0.454757
Si Si3 0.005573 0.278514 0.361986
Si Si4 0.564683 0.716659 0.297643
Si Si5 0.615659 0.423312 0.015567
Si Si6 0.702616 0.368912 0.200955
Si Si7 0.815652 0.507225 0.465010
Si Si8 0.649031 0.600162 0.851528
O O1 0.380792 0.119293 0.356891
O O2 0.411595 0.529862 0.293686
O O3 0.216703 0.217789 0.183972
O O4 0.119164 0.392909 0.313319
O O5 0.468324 0.412177 0.489998
O O6 0.700711 0.258403 0.449802
O O7 0.831193 0.196119 0.279071
O O8 0.957293 0.457564 0.426169
O O9 0.107879 0.069537 0.432495
O O10 0.692567 0.606723 0.255614
O O11 0.689431 0.718604 0.401248
O O12 0.463894 0.922049 0.228007
O O13 0.748073 0.402080 0.117483
O O14 0.495476 0.666584 0.010148
O O15 0.700362 0.472795 0.945673
O O16 0.501057 0.293839 0.155495
#
# Coordination Sequence:
#
# PCOD9114970 Si02
#       8
#     2   2   2   2   2   2   2   2
#     4  10  23  37  60  87 124 171 213 270 314 388
#     4  11  24  43  66  91 121 171 227 265 312 371
#     4  11  23  41  56  91 136 172 218 259 341 381
#     4   9  19  39  58  87 117 163 218 263 311 371
#     4  10  19  37  71 101 125 161 217 274 326 380
#     4   9  20  38  61  95 125 161 206 271 322 386
#     4  10  24  36  61  88 129 172 219 268 312 391
#     4  10  20  37  67  90 121 157 222 264 324 380
#
# _framework density 23.106285
#
# number of rings (size 3 to 8) (size 9 to 14) (size 15 to 20)
#    0.000    2.000    2.500    0.750    7.000    0.000 
#    0.000    0.000    2.750    0.000    0.000    0.000 
#    0.000    0.000    0.000    0.000    0.000    0.000 
#
# Total GULP energy -89133.191999 kJ/mol
# GULP energy per Si atom -5570.824500 kJ/mol
# Density = 2.305369 g / cm^3
# Si number density = 23.106285 Si / 1000 Ang^3
#
#
#
# Elastic Constant Matrix: (Units=GPa)
#
#
# Indices 1 2 3 4 5 6 
#
# 1 101.9944 13.5612 42.4493 0.0000 -37.4831 0.0000
# 2 13.5612 68.5844 35.1725 0.0000 -19.3803 0.0000
# 3 42.4493 35.1725 161.7877 0.0000 -38.7529 0.0000
# 4 0.0000 0.0000 0.0000 30.9032 0.0000 -6.6160
# 5 -37.4831 -19.3803 -38.7529 0.0000 40.0072 0.0000
# 6 0.0000 0.0000 0.0000 -6.6160 0.0000 18.0974
#
#
#
# Elastic Compliance Matrix: (Units=1/GPa)
#
#
# Indices 1 2 3 4 5 6 
#
# 1 0.015138 0.001435 -0.000938 0.000000 0.013970 0.000000
# 2 0.001435 0.017670 -0.002403 0.000000 0.007577 0.000000
# 3 -0.000938 -0.002403 0.008412 0.000000 0.006105 0.000000
# 4 0.000000 0.000000 0.000000 0.035107 0.000000 0.012834
# 5 0.013970 0.007577 0.006105 0.000000 0.047668 0.000000
# 6 0.000000 0.000000 0.000000 0.012834 0.000000 0.059949
#
#
# Mechanical properties :
#
#
# Convention : Reuss Voigt Hill
#
# Bulk Modulus (GPa) = 26.73200 57.19251 41.96225
# Shear Modulus (GPa) = 24.97201 33.88045 29.42623
#
# Velocity S-wave (km/s) = 3.29104 3.83337 3.57251
# Velocity P-wave (km/s) = 5.10250 6.66323 5.93439
#
# Compressibility (1/GPa) = 0.03740835
#
# Stress axis : x y z
#
# Youngs Moduli (GPa) = 66.06004 56.59243 118.87978
#
# Poissons Ratio (x) = -0.08122 0.11147
# Poissons Ratio (y) = -0.09481 0.28570
# Poissons Ratio (z) = 0.06194 0.13600
#
# Static dielectric constant tensor:
#      x y z
#    x 1.976530 0.000000 -0.036510 
#    y 0.000000 1.997310 0.000000 
#    z -0.036510 0.000000 1.912340 
# 
# From -- ./inp_files/14810.got.cif
#   From: 2010.05.17/outbox.cif.g08.bks.cpg/sg4_8_cif.got.tgz:14810.got - 2010.06.03 18:43:04.
