data_PCOD9114516
_publ_section_title
;
Structure prediction by ZEFSAII (Michael W. Deem and Ramdas Pophale) SiO2 
 PCOD9114516
Probable space group: P 21
;
_chemical_formula_sum "Si O2"
_cell_formula_units_Z 16
_cell_length_a 7.127268
_cell_length_b 9.224065
_cell_length_c 16.831679
_cell_angle_alpha 90.000000
_cell_angle_beta 33.311109
_cell_angle_gamma 90.000000
_cell_volume 607.703085
_symmetry_space_group_name_H-M "P 21"
_symmetry_group_IT_number 4
_symmetry_cell_setting 'monoclinic'
loop_
_space_group_symop_operation_xyz
x,y,z
-x,1/2+y,-z
loop_
_atom_site_type_symbol
_atom_site_label
_atom_site_fract_x
_atom_site_fract_y
_atom_site_fract_z
Si Si1 0.294319 0.167500 0.785890
Si Si2 0.952658 0.424900 0.949902
Si Si3 0.852732 0.748679 0.415884
Si Si4 0.856691 0.045814 0.490480
Si Si5 0.649240 0.001475 0.033880
Si Si6 0.706018 0.750967 0.768229
Si Si7 0.465136 0.185368 0.908971
Si Si8 0.329438 0.966213 0.548374
O O1 0.294603 0.182420 0.881612
O O2 0.661613 0.099735 0.637528
O O3 0.166388 0.329025 0.811944
O O4 0.979055 0.065449 0.873708
O O5 0.660893 0.331664 0.101293
O O6 0.722809 0.547228 0.988637
O O7 0.222158 0.483206 0.919334
O O8 0.965497 0.876659 0.438093
O O9 0.599654 0.836554 0.447447
O O10 0.692738 0.598758 0.506371
O O11 0.145319 0.687508 0.255580
O O12 0.518186 0.047654 0.554060
O O13 0.136842 0.160534 0.361632
O O14 0.585137 0.837946 0.029966
O O15 0.353215 0.120893 0.147615
O O16 0.981375 0.877544 0.685680
#
# Coordination Sequence:
#
# PCOD9114516 Si02
#       8
#     2   2   2   2   2   2   2   2
#     4   9  20  36  54  83 119 150 181 246 299 338
#     4   9  19  33  58  81 111 153 198 232 278 358
#     4  10  19  34  59  85 114 148 200 240 282 354
#     4  10  20  36  56  84 122 147 185 252 300 333
#     4   9  18  35  57  79 112 154 196 231 286 346
#     4  11  18  34  59  84 110 162 198 233 283 365
#     4  10  17  34  58  82 108 154 204 228 278 359
#     4  10  19  34  59  86 114 156 198 236 288 361
#
# _framework density 26.328648000000001
#
# number of rings (size 3 to 8) (size 9 to 14) (size 15 to 20)
#    0.750    1.500    3.750    0.750    0.000    0.000 
#    4.500    1.250    5.500    0.000    0.000    0.000 
#    0.000    0.000    0.000    0.000    0.000    0.000 
#
# Total GULP energy -89105.196137 kJ/mol
# GULP energy per Si atom -5569.074759 kJ/mol
# Density = 2.626872 g / cm^3
# Si number density = 26.328648 Si / 1000 Ang^3
#
#
#
# Elastic Constant Matrix: (Units=GPa)
#
#
# Indices 1 2 3 4 5 6 
#
# 1 28.2265 15.9634 23.0720 0.0000 3.3941 0.0000
# 2 15.9634 223.9224 41.5113 0.0000 6.6648 0.0000
# 3 23.0720 41.5113 83.7678 0.0000 -2.8901 0.0000
# 4 0.0000 0.0000 0.0000 46.1939 0.0000 -12.2270
# 5 3.3941 6.6648 -2.8901 0.0000 28.1840 0.0000
# 6 0.0000 0.0000 0.0000 -12.2270 0.0000 25.4492
#
#
#
# Elastic Compliance Matrix: (Units=1/GPa)
#
#
# Indices 1 2 3 4 5 6 
#
# 1 0.047188 -0.000780 -0.012846 0.000000 -0.006816 0.000000
# 2 -0.000780 0.004988 -0.002302 0.000000 -0.001322 0.000000
# 3 -0.012846 -0.002302 0.016748 0.000000 0.003809 0.000000
# 4 0.000000 0.000000 0.000000 0.024802 0.000000 0.011916
# 5 -0.006816 -0.001322 0.003809 0.000000 0.037005 0.000000
# 6 0.000000 0.000000 0.000000 0.011916 0.000000 0.045019
#
#
# Mechanical properties :
#
#
# Convention : Reuss Voigt Hill
#
# Bulk Modulus (GPa) = 26.97731 55.22334 41.10033
# Shear Modulus (GPa) = 22.73121 36.99007 29.86064
#
# Velocity S-wave (km/s) = 2.94149 3.75231 3.37137
# Velocity P-wave (km/s) = 4.66960 6.30819 5.54970
#
# Compressibility (1/GPa) = 0.03706819
#
# Stress axis : x y z
#
# Youngs Moduli (GPa) = 21.19173 200.49761 59.70793
#
# Poissons Ratio (x) = 0.15636 0.76699
# Poissons Ratio (y) = 0.01653 0.13747
# Poissons Ratio (z) = 0.27222 0.46163
#
# Static dielectric constant tensor:
#      x y z
#    x 2.196150 0.000000 0.032880 
#    y 0.000000 2.251400 0.000000 
#    z 0.032880 0.000000 2.075980 
# 
# From -- ./inp_files/7726.got.cif
#   From: 2010.05.17/outbox.cif.g08.bks.cpg/sg4_4_cif.got.tgz:7726.got - 2010.06.03 18:43:04.
