data_PCOD9114628
_publ_section_title
;
Structure prediction by ZEFSAII (Michael W. Deem and Ramdas Pophale) SiO2 
 PCOD9114628
Probable space group: P 21
;
_chemical_formula_sum "Si O2"
_cell_formula_units_Z 14
_cell_length_a 5.013071
_cell_length_b 12.824367
_cell_length_c 9.698954
_cell_angle_alpha 90.000000
_cell_angle_beta 108.597362
_cell_angle_gamma 90.000000
_cell_volume 590.981180
_symmetry_space_group_name_H-M "P 21"
_symmetry_group_IT_number 4
_symmetry_cell_setting 'monoclinic'
loop_
_space_group_symop_operation_xyz
x,y,z
-x,1/2+y,-z
loop_
_atom_site_type_symbol
_atom_site_label
_atom_site_fract_x
_atom_site_fract_y
_atom_site_fract_z
Si Si1 0.972220 0.318930 0.349681
Si Si2 0.952186 0.718348 0.119326
Si Si3 0.075637 0.079966 0.429006
Si Si4 0.679983 0.112831 0.619460
Si Si5 0.275809 0.407981 0.760359
Si Si6 0.608718 0.310197 0.027040
Si Si7 0.437152 0.852817 0.471202
O O1 0.032958 0.195048 0.360402
O O2 0.828126 0.355250 0.468505
O O3 0.280454 0.367743 0.390368
O O4 0.758596 0.339356 0.191913
O O5 0.125296 0.620952 0.211311
O O6 0.159671 0.769563 0.042788
O O7 0.884999 0.797588 0.236967
O O8 0.361783 0.221548 0.998872
O O9 0.888422 0.082003 0.533686
O O10 0.388310 0.054500 0.535640
O O11 0.945977 0.998955 0.299381
O O12 0.572166 0.231535 0.580695
O O13 0.458697 0.409184 0.929822
O O14 0.482082 0.405285 0.662601
#
# Coordination Sequence:
#
# PCOD9114628 Si02
#       7
#     2   2   2   2   2   2   2
#     4  10  21  38  56  88 114 156 191 240 288 351
#     4  10  19  34  61  81 112 151 203 231 274 364
#     4  10  22  32  60  85 122 144 196 251 301 320
#     4  10  18  35  53  87 111 145 187 249 278 339
#     4  10  22  35  62  90 112 154 201 247 289 340
#     4  10  21  34  62  81 115 154 204 228 287 358
#     4  10  19  34  60  80 114 144 200 232 283 352
#
# _framework density 23.689416999999999
#
# number of rings (size 3 to 8) (size 9 to 14) (size 15 to 20)
#    0.857    1.143    1.429    4.286    2.000    0.000 
#    0.000    0.000    9.429    0.000    0.000    0.000 
#    0.000    0.000    0.000    0.000    0.000    0.000 
#
# Total GULP energy -78053.523392 kJ/mol
# GULP energy per Si atom -5575.251671 kJ/mol
# Density = 2.363550 g / cm^3
# Si number density = 23.689417 Si / 1000 Ang^3
#
#
#
# Elastic Constant Matrix: (Units=GPa)
#
#
# Indices 1 2 3 4 5 6 
#
# 1 157.8900 9.2574 27.1963 0.0000 16.2162 0.0000
# 2 9.2574 47.0083 10.5163 0.0000 9.7047 0.0000
# 3 27.1963 10.5163 94.2070 0.0000 31.9175 0.0000
# 4 0.0000 0.0000 0.0000 13.3622 0.0000 6.6296
# 5 16.2162 9.7047 31.9175 0.0000 40.8927 0.0000
# 6 0.0000 0.0000 0.0000 6.6296 0.0000 38.0925
#
#
#
# Elastic Compliance Matrix: (Units=1/GPa)
#
#
# Indices 1 2 3 4 5 6 
#
# 1 0.006762 -0.000727 -0.001388 0.000000 -0.001426 0.000000
# 2 -0.000727 0.022510 -0.000803 0.000000 -0.004427 0.000000
# 3 -0.001388 -0.000803 0.014756 0.000000 -0.010777 0.000000
# 4 0.000000 0.000000 0.000000 0.081911 0.000000 -0.014256
# 5 -0.001426 -0.004427 -0.010777 0.000000 0.034482 0.000000
# 6 0.000000 0.000000 0.000000 -0.014256 0.000000 0.028733
#
#
# Mechanical properties :
#
#
# Convention : Reuss Voigt Hill
#
# Bulk Modulus (GPa) = 26.18339 43.67170 34.92755
# Shear Modulus (GPa) = 24.07096 35.27850 29.67473
#
# Velocity S-wave (km/s) = 3.19110 3.86321 3.54313
# Velocity P-wave (km/s) = 4.96531 6.19470 5.61376
#
# Compressibility (1/GPa) = 0.03819215
#
# Stress axis : x y z
#
# Youngs Moduli (GPa) = 147.89370 44.42559 67.76735
#
# Poissons Ratio (x) = 0.03229 0.09405
# Poissons Ratio (y) = 0.10749 0.05442
# Poissons Ratio (z) = 0.20525 0.03568
#
# Static dielectric constant tensor:
#      x y z
#    x 1.952860 0.000000 0.092210 
#    y 0.000000 2.092870 0.000000 
#    z 0.092210 0.000000 1.897460 
# 
# From -- ./inp_files/4696.got.cif
#   From: 2010.05.17/outbox.cif.g08.bks.cpg/sg4_3_cif.got.tgz:4696.got - 2010.06.03 18:43:04.
