data_PCOD9114971
_publ_section_title
;
Structure prediction by ZEFSAII (Michael W. Deem and Ramdas Pophale) SiO2 
 PCOD9114971
Probable space group: P 21
;
_chemical_formula_sum "Si O2"
_cell_formula_units_Z 16
_cell_length_a 11.213824
_cell_length_b 5.174016
_cell_length_c 17.756728
_cell_angle_alpha 90.000000
_cell_angle_beta 124.517984
_cell_angle_gamma 90.000000
_cell_volume 848.876364
_symmetry_space_group_name_H-M "P 21"
_symmetry_group_IT_number 4
_symmetry_cell_setting 'monoclinic'
loop_
_space_group_symop_operation_xyz
x,y,z
-x,1/2+y,-z
loop_
_atom_site_type_symbol
_atom_site_label
_atom_site_fract_x
_atom_site_fract_y
_atom_site_fract_z
Si Si1 0.515530 0.760450 0.112485
Si Si2 0.391875 0.013389 0.208886
Si Si3 0.711380 0.520167 0.074610
Si Si4 0.145722 0.711591 0.200708
Si Si5 0.494966 0.198945 0.401524
Si Si6 0.959375 0.215310 0.107026
Si Si7 0.747685 0.893921 0.951188
Si Si8 0.667559 0.196701 0.599509
O O1 0.502197 0.927353 0.183138
O O2 0.666344 0.656482 0.135379
O O3 0.406644 0.527793 0.092060
O O4 0.436229 0.912672 0.016051
O O5 0.294747 0.779726 0.209000
O O6 0.478905 0.147279 0.307542
O O7 0.275808 0.201492 0.126540
O O8 0.830364 0.295378 0.118354
O O9 0.770797 0.718451 0.033427
O O10 0.185602 0.653882 0.302115
O O11 0.058510 0.469251 0.136943
O O12 0.055667 0.975330 0.166282
O O13 0.644267 0.164292 0.501613
O O14 0.387106 0.983601 0.398578
O O15 0.437711 0.482897 0.400813
O O16 0.870805 0.115477 0.001325
#
# Coordination Sequence:
#
# PCOD9114971 Si02
#       8
#     2   2   2   2   2   2   2   2
#     4  10  20  34  58  79 108 147 191 246 292 310
#     4  10  23  35  56  86 119 149 180 240 294 340
#     4  10  19  38  55  79 106 146 203 241 271 324
#     4  11  22  39  55  81 121 153 193 221 277 348
#     4   9  18  34  56  83 111 141 186 226 291 340
#     4  11  23  39  56  77 114 159 195 226 262 336
#     4  10  21  39  54  81 108 150 192 233 277 319
#     4   9  18  34  58  78 109 153 180 231 272 337
#
# _framework density 18.848445000000002
#
# number of rings (size 3 to 8) (size 9 to 14) (size 15 to 20)
#    0.000    2.000    2.500    1.500    5.250    0.000 
#    6.750    0.000    0.000    0.000    0.000    0.000 
#    7.500    0.000    0.000    0.000    0.000    0.000 
#
# Total GULP energy -89192.503612 kJ/mol
# GULP energy per Si atom -5574.531476 kJ/mol
# Density = 1.880555 g / cm^3
# Si number density = 18.848445 Si / 1000 Ang^3
#
#
#
# Elastic Constant Matrix: (Units=GPa)
#
#
# Indices 1 2 3 4 5 6 
#
# 1 59.3286 23.2231 58.1712 0.0000 -8.2561 0.0000
# 2 23.2231 90.0224 39.6651 0.0000 -2.8426 0.0000
# 3 58.1712 39.6651 114.2260 0.0000 -17.1017 0.0000
# 4 0.0000 0.0000 0.0000 24.6044 0.0000 5.8221
# 5 -8.2561 -2.8426 -17.1017 0.0000 8.8508 0.0000
# 6 0.0000 0.0000 0.0000 5.8221 0.0000 37.5298
#
#
#
# Elastic Compliance Matrix: (Units=1/GPa)
#
#
# Indices 1 2 3 4 5 6 
#
# 1 0.033822 -0.001267 -0.017056 0.000000 -0.001813 0.000000
# 2 -0.001267 0.013430 -0.004994 0.000000 -0.006519 0.000000
# 3 -0.017056 -0.004994 0.023290 0.000000 0.027488 0.000000
# 4 0.000000 0.000000 0.000000 0.042192 0.000000 -0.006545
# 5 -0.001813 -0.006519 0.027488 0.000000 0.162311 0.000000
# 6 0.000000 0.000000 0.000000 -0.006545 0.000000 0.027661
#
#
# Mechanical properties :
#
#
# Convention : Reuss Voigt Hill
#
# Bulk Modulus (GPa) = 41.82746 56.18841 49.00793
# Shear Modulus (GPa) = 13.99348 23.69819 18.84584
#
# Velocity S-wave (km/s) = 2.72770 3.54969 3.16549
# Velocity P-wave (km/s) = 5.67099 6.83197 6.27837
#
# Compressibility (1/GPa) = 0.02390774
#
# Stress axis : x y z
#
# Youngs Moduli (GPa) = 29.56655 74.46069 42.93698
#
# Poissons Ratio (x) = 0.09437 0.73232
# Poissons Ratio (y) = 0.03747 0.21443
# Poissons Ratio (z) = 0.50428 0.37186
#
# Static dielectric constant tensor:
#      x y z
#    x 1.686720 0.000000 -0.016890 
#    y 0.000000 1.739090 0.000000 
#    z -0.016890 0.000000 1.708690 
# 
# From -- ./inp_files/15078.got.cif
#   From: 2010.05.17/outbox.cif.g08.bks.cpg/sg4_8_cif.got.tgz:15078.got - 2010.06.03 18:43:04.
