data_PCOD9114043
_publ_section_title
;
Structure prediction by ZEFSAII (Michael W. Deem and Ramdas Pophale) SiO2 
 PCOD9114043
Probable space group: P 2
;
_chemical_formula_sum "Si O2"
_cell_formula_units_Z 14
_cell_length_a 8.654156
_cell_length_b 6.613213
_cell_length_c 15.672798
_cell_angle_alpha 90.000000
_cell_angle_beta 44.386087
_cell_angle_gamma 90.000000
_cell_volume 627.429839
_symmetry_space_group_name_H-M "P 2"
_symmetry_group_IT_number 3
_symmetry_cell_setting 'monoclinic'
loop_
_space_group_symop_operation_xyz
x,y,z
-x,y,-z
loop_
_atom_site_type_symbol
_atom_site_label
_atom_site_fract_x
_atom_site_fract_y
_atom_site_fract_z
Si Si1 0.660291 0.846540 0.596427
Si Si2 0.000000 0.150781 0.500000
Si Si3 0.742717 0.963479 0.874172
Si Si4 0.088759 0.328443 0.745827
Si Si5 0.440945 0.673879 0.201973
Si Si6 0.500000 0.103743 0.500000
Si Si7 0.020647 0.510297 0.606275
Si Si8 0.895834 0.628256 0.950713
O O1 0.486961 0.762075 0.733769
O O2 0.829862 0.675927 0.497360
O O3 0.797972 0.005426 0.598779
O O4 0.587177 0.956300 0.539864
O O5 0.078361 0.293293 0.545047
O O6 0.909314 0.151372 0.798918
O O7 0.676039 0.834065 0.816328
O O8 0.854703 0.812301 0.900027
O O9 0.500000 0.036594 0.000000
O O10 0.324310 0.238004 0.623432
O O11 0.057347 0.509867 0.691412
O O12 0.033078 0.440177 0.856732
O O13 0.239554 0.529254 0.305368
O O14 0.642601 0.569781 0.074280
O O15 0.000000 0.693561 0.000000
#
# Coordination Sequence:
#
# PCOD9114043 Si02
#       8
#     2   1   2   2   2   1   2   2
#     4  12  25  45  68 110 149 184 241 302 368 429
#     4  12  20  42  68 106 140 178 252 298 352 426
#     4  10  24  47  74 103 138 190 246 302 349 424
#     4  12  27  47  71 107 146 189 247 291 371 438
#     4  11  22  46  74 103 137 195 238 301 360 420
#     4  12  30  46  74 108 152 200 230 310 368 440
#     4  12  23  40  76 104 138 188 246 303 359 423
#     4  11  28  46  71 103 148 191 241 295 372 438
#
# _framework density 22.313251000000001
#
# number of rings (size 3 to 8) (size 9 to 14) (size 15 to 20)
#    0.000    0.571    5.714    1.714    4.000    3.429 
#    2.571    0.000    0.000    0.000    0.000    0.000 
#    0.000    0.000    0.000    0.000    0.000    0.000 
#
# Total GULP energy -78075.072077 kJ/mol
# GULP energy per Si atom -5576.790863 kJ/mol
# Density = 2.226246 g / cm^3
# Si number density = 22.313251 Si / 1000 Ang^3
#
#
#
# Elastic Constant Matrix: (Units=GPa)
#
#
# Indices 1 2 3 4 5 6 
#
# 1 82.6348 28.0339 42.8808 0.0000 16.5921 0.0000
# 2 28.0339 74.6927 60.3222 0.0000 -8.3600 0.0000
# 3 42.8808 60.3222 148.3220 0.0000 -3.9349 0.0000
# 4 0.0000 0.0000 0.0000 29.3374 0.0000 2.9596
# 5 16.5921 -8.3600 -3.9349 0.0000 41.0096 0.0000
# 6 0.0000 0.0000 0.0000 2.9596 0.0000 17.3796
#
#
#
# Elastic Compliance Matrix: (Units=1/GPa)
#
#
# Indices 1 2 3 4 5 6 
#
# 1 0.017000 -0.004688 -0.003224 0.000000 -0.008143 0.000000
# 2 -0.004688 0.021683 -0.007314 0.000000 0.005615 0.000000
# 3 -0.003224 -0.007314 0.010671 0.000000 0.000837 0.000000
# 4 0.000000 0.000000 0.000000 0.034682 0.000000 -0.005906
# 5 -0.008143 0.005615 0.000837 0.000000 0.028904 0.000000
# 6 0.000000 0.000000 0.000000 -0.005906 0.000000 0.058544
#
#
# Mechanical properties :
#
#
# Convention : Reuss Voigt Hill
#
# Bulk Modulus (GPa) = 52.90610 63.12480 58.01545
# Shear Modulus (GPa) = 24.01097 29.17283 26.59190
#
# Velocity S-wave (km/s) = 3.28393 3.61975 3.45592
# Velocity P-wave (km/s) = 6.17584 6.76918 6.47931
#
# Compressibility (1/GPa) = 0.01890141
#
# Stress axis : x y z
#
# Youngs Moduli (GPa) = 58.82353 46.11875 93.71103
#
# Poissons Ratio (x) = 0.21621 0.30215
# Poissons Ratio (y) = 0.27577 0.68542
# Poissons Ratio (z) = 0.18966 0.33732
#
# Static dielectric constant tensor:
#      x y z
#    x 1.897620 0.000000 0.018480 
#    y 0.000000 1.835700 0.000000 
#    z 0.018480 0.000000 1.857070 
# 
# From -- ./inp_files/10278.got.cif
#   From: 2010.05.17/outbox.cif.g08.bks.cpg/sg3_6_cif.got.tgz:10278.got - 2010.06.03 18:33:08.
