data_PCOD9114866
_publ_section_title
;
Structure prediction by ZEFSAII (Michael W. Deem and Ramdas Pophale) SiO2 
 PCOD9114866
Probable space group: P 21
;
_chemical_formula_sum "Si O2"
_cell_formula_units_Z 16
_cell_length_a 7.829489
_cell_length_b 6.585666
_cell_length_c 21.397237
_cell_angle_alpha 90.000000
_cell_angle_beta 40.087222
_cell_angle_gamma 90.000000
_cell_volume 710.468786
_symmetry_space_group_name_H-M "P 21"
_symmetry_group_IT_number 4
_symmetry_cell_setting 'monoclinic'
loop_
_space_group_symop_operation_xyz
x,y,z
-x,1/2+y,-z
loop_
_atom_site_type_symbol
_atom_site_label
_atom_site_fract_x
_atom_site_fract_y
_atom_site_fract_z
Si Si1 0.581160 0.409640 0.881581
Si Si2 0.133280 0.190919 0.053997
Si Si3 0.168347 0.543300 0.709676
Si Si4 0.859255 0.361809 0.395807
Si Si5 0.591173 0.076213 0.779766
Si Si6 0.698981 0.384770 0.253306
Si Si7 0.771300 0.301858 0.034944
Si Si8 0.517161 0.652928 0.420375
O O1 0.595901 0.298922 0.809145
O O2 0.374658 0.594514 0.940848
O O3 0.876895 0.477492 0.814288
O O4 0.442020 0.248664 0.966143
O O5 0.995474 0.327216 0.146195
O O6 0.989287 0.258213 0.028294
O O7 0.109858 0.946145 0.052432
O O8 0.121170 0.709279 0.668467
O O9 0.305199 0.347951 0.643012
O O10 0.357153 0.650495 0.709038
O O11 0.624659 0.522825 0.448635
O O12 0.775324 0.231810 0.479866
O O13 0.123651 0.493864 0.320966
O O14 0.407926 0.021842 0.772820
O O15 0.464462 0.932919 0.868035
O O16 0.586251 0.509426 0.343130
#
# Coordination Sequence:
#
# PCOD9114866 Si02
#       8
#     2   2   2   2   2   2   2   2
#     4  11  21  38  68  97 126 184 230 266 331 423
#     4  10  21  38  60  97 134 179 218 277 333 409
#     4  11  23  43  64  95 131 177 221 287 338 410
#     4  11  21  42  71  94 125 176 236 275 337 421
#     4  10  22  41  65  98 134 171 227 284 337 407
#     4  10  26  44  61 101 144 173 216 297 357 387
#     4  10  19  35  65  95 129 172 229 267 331 401
#     4  11  23  43  68  93 133 178 227 283 346 410
#
# _framework density 22.520340999999998
#
# number of rings (size 3 to 8) (size 9 to 14) (size 15 to 20)
#    0.000    1.500    5.000    0.000    0.000    3.000 
#    6.750    0.000    0.000    0.000    0.000    0.000 
#    0.000    0.000    0.000    0.000    0.000    0.000 
#
# Total GULP energy -89081.834885 kJ/mol
# GULP energy per Si atom -5567.614680 kJ/mol
# Density = 2.246908 g / cm^3
# Si number density = 22.520341 Si / 1000 Ang^3
#
#
#
# Elastic Constant Matrix: (Units=GPa)
#
#
# Indices 1 2 3 4 5 6 
#
# 1 33.1446 22.3557 23.3036 0.0000 4.9220 0.0000
# 2 22.3557 93.4583 20.5500 0.0000 6.7396 0.0000
# 3 23.3036 20.5500 118.7021 0.0000 2.3430 0.0000
# 4 0.0000 0.0000 0.0000 45.4580 0.0000 -3.9229
# 5 4.9220 6.7396 2.3430 0.0000 23.5569 0.0000
# 6 0.0000 0.0000 0.0000 -3.9229 0.0000 21.6950
#
#
#
# Elastic Compliance Matrix: (Units=1/GPa)
#
#
# Indices 1 2 3 4 5 6 
#
# 1 0.040984 -0.007955 -0.006557 0.000000 -0.005635 0.000000
# 2 -0.007955 0.012883 -0.000630 0.000000 -0.001961 0.000000
# 3 -0.006557 -0.000630 0.009810 0.000000 0.000575 0.000000
# 4 0.000000 0.000000 0.000000 0.022347 0.000000 0.004041
# 5 -0.005635 -0.001961 0.000575 0.000000 0.044132 0.000000
# 6 0.000000 0.000000 0.000000 0.004041 0.000000 0.046824
#
#
# Mechanical properties :
#
#
# Convention : Reuss Voigt Hill
#
# Bulk Modulus (GPa) = 29.94820 41.96927 35.95874
# Shear Modulus (GPa) = 22.89434 30.08169 26.48801
#
# Velocity S-wave (km/s) = 3.19189 3.65877 3.43327
# Velocity P-wave (km/s) = 5.18761 6.04362 5.63191
#
# Compressibility (1/GPa) = 0.03339099
#
# Stress axis : x y z
#
# Youngs Moduli (GPa) = 24.39988 77.62296 101.94196
#
# Poissons Ratio (x) = 0.61751 0.66848
# Poissons Ratio (y) = 0.19411 0.06420
# Poissons Ratio (z) = 0.16000 0.04889
#
# Static dielectric constant tensor:
#      x y z
#    x 1.909870 0.000000 0.061090 
#    y 0.000000 1.866540 0.000000 
#    z 0.061090 0.000000 1.906520 
# 
# From -- ./inp_files/16073.got.cif
#   From: 2010.05.17/outbox.cif.g08.bks.cpg/sg4_9_cif.got.tgz:16073.got - 2010.06.03 18:43:04.
