data_PCOD9114358
_publ_section_title
;
Structure prediction by ZEFSAII (Michael W. Deem and Ramdas Pophale) SiO2 
 PCOD9114358
Probable space group: P 2
;
_chemical_formula_sum "Si O2"
_cell_formula_units_Z 12
_cell_length_a 14.580163
_cell_length_b 6.657492
_cell_length_c 14.640142
_cell_angle_alpha 90.000000
_cell_angle_beta 160.673604
_cell_angle_gamma 90.000000
_cell_volume 470.305015
_symmetry_space_group_name_H-M "P 2"
_symmetry_group_IT_number 3
_symmetry_cell_setting 'monoclinic'
loop_
_space_group_symop_operation_xyz
x,y,z
-x,y,-z
loop_
_atom_site_type_symbol
_atom_site_label
_atom_site_fract_x
_atom_site_fract_y
_atom_site_fract_z
Si Si1 0.674772 0.842230 0.524843
Si Si2 0.816202 0.618089 0.472870
Si Si3 0.000000 0.988080 0.000000
Si Si4 0.500000 0.584265 0.500000
Si Si5 0.204826 0.976292 0.764494
Si Si6 0.688422 0.348268 0.010832
Si Si7 0.462952 0.256146 0.332760
O O1 0.725527 0.719885 0.482416
O O2 0.425030 0.738853 0.347621
O O3 0.647827 0.072958 0.472335
O O4 0.893089 0.858778 0.812742
O O5 0.551505 0.503667 0.180876
O O6 0.005089 0.791223 0.604516
O O7 0.022132 0.440159 0.689446
O O8 0.234889 0.140909 0.180436
O O9 0.625660 0.419013 0.547035
O O10 0.000000 0.089270 0.500000
O O11 0.500000 0.909371 0.000000
O O12 0.303848 0.125823 0.938366
O O13 0.664549 0.345087 0.878742
#
# Coordination Sequence:
#
# PCOD9114358 Si02
#       7
#     2   2   1   1   2   2   2
#     4  12  27  45  70 107 158 214 269 327 399 469
#     4  12  30  51  84 124 161 213 272 343 415 502
#     4  12  24  42  68 102 154 212 274 326 376 472
#     4  12  22  46  64 106 154 208 268 312 370 466
#     4  12  29  56  92 119 164 213 268 352 437 510
#     4  12  30  51  84 124 161 213 272 343 415 502
#     4  12  27  45  70 107 158 214 269 327 399 469
#
# _framework density 25.515356000000001
#
# number of rings (size 3 to 8) (size 9 to 14) (size 15 to 20)
#    0.000    0.000    5.000    3.000   16.333    2.667 
#    0.000    0.000    0.000    0.000    0.000    0.000 
#    0.000    0.000    0.000    0.000    0.000    0.000 
#
# Total GULP energy -66904.848207 kJ/mol
# GULP energy per Si atom -5575.404017 kJ/mol
# Density = 2.545728 g / cm^3
# Si number density = 25.515356 Si / 1000 Ang^3
#
#
#
# Elastic Constant Matrix: (Units=GPa)
#
#
# Indices 1 2 3 4 5 6 
#
# 1 100.8646 33.6596 11.3424 0.0000 -4.2381 0.0000
# 2 33.6596 102.8703 1.0951 0.0000 0.0240 0.0000
# 3 11.3424 1.0951 101.5582 0.0000 -1.6222 0.0000
# 4 0.0000 0.0000 0.0000 27.9379 0.0000 -0.7291
# 5 -4.2381 0.0240 -1.6222 0.0000 32.7588 0.0000
# 6 0.0000 0.0000 0.0000 -0.7291 0.0000 37.5257
#
#
#
# Elastic Compliance Matrix: (Units=1/GPa)
#
#
# Indices 1 2 3 4 5 6 
#
# 1 0.011343 -0.003699 -0.001204 0.000000 0.001411 0.000000
# 2 -0.003699 0.010928 0.000288 0.000000 -0.000472 0.000000
# 3 -0.001204 0.000288 0.009983 0.000000 0.000338 0.000000
# 4 0.000000 0.000000 0.000000 0.035812 0.000000 0.000696
# 5 0.001411 -0.000472 0.000338 0.000000 0.030726 0.000000
# 6 0.000000 0.000000 0.000000 0.000696 0.000000 0.026662
#
#
# Mechanical properties :
#
#
# Convention : Reuss Voigt Hill
#
# Bulk Modulus (GPa) = 43.43380 44.16526 43.79953
# Shear Modulus (GPa) = 35.12200 36.92421 36.02310
#
# Velocity S-wave (km/s) = 3.71415 3.80825 3.76150
# Velocity P-wave (km/s) = 5.95423 6.05672 6.00569
#
# Compressibility (1/GPa) = 0.02302354
#
# Stress axis : x y z
#
# Youngs Moduli (GPa) = 88.15671 91.50473 100.16632
#
# Poissons Ratio (x) = 0.33849 0.12065
# Poissons Ratio (y) = 0.32610 -0.02882
# Poissons Ratio (z) = 0.10618 -0.02633
#
# Static dielectric constant tensor:
#      x y z
#    x 2.074670 0.000000 0.058360 
#    y 0.000000 2.098200 0.000000 
#    z 0.058360 0.000000 2.060370 
# 
# From -- ./inp_files/13927.got.cif
#   From: 2010.05.17/outbox.cif.g08.bks.cpg/sg3_7_cif.got.tgz:13927.got - 2010.06.03 18:33:08.
