data_PCOD9114925
_publ_section_title
;
Structure prediction by ZEFSAII (Michael W. Deem and Ramdas Pophale) SiO2 
 PCOD9114925
Probable space group: P 21
;
_chemical_formula_sum "Si O2"
_cell_formula_units_Z 16
_cell_length_a 5.588201
_cell_length_b 12.502651
_cell_length_c 9.898327
_cell_angle_alpha 90.000000
_cell_angle_beta 63.057981
_cell_angle_gamma 90.000000
_cell_volume 616.510473
_symmetry_space_group_name_H-M "P 21"
_symmetry_group_IT_number 4
_symmetry_cell_setting 'monoclinic'
loop_
_space_group_symop_operation_xyz
x,y,z
-x,1/2+y,-z
loop_
_atom_site_type_symbol
_atom_site_label
_atom_site_fract_x
_atom_site_fract_y
_atom_site_fract_z
Si Si1 0.699788 0.271170 0.287052
Si Si2 0.830331 0.180198 0.535594
Si Si3 0.032487 0.809899 0.060719
Si Si4 0.023173 0.556683 0.118783
Si Si5 0.647075 0.574180 0.660085
Si Si6 0.550805 0.477724 0.423679
Si Si7 0.473059 0.788985 0.140145
Si Si8 0.645014 0.564253 0.967154
O O1 0.829689 0.249913 0.399188
O O2 0.597549 0.155997 0.265303
O O3 0.482405 0.363727 0.375108
O O4 0.876296 0.309611 0.117674
O O5 0.697489 0.240201 0.693939
O O6 0.131546 0.141875 0.478061
O O7 0.655002 0.072460 0.557612
O O8 0.013709 0.686365 0.119805
O O9 0.728219 0.849766 0.137095
O O10 0.271476 0.852387 0.094294
O O11 0.835047 0.509641 0.283566
O O12 0.867362 0.528169 0.019272
O O13 0.334234 0.524351 0.057355
O O14 0.581059 0.477466 0.577506
O O15 0.740448 0.555457 0.788104
O O16 0.597402 0.691101 0.019043
#
# Coordination Sequence:
#
# PCOD9114925 Si02
#       8
#     2   2   2   2   2   2   2   2
#     4  11  25  42  65  98 136 180 232 283 344 414
#     4  11  23  41  69  96 136 186 223 284 346 412
#     4  10  19  39  65  95 123 169 218 279 334 401
#     4  10  19  39  65  95 123 169 218 279 334 401
#     4  11  23  41  69  96 136 186 223 284 346 412
#     4  11  25  42  65  98 136 180 232 283 344 414
#     4  10  19  36  68  93 124 169 226 267 341 401
#     4  10  19  36  68  93 124 169 226 267 341 401
#
# _framework density 25.95252
#
# number of rings (size 3 to 8) (size 9 to 14) (size 15 to 20)
#    0.000    1.500    5.000    3.000    3.500    1.000 
#    0.000    2.500    0.000    0.000    0.000    0.000 
#    0.000    0.000    0.000    0.000    0.000    0.000 
#
# Total GULP energy -89569.644643 kJ/mol
# GULP energy per Si atom -5598.102790 kJ/mol
# Density = 2.589345 g / cm^3
# Si number density = 25.952520 Si / 1000 Ang^3
#
#
#
# Elastic Constant Matrix: (Units=GPa)
#
#
# Indices 1 2 3 4 5 6 
#
# 1 148.5258 6.4608 42.4828 0.0000 12.4433 0.0000
# 2 6.4608 77.1498 39.6311 0.0000 5.5674 0.0000
# 3 42.4828 39.6311 164.4314 0.0000 25.1966 0.0000
# 4 0.0000 0.0000 0.0000 44.5927 0.0000 4.0084
# 5 12.4433 5.5674 25.1966 0.0000 42.1811 0.0000
# 6 0.0000 0.0000 0.0000 4.0084 0.0000 30.9088
#
#
#
# Elastic Compliance Matrix: (Units=1/GPa)
#
#
# Indices 1 2 3 4 5 6 
#
# 1 0.007330 0.000401 -0.001817 0.000000 -0.001130 0.000000
# 2 0.000401 0.014817 -0.003695 0.000000 0.000133 0.000000
# 3 -0.001817 -0.003695 0.008019 0.000000 -0.003766 0.000000
# 4 0.000000 0.000000 0.000000 0.022690 0.000000 -0.002943
# 5 -0.001130 0.000133 -0.003766 0.000000 0.026273 0.000000
# 6 0.000000 0.000000 0.000000 -0.002943 0.000000 0.032735
#
#
# Mechanical properties :
#
#
# Convention : Reuss Voigt Hill
#
# Bulk Modulus (GPa) = 50.14342 63.02848 56.58595
# Shear Modulus (GPa) = 38.84011 43.63866 41.23939
#
# Velocity S-wave (km/s) = 3.87277 4.10503 3.99059
# Velocity P-wave (km/s) = 6.27383 6.84158 6.56385
#
# Compressibility (1/GPa) = 0.01994280
#
# Stress axis : x y z
#
# Youngs Moduli (GPa) = 136.42858 67.49108 124.70659
#
# Poissons Ratio (x) = -0.02708 0.22664
# Poissons Ratio (y) = -0.05474 0.46082
# Poissons Ratio (z) = 0.24794 0.24939
#
# Static dielectric constant tensor:
#      x y z
#    x 2.028960 0.000000 0.008680 
#    y 0.000000 2.160230 0.000000 
#    z 0.008680 0.000000 1.960750 
# 
# From -- ./inp_files/1729.got.cif
#   From: 2010.05.17/outbox.cif.g08.bks.cpg/sg4_1_cif.got.tgz:1729.got - 2010.06.03 18:43:04.
