data_PCOD9114994
_publ_section_title
;
Structure prediction by ZEFSAII (Michael W. Deem and Ramdas Pophale) SiO2 
 PCOD9114994
Probable space group: P 21
;
_chemical_formula_sum "Si O2"
_cell_formula_units_Z 16
_cell_length_a 11.629655
_cell_length_b 7.608917
_cell_length_c 11.384346
_cell_angle_alpha 90.000000
_cell_angle_beta 127.398971
_cell_angle_gamma 90.000000
_cell_volume 800.296571
_symmetry_space_group_name_H-M "P 21"
_symmetry_group_IT_number 4
_symmetry_cell_setting 'monoclinic'
loop_
_space_group_symop_operation_xyz
x,y,z
-x,1/2+y,-z
loop_
_atom_site_type_symbol
_atom_site_label
_atom_site_fract_x
_atom_site_fract_y
_atom_site_fract_z
Si Si1 0.142027 0.268160 0.250347
Si Si2 0.766928 0.496197 0.849460
Si Si3 0.661206 0.561775 0.205588
Si Si4 0.557107 0.073497 0.350176
Si Si5 0.388538 0.174355 0.568403
Si Si6 0.419281 0.689182 0.885576
Si Si7 0.304234 0.638352 0.333331
Si Si8 0.836897 0.352804 0.150689
O O1 0.261926 0.156871 0.396294
O O2 0.201146 0.466130 0.262740
O O3 0.998573 0.287224 0.238537
O O4 0.117809 0.140444 0.123972
O O5 0.614483 0.603035 0.754498
O O6 0.755493 0.314457 0.767089
O O7 0.793796 0.433420 0.998743
O O8 0.670771 0.639951 0.339017
O O9 0.572964 0.380682 0.167673
O O10 0.807915 0.500386 0.232576
O O11 0.561697 0.662340 0.050540
O O12 0.601440 0.068984 0.240875
O O13 0.652205 0.182036 0.502978
O O14 0.573242 0.879158 0.410424
O O15 0.541288 0.086443 0.631017
O O16 0.280189 0.704075 0.884442
#
# Coordination Sequence:
#
# PCOD9114994 Si02
#       8
#     2   2   2   2   2   2   2   2
#     4  11  25  42  64  95 131 166 208 270 324 375
#     4  11  22  41  66  89 134 164 213 262 322 380
#     4  10  21  37  65  86 127 165 210 258 309 373
#     4  10  19  38  64  99 121 160 215 266 299 383
#     4  10  21  39  65  94 123 162 215 258 315 379
#     4  10  20  38  63  87 127 163 209 257 309 371
#     4  10  23  39  67 101 125 163 217 263 316 379
#     4  10  25  42  56  97 132 161 217 258 314 400
#
# _framework density 19.992588000000001
#
# number of rings (size 3 to 8) (size 9 to 14) (size 15 to 20)
#    0.750    1.000    2.500    2.250    5.250    0.000 
#    4.500    2.500    0.000    0.000    0.000    0.000 
#    0.000    0.000    0.000    0.000    0.000    0.000 
#
# Total GULP energy -89075.872988 kJ/mol
# GULP energy per Si atom -5567.242062 kJ/mol
# Density = 1.994708 g / cm^3
# Si number density = 19.992588 Si / 1000 Ang^3
#
#
#
# Elastic Constant Matrix: (Units=GPa)
#
#
# Indices 1 2 3 4 5 6 
#
# 1 134.7283 21.2148 23.9482 0.0000 -6.4842 0.0000
# 2 21.2148 47.3372 2.3003 0.0000 -0.9350 0.0000
# 3 23.9482 2.3003 42.6462 0.0000 -21.3526 0.0000
# 4 0.0000 0.0000 0.0000 25.4156 0.0000 -10.1992
# 5 -6.4842 -0.9350 -21.3526 0.0000 29.5277 0.0000
# 6 0.0000 0.0000 0.0000 -10.1992 0.0000 44.0956
#
#
#
# Elastic Compliance Matrix: (Units=1/GPa)
#
#
# Indices 1 2 3 4 5 6 
#
# 1 0.008983 -0.003779 -0.006134 0.000000 -0.002583 0.000000
# 2 -0.003779 0.022771 0.001316 0.000000 0.000843 0.000000
# 3 -0.006134 0.001316 0.041021 0.000000 0.028359 0.000000
# 4 0.000000 0.000000 0.000000 0.043372 0.000000 0.010032
# 5 -0.002583 0.000843 0.028359 0.000000 0.053833 0.000000
# 6 0.000000 0.000000 0.000000 0.010032 0.000000 0.024998
#
#
# Mechanical properties :
#
#
# Convention : Reuss Voigt Hill
#
# Bulk Modulus (GPa) = 17.99155 35.51538 26.75347
# Shear Modulus (GPa) = 21.67309 31.62433 26.64871
#
# Velocity S-wave (km/s) = 3.29607 3.98150 3.65489
# Velocity P-wave (km/s) = 4.84810 6.24014 5.58764
#
# Compressibility (1/GPa) = 0.05558166
#
# Stress axis : x y z
#
# Youngs Moduli (GPa) = 111.31614 43.91481 24.37762
#
# Poissons Ratio (x) = 0.16595 0.14953
# Poissons Ratio (y) = 0.42066 -0.03207
# Poissons Ratio (z) = 0.68281 -0.05778
#
# Static dielectric constant tensor:
#      x y z
#    x 1.645790 0.000000 0.098480 
#    y 0.000000 1.808110 0.000000 
#    z 0.098480 0.000000 1.620840 
# 
# From -- ./inp_files/11893.got.cif
#   From: 2010.05.17/outbox.cif.g08.bks.cpg/sg4_6_cif.got.tgz:11893.got - 2010.06.03 18:43:04.
