data_PCOD9114018
_publ_section_title
;
Structure prediction by ZEFSAII (Michael W. Deem and Ramdas Pophale) SiO2 
 PCOD9114018
Probable space group: P 2
;
_chemical_formula_sum "Si O2"
_cell_formula_units_Z 16
_cell_length_a 8.380735
_cell_length_b 13.454099
_cell_length_c 7.255453
_cell_angle_alpha 90.000000
_cell_angle_beta 123.095094
_cell_angle_gamma 90.000000
_cell_volume 685.367835
_symmetry_space_group_name_H-M "P 2"
_symmetry_group_IT_number 3
_symmetry_cell_setting 'monoclinic'
loop_
_space_group_symop_operation_xyz
x,y,z
-x,y,-z
loop_
_atom_site_type_symbol
_atom_site_label
_atom_site_fract_x
_atom_site_fract_y
_atom_site_fract_z
Si Si1 0.718095 0.457990 0.125515
Si Si2 0.218094 0.957993 0.125522
Si Si3 0.307723 0.776847 0.462370
Si Si4 0.283504 0.409401 0.300323
Si Si5 0.950950 0.597045 0.754139
Si Si6 0.192271 0.276845 0.537624
Si Si7 0.783502 0.909391 0.300304
Si Si8 0.549045 0.097052 0.245848
O O1 0.755655 0.369805 0.295030
O O2 0.868275 0.548242 0.233841
O O3 0.500000 0.492615 0.000000
O O4 0.739768 0.415571 0.932155
O O5 0.255664 0.869820 0.295063
O O6 0.368265 0.048250 0.233815
O O7 0.239763 0.915551 0.932173
O O8 0.000000 0.992620 0.000000
O O9 0.500000 0.730916 0.500000
O O10 0.138350 0.698669 0.370405
O O11 0.339791 0.823778 0.682474
O O12 0.500000 0.394454 0.500000
O O13 0.209479 0.512051 0.340931
O O14 0.160187 0.323797 0.317530
O O15 0.000000 0.614154 0.000000
O O16 0.361624 0.198659 0.629537
O O17 0.000000 0.230909 0.500000
O O18 0.000000 0.894465 0.500000
O O19 0.709439 0.012041 0.340856
O O20 0.500000 0.114196 0.000000
#
# Coordination Sequence:
#
# PCOD9114018 Si02
#       8
#     2   2   2   2   2   2   2   2
#     4  11  23  46  74 101 150 190 234 303 356 418
#     4  11  23  46  74 101 150 190 234 303 356 418
#     4  12  24  46  76 107 144 192 238 296 365 421
#     4  11  23  44  70 106 143 187 241 294 351 432
#     4  10  24  45  71 107 145 185 242 296 355 430
#     4  12  24  46  76 107 144 192 238 296 365 421
#     4  11  23  44  70 106 143 187 241 294 351 432
#     4  10  24  45  71 107 145 185 242 296 355 430
#
# _framework density 23.345130000000001
#
# number of rings (size 3 to 8) (size 9 to 14) (size 15 to 20)
#    0.000    1.000    5.000    1.500    0.000    0.000 
#    4.500    0.000    0.000    0.000    0.000    0.000 
#    0.000    0.000    0.000    0.000    0.000    0.000 
#
# Total GULP energy -89607.970379 kJ/mol
# GULP energy per Si atom -5600.498149 kJ/mol
# Density = 2.329200 g / cm^3
# Si number density = 23.345130 Si / 1000 Ang^3
#
#
#
# Elastic Constant Matrix: (Units=GPa)
#
#
# Indices 1 2 3 4 5 6 
#
# 1 157.0275 62.2599 47.2381 0.0000 6.8337 0.0000
# 2 62.2599 126.0512 48.1617 0.0000 -5.4982 0.0000
# 3 47.2381 48.1617 79.3448 0.0000 -3.8078 0.0000
# 4 0.0000 0.0000 0.0000 27.5515 0.0000 9.6974
# 5 6.8337 -5.4982 -3.8078 0.0000 42.1740 0.0000
# 6 0.0000 0.0000 0.0000 9.6974 0.0000 35.0762
#
#
#
# Elastic Compliance Matrix: (Units=1/GPa)
#
#
# Indices 1 2 3 4 5 6 
#
# 1 0.008713 -0.003093 -0.003412 0.000000 -0.002123 0.000000
# 2 -0.003093 0.011452 -0.005036 0.000000 0.001539 0.000000
# 3 -0.003412 -0.005036 0.017764 0.000000 0.001500 0.000000
# 4 0.000000 0.000000 0.000000 0.040208 0.000000 -0.011116
# 5 -0.002123 0.001539 0.001500 0.000000 0.024391 0.000000
# 6 0.000000 0.000000 0.000000 -0.011116 0.000000 0.031583
#
#
# Mechanical properties :
#
#
# Convention : Reuss Voigt Hill
#
# Bulk Modulus (GPa) = 67.35391 75.30477 71.32934
# Shear Modulus (GPa) = 30.83698 34.61127 32.72412
#
# Velocity S-wave (km/s) = 3.63838 3.85462 3.74806
# Velocity P-wave (km/s) = 6.82382 7.22066 7.02504
#
# Compressibility (1/GPa) = 0.01484695
#
# Stress axis : x y z
#
# Youngs Moduli (GPa) = 114.76578 87.31905 56.29453
#
# Poissons Ratio (x) = 0.27005 0.19209
# Poissons Ratio (y) = 0.35493 0.28352
# Poissons Ratio (z) = 0.39161 0.43977
#
# Static dielectric constant tensor:
#      x y z
#    x 1.922870 0.000000 0.003240 
#    y 0.000000 1.837410 0.000000 
#    z 0.003240 0.000000 1.863710 
# 
# From -- ./inp_files/6036.got.cif
#   From: 2010.05.17/outbox.cif.g08.bks.cpg/sg3_4_cif.got.tgz:6036.got - 2010.06.03 18:33:08.
