data_PCOD9114271
_publ_section_title
;
Structure prediction by ZEFSAII (Michael W. Deem and Ramdas Pophale) SiO2 
 PCOD9114271
Probable space group: P 2
;
_chemical_formula_sum "Si O2"
_cell_formula_units_Z 14
_cell_length_a 15.998092
_cell_length_b 4.990808
_cell_length_c 21.739819
_cell_angle_alpha 90.000000
_cell_angle_beta 160.824347
_cell_angle_gamma 90.000000
_cell_volume 570.143919
_symmetry_space_group_name_H-M "P 2"
_symmetry_group_IT_number 3
_symmetry_cell_setting 'monoclinic'
loop_
_space_group_symop_operation_xyz
x,y,z
-x,y,-z
loop_
_atom_site_type_symbol
_atom_site_label
_atom_site_fract_x
_atom_site_fract_y
_atom_site_fract_z
Si Si1 0.221141 0.970370 0.202639
Si Si2 0.882946 0.546134 0.532631
Si Si3 0.838311 0.799015 0.103515
Si Si4 0.049223 0.446006 0.151757
Si Si5 0.460026 0.212275 0.169378
Si Si6 0.545861 0.449246 0.098433
Si Si7 0.216726 0.057468 0.456735
O O1 0.160117 0.672493 0.184167
O O2 0.493709 0.011193 0.361615
O O3 0.203494 0.175891 0.247476
O O4 0.000000 0.040674 0.000000
O O5 0.707705 0.370215 0.365106
O O6 0.820204 0.847119 0.511606
O O7 0.165284 0.547324 0.701508
O O8 0.852668 0.356465 0.570996
O O9 0.020376 0.577041 0.198684
O O10 0.029496 0.993064 0.270764
O O11 0.652211 0.687264 0.026718
O O12 0.661298 0.913537 0.924189
O O13 0.756638 0.353292 0.939890
O O14 0.483633 0.266727 0.112912
O O15 0.500000 0.322229 0.000000
#
# Coordination Sequence:
#
# PCOD9114271 Si02
#       7
#     2   2   2   2   2   2   2
#     4  12  24  46  75 109 145 197 247 310 371 445
#     4  12  27  48  74 112 151 196 252 318 375 457
#     4  11  26  48  76 110 152 203 247 315 385 459
#     4  11  24  46  72 104 149 191 244 302 377 435
#     4  11  25  47  76 108 151 194 254 312 384 445
#     4  11  24  46  75 107 147 201 248 307 384 459
#     4  12  28  48  76 111 154 197 260 307 385 453
#
# _framework density 24.555202000000001
#
# number of rings (size 3 to 8) (size 9 to 14) (size 15 to 20)
#    0.000    0.571    2.857    4.286    8.000    1.143 
#    2.571    0.000    0.000    0.000    0.000    0.000 
#    0.000    0.000    0.000    0.000    0.000    0.000 
#
# Total GULP energy -78179.054094 kJ/mol
# GULP energy per Si atom -5584.218150 kJ/mol
# Density = 2.449931 g / cm^3
# Si number density = 24.555202 Si / 1000 Ang^3
#
#
#
# Elastic Constant Matrix: (Units=GPa)
#
#
# Indices 1 2 3 4 5 6 
#
# 1 66.7995 30.3346 27.4994 0.0000 23.1894 0.0000
# 2 30.3346 87.8511 0.3835 0.0000 13.9840 0.0000
# 3 27.4994 0.3835 84.4912 0.0000 23.3018 0.0000
# 4 0.0000 0.0000 0.0000 17.4503 0.0000 1.3701
# 5 23.1894 13.9840 23.3018 0.0000 63.8317 0.0000
# 6 0.0000 0.0000 0.0000 1.3701 0.0000 33.3849
#
#
#
# Elastic Compliance Matrix: (Units=1/GPa)
#
#
# Indices 1 2 3 4 5 6 
#
# 1 0.022058 -0.006902 -0.005954 0.000000 -0.004328 0.000000
# 2 -0.006902 0.013995 0.002598 0.000000 -0.001507 0.000000
# 3 -0.005954 0.002598 0.014814 0.000000 -0.003814 0.000000
# 4 0.000000 0.000000 0.000000 0.057491 0.000000 -0.002359
# 5 -0.004328 -0.001507 -0.003814 0.000000 0.018961 0.000000
# 6 0.000000 0.000000 0.000000 -0.002359 0.000000 0.030051
#
#
# Mechanical properties :
#
#
# Convention : Reuss Voigt Hill
#
# Bulk Modulus (GPa) = 32.94793 39.50855 36.22824
# Shear Modulus (GPa) = 26.59571 34.99498 30.79535
#
# Velocity S-wave (km/s) = 3.29462 3.77922 3.54521
# Velocity P-wave (km/s) = 5.28391 5.93026 5.61639
#
# Compressibility (1/GPa) = 0.03035092
#
# Stress axis : x y z
#
# Youngs Moduli (GPa) = 45.33524 71.45636 67.50590
#
# Poissons Ratio (x) = 0.49316 0.40195
# Poissons Ratio (y) = 0.31289 -0.17541
# Poissons Ratio (z) = 0.26994 -0.18567
#
# Static dielectric constant tensor:
#      x y z
#    x 1.946630 0.000000 -0.100830 
#    y 0.000000 2.031090 0.000000 
#    z -0.100830 0.000000 2.005600 
# 
# From -- ./inp_files/16042.got.cif
#   From: 2010.05.17/outbox.cif.g08.bks.cpg/sg3_9_cif.got.tgz:16042.got - 2010.06.03 18:33:08.
