data_PCOD9114107
_publ_section_title
;
Structure prediction by ZEFSAII (Michael W. Deem and Ramdas Pophale) SiO2 
 PCOD9114107
Probable space group: P 2
;
_chemical_formula_sum "Si O2"
_cell_formula_units_Z 15
_cell_length_a 23.824221
_cell_length_b 5.171162
_cell_length_c 14.556593
_cell_angle_alpha 90.000000
_cell_angle_beta 159.664156
_cell_angle_gamma 90.000000
_cell_volume 623.231360
_symmetry_space_group_name_H-M "P 2"
_symmetry_group_IT_number 3
_symmetry_cell_setting 'monoclinic'
loop_
_space_group_symop_operation_xyz
x,y,z
-x,y,-z
loop_
_atom_site_type_symbol
_atom_site_label
_atom_site_fract_x
_atom_site_fract_y
_atom_site_fract_z
Si Si1 0.142751 0.384980 0.920017
Si Si2 0.937309 0.906996 0.094849
Si Si3 0.164879 0.704390 0.786508
Si Si4 0.484210 0.606822 0.165302
Si Si5 0.309192 0.216663 0.417345
Si Si6 0.410331 0.030074 0.278362
Si Si7 0.731364 0.995175 0.462609
Si Si8 0.500000 0.286835 0.000000
O O1 0.126856 0.635290 0.962435
O O2 0.104461 0.468350 0.757510
O O3 0.040147 0.137467 0.795901
O O4 0.326876 0.280068 0.197139
O O5 0.109527 0.837353 0.315012
O O6 0.823495 0.071783 0.850601
O O7 0.000000 0.831793 0.500000
O O8 0.301993 0.633923 0.922471
O O9 0.264652 0.876780 0.010630
O O10 0.602687 0.495136 0.427620
O O11 0.577733 0.857056 0.272824
O O12 0.481781 0.438484 0.067749
O O13 0.468058 0.084592 0.616964
O O14 0.227632 0.189288 0.392515
O O15 0.500000 0.892273 0.500000
O O16 0.660059 0.119593 0.261925
#
# Coordination Sequence:
#
# PCOD9114107 Si02
#       8
#     2   2   2   2   2   2   2   1
#     4  12  27  50  73 121 157 208 257 330 399 475
#     4  12  29  48  78 117 162 205 261 328 397 483
#     4  12  28  48  81 121 161 209 272 337 399 483
#     4  11  25  47  79 109 154 211 262 330 401 477
#     4  11  24  47  75 113 150 204 261 326 395 480
#     4  12  24  50  78 117 161 209 262 327 412 480
#     4  11  26  48  74 108 155 206 266 325 397 475
#     4  10  26  48  72 106 148 212 270 318 398 474
#
# _framework density 24.068107000000001
#
# number of rings (size 3 to 8) (size 9 to 14) (size 15 to 20)
#    0.000    0.533    5.333    0.800    7.467    4.267 
#    0.000    0.000    0.000    0.000    0.000    0.000 
#    0.000    0.000    0.000    0.000    0.000    0.000 
#
# Total GULP energy -83556.097118 kJ/mol
# GULP energy per Si atom -5570.406475 kJ/mol
# Density = 2.401333 g / cm^3
# Si number density = 24.068107 Si / 1000 Ang^3
#
#
#
# Elastic Constant Matrix: (Units=GPa)
#
#
# Indices 1 2 3 4 5 6 
#
# 1 103.6137 36.8524 54.2707 0.0000 10.6651 0.0000
# 2 36.8524 79.7646 23.5642 0.0000 -2.3261 0.0000
# 3 54.2707 23.5642 111.0014 0.0000 7.7992 0.0000
# 4 0.0000 0.0000 0.0000 11.1918 0.0000 8.6702
# 5 10.6651 -2.3261 7.7992 0.0000 33.6190 0.0000
# 6 0.0000 0.0000 0.0000 8.6702 0.0000 7.9701
#
#
#
# Elastic Compliance Matrix: (Units=1/GPa)
#
#
# Indices 1 2 3 4 5 6 
#
# 1 0.015049 -0.005299 -0.005969 0.000000 -0.003756 0.000000
# 2 -0.005299 0.015328 -0.000870 0.000000 0.002943 0.000000
# 3 -0.005969 -0.000870 0.012182 0.000000 -0.000993 0.000000
# 4 0.000000 0.000000 0.000000 0.568186 0.000000 -0.618097
# 5 -0.003756 0.002943 -0.000993 0.000000 0.031371 0.000000
# 6 0.000000 0.000000 0.000000 -0.618097 0.000000 0.797860
#
#
# Mechanical properties :
#
#
# Convention : Reuss Voigt Hill
#
# Bulk Modulus (GPa) = 54.69623 58.19491 56.44557
# Shear Modulus (GPa) = 3.40056 22.53568 12.96812
#
# Velocity S-wave (km/s) = 1.18994 3.06327 2.32375
# Velocity P-wave (km/s) = 4.96617 6.06162 5.54104
#
# Compressibility (1/GPa) = 0.01828279
#
# Stress axis : x y z
#
# Youngs Moduli (GPa) = 66.44987 65.24024 82.09091
#
# Poissons Ratio (x) = 0.34571 0.48999
# Poissons Ratio (y) = 0.35212 0.07141
# Poissons Ratio (z) = 0.39663 0.05676
#
# Static dielectric constant tensor:
#      x y z
#    x 2.052670 0.000000 -0.103450 
#    y 0.000000 2.056340 0.000000 
#    z -0.103450 0.000000 2.023310 
# 
# From -- ./inp_files/14441.got.cif
#   From: 2010.05.17/outbox.cif.g08.bks.cpg/sg3_8_cif.got.tgz:14441.got - 2010.06.03 18:33:08.
