data_PCOD9114121
_publ_section_title
;
Structure prediction by ZEFSAII (Michael W. Deem and Ramdas Pophale) SiO2 
 PCOD9114121
Probable space group: P 2
;
_chemical_formula_sum "Si O2"
_cell_formula_units_Z 11
_cell_length_a 7.837155
_cell_length_b 5.270796
_cell_length_c 11.584971
_cell_angle_alpha 90.000000
_cell_angle_beta 82.772550
_cell_angle_gamma 90.000000
_cell_volume 474.750187
_symmetry_space_group_name_H-M "P 2"
_symmetry_group_IT_number 3
_symmetry_cell_setting 'monoclinic'
loop_
_space_group_symop_operation_xyz
x,y,z
-x,y,-z
loop_
_atom_site_type_symbol
_atom_site_label
_atom_site_fract_x
_atom_site_fract_y
_atom_site_fract_z
Si Si1 0.769705 0.423150 0.196356
Si Si2 0.381237 0.364802 0.267067
Si Si3 0.077014 0.716642 0.602805
Si Si4 0.072290 0.063113 0.197025
Si Si5 0.355168 0.868881 0.420842
Si Si6 0.000000 0.738182 0.000000
O O1 0.567661 0.393825 0.191400
O O2 0.809322 0.559611 0.316048
O O3 0.878995 0.166142 0.196633
O O4 0.870006 0.575713 0.088515
O O5 0.212458 0.282205 0.207712
O O6 0.348825 0.624334 0.337968
O O7 0.400454 0.124792 0.350455
O O8 0.192390 0.907159 0.518502
O O9 0.000000 0.557631 0.500000
O O10 0.945279 0.875049 0.692963
O O11 0.110442 0.908282 0.078671
O O12 0.500000 0.802428 0.500000
#
# Coordination Sequence:
#
# PCOD9114121 Si02
#       6
#     2   2   2   2   2   1
#     4  11  25  48  74 106 149 200 251 323 375 453
#     4  12  27  45  78 110 155 195 258 305 382 450
#     4  11  22  41  70 109 159 199 241 299 382 455
#     4  11  25  47  75 107 146 200 256 315 379 454
#     4  12  24  44  67 115 158 200 238 303 370 469
#     4  10  26  52  76 104 148 198 268 324 396 432
#
# _framework density 23.170079999999999
#
# number of rings (size 3 to 8) (size 9 to 14) (size 15 to 20)
#    0.000    0.727    3.636    3.273    7.636    0.727 
#    0.000    5.455    0.000    0.000    0.000    0.000 
#    0.000    0.000    0.000    0.000    0.000    0.000 
#
# Total GULP energy -61474.922025 kJ/mol
# GULP energy per Si atom -5588.629275 kJ/mol
# Density = 2.311734 g / cm^3
# Si number density = 23.170080 Si / 1000 Ang^3
#
#
#
# Elastic Constant Matrix: (Units=GPa)
#
#
# Indices 1 2 3 4 5 6 
#
# 1 122.7286 27.7141 36.4788 0.0000 -21.9030 0.0000
# 2 27.7141 111.5512 42.4767 0.0000 -7.7694 0.0000
# 3 36.4788 42.4767 131.9956 0.0000 0.2834 0.0000
# 4 0.0000 0.0000 0.0000 20.2652 0.0000 -1.3243
# 5 -21.9030 -7.7694 0.2834 0.0000 26.1500 0.0000
# 6 0.0000 0.0000 0.0000 -1.3243 0.0000 26.1571
#
#
#
# Elastic Compliance Matrix: (Units=1/GPa)
#
#
# Indices 1 2 3 4 5 6 
#
# 1 0.010724 -0.001052 -0.002644 0.000000 0.008698 0.000000
# 2 -0.001052 0.010572 -0.003116 0.000000 0.002294 0.000000
# 3 -0.002644 -0.003116 0.009317 0.000000 -0.003241 0.000000
# 4 0.000000 0.000000 0.000000 0.049509 0.000000 0.002507
# 5 0.008698 0.002294 -0.003241 0.000000 0.046243 0.000000
# 6 0.000000 0.000000 0.000000 0.002507 0.000000 0.038357
#
#
# Mechanical properties :
#
#
# Convention : Reuss Voigt Hill
#
# Bulk Modulus (GPa) = 58.86351 64.40164 61.63258
# Shear Modulus (GPa) = 27.17253 31.82153 29.49703
#
# Velocity S-wave (km/s) = 3.42825 3.70995 3.57188
# Velocity P-wave (km/s) = 6.41332 6.79758 6.60824
#
# Compressibility (1/GPa) = 0.01698845
#
# Stress axis : x y z
#
# Youngs Moduli (GPa) = 93.25109 94.58723 107.33602
#
# Poissons Ratio (x) = 0.09947 0.28378
# Poissons Ratio (y) = 0.09807 0.33451
# Poissons Ratio (z) = 0.24655 0.29478
#
# Static dielectric constant tensor:
#      x y z
#    x 2.064890 0.000000 0.047870 
#    y 0.000000 1.860670 0.000000 
#    z 0.047870 0.000000 1.855510 
# 
# From -- ./inp_files/10094.got.cif
#   From: 2010.05.17/outbox.cif.g08.bks.cpg/sg3_6_cif.got.tgz:10094.got - 2010.06.03 18:33:08.
