data_PCOD9114817
_publ_section_title
;
Structure prediction by ZEFSAII (Michael W. Deem and Ramdas Pophale) SiO2 
 PCOD9114817
Probable space group: P 21
;
_chemical_formula_sum "Si O2"
_cell_formula_units_Z 16
_cell_length_a 11.272701
_cell_length_b 8.143023
_cell_length_c 9.584560
_cell_angle_alpha 90.000000
_cell_angle_beta 117.235479
_cell_angle_gamma 90.000000
_cell_volume 782.262723
_symmetry_space_group_name_H-M "P 21"
_symmetry_group_IT_number 4
_symmetry_cell_setting 'monoclinic'
loop_
_space_group_symop_operation_xyz
x,y,z
-x,1/2+y,-z
loop_
_atom_site_type_symbol
_atom_site_label
_atom_site_fract_x
_atom_site_fract_y
_atom_site_fract_z
Si Si1 0.466318 0.001160 0.120138
Si Si2 0.038586 0.467164 0.215160
Si Si3 0.693936 0.765893 0.136483
Si Si4 0.763879 0.309874 0.066343
Si Si5 0.094860 0.469362 0.927255
Si Si6 0.105273 0.826118 0.368549
Si Si7 0.695258 0.193064 0.336108
Si Si8 0.867716 0.860738 0.455067
O O1 0.548395 0.113581 0.272761
O O2 0.583184 0.905276 0.103382
O O3 0.383870 0.117008 0.972477
O O4 0.354302 0.868005 0.099916
O O5 0.880131 0.444034 0.141244
O O6 0.080116 0.429411 0.080876
O O7 0.077633 0.651999 0.277955
O O8 0.106074 0.350817 0.367534
O O9 0.767662 0.736195 0.324185
O O10 0.807253 0.841495 0.097586
O O11 0.704217 0.273282 0.187790
O O12 0.838296 0.146437 0.055420
O O13 0.951694 0.457204 0.772392
O O14 0.251990 0.812861 0.514146
O O15 0.007434 0.847335 0.449584
O O16 0.800623 0.039892 0.392537
#
# Coordination Sequence:
#
# PCOD9114817 Si02
#       8
#     2   2   2   2   2   2   2   2
#     4  11  20  36  60  92 118 161 219 261 299 360
#     4  11  23  35  59  91 126 162 195 257 335 382
#     4  10  19  36  59  86 119 162 205 264 300 369
#     4  12  20  34  60  90 121 163 204 259 311 370
#     4  11  22  39  56  90 130 161 196 257 328 384
#     4  10  19  38  59  84 122 160 202 259 309 365
#     4  10  19  34  58  89 118 152 203 265 296 353
#     4   9  18  34  57  84 118 153 200 256 306 357
#
# _framework density 20.453485000000001
#
# number of rings (size 3 to 8) (size 9 to 14) (size 15 to 20)
#    0.000    1.500    6.250    2.250    0.000    0.000 
#    2.250    0.000    0.000   22.500    0.000    0.000 
#    0.000    0.000    0.000    0.000    0.000    0.000 
#
# Total GULP energy -89265.550790 kJ/mol
# GULP energy per Si atom -5579.096924 kJ/mol
# Density = 2.040693 g / cm^3
# Si number density = 20.453485 Si / 1000 Ang^3
#
#
#
# Elastic Constant Matrix: (Units=GPa)
#
#
# Indices 1 2 3 4 5 6 
#
# 1 47.1605 17.3969 60.7034 0.0000 19.3445 0.0000
# 2 17.3969 50.1167 34.6970 0.0000 9.0485 0.0000
# 3 60.7034 34.6970 154.3255 0.0000 14.9568 0.0000
# 4 0.0000 0.0000 0.0000 29.0205 0.0000 18.0369
# 5 19.3445 9.0485 14.9568 0.0000 36.1516 0.0000
# 6 0.0000 0.0000 0.0000 18.0369 0.0000 27.9813
#
#
#
# Elastic Compliance Matrix: (Units=1/GPa)
#
#
# Indices 1 2 3 4 5 6 
#
# 1 0.055544 -0.002072 -0.019327 0.000000 -0.021207 0.000000
# 2 -0.002072 0.024241 -0.004328 0.000000 -0.003168 0.000000
# 3 -0.019327 -0.004328 0.014530 0.000000 0.005413 0.000000
# 4 0.000000 0.000000 0.000000 0.057492 0.000000 -0.037059
# 5 -0.021207 -0.003168 0.005413 0.000000 0.037562 0.000000
# 6 0.000000 0.000000 0.000000 -0.037059 0.000000 0.059627
#
#
# Mechanical properties :
#
#
# Convention : Reuss Voigt Hill
#
# Bulk Modulus (GPa) = 23.33064 53.02192 38.17628
# Shear Modulus (GPa) = 15.88627 27.88436 21.88531
#
# Velocity S-wave (km/s) = 2.78996 3.69630 3.27464
# Velocity P-wave (km/s) = 4.67011 6.64803 5.74484
#
# Compressibility (1/GPa) = 0.04286209
#
# Stress axis : x y z
#
# Youngs Moduli (GPa) = 18.00370 41.25226 68.82076
#
# Poissons Ratio (x) = 0.08546 1.33010
# Poissons Ratio (y) = 0.03730 0.29787
# Poissons Ratio (z) = 0.34796 0.17855
#
# Static dielectric constant tensor:
#      x y z
#    x 1.702700 0.000000 0.040340 
#    y 0.000000 1.844020 0.000000 
#    z 0.040340 0.000000 1.760270 
# 
# From -- ./inp_files/7785.got.cif
#   From: 2010.05.17/outbox.cif.g08.bks.cpg/sg4_4_cif.got.tgz:7785.got - 2010.06.03 18:43:04.
