data_PCOD9114861
_publ_section_title
;
Structure prediction by ZEFSAII (Michael W. Deem and Ramdas Pophale) SiO2 
 PCOD9114861
Probable space group: P 21
;
_chemical_formula_sum "Si O2"
_cell_formula_units_Z 16
_cell_length_a 8.754198
_cell_length_b 7.147587
_cell_length_c 11.066579
_cell_angle_alpha 90.000000
_cell_angle_beta 119.268692
_cell_angle_gamma 90.000000
_cell_volume 604.050538
_symmetry_space_group_name_H-M "P 21"
_symmetry_group_IT_number 4
_symmetry_cell_setting 'monoclinic'
loop_
_space_group_symop_operation_xyz
x,y,z
-x,1/2+y,-z
loop_
_atom_site_type_symbol
_atom_site_label
_atom_site_fract_x
_atom_site_fract_y
_atom_site_fract_z
Si Si1 0.073490 0.831740 0.755139
Si Si2 0.713999 0.595518 0.560045
Si Si3 0.723870 0.014690 0.917006
Si Si4 0.353975 0.169128 0.216260
Si Si5 0.047242 0.164547 0.938928
Si Si6 0.249214 0.336055 0.641632
Si Si7 0.146221 0.753677 0.519539
Si Si8 0.390939 0.558820 0.897827
O O1 0.145607 0.861064 0.647720
O O2 0.224307 0.692290 0.859928
O O3 0.893031 0.712532 0.666666
O O4 0.054833 0.012055 0.833970
O O5 0.598562 0.592715 0.635465
O O6 0.652896 0.709454 0.418386
O O7 0.758744 0.385124 0.538788
O O8 0.855711 0.864243 0.036913
O O9 0.560324 0.033027 0.944408
O O10 0.660488 0.892533 0.778708
O O11 0.848826 0.171621 0.910320
O O12 0.474474 0.137922 0.146488
O O13 0.167176 0.094170 0.097866
O O14 0.214776 0.545206 0.571969
O O15 0.336406 0.374094 0.803744
O O16 0.057844 0.252733 0.591674
#
# Coordination Sequence:
#
# PCOD9114861 Si02
#       8
#     2   2   2   2   2   2   2   2
#     4  10  20  38  65  90 123 158 206 263 302 373
#     4  11  20  42  62  91 126 158 220 262 305 365
#     4  10  22  38  64  89 120 165 205 263 304 370
#     4  10  25  39  60  90 129 163 200 261 314 386
#     4  10  21  39  63  93 117 160 213 253 312 352
#     4  10  21  36  65  92 121 164 206 265 307 373
#     4  10  19  35  63  96 116 164 209 258 312 358
#     4  11  22  41  60  89 132 162 201 251 326 377
#
# _framework density 26.487850999999999
#
# number of rings (size 3 to 8) (size 9 to 14) (size 15 to 20)
#    0.750    1.000    5.000    1.500    3.500    0.000 
#    4.500    0.000    2.750    0.000    0.000    0.000 
#    0.000    0.000    0.000    0.000    0.000    0.000 
#
# Total GULP energy -89299.524231 kJ/mol
# GULP energy per Si atom -5581.220264 kJ/mol
# Density = 2.642756 g / cm^3
# Si number density = 26.487851 Si / 1000 Ang^3
#
#
#
# Elastic Constant Matrix: (Units=GPa)
#
#
# Indices 1 2 3 4 5 6 
#
# 1 73.2513 21.6782 24.3481 0.0000 -32.9792 0.0000
# 2 21.6782 131.8562 26.9938 0.0000 -16.6503 0.0000
# 3 24.3481 26.9938 59.2642 0.0000 -36.5546 0.0000
# 4 0.0000 0.0000 0.0000 41.9060 0.0000 0.6705
# 5 -32.9792 -16.6503 -36.5546 0.0000 42.9913 0.0000
# 6 0.0000 0.0000 0.0000 0.6705 0.0000 37.8600
#
#
#
# Elastic Compliance Matrix: (Units=1/GPa)
#
#
# Indices 1 2 3 4 5 6 
#
# 1 0.021491 -0.001903 0.003683 0.000000 0.018881 0.000000
# 2 -0.001903 0.008532 -0.004136 0.000000 -0.001672 0.000000
# 3 0.003683 -0.004136 0.037849 0.000000 0.033406 0.000000
# 4 0.000000 0.000000 0.000000 0.023870 0.000000 -0.000423
# 5 0.018881 -0.001672 0.033406 0.000000 0.065501 0.000000
# 6 0.000000 0.000000 0.000000 -0.000423 0.000000 0.026421
#
#
# Mechanical properties :
#
#
# Convention : Reuss Voigt Hill
#
# Bulk Modulus (GPa) = 15.83236 45.60134 30.71685
# Shear Modulus (GPa) = 23.87435 37.30824 30.59129
#
# Velocity S-wave (km/s) = 3.00548 3.75708 3.40210
# Velocity P-wave (km/s) = 4.24665 6.00618 5.20135
#
# Compressibility (1/GPa) = 0.06316178
#
# Stress axis : x y z
#
# Youngs Moduli (GPa) = 46.53095 117.19943 26.42049
#
# Poissons Ratio (x) = 0.22305 -0.09731
# Poissons Ratio (y) = 0.08856 0.10927
# Poissons Ratio (z) = -0.17139 0.48471
#
# Static dielectric constant tensor:
#      x y z
#    x 2.124490 0.000000 0.028720 
#    y 0.000000 2.153090 0.000000 
#    z 0.028720 0.000000 2.206840 
# 
# From -- ./inp_files/10947.got.cif
#   From: 2010.05.17/outbox.cif.g08.bks.cpg/sg4_6_cif.got.tgz:10947.got - 2010.06.03 18:43:04.
