data_PCOD9114530
_publ_section_title
;
Structure prediction by ZEFSAII (Michael W. Deem and Ramdas Pophale) SiO2 
 PCOD9114530
Probable space group: P 21
;
_chemical_formula_sum "Si O2"
_cell_formula_units_Z 16
_cell_length_a 12.924149
_cell_length_b 5.260173
_cell_length_c 20.307117
_cell_angle_alpha 90.000000
_cell_angle_beta 36.961811
_cell_angle_gamma 90.000000
_cell_volume 830.097062
_symmetry_space_group_name_H-M "P 21"
_symmetry_group_IT_number 4
_symmetry_cell_setting 'monoclinic'
loop_
_space_group_symop_operation_xyz
x,y,z
-x,1/2+y,-z
loop_
_atom_site_type_symbol
_atom_site_label
_atom_site_fract_x
_atom_site_fract_y
_atom_site_fract_z
Si Si1 0.217357 0.899910 0.725294
Si Si2 0.373203 0.413530 0.519700
Si Si3 0.978579 0.612372 0.473093
Si Si4 0.104332 0.340402 0.203190
Si Si5 0.685099 0.409767 0.529952
Si Si6 0.182122 0.839961 0.247876
Si Si7 0.698732 0.905500 0.285711
Si Si8 0.464116 0.251012 0.978394
O O1 0.419374 0.922482 0.598290
O O2 0.213816 0.665919 0.776366
O O3 0.076492 0.849414 0.741661
O O4 0.186042 0.161073 0.778341
O O5 0.289633 0.645219 0.521596
O O6 0.334818 0.426939 0.616812
O O7 0.307684 0.149979 0.523121
O O8 0.815156 0.481083 0.520964
O O9 0.069031 0.359332 0.457848
O O10 0.093700 0.753969 0.359803
O O11 0.131891 0.615015 0.222455
O O12 0.124001 0.111646 0.246906
O O13 0.261338 0.290985 0.072371
O O14 0.486827 0.389158 0.653090
O O15 0.389755 0.826378 0.148031
O O16 0.506892 0.458660 0.014426
#
# Coordination Sequence:
#
# PCOD9114530 Si02
#       8
#     2   2   2   2   2   2   2   2
#     4  10  18  26  41  70 105 123 159 188 229 307
#     4  10  19  30  45  71  98 128 164 196 241 333
#     4  12  26  40  50  72  98 135 202 238 237 285
#     4  10  19  30  51  80 102 134 166 200 257 331
#     4  10  20  33  49  61  93 137 164 209 263 271
#     4  10  21  34  53  68  98 142 171 217 271 286
#     4  10  19  29  43  70 102 127 164 195 238 330
#     4   8  16  32  48  72 100 126 168 205 252 325
#
# _framework density 19.274854999999999
#
# number of rings (size 3 to 8) (size 9 to 14) (size 15 to 20)
#    0.000    2.000    0.000    6.000    7.000    0.000 
#    0.000    0.000    0.000    0.000    0.000    0.000 
#    0.000   16.000    0.000    0.500    1.000    1.500 
#
# Total GULP energy -89144.146650 kJ/mol
# GULP energy per Si atom -5571.509166 kJ/mol
# Density = 1.923099 g / cm^3
# Si number density = 19.274855 Si / 1000 Ang^3
#
#
#
# Elastic Constant Matrix: (Units=GPa)
#
#
# Indices 1 2 3 4 5 6 
#
# 1 67.1431 23.0155 32.4875 0.0000 -17.8163 0.0000
# 2 23.0155 156.0000 5.5598 0.0000 -4.2188 0.0000
# 3 32.4875 5.5598 40.9721 0.0000 -21.9741 0.0000
# 4 0.0000 0.0000 0.0000 13.8045 0.0000 -2.0984
# 5 -17.8163 -4.2188 -21.9741 0.0000 17.9244 0.0000
# 6 0.0000 0.0000 0.0000 -2.0984 0.0000 26.8721
#
#
#
# Elastic Compliance Matrix: (Units=1/GPa)
#
#
# Indices 1 2 3 4 5 6 
#
# 1 0.025547 -0.003054 -0.019296 0.000000 0.001018 0.000000
# 2 -0.003054 0.006817 0.002128 0.000000 0.001178 0.000000
# 3 -0.019296 0.002128 0.085839 0.000000 0.086554 0.000000
# 4 0.000000 0.000000 0.000000 0.073310 0.000000 0.005725
# 5 0.001018 0.001178 0.086554 0.000000 0.163189 0.000000
# 6 0.000000 0.000000 0.000000 0.005725 0.000000 0.037660
#
#
# Mechanical properties :
#
#
# Convention : Reuss Voigt Hill
#
# Bulk Modulus (GPa) = 12.86022 42.91565 27.88794
# Shear Modulus (GPa) = 10.89978 25.25704 18.07841
#
# Velocity S-wave (km/s) = 2.38059 3.62382 3.06588
# Velocity P-wave (km/s) = 3.77396 6.31054 5.19931
#
# Compressibility (1/GPa) = 0.07775917
#
# Stress axis : x y z
#
# Youngs Moduli (GPa) = 39.14329 146.69602 11.64976
#
# Poissons Ratio (x) = 0.44799 0.22480
# Poissons Ratio (y) = 0.11954 -0.02479
# Poissons Ratio (z) = 0.75532 -0.31222
#
# Static dielectric constant tensor:
#      x y z
#    x 1.682800 0.000000 -0.031370 
#    y 0.000000 1.801880 0.000000 
#    z -0.031370 0.000000 1.716490 
# 
# From -- ./inp_files/15072.got.cif
#   From: 2010.05.17/outbox.cif.g08.bks.cpg/sg4_8_cif.got.tgz:15072.got - 2010.06.03 18:43:04.
