data_PCOD9114134
_publ_section_title
;
Structure prediction by ZEFSAII (Michael W. Deem and Ramdas Pophale) SiO2 
 PCOD9114134
Probable space group: P 2
;
_chemical_formula_sum "Si O2"
_cell_formula_units_Z 10
_cell_length_a 11.278139
_cell_length_b 8.135580
_cell_length_c 12.383997
_cell_angle_alpha 90.000000
_cell_angle_beta 23.137207
_cell_angle_gamma 90.000000
_cell_volume 446.484924
_symmetry_space_group_name_H-M "P 2"
_symmetry_group_IT_number 3
_symmetry_cell_setting 'monoclinic'
loop_
_space_group_symop_operation_xyz
x,y,z
-x,y,-z
loop_
_atom_site_type_symbol
_atom_site_label
_atom_site_fract_x
_atom_site_fract_y
_atom_site_fract_z
Si Si1 0.925489 0.698290 0.333123
Si Si2 0.825774 0.974622 0.254313
Si Si3 0.273602 0.162196 0.036166
Si Si4 0.844830 0.376114 0.520897
Si Si5 0.551267 0.811791 0.835195
O O1 0.764475 0.814853 0.380844
O O2 0.852835 0.509938 0.418495
O O3 0.843983 0.782135 0.517650
O O4 0.275007 0.717651 0.008298
O O5 0.500000 0.049499 0.500000
O O6 0.045266 0.099785 0.134417
O O7 0.000000 0.927095 0.000000
O O8 0.060583 0.224966 0.309597
O O9 0.509376 0.307301 0.815399
O O10 0.468647 0.002821 0.901526
O O11 0.000000 0.446974 0.500000
O O12 0.500000 0.751999 0.000000
#
# Coordination Sequence:
#
# PCOD9114134 Si02
#       5
#     2   2   2   2   2
#     4  11  24  39  63  94 126 167 216 257 315 388
#     4  11  23  45  70  90 120 170 227 283 314 349
#     4  11  24  39  63  94 126 167 216 257 315 388
#     4  12  23  40  62  98 141 169 192 254 329 395
#     4  11  20  37  60  90 125 169 213 255 305 382
#
# _framework density 22.397172000000001
#
# number of rings (size 3 to 8) (size 9 to 14) (size 15 to 20)
#    0.000    0.800    0.000   10.800    0.000    0.000 
#    0.000    4.000    0.000    2.400    0.000    0.000 
#    0.000    0.000    0.000    0.000    0.000    0.000 
#
# Total GULP energy -55857.015750 kJ/mol
# GULP energy per Si atom -5585.701575 kJ/mol
# Density = 2.234619 g / cm^3
# Si number density = 22.397172 Si / 1000 Ang^3
#
#
#
# Elastic Constant Matrix: (Units=GPa)
#
#
# Indices 1 2 3 4 5 6 
#
# 1 84.4245 30.8409 30.7102 0.0000 3.3383 0.0000
# 2 30.8409 66.9124 19.4158 0.0000 -5.9224 0.0000
# 3 30.7102 19.4158 129.6185 0.0000 -1.2164 0.0000
# 4 0.0000 0.0000 0.0000 30.9573 0.0000 7.7874
# 5 3.3383 -5.9224 -1.2164 0.0000 41.8064 0.0000
# 6 0.0000 0.0000 0.0000 7.7874 0.0000 14.5257
#
#
#
# Elastic Compliance Matrix: (Units=1/GPa)
#
#
# Indices 1 2 3 4 5 6 
#
# 1 0.015262 -0.006455 -0.002670 0.000000 -0.002211 0.000000
# 2 -0.006455 0.018549 -0.001220 0.000000 0.003108 0.000000
# 3 -0.002670 -0.001220 0.008533 0.000000 0.000289 0.000000
# 4 0.000000 0.000000 0.000000 0.037338 0.000000 -0.020017
# 5 -0.002211 0.003108 0.000289 0.000000 0.024545 0.000000
# 6 0.000000 0.000000 0.000000 -0.020017 0.000000 0.079575
#
#
# Mechanical properties :
#
#
# Convention : Reuss Voigt Hill
#
# Bulk Modulus (GPa) = 46.18093 49.20992 47.69542
# Shear Modulus (GPa) = 23.61723 30.79043 27.20383
#
# Velocity S-wave (km/s) = 3.25079 3.71178 3.48891
# Velocity P-wave (km/s) = 5.89525 6.35523 6.12956
#
# Compressibility (1/GPa) = 0.02165396
#
# Stress axis : x y z
#
# Youngs Moduli (GPa) = 65.52381 53.91031 117.19323
#
# Poissons Ratio (x) = 0.34801 0.31287
# Poissons Ratio (y) = 0.42298 0.14297
# Poissons Ratio (z) = 0.17493 0.06577
#
# Static dielectric constant tensor:
#      x y z
#    x 1.886240 0.000000 -0.027500 
#    y 0.000000 1.830400 0.000000 
#    z -0.027500 0.000000 1.784390 
# 
# From -- ./inp_files/9797.got.cif
#   From: 2010.05.17/outbox.cif.g08.bks.cpg/sg3_5_cif.got.tgz:9797.got - 2010.06.03 18:33:08.
