data_PCOD9114255
_publ_section_title
;
Structure prediction by ZEFSAII (Michael W. Deem and Ramdas Pophale) SiO2 
 PCOD9114255
Probable space group: P 2
;
_chemical_formula_sum "Si O2"
_cell_formula_units_Z 15
_cell_length_a 12.734561
_cell_length_b 11.561573
_cell_length_c 6.391246
_cell_angle_alpha 90.000000
_cell_angle_beta 49.310167
_cell_angle_gamma 90.000000
_cell_volume 713.508051
_symmetry_space_group_name_H-M "P 2"
_symmetry_group_IT_number 3
_symmetry_cell_setting 'monoclinic'
loop_
_space_group_symop_operation_xyz
x,y,z
-x,y,-z
loop_
_atom_site_type_symbol
_atom_site_label
_atom_site_fract_x
_atom_site_fract_y
_atom_site_fract_z
Si Si1 0.369424 0.826960 0.303595
Si Si2 0.860405 0.118074 0.816551
Si Si3 0.845137 0.894680 0.105455
Si Si4 0.715378 0.492465 0.011502
Si Si5 0.338945 0.271859 0.194378
Si Si6 0.500000 0.666303 0.500000
Si Si7 0.156286 0.717982 0.245488
Si Si8 0.152163 0.320087 0.838897
O O1 0.267793 0.911299 0.564872
O O2 0.433165 0.744110 0.401888
O O3 0.266620 0.762671 0.273577
O O4 0.500000 0.873269 0.000000
O O5 0.737812 0.174704 0.842597
O O6 0.000000 0.114625 0.500000
O O7 0.878693 0.206739 0.983555
O O8 0.830665 0.993595 0.950832
O O9 0.817540 0.775642 0.015393
O O10 0.000000 0.895566 0.000000
O O11 0.601425 0.580675 0.243725
O O12 0.766004 0.414375 0.135576
O O13 0.668027 0.398772 0.903787
O O14 0.832000 0.579564 0.776032
O O15 0.247539 0.284252 0.521611
O O16 0.500000 0.241990 0.000000
O O17 0.000000 0.754530 0.500000
O O18 0.000000 0.371112 0.000000
#
# Coordination Sequence:
#
# PCOD9114255 Si02
#       8
#     2   2   2   2   2   1   2   2
#     4  12  25  46  71 102 153 194 243 301 362 436
#     4  11  25  48  78 103 136 188 250 299 369 438
#     4  12  26  47  77 105 141 193 248 305 371 438
#     4  11  26  38  71 105 148 188 244 288 363 440
#     4  11  26  47  73 106 145 188 238 303 367 433
#     4  12  24  46  68 102 146 210 234 290 364 440
#     4  12  26  43  68 110 149 192 248 304 362 434
#     4  11  24  44  72 106 141 189 242 301 364 431
#
# _framework density 21.022887999999998
#
# number of rings (size 3 to 8) (size 9 to 14) (size 15 to 20)
#    0.000    0.533    5.333    1.600    5.600    2.133 
#    0.000    6.667    0.000    0.000    0.000    0.000 
#    0.000    0.000    0.000    0.000    0.000    0.000 
#
# Total GULP energy -83834.349132 kJ/mol
# GULP energy per Si atom -5588.956609 kJ/mol
# Density = 2.097504 g / cm^3
# Si number density = 21.022888 Si / 1000 Ang^3
#
#
#
# Elastic Constant Matrix: (Units=GPa)
#
#
# Indices 1 2 3 4 5 6 
#
# 1 97.3394 29.7020 67.3487 0.0000 -9.7066 0.0000
# 2 29.7020 73.2993 26.9833 0.0000 -5.4988 0.0000
# 3 67.3487 26.9833 176.1218 0.0000 -22.5587 0.0000
# 4 0.0000 0.0000 0.0000 -28.0205 0.0000 -68.2284
# 5 -9.7066 -5.4988 -22.5587 0.0000 35.6545 0.0000
# 6 0.0000 0.0000 0.0000 -68.2284 0.0000 -70.9754
#
#
#
# Elastic Compliance Matrix: (Units=1/GPa)
#
#
# Indices 1 2 3 4 5 6 
#
# 1 0.015118 -0.004230 -0.005103 0.000000 0.000235 0.000000
# 2 -0.004230 0.015668 -0.000676 0.000000 0.000837 0.000000
# 3 -0.005103 -0.000676 0.008207 0.000000 0.003699 0.000000
# 4 0.000000 0.000000 0.000000 0.026619 0.000000 -0.025589
# 5 0.000235 0.000837 0.003699 0.000000 0.030580 0.000000
# 6 0.000000 0.000000 0.000000 -0.025589 0.000000 0.010509
#
#
# Mechanical properties :
#
#
# Convention : Reuss Voigt Hill
#
# Bulk Modulus (GPa) = 52.69917 66.09205 59.39561
# Shear Modulus (GPa) = 37.58151 2.18013 19.88082
#
# Velocity S-wave (km/s) = 4.23264 1.01945 3.07852
# Velocity P-wave (km/s) = 7.00064 5.73516 6.39926
#
# Compressibility (1/GPa) = 0.01897563
#
# Stress axis : x y z
#
# Youngs Moduli (GPa) = 66.14524 63.82308 121.85320
#
# Poissons Ratio (x) = 0.26997 0.62183
# Poissons Ratio (y) = 0.27979 0.08234
# Poissons Ratio (z) = 0.33754 0.04313
#
# Static dielectric constant tensor:
#      x y z
#    x 1.749020 0.000000 0.003190 
#    y 0.000000 1.732080 0.000000 
#    z 0.003190 0.000000 1.773950 
# 
# From -- ./inp_files/2469.got.cif
#   From: 2010.05.17/outbox.cif.g08.bks.cpg/sg3_2_cif.got.tgz:2469.got - 2010.06.03 18:33:08.
