data_PCOD9114691
_publ_section_title
;
Structure prediction by ZEFSAII (Michael W. Deem and Ramdas Pophale) SiO2 
 PCOD9114691
Probable space group: P 21
;
_chemical_formula_sum "Si O2"
_cell_formula_units_Z 16
_cell_length_a 9.021385
_cell_length_b 8.615268
_cell_length_c 24.216278
_cell_angle_alpha 90.000000
_cell_angle_beta 153.888044
_cell_angle_gamma 90.000000
_cell_volume 828.374981
_symmetry_space_group_name_H-M "P 21"
_symmetry_group_IT_number 4
_symmetry_cell_setting 'monoclinic'
loop_
_space_group_symop_operation_xyz
x,y,z
-x,1/2+y,-z
loop_
_atom_site_type_symbol
_atom_site_label
_atom_site_fract_x
_atom_site_fract_y
_atom_site_fract_z
Si Si1 0.700123 0.375000 0.773554
Si Si2 0.418303 0.661970 0.721125
Si Si3 0.681846 0.892707 0.731628
Si Si4 0.387584 0.761823 0.525503
Si Si5 0.766296 0.654693 0.077311
Si Si6 0.103293 0.065294 0.371135
Si Si7 0.843229 0.954350 0.168038
Si Si8 0.105399 0.139205 0.555440
O O1 0.607963 0.497844 0.788727
O O2 0.372618 0.279538 0.646401
O O3 0.007028 0.258046 0.889081
O O4 0.834230 0.465181 0.764446
O O5 0.684162 0.788373 0.787831
O O6 0.178848 0.672110 0.693819
O O7 0.155954 0.649994 0.582042
O O8 0.638382 0.800134 0.660179
O O9 0.336981 0.990109 0.624511
O O10 0.988744 0.011201 0.827099
O O11 0.587576 0.672806 0.544791
O O12 0.100733 0.653559 0.456746
O O13 0.231013 0.925277 0.452979
O O14 0.715729 0.779132 0.110078
O O15 0.427598 0.581780 0.941168
O O16 0.948908 0.983117 0.265574
#
# Coordination Sequence:
#
# PCOD9114691 Si02
#       8
#     2   2   2   2   2   2   2   2
#     4   9  20  37  64  85 117 165 215 245 292 378
#     4  11  20  36  60  88 130 161 206 246 312 374
#     4  10  21  39  65  89 117 172 213 246 300 388
#     4  11  25  36  61  91 141 158 203 245 332 375
#     4   9  23  39  70  86 117 163 225 255 304 363
#     4  12  26  38  59  99 134 162 195 267 330 365
#     4  10  23  42  65  89 124 160 218 261 312 358
#     4  10  18  39  58  89 120 175 203 239 292 401
#
# _framework density 19.314924999999999
#
# number of rings (size 3 to 8) (size 9 to 14) (size 15 to 20)
#    0.750    1.000    2.500    2.250    8.750    0.000 
#    0.000    1.250    0.000    0.000    0.000    0.000 
#    0.000    0.000    0.000    0.000    0.000    0.000 
#
# Total GULP energy -89149.386238 kJ/mol
# GULP energy per Si atom -5571.836640 kJ/mol
# Density = 1.927096 g / cm^3
# Si number density = 19.314925 Si / 1000 Ang^3
#
#
#
# Elastic Constant Matrix: (Units=GPa)
#
#
# Indices 1 2 3 4 5 6 
#
# 1 81.3177 6.0052 9.6515 0.0000 4.1353 0.0000
# 2 6.0052 67.0365 18.3328 0.0000 2.9873 0.0000
# 3 9.6515 18.3328 34.3531 0.0000 3.0850 0.0000
# 4 0.0000 0.0000 0.0000 23.3912 0.0000 3.1285
# 5 4.1353 2.9873 3.0850 0.0000 8.8635 0.0000
# 6 0.0000 0.0000 0.0000 3.1285 0.0000 31.1759
#
#
#
# Elastic Compliance Matrix: (Units=1/GPa)
#
#
# Indices 1 2 3 4 5 6 
#
# 1 0.012927 -0.000078 -0.003149 0.000000 -0.004909 0.000000
# 2 -0.000078 0.017531 -0.009090 0.000000 -0.002708 0.000000
# 3 -0.003149 -0.009090 0.035549 0.000000 -0.007840 0.000000
# 4 0.000000 0.000000 0.000000 0.043333 0.000000 -0.004348
# 5 -0.004909 -0.002708 -0.007840 0.000000 0.118754 0.000000
# 6 0.000000 0.000000 0.000000 -0.004348 0.000000 0.032512
#
#
# Mechanical properties :
#
#
# Convention : Reuss Voigt Hill
#
# Bulk Modulus (GPa) = 24.17118 27.85405 26.01262
# Shear Modulus (GPa) = 16.72064 22.60064 19.66064
#
# Velocity S-wave (km/s) = 2.94544 3.42440 3.19391
# Velocity P-wave (km/s) = 4.91009 5.48522 5.20560
#
# Compressibility (1/GPa) = 0.04137158
#
# Stress axis : x y z
#
# Youngs Moduli (GPa) = 77.35973 57.04217 28.12983
#
# Poissons Ratio (x) = 0.00445 0.08859
# Poissons Ratio (y) = 0.00603 0.25571
# Poissons Ratio (z) = 0.24363 0.51854
#
# Static dielectric constant tensor:
#      x y z
#    x 1.673830 0.000000 0.030380 
#    y 0.000000 1.742730 0.000000 
#    z 0.030380 0.000000 1.652000 
# 
# From -- ./inp_files/9580.got.cif
#   From: 2010.05.17/outbox.cif.g08.bks.cpg/sg4_5_cif.got.tgz:9580.got - 2010.06.03 18:43:04.
