data_PCOD9114888
_publ_section_title
;
Structure prediction by ZEFSAII (Michael W. Deem and Ramdas Pophale) SiO2 
 PCOD9114888
Probable space group: P 21
;
_chemical_formula_sum "Si O2"
_cell_formula_units_Z 12
_cell_length_a 6.293300
_cell_length_b 4.988626
_cell_length_c 17.032260
_cell_angle_alpha 90.000000
_cell_angle_beta 123.740061
_cell_angle_gamma 90.000000
_cell_volume 444.660313
_symmetry_space_group_name_H-M "P 21"
_symmetry_group_IT_number 4
_symmetry_cell_setting 'monoclinic'
loop_
_space_group_symop_operation_xyz
x,y,z
-x,1/2+y,-z
loop_
_atom_site_type_symbol
_atom_site_label
_atom_site_fract_x
_atom_site_fract_y
_atom_site_fract_z
Si Si1 0.823205 0.513040 0.965702
Si Si2 0.181353 0.883850 0.870226
Si Si3 0.329041 0.389071 0.468567
Si Si4 0.187675 0.015507 0.703067
Si Si5 0.326864 0.518421 0.637382
Si Si6 0.832607 0.383134 0.801249
O O1 0.683985 0.439681 0.018313
O O2 0.696994 0.454638 0.856459
O O3 0.069236 0.313345 0.012760
O O4 0.939433 0.085597 0.826007
O O5 0.070378 0.585377 0.842741
O O6 0.304930 0.965589 0.813282
O O7 0.561963 0.591608 0.501139
O O8 0.211866 0.480462 0.528029
O O9 0.107597 0.421754 0.359226
O O10 0.319272 0.818159 0.667881
O O11 0.200504 0.316382 0.673858
O O12 0.622254 0.429083 0.692773
#
# Coordination Sequence:
#
# PCOD9114888 Si02
#       6
#     2   2   2   2   2   2
#     4   8  16  30  54  80 106 140 188 234 264 304
#     4  10  19  36  58  82 109 148 192 228 266 324
#     4  12  24  42  64  84 106 146 192 228 266 330
#     4  12  24  39  57  85 118 146 176 228 286 330
#     4  12  24  39  57  85 118 146 176 228 286 330
#     4  10  19  36  58  82 109 148 192 228 266 324
#
# _framework density 26.986895000000001
#
# number of rings (size 3 to 8) (size 9 to 14) (size 15 to 20)
#    0.000    1.333    0.000    7.000    0.000    0.000 
#    0.000    1.667    0.000    0.000    0.000    0.000 
#    0.000    0.000    0.000    0.000    0.000    0.000 
#
# Total GULP energy -67259.410567 kJ/mol
# GULP energy per Si atom -5604.950881 kJ/mol
# Density = 2.692547 g / cm^3
# Si number density = 26.986895 Si / 1000 Ang^3
#
#
#
# Elastic Constant Matrix: (Units=GPa)
#
#
# Indices 1 2 3 4 5 6 
#
# 1 52.5599 21.5428 18.5696 0.0000 -4.0452 0.0000
# 2 21.5428 94.6669 11.5528 0.0000 2.4357 0.0000
# 3 18.5696 11.5528 114.6763 0.0000 -43.1916 0.0000
# 4 0.0000 0.0000 0.0000 30.6688 0.0000 -7.0734
# 5 -4.0452 2.4357 -43.1916 0.0000 53.2038 0.0000
# 6 0.0000 0.0000 0.0000 -7.0734 0.0000 57.9554
#
#
#
# Elastic Compliance Matrix: (Units=1/GPa)
#
#
# Indices 1 2 3 4 5 6 
#
# 1 0.022050 -0.004572 -0.003457 0.000000 -0.000920 0.000000
# 2 -0.004572 0.011788 -0.001125 0.000000 -0.001801 0.000000
# 3 -0.003457 -0.001125 0.013416 0.000000 0.010680 0.000000
# 4 0.000000 0.000000 0.000000 0.033551 0.000000 0.004095
# 5 -0.000920 -0.001801 0.010680 0.000000 0.027478 0.000000
# 6 0.000000 0.000000 0.000000 0.004095 0.000000 0.017754
#
#
# Mechanical properties :
#
#
# Convention : Reuss Voigt Hill
#
# Bulk Modulus (GPa) = 34.54838 40.58151 37.56494
# Shear Modulus (GPa) = 32.46877 42.38146 37.42511
#
# Velocity S-wave (km/s) = 3.47238 3.96718 3.72800
# Velocity P-wave (km/s) = 5.37646 6.00457 5.69917
#
# Compressibility (1/GPa) = 0.02894491
#
# Stress axis : x y z
#
# Youngs Moduli (GPa) = 45.35062 84.83531 74.53937
#
# Poissons Ratio (x) = 0.38790 0.25765
# Poissons Ratio (y) = 0.20736 0.08389
# Poissons Ratio (z) = 0.15676 0.09547
#
# Static dielectric constant tensor:
#      x y z
#    x 2.102620 0.000000 -0.087170 
#    y 0.000000 1.987510 0.000000 
#    z -0.087170 0.000000 2.058700 
# 
# From -- ./inp_files/3291.got.cif
#   From: 2010.05.17/outbox.cif.g08.bks.cpg/sg4_2_cif.got.tgz:3291.got - 2010.06.03 18:43:04.
