data_PCOD9114370
_publ_section_title
;
Structure prediction by ZEFSAII (Michael W. Deem and Ramdas Pophale) SiO2 
 PCOD9114370
Probable space group: P 2
;
_chemical_formula_sum "Si O2"
_cell_formula_units_Z 13
_cell_length_a 11.384944
_cell_length_b 9.126336
_cell_length_c 8.667207
_cell_angle_alpha 90.000000
_cell_angle_beta 38.816368
_cell_angle_gamma 90.000000
_cell_volume 564.486834
_symmetry_space_group_name_H-M "P 2"
_symmetry_group_IT_number 3
_symmetry_cell_setting 'monoclinic'
loop_
_space_group_symop_operation_xyz
x,y,z
-x,y,-z
loop_
_atom_site_type_symbol
_atom_site_label
_atom_site_fract_x
_atom_site_fract_y
_atom_site_fract_z
Si Si1 0.423952 0.604180 0.227689
Si Si2 0.208796 0.312942 0.355121
Si Si3 0.795624 0.293885 0.274599
Si Si4 0.684393 0.601435 0.235681
Si Si5 0.000000 0.827505 0.000000
Si Si6 0.298962 0.901506 0.458428
Si Si7 0.500000 0.062848 0.500000
Si Si8 0.500000 0.089840 0.000000
O O1 0.304836 0.470380 0.283416
O O2 0.600927 0.559544 0.153528
O O3 0.297905 0.727229 0.435968
O O4 0.500000 0.684627 0.000000
O O5 0.209696 0.262983 0.535918
O O6 0.000000 0.320264 0.500000
O O7 0.341573 0.211163 0.111380
O O8 0.728611 0.457492 0.293539
O O9 0.671132 0.174133 0.317311
O O10 0.000000 0.284282 0.000000
O O11 0.500000 0.669742 0.500000
O O12 0.851489 0.717902 0.068633
O O13 0.886523 0.921794 0.244592
O O14 0.471323 0.960631 0.384032
O O15 0.356620 0.987111 0.244215
#
# Coordination Sequence:
#
# PCOD9114370 Si02
#       8
#     2   2   2   2   1   2   1   1
#     4  12  26  48  78 112 161 215 264 323 411 465
#     4  12  28  50  79 116 158 209 270 333 393 475
#     4  12  26  44  78 119 152 205 271 326 397 466
#     4  12  23  47  78 118 159 203 268 340 385 472
#     4  12  26  50  82 118 156 204 282 332 390 472
#     4  12  27  50  78 115 156 216 260 324 402 483
#     4  12  26  48  78 106 164 208 262 326 402 464
#     4  12  28  56  72 110 172 204 260 326 410 476
#
# _framework density 23.029764
#
# number of rings (size 3 to 8) (size 9 to 14) (size 15 to 20)
#    0.000    0.000    7.692    0.923    5.385    0.000 
#    2.769    0.769    0.000    0.000    0.000    0.000 
#    0.000    0.000    0.000    0.000    0.000    0.000 
#
# Total GULP energy -72459.277749 kJ/mol
# GULP energy per Si atom -5573.790596 kJ/mol
# Density = 2.297735 g / cm^3
# Si number density = 23.029764 Si / 1000 Ang^3
#
#
#
# Elastic Constant Matrix: (Units=GPa)
#
#
# Indices 1 2 3 4 5 6 
#
# 1 101.9090 30.8552 34.6410 0.0000 -26.1131 0.0000
# 2 30.8552 142.4534 44.2324 0.0000 -18.8427 0.0000
# 3 34.6410 44.2324 132.0242 0.0000 -15.5923 0.0000
# 4 0.0000 0.0000 0.0000 52.0012 0.0000 -1.4603
# 5 -26.1131 -18.8427 -15.5923 0.0000 44.1807 0.0000
# 6 0.0000 0.0000 0.0000 -1.4603 0.0000 48.1966
#
#
#
# Elastic Compliance Matrix: (Units=1/GPa)
#
#
# Indices 1 2 3 4 5 6 
#
# 1 0.012474 -0.001231 -0.002141 0.000000 0.006092 0.000000
# 2 -0.001231 0.008235 -0.002199 0.000000 0.002008 0.000000
# 3 -0.002141 -0.002199 0.008987 0.000000 0.000969 0.000000
# 4 0.000000 0.000000 0.000000 0.019247 0.000000 0.000583
# 5 0.006092 0.002008 0.000969 0.000000 0.027434 0.000000
# 6 0.000000 0.000000 0.000000 0.000583 0.000000 0.020766
#
#
# Mechanical properties :
#
#
# Convention : Reuss Voigt Hill
#
# Bulk Modulus (GPa) = 53.89568 66.20484 60.05026
# Shear Modulus (GPa) = 43.67978 46.65291 45.16635
#
# Velocity S-wave (km/s) = 4.35980 4.50573 4.43337
# Velocity P-wave (km/s) = 6.98550 7.47521 7.23450
#
# Compressibility (1/GPa) = 0.01855436
#
# Stress axis : x y z
#
# Youngs Moduli (GPa) = 80.16466 121.43447 111.26980
#
# Poissons Ratio (x) = 0.14952 0.23823
# Poissons Ratio (y) = 0.09871 0.24465
# Poissons Ratio (z) = 0.17164 0.26700
#
# Static dielectric constant tensor:
#      x y z
#    x 1.819590 0.000000 0.126380 
#    y 0.000000 1.926280 0.000000 
#    z 0.126380 0.000000 1.941620 
# 
# From -- ./inp_files/7343.got.cif
#   From: 2010.05.17/outbox.cif.g08.bks.cpg/sg3_4_cif.got.tgz:7343.got - 2010.06.03 18:33:08.
