data_PCOD9114615
_publ_section_title
;
Structure prediction by ZEFSAII (Michael W. Deem and Ramdas Pophale) SiO2 
 PCOD9114615
Probable space group: P 21
;
_chemical_formula_sum "Si O2"
_cell_formula_units_Z 16
_cell_length_a 23.813820
_cell_length_b 8.600412
_cell_length_c 9.185036
_cell_angle_alpha 90.000000
_cell_angle_beta 27.236378
_cell_angle_gamma 90.000000
_cell_volume 860.943303
_symmetry_space_group_name_H-M "P 21"
_symmetry_group_IT_number 4
_symmetry_cell_setting 'monoclinic'
loop_
_space_group_symop_operation_xyz
x,y,z
-x,1/2+y,-z
loop_
_atom_site_type_symbol
_atom_site_label
_atom_site_fract_x
_atom_site_fract_y
_atom_site_fract_z
Si Si1 0.790517 0.441300 0.741032
Si Si2 0.016552 0.216299 0.208412
Si Si3 0.783756 0.918454 0.376498
Si Si4 0.817588 0.267681 0.229192
Si Si5 0.922229 0.711486 0.256459
Si Si6 0.415823 0.175472 0.248719
Si Si7 0.620352 0.401652 0.881373
Si Si8 0.787834 0.513546 0.080034
O O1 0.856003 0.574645 0.493802
O O2 0.662796 0.410947 0.950617
O O3 0.882271 0.291126 0.539014
O O4 0.774673 0.508384 0.938628
O O5 0.111707 0.361402 0.978571
O O6 0.028037 0.152672 0.016048
O O7 0.085167 0.097611 0.159171
O O8 0.836656 0.856481 0.408337
O O9 0.662867 0.819084 0.631159
O O10 0.769816 0.098079 0.380214
O O11 0.749093 0.379963 0.499630
O O12 0.789364 0.337480 0.137380
O O13 0.961708 0.266711 0.921618
O O14 0.435922 0.053566 0.069815
O O15 0.326382 0.096288 0.574838
O O16 0.534844 0.254029 0.044640
#
# Coordination Sequence:
#
# PCOD9114615 Si02
#       8
#     2   2   2   2   2   2   2   2
#     4  12  21  38  62  90 129 171 200 259 329 383
#     4   9  20  35  56  88 121 158 206 252 305 377
#     4   9  18  33  61  85 115 149 205 260 305 349
#     4  11  20  35  60  91 121 160 200 264 309 377
#     4  10  18  34  61  89 122 154 210 256 305 365
#     4  10  21  42  60  91 114 161 212 277 301 365
#     4  11  21  39  66  86 117 161 221 261 310 362
#     4  10  25  38  56  90 139 164 202 255 330 384
#
# _framework density 18.584266
#
# number of rings (size 3 to 8) (size 9 to 14) (size 15 to 20)
#    0.750    1.000    3.750    1.500    3.500    0.000 
#    0.000    3.750    5.500    0.000    0.000    0.000 
#    0.000    0.000    0.000    0.000    0.000    0.000 
#
# Total GULP energy -89096.011797 kJ/mol
# GULP energy per Si atom -5568.500737 kJ/mol
# Density = 1.854197 g / cm^3
# Si number density = 18.584266 Si / 1000 Ang^3
#
#
#
# Elastic Constant Matrix: (Units=GPa)
#
#
# Indices 1 2 3 4 5 6 
#
# 1 128.7798 53.4321 40.1852 0.0000 -0.9013 0.0000
# 2 53.4321 94.1769 27.7486 0.0000 -6.6528 0.0000
# 3 40.1852 27.7486 50.2651 0.0000 -15.4970 0.0000
# 4 0.0000 0.0000 0.0000 24.3920 0.0000 -6.9740
# 5 -0.9013 -6.6528 -15.4970 0.0000 30.2941 0.0000
# 6 0.0000 0.0000 0.0000 -6.9740 0.0000 28.6318
#
#
#
# Elastic Compliance Matrix: (Units=1/GPa)
#
#
# Indices 1 2 3 4 5 6 
#
# 1 0.012540 -0.004841 -0.008982 0.000000 -0.005285 0.000000
# 2 -0.004841 0.014573 -0.003837 0.000000 0.001093 0.000000
# 3 -0.008982 -0.003837 0.034254 0.000000 0.016413 0.000000
# 4 0.000000 0.000000 0.000000 0.044066 0.000000 0.010733
# 5 -0.005285 0.001093 0.016413 0.000000 0.041489 0.000000
# 6 0.000000 0.000000 0.000000 0.010733 0.000000 0.037541
#
#
# Mechanical properties :
#
#
# Convention : Reuss Voigt Hill
#
# Bulk Modulus (GPa) = 38.39455 57.32818 47.86136
# Shear Modulus (GPa) = 21.88531 26.78731 24.33631
#
# Velocity S-wave (km/s) = 3.43538 3.80069 3.62264
# Velocity P-wave (km/s) = 6.03658 7.08343 6.58086
#
# Compressibility (1/GPa) = 0.02604537
#
# Stress axis : x y z
#
# Youngs Moduli (GPa) = 79.74708 68.62001 29.19410
#
# Poissons Ratio (x) = 0.33222 0.26221
# Poissons Ratio (y) = 0.38609 0.11203
# Poissons Ratio (z) = 0.71626 0.26332
#
# Static dielectric constant tensor:
#      x y z
#    x 1.664160 0.000000 -0.020240 
#    y 0.000000 1.682000 0.000000 
#    z -0.020240 0.000000 1.649810 
# 
# From -- ./inp_files/9914.got.cif
#   From: 2010.05.17/outbox.cif.g08.bks.cpg/sg4_5_cif.got.tgz:9914.got - 2010.06.03 18:43:04.
