data_PCOD9114207
_publ_section_title
;
Structure prediction by ZEFSAII (Michael W. Deem and Ramdas Pophale) SiO2 
 PCOD9114207
Probable space group: P 2
;
_chemical_formula_sum "Si O2"
_cell_formula_units_Z 13
_cell_length_a 5.943152
_cell_length_b 4.983915
_cell_length_c 19.841181
_cell_angle_alpha 90.000000
_cell_angle_beta 53.879024
_cell_angle_gamma 90.000000
_cell_volume 474.728080
_symmetry_space_group_name_H-M "P 2"
_symmetry_group_IT_number 3
_symmetry_cell_setting 'monoclinic'
loop_
_space_group_symop_operation_xyz
x,y,z
-x,y,-z
loop_
_atom_site_type_symbol
_atom_site_label
_atom_site_fract_x
_atom_site_fract_y
_atom_site_fract_z
Si Si1 0.045139 0.542020 0.779686
Si Si2 0.368847 0.585124 0.389311
Si Si3 0.898933 0.066458 0.623183
Si Si4 0.500000 0.254218 0.500000
Si Si5 0.328383 0.072243 0.192846
Si Si6 0.907959 0.315276 0.090357
Si Si7 0.738105 0.832065 0.915054
O O1 0.332750 0.620515 0.699199
O O2 0.990449 0.543657 0.872120
O O3 0.945120 0.265420 0.770283
O O4 0.812637 0.771866 0.817298
O O5 0.217104 0.868290 0.413489
O O6 0.416184 0.446507 0.452750
O O7 0.193332 0.368783 0.377677
O O8 0.740198 0.967133 0.717732
O O9 0.232954 0.076908 0.568649
O O10 0.587996 0.281487 0.167391
O O11 0.463384 0.054206 0.089199
O O12 0.045332 0.032961 0.086618
O O13 0.000000 0.401276 0.000000
O O14 0.500000 0.684472 0.000000
#
# Coordination Sequence:
#
# PCOD9114207 Si02
#       7
#     2   2   2   1   2   2   2
#     4  11  26  43  72 109 151 206 262 331 406 481
#     4  12  29  54  84 122 162 214 274 335 423 505
#     4  12  29  53  87 120 162 216 273 334 423 505
#     4  12  30  58  86 126 168 214 272 364 420 494
#     4  11  24  46  72 105 153 207 255 325 404 474
#     4  11  23  43  67 101 149 199 262 326 385 481
#     4  11  25  41  66 107 151 206 265 327 401 469
#
# _framework density 27.384098999999999
#
# number of rings (size 3 to 8) (size 9 to 14) (size 15 to 20)
#    0.000    0.615    4.615    1.385    6.462    6.769 
#    0.000    0.000    0.000    0.000    0.000    0.000 
#    0.000    0.000    0.000    0.000    0.000    0.000 
#
# Total GULP energy -72650.747324 kJ/mol
# GULP energy per Si atom -5588.519025 kJ/mol
# Density = 2.732177 g / cm^3
# Si number density = 27.384099 Si / 1000 Ang^3
#
#
#
# Elastic Constant Matrix: (Units=GPa)
#
#
# Indices 1 2 3 4 5 6 
#
# 1 83.0472 21.9237 72.1969 0.0000 -2.4437 0.0000
# 2 21.9237 122.5549 25.3944 0.0000 -10.5426 0.0000
# 3 72.1969 25.3944 204.8762 0.0000 -13.5729 0.0000
# 4 0.0000 0.0000 0.0000 18.0615 0.0000 17.9918
# 5 -2.4437 -10.5426 -13.5729 0.0000 58.6153 0.0000
# 6 0.0000 0.0000 0.0000 17.9918 0.0000 56.1111
#
#
#
# Elastic Compliance Matrix: (Units=1/GPa)
#
#
# Indices 1 2 3 4 5 6 
#
# 1 0.017856 -0.002017 -0.006111 0.000000 -0.001033 0.000000
# 2 -0.002017 0.008699 -0.000274 0.000000 0.001417 0.000000
# 3 -0.006111 -0.000274 0.007158 0.000000 0.001354 0.000000
# 4 0.000000 0.000000 0.000000 0.081350 0.000000 -0.026085
# 5 -0.001033 0.001417 0.001354 0.000000 0.017586 0.000000
# 6 0.000000 0.000000 0.000000 -0.026085 0.000000 0.026186
#
#
# Mechanical properties :
#
#
# Convention : Reuss Voigt Hill
#
# Bulk Modulus (GPa) = 59.13569 72.16759 65.65164
# Shear Modulus (GPa) = 27.58266 45.95514 36.76890
#
# Velocity S-wave (km/s) = 3.17716 4.10099 3.66828
# Velocity P-wave (km/s) = 5.92461 6.98822 6.47828
#
# Compressibility (1/GPa) = 0.01691026
#
# Stress axis : x y z
#
# Youngs Moduli (GPa) = 56.00454 114.95552 139.70505
#
# Poissons Ratio (x) = 0.23185 0.85369
# Poissons Ratio (y) = 0.11296 0.03823
# Poissons Ratio (z) = 0.34223 0.03145
#
# Static dielectric constant tensor:
#      x y z
#    x 2.476810 0.000000 0.051440 
#    y 0.000000 2.043460 0.000000 
#    z 0.051440 0.000000 2.182670 
# 
# From -- ./inp_files/15538.got.cif
#   From: 2010.05.17/outbox.cif.g08.bks.cpg/sg3_8_cif.got.tgz:15538.got - 2010.06.03 18:33:08.
