data_PCOD9114550
_publ_section_title
;
Structure prediction by ZEFSAII (Michael W. Deem and Ramdas Pophale) SiO2 
 PCOD9114550
Probable space group: P 21
;
_chemical_formula_sum "Si O2"
_cell_formula_units_Z 16
_cell_length_a 19.844172
_cell_length_b 8.555687
_cell_length_c 7.928676
_cell_angle_alpha 90.000000
_cell_angle_beta 143.264362
_cell_angle_gamma 90.000000
_cell_volume 805.155157
_symmetry_space_group_name_H-M "P 21"
_symmetry_group_IT_number 4
_symmetry_cell_setting 'monoclinic'
loop_
_space_group_symop_operation_xyz
x,y,z
-x,1/2+y,-z
loop_
_atom_site_type_symbol
_atom_site_label
_atom_site_fract_x
_atom_site_fract_y
_atom_site_fract_z
Si Si1 0.254907 0.330160 0.614320
Si Si2 0.219909 0.462546 0.168708
Si Si3 0.000911 0.808294 0.248140
Si Si4 0.413675 0.555706 0.328657
Si Si5 0.499636 0.306330 0.252166
Si Si6 0.744014 0.286350 0.593125
Si Si7 0.222156 0.654213 0.714849
Si Si8 0.107084 0.057820 0.213227
O O1 0.243794 0.386146 0.398622
O O2 0.210616 0.469470 0.646651
O O3 0.183200 0.172733 0.478883
O O4 0.385336 0.302062 0.916851
O O5 0.326666 0.448519 0.260502
O O6 0.210216 0.647436 0.194463
O O7 0.108056 0.377200 0.875511
O O8 0.111198 0.741035 0.562190
O O9 0.034738 0.948963 0.190343
O O10 0.965675 0.665744 0.055306
O O11 0.486732 0.454993 0.347783
O O12 0.487357 0.654543 0.604862
O O13 0.329227 0.665867 0.051632
O O14 0.613823 0.313639 0.375037
O O15 0.753973 0.230140 0.419523
O O16 0.815541 0.443974 0.743781
#
# Coordination Sequence:
#
# PCOD9114550 Si02
#       8
#     2   2   2   2   2   2   2   2
#     4   9  19  34  55  81 106 138 187 228 266 327
#     4   9  19  36  54  77 109 141 182 226 269 325
#     4  10  18  32  54  78 108 144 174 228 280 312
#     4  10  22  38  54  80 114 144 178 222 276 332
#     4  10  22  38  56  78 110 148 178 228 280 314
#     4   9  19  34  55  81 106 138 187 228 266 327
#     4   9  19  36  54  77 109 141 182 226 269 325
#     4  10  18  30  54  84 106 134 184 230 270 320
#
# _framework density 19.871945
#
# number of rings (size 3 to 8) (size 9 to 14) (size 15 to 20)
#    0.000    2.500    0.000    3.000    0.000    9.000 
#    0.000    5.000    0.000    0.000    0.000    0.000 
#    0.000    0.000    0.000    0.000    0.000    0.000 
#
# Total GULP energy -89264.695250 kJ/mol
# GULP energy per Si atom -5579.043453 kJ/mol
# Density = 1.982672 g / cm^3
# Si number density = 19.871945 Si / 1000 Ang^3
#
#
#
# Elastic Constant Matrix: (Units=GPa)
#
#
# Indices 1 2 3 4 5 6 
#
# 1 26.7646 15.9256 32.1854 0.0000 2.5812 0.0000
# 2 15.9256 94.0627 37.6410 0.0000 18.0597 0.0000
# 3 32.1854 37.6410 57.7947 0.0000 28.0148 0.0000
# 4 0.0000 0.0000 0.0000 37.9075 0.0000 14.0716
# 5 2.5812 18.0597 28.0148 0.0000 20.9802 0.0000
# 6 0.0000 0.0000 0.0000 14.0716 0.0000 22.4952
#
#
#
# Elastic Compliance Matrix: (Units=1/GPa)
#
#
# Indices 1 2 3 4 5 6 
#
# 1 -0.069065 -0.005327 0.100893 0.000000 -0.121640 0.000000
# 2 -0.005327 0.013969 -0.001759 0.000000 -0.009020 0.000000
# 3 0.100893 -0.001759 -0.092009 0.000000 0.111960 0.000000
# 4 0.000000 0.000000 0.000000 0.034358 0.000000 -0.021492
# 5 -0.121640 -0.009020 0.111960 0.000000 -0.079106 0.000000
# 6 0.000000 0.000000 0.000000 -0.021492 0.000000 0.057898
#
#
# Mechanical properties :
#
#
# Convention : Reuss Voigt Hill
#
# Bulk Modulus (GPa) = 24.68491 38.90288 31.79389
# Shear Modulus (GPa) = -16.23027 22.46792 3.11883
#
# Velocity S-wave (km/s) = -2.86097 3.36614 1.25414
# Velocity P-wave (km/s) = 1.23912 5.89297 4.25808
#
# Compressibility (1/GPa) = 0.04051059
#
# Stress axis : x y z
#
# Youngs Moduli (GPa) = -14.47916 71.58825 -10.86851
#
# Poissons Ratio (x) = 0.38133 1.09656
# Poissons Ratio (y) = -0.07713 -0.01912
# Poissons Ratio (z) = 1.46085 0.12591
#
# Static dielectric constant tensor:
#      x y z
#    x 1.690620 0.000000 0.013820 
#    y 0.000000 1.518700 0.000000 
#    z 0.013820 0.000000 1.707350 
# 
# From -- ./inp_files/7535.got.cif
#   From: 2010.05.17/outbox.cif.g08.bks.cpg/sg4_4_cif.got.tgz:7535.got - 2010.06.03 18:43:04.
