data_PCOD9114845
_publ_section_title
;
Structure prediction by ZEFSAII (Michael W. Deem and Ramdas Pophale) SiO2 
 PCOD9114845
Probable space group: P 21
;
_chemical_formula_sum "Si O2"
_cell_formula_units_Z 16
_cell_length_a 7.818069
_cell_length_b 11.094302
_cell_length_c 7.479598
_cell_angle_alpha 90.000000
_cell_angle_beta 76.293810
_cell_angle_gamma 90.000000
_cell_volume 630.276423
_symmetry_space_group_name_H-M "P 21"
_symmetry_group_IT_number 4
_symmetry_cell_setting 'monoclinic'
loop_
_space_group_symop_operation_xyz
x,y,z
-x,1/2+y,-z
loop_
_atom_site_type_symbol
_atom_site_label
_atom_site_fract_x
_atom_site_fract_y
_atom_site_fract_z
Si Si1 0.355720 0.844220 0.593560
Si Si2 0.937033 0.248788 0.833337
Si Si3 0.868577 0.688456 0.880252
Si Si4 0.237303 0.363218 0.589287
Si Si5 0.638919 0.168879 0.686955
Si Si6 0.377647 0.998252 0.883863
Si Si7 0.617943 0.874960 0.082714
Si Si8 0.899388 0.480220 0.610424
O O1 0.569144 0.837472 0.528943
O O2 0.295924 0.719526 0.518205
O O3 0.316917 0.876661 0.806069
O O4 0.247008 0.942195 0.498800
O O5 0.972138 0.227413 0.031818
O O6 0.124265 0.246262 0.679725
O O7 0.800057 0.156896 0.782141
O O8 0.874099 0.382283 0.781176
O O9 0.770348 0.590594 0.028618
O O10 0.741090 0.805031 0.910231
O O11 0.892728 0.614464 0.692004
O O12 0.270302 0.422915 0.777492
O O13 0.100151 0.442554 0.508861
O O14 0.514795 0.274126 0.804056
O O15 0.509059 0.058130 0.706532
O O16 0.500283 0.975447 0.022777
#
# Coordination Sequence:
#
# PCOD9114845 Si02
#       8
#     2   2   2   2   2   2   2   2
#     4  10  20  39  56  79 120 155 196 232 291 365
#     4   8  17  32  55  83 108 145 196 239 289 350
#     4  10  19  35  59  88 114 150 198 256 298 336
#     4   8  17  35  59  75 109 154 187 239 289 339
#     4   9  19  37  59  80 117 158 193 240 301 344
#     4  11  22  34  61  88 114 159 196 243 298 349
#     4   9  19  36  57  89 111 146 201 250 289 346
#     4   9  19  36  62  80 115 157 191 239 303 341
#
# _framework density 25.385684999999999
#
# number of rings (size 3 to 8) (size 9 to 14) (size 15 to 20)
#    0.750    2.000    0.000    3.000    1.750    1.000 
#    2.250    0.000    2.750    0.000    0.000    0.000 
#    0.000    0.000    0.000    0.000    0.000    0.000 
#
# Total GULP energy -89252.771901 kJ/mol
# GULP energy per Si atom -5578.298244 kJ/mol
# Density = 2.532791 g / cm^3
# Si number density = 25.385685 Si / 1000 Ang^3
#
#
#
# Elastic Constant Matrix: (Units=GPa)
#
#
# Indices 1 2 3 4 5 6 
#
# 1 161.0942 18.1874 21.7895 0.0000 10.3684 0.0000
# 2 18.1874 31.7779 -5.9257 0.0000 -13.6219 0.0000
# 3 21.7895 -5.9257 38.2858 0.0000 7.7751 0.0000
# 4 0.0000 0.0000 0.0000 39.5508 0.0000 -3.7724
# 5 10.3684 -13.6219 7.7751 0.0000 23.5418 0.0000
# 6 0.0000 0.0000 0.0000 -3.7724 0.0000 38.5967
#
#
#
# Elastic Compliance Matrix: (Units=1/GPa)
#
#
# Indices 1 2 3 4 5 6 
#
# 1 0.008262 -0.008637 -0.004593 0.000000 -0.007119 0.000000
# 2 -0.008637 0.050977 0.006477 0.000000 0.031162 0.000000
# 3 -0.004593 0.006477 0.030618 0.000000 -0.004341 0.000000
# 4 0.000000 0.000000 0.000000 0.025522 0.000000 0.002495
# 5 -0.007119 0.031162 -0.004341 0.000000 0.065078 0.000000
# 6 0.000000 0.000000 0.000000 0.002495 0.000000 0.026153
#
#
# Mechanical properties :
#
#
# Convention : Reuss Voigt Hill
#
# Bulk Modulus (GPa) = 13.09741 33.25115 23.17428
# Shear Modulus (GPa) = 20.36114 33.47831 26.91972
#
# Velocity S-wave (km/s) = 2.83516 3.63545 3.25996
# Velocity P-wave (km/s) = 3.98599 5.54516 4.82892
#
# Compressibility (1/GPa) = 0.07635096
#
# Stress axis : x y z
#
# Youngs Moduli (GPa) = 121.03373 19.61664 32.66096
#
# Poissons Ratio (x) = 0.16943 0.15002
# Poissons Ratio (y) = 1.04537 -0.21155
# Poissons Ratio (z) = 0.55593 -0.12706
#
# Static dielectric constant tensor:
#      x y z
#    x 2.019790 0.000000 -0.072950 
#    y 0.000000 2.057300 0.000000 
#    z -0.072950 0.000000 2.032490 
# 
# From -- ./inp_files/6277.got.cif
#   From: 2010.05.17/outbox.cif.g08.bks.cpg/sg4_4_cif.got.tgz:6277.got - 2010.06.03 18:43:04.
