data_PCOD9114947
_publ_section_title
;
Structure prediction by ZEFSAII (Michael W. Deem and Ramdas Pophale) SiO2 
 PCOD9114947
Probable space group: P 21
;
_chemical_formula_sum "Si O2"
_cell_formula_units_Z 14
_cell_length_a 11.319832
_cell_length_b 8.331515
_cell_length_c 15.338342
_cell_angle_alpha 90.000000
_cell_angle_beta 149.351017
_cell_angle_gamma 90.000000
_cell_volume 737.433212
_symmetry_space_group_name_H-M "P 21"
_symmetry_group_IT_number 4
_symmetry_cell_setting 'monoclinic'
loop_
_space_group_symop_operation_xyz
x,y,z
-x,1/2+y,-z
loop_
_atom_site_type_symbol
_atom_site_label
_atom_site_fract_x
_atom_site_fract_y
_atom_site_fract_z
Si Si1 0.083926 0.362080 0.101243
Si Si2 0.457299 0.901691 0.688963
Si Si3 0.583926 0.862080 0.101243
Si Si4 0.016651 0.711846 0.136836
Si Si5 0.250000 0.637331 1.000000
Si Si6 0.957299 0.401691 0.688963
Si Si7 0.483349 0.711846 0.863164
O O1 0.351451 0.318996 0.252158
O O2 0.081507 0.540506 0.138731
O O3 0.967399 0.340045 0.931664
O O4 0.938585 0.246993 0.071260
O O5 0.250000 0.970453 0.500000
O O6 0.358522 0.776983 0.697798
O O7 0.606162 0.030031 0.839431
O O8 0.438585 0.746993 0.071260
O O9 0.851450 0.818996 0.252158
O O10 0.581507 0.040506 0.138731
O O11 0.467399 0.840045 0.931664
O O12 0.141478 0.776983 0.302202
O O13 0.750000 0.700116 0.000000
O O14 0.106162 0.530031 0.839431
#
# Coordination Sequence:
#
# PCOD9114947 Si02
#       7
#     2   2   2   2   2   2   2
#     4  11  20  38  67  88 121 162 202 248 307 359
#     4  11  24  41  62  91 127 158 204 256 302 358
#     4  11  20  38  67  88 121 162 202 248 307 359
#     4  10  19  37  62  90 116 160 202 247 299 359
#     4  12  22  40  66  90 122 166 200 250 306 364
#     4  11  24  41  62  91 127 158 204 256 302 358
#     4  10  19  37  62  90 116 160 202 247 299 359
#
# _framework density 18.984770000000001
#
# number of rings (size 3 to 8) (size 9 to 14) (size 15 to 20)
#    0.000    1.143    8.571    0.000    0.000    2.286 
#    0.000    1.429    0.000    0.000    0.000    0.000 
#    0.000    0.000    0.000    0.000    0.000    0.000 
#
# Total GULP energy -78006.537074 kJ/mol
# GULP energy per Si atom -5571.895505 kJ/mol
# Density = 1.894156 g / cm^3
# Si number density = 18.984770 Si / 1000 Ang^3
#
#
#
# Elastic Constant Matrix: (Units=GPa)
#
#
# Indices 1 2 3 4 5 6 
#
# 1 133.3764 50.7153 36.4415 0.0000 -6.4473 0.0000
# 2 50.7153 106.4214 39.2034 0.0000 -16.0949 0.0000
# 3 36.4415 39.2034 115.3412 0.0000 -10.4338 0.0000
# 4 0.0000 0.0000 0.0000 10.4117 0.0000 -3.1150
# 5 -6.4473 -16.0949 -10.4338 0.0000 14.3835 0.0000
# 6 0.0000 0.0000 0.0000 -3.1150 0.0000 45.8492
#
#
#
# Elastic Compliance Matrix: (Units=1/GPa)
#
#
# Indices 1 2 3 4 5 6 
#
# 1 0.009457 -0.004112 -0.001737 0.000000 -0.001623 0.000000
# 2 -0.004112 0.014076 -0.002383 0.000000 0.012179 0.000000
# 3 -0.001737 -0.002383 0.010400 0.000000 0.004098 0.000000
# 4 0.000000 0.000000 0.000000 0.098038 0.000000 0.006661
# 5 -0.001623 0.012179 0.004098 0.000000 0.085398 0.000000
# 6 0.000000 0.000000 0.000000 0.006661 0.000000 0.022263
#
#
# Mechanical properties :
#
#
# Convention : Reuss Voigt Hill
#
# Bulk Modulus (GPa) = 57.24900 67.53992 62.39446
# Shear Modulus (GPa) = 19.08972 29.38080 24.23526
#
# Velocity S-wave (km/s) = 3.17445 3.93822 3.57678
# Velocity P-wave (km/s) = 6.60733 7.50550 7.07069
#
# Compressibility (1/GPa) = 0.01746755
#
# Stress axis : x y z
#
# Youngs Moduli (GPa) = 105.73636 71.04130 96.15795
#
# Poissons Ratio (x) = 0.29216 0.16703
# Poissons Ratio (y) = 0.43484 0.22918
# Poissons Ratio (z) = 0.18367 0.16932
#
# Static dielectric constant tensor:
#      x y z
#    x 1.702960 0.000000 -0.017500 
#    y 0.000000 1.694580 0.000000 
#    z -0.017500 0.000000 1.651460 
# 
# From -- ./inp_files/7752.got.cif
#   From: 2010.05.17/outbox.cif.g08.bks.cpg/sg4_4_cif.got.tgz:7752.got - 2010.06.03 18:43:04.
