data_PCOD9114482
_publ_section_title
;
Structure prediction by ZEFSAII (Michael W. Deem and Ramdas Pophale) SiO2 
 PCOD9114482
Probable space group: P 21
;
_chemical_formula_sum "Si O2"
_cell_formula_units_Z 14
_cell_length_a 14.114751
_cell_length_b 5.689064
_cell_length_c 9.076979
_cell_angle_alpha 90.000000
_cell_angle_beta 43.915317
_cell_angle_gamma 90.000000
_cell_volume 505.546337
_symmetry_space_group_name_H-M "P 21"
_symmetry_group_IT_number 4
_symmetry_cell_setting 'monoclinic'
loop_
_space_group_symop_operation_xyz
x,y,z
-x,1/2+y,-z
loop_
_atom_site_type_symbol
_atom_site_label
_atom_site_fract_x
_atom_site_fract_y
_atom_site_fract_z
Si Si1 0.477967 0.074290 0.950514
Si Si2 0.239561 0.942967 0.024171
Si Si3 0.381113 0.188616 0.590606
Si Si4 0.074545 0.461791 0.538803
Si Si5 0.055439 0.955130 0.635648
Si Si6 0.351775 0.735692 0.516247
Si Si7 0.816440 0.058228 0.105518
O O1 0.575924 0.104328 0.698816
O O2 0.325676 0.007703 0.068152
O O3 0.473834 0.335746 0.023252
O O4 0.253626 0.671310 0.959719
O O5 0.298718 0.106420 0.829378
O O6 0.078790 0.977026 0.221592
O O7 0.532217 0.244214 0.477904
O O8 0.292439 0.424069 0.666381
O O9 0.373656 0.020531 0.460025
O O10 0.137613 0.711600 0.517809
O O11 0.046960 0.454197 0.394565
O O12 0.126140 0.211080 0.540465
O O13 0.957006 0.963266 0.889527
O O14 0.195062 0.766598 0.761962
#
# Coordination Sequence:
#
# PCOD9114482 Si02
#       7
#     2   2   2   2   2   2   2
#     4  11  27  40  53  73 107 149 190 225 252 306
#     4   9  20  33  52  74 104 140 177 211 266 309
#     4  10  17  28  50  76 102 128 173 206 269 317
#     4   9  16  29  46  72 105 141 159 205 249 332
#     4   9  17  27  45  75 110 131 164 194 267 318
#     4  10  21  31  51  75 104 138 173 219 264 316
#     4  10  18  30  51  79 106 137 162 218 263 326
#
# _framework density 27.692812
#
# number of rings (size 3 to 8) (size 9 to 14) (size 15 to 20)
#    0.000    2.286    2.857    0.000    6.000    0.000 
#    0.000    0.000    0.000    0.000    0.000    2.000 
#    0.000    0.000    0.000    0.000    0.000    0.000 
#
# Total GULP energy -78010.798138 kJ/mol
# GULP energy per Si atom -5572.199867 kJ/mol
# Density = 2.762978 g / cm^3
# Si number density = 27.692812 Si / 1000 Ang^3
#
#
#
# Elastic Constant Matrix: (Units=GPa)
#
#
# Indices 1 2 3 4 5 6 
#
# 1 65.5238 18.9929 12.4705 0.0000 -5.4439 0.0000
# 2 18.9929 144.8626 47.2294 0.0000 3.2047 0.0000
# 3 12.4705 47.2294 171.5194 0.0000 -1.1065 0.0000
# 4 0.0000 0.0000 0.0000 50.7968 0.0000 6.8873
# 5 -5.4439 3.2047 -1.1065 0.0000 23.2173 0.0000
# 6 0.0000 0.0000 0.0000 6.8873 0.0000 25.6730
#
#
#
# Elastic Compliance Matrix: (Units=1/GPa)
#
#
# Indices 1 2 3 4 5 6 
#
# 1 0.016303 -0.002032 -0.000599 0.000000 0.004075 0.000000
# 2 -0.002032 0.007868 -0.002029 0.000000 -0.001659 0.000000
# 3 -0.000599 -0.002029 0.006436 0.000000 0.000446 0.000000
# 4 0.000000 0.000000 0.000000 0.020429 0.000000 -0.005481
# 5 0.004075 -0.001659 0.000446 0.000000 0.044277 0.000000
# 6 0.000000 0.000000 0.000000 -0.005481 0.000000 0.040422
#
#
# Mechanical properties :
#
#
# Convention : Reuss Voigt Hill
#
# Bulk Modulus (GPa) = 46.98258 59.92126 53.45192
# Shear Modulus (GPa) = 32.86189 40.15162 36.50675
#
# Velocity S-wave (km/s) = 3.44853 3.81188 3.63475
# Velocity P-wave (km/s) = 5.73227 6.40771 6.07937
#
# Compressibility (1/GPa) = 0.02128449
#
# Stress axis : x y z
#
# Youngs Moduli (GPa) = 61.33715 127.09875 155.38724
#
# Poissons Ratio (x) = 0.25829 0.09315
# Poissons Ratio (y) = 0.12465 0.31535
# Poissons Ratio (z) = 0.03677 0.25794
#
# Static dielectric constant tensor:
#      x y z
#    x 2.280700 0.000000 0.062570 
#    y 0.000000 2.919740 0.000000 
#    z 0.062570 0.000000 2.072790 
# 
# From -- ./inp_files/8821.got.cif
#   From: 2010.05.17/outbox.cif.g08.bks.cpg/sg4_5_cif.got.tgz:8821.got - 2010.06.03 18:43:04.
