data_PCOD9114052
_publ_section_title
;
Structure prediction by ZEFSAII (Michael W. Deem and Ramdas Pophale) SiO2 
 PCOD9114052
Probable space group: P 2
;
_chemical_formula_sum "Si O2"
_cell_formula_units_Z 9
_cell_length_a 5.116732
_cell_length_b 8.434271
_cell_length_c 8.921082
_cell_angle_alpha 90.000000
_cell_angle_beta 61.398491
_cell_angle_gamma 90.000000
_cell_volume 338.016275
_symmetry_space_group_name_H-M "P 2"
_symmetry_group_IT_number 3
_symmetry_cell_setting 'monoclinic'
loop_
_space_group_symop_operation_xyz
x,y,z
-x,y,-z
loop_
_atom_site_type_symbol
_atom_site_label
_atom_site_fract_x
_atom_site_fract_y
_atom_site_fract_z
Si Si1 0.759140 0.459320 0.838602
Si Si2 0.547291 0.211165 0.663471
Si Si3 0.334677 0.917314 0.200213
Si Si4 0.745174 0.718175 0.303461
Si Si5 0.000000 0.212036 0.000000
O O1 0.662288 0.375700 0.709028
O O2 0.069709 0.553698 0.754497
O O3 0.809477 0.318099 0.940739
O O4 0.500000 0.552987 0.000000
O O5 0.500000 0.227431 0.500000
O O6 0.238660 0.144741 0.820899
O O7 0.740303 0.066295 0.672455
O O8 0.553220 0.789954 0.220235
O O9 0.019716 0.835305 0.256937
O O10 0.500000 0.965844 0.000000
O O11 0.500000 0.708111 0.500000
#
# Coordination Sequence:
#
# PCOD9114052 Si02
#       5
#     2   2   2   2   1
#     4  10  25  51  82 121 163 220 275 342 417 502
#     4  11  27  53  84 121 168 219 283 344 421 498
#     4  12  28  52  87 120 166 225 280 343 424 504
#     4  12  29  53  80 124 169 217 280 348 420 500
#     4  10  24  48  82 120 160 210 270 350 406 504
#
# _framework density 26.625934999999998
#
# number of rings (size 3 to 8) (size 9 to 14) (size 15 to 20)
#    0.000    0.889    0.000    4.667   15.556    1.778 
#    4.000    2.222    0.000    0.000    0.000    0.000 
#    0.000    0.000    0.000    0.000    0.000    0.000 
#
# Total GULP energy -50366.831588 kJ/mol
# GULP energy per Si atom -5596.314621 kJ/mol
# Density = 2.656533 g / cm^3
# Si number density = 26.625935 Si / 1000 Ang^3
#
#
#
# Elastic Constant Matrix: (Units=GPa)
#
#
# Indices 1 2 3 4 5 6 
#
# 1 194.9427 63.7063 97.2182 0.0000 5.3795 0.0000
# 2 63.7063 116.5897 74.2219 0.0000 18.6469 0.0000
# 3 97.2182 74.2219 219.6566 0.0000 11.0709 0.0000
# 4 0.0000 0.0000 0.0000 16.3623 0.0000 22.3992
# 5 5.3795 18.6469 11.0709 0.0000 74.5942 0.0000
# 6 0.0000 0.0000 0.0000 22.3992 0.0000 2.6794
#
#
#
# Elastic Compliance Matrix: (Units=1/GPa)
#
#
# Indices 1 2 3 4 5 6 
#
# 1 0.007081 -0.002461 -0.002325 0.000000 0.000450 0.000000
# 2 -0.002461 0.012154 -0.002895 0.000000 -0.002431 0.000000
# 3 -0.002325 -0.002895 0.006564 0.000000 -0.000083 0.000000
# 4 0.000000 0.000000 0.000000 -0.005852 0.000000 0.048919
# 5 0.000450 -0.002431 -0.000083 0.000000 0.013993 0.000000
# 6 0.000000 0.000000 0.000000 0.048919 0.000000 -0.035735
#
#
# Mechanical properties :
#
#
# Convention : Reuss Voigt Hill
#
# Bulk Modulus (GPa) = 95.81671 111.27574 103.54622
# Shear Modulus (GPa) = 293.31581 38.46336 165.88958
#
# Velocity S-wave (km/s) = 10.50718 3.80489 7.90184
# Velocity P-wave (km/s) = 13.53756 7.82214 11.05557
#
# Compressibility (1/GPa) = 0.01043659
#
# Stress axis : x y z
#
# Youngs Moduli (GPa) = 141.22171 82.28067 152.34528
#
# Poissons Ratio (x) = 0.20248 0.35422
# Poissons Ratio (y) = 0.34753 0.44104
# Poissons Ratio (z) = 0.32836 0.23820
#
# Static dielectric constant tensor:
#      x y z
#    x 2.323830 0.000000 -0.169940 
#    y 0.000000 2.189120 0.000000 
#    z -0.169940 0.000000 2.150930 
# 
# From -- ./inp_files/4066.got.cif
#   From: 2010.05.17/outbox.cif.g08.bks.cpg/sg3_3_cif.got.tgz:4066.got - 2010.06.03 18:33:08.
