data_PCOD9114436
_publ_section_title
;
Structure prediction by ZEFSAII (Michael W. Deem and Ramdas Pophale) SiO2 
 PCOD9114436
Probable space group: P 21
;
_chemical_formula_sum "Si O2"
_cell_formula_units_Z 14
_cell_length_a 20.753144
_cell_length_b 4.970798
_cell_length_c 8.108193
_cell_angle_alpha 90.000000
_cell_angle_beta 134.998116
_cell_angle_gamma 90.000000
_cell_volume 591.470889
_symmetry_space_group_name_H-M "P 21"
_symmetry_group_IT_number 4
_symmetry_cell_setting 'monoclinic'
loop_
_space_group_symop_operation_xyz
x,y,z
-x,1/2+y,-z
loop_
_atom_site_type_symbol
_atom_site_label
_atom_site_fract_x
_atom_site_fract_y
_atom_site_fract_z
Si Si1 0.064453 0.992350 0.961612
Si Si2 0.537768 0.783439 0.495982
Si Si3 0.875809 0.778678 0.248265
Si Si4 0.449706 0.044876 0.846807
Si Si5 0.967084 0.483681 0.664919
Si Si6 0.746155 0.570323 0.605301
Si Si7 0.723150 0.066197 0.791080
O O1 0.022100 0.701192 0.870579
O O2 0.120393 0.066003 0.895042
O O3 0.982163 0.206928 0.790570
O O4 0.146888 0.016967 0.243031
O O5 0.536036 0.516300 0.604184
O O6 0.535598 0.670759 0.307550
O O7 0.628405 0.957340 0.686265
O O8 0.878801 0.622248 0.425899
O O9 0.969316 0.940466 0.383933
O O10 0.796969 0.989925 0.063539
O O11 0.339802 0.040249 0.673733
O O12 0.505250 0.251142 0.062779
O O13 0.719588 0.358831 0.703463
O O14 0.745300 0.872293 0.674685
#
# Coordination Sequence:
#
# PCOD9114436 Si02
#       7
#     2   2   2   2   2   2   2
#     4   9  15  23  34  55  82 126 159 196 244 314
#     4  11  22  39  56  79 110 148 190 233 279 335
#     4   9  16  23  36  58  89 125 173 204 246 316
#     4  11  22  36  57  82 106 140 186 240 288 327
#     4  10  15  21  35  55  88 124 168 197 252 302
#     4  10  17  31  45  68  96 131 175 216 266 328
#     4  10  19  29  49  67  95 140 185 216 263 326
#
# _framework density 23.669805
#
# number of rings (size 3 to 8) (size 9 to 14) (size 15 to 20)
#    0.857    1.143    2.857    4.286    0.000    0.000 
#    0.000    0.000    0.000    0.000    0.000    0.000 
#    0.000    0.000    0.000   25.714    2.857    0.286 
#
# Total GULP energy -77997.555292 kJ/mol
# GULP energy per Si atom -5571.253949 kJ/mol
# Density = 2.361593 g / cm^3
# Si number density = 23.669805 Si / 1000 Ang^3
#
#
#
# Elastic Constant Matrix: (Units=GPa)
#
#
# Indices 1 2 3 4 5 6 
#
# 1 31.3441 5.1399 2.4328 0.0000 -4.6006 0.0000
# 2 5.1399 104.6726 6.6519 0.0000 -1.2177 0.0000
# 3 2.4328 6.6519 103.1167 0.0000 5.8763 0.0000
# 4 0.0000 0.0000 0.0000 37.3815 0.0000 6.0138
# 5 -4.6006 -1.2177 5.8763 0.0000 30.6391 0.0000
# 6 0.0000 0.0000 0.0000 6.0138 0.0000 18.0143
#
#
#
# Elastic Compliance Matrix: (Units=1/GPa)
#
#
# Indices 1 2 3 4 5 6 
#
# 1 0.032970 -0.001498 -0.000971 0.000000 0.005077 0.000000
# 2 -0.001498 0.009669 -0.000604 0.000000 0.000275 0.000000
# 3 -0.000971 -0.000604 0.009877 0.000000 -0.002064 0.000000
# 4 0.000000 0.000000 0.000000 0.028269 0.000000 -0.009437
# 5 0.005077 0.000275 -0.002064 0.000000 0.033807 0.000000
# 6 0.000000 0.000000 0.000000 -0.009437 0.000000 0.058662
#
#
# Mechanical properties :
#
#
# Convention : Reuss Voigt Hill
#
# Bulk Modulus (GPa) = 21.56541 29.73138 25.64839
# Shear Modulus (GPa) = 25.65979 32.20089 28.93034
#
# Velocity S-wave (km/s) = 3.29610 3.69239 3.49986
# Velocity P-wave (km/s) = 4.85967 5.54675 5.21454
#
# Compressibility (1/GPa) = 0.04637056
#
# Stress axis : x y z
#
# Youngs Moduli (GPa) = 30.33041 103.42589 101.24285
#
# Poissons Ratio (x) = 0.15496 0.09826
# Poissons Ratio (y) = 0.04544 0.06116
# Poissons Ratio (z) = 0.02944 0.06247
#
# Static dielectric constant tensor:
#      x y z
#    x 2.121190 0.000000 -0.015410 
#    y 0.000000 1.866070 0.000000 
#    z -0.015410 0.000000 1.990130 
# 
# From -- ./inp_files/10015.got.cif
#   From: 2010.05.17/outbox.cif.g08.bks.cpg/sg4_6_cif.got.tgz:10015.got - 2010.06.03 18:43:04.
