data_PCOD9114836
_publ_section_title
;
Structure prediction by ZEFSAII (Michael W. Deem and Ramdas Pophale) SiO2 
 PCOD9114836
Probable space group: P 21
;
_chemical_formula_sum "Si O2"
_cell_formula_units_Z 16
_cell_length_a 18.223918
_cell_length_b 5.585903
_cell_length_c 6.787549
_cell_angle_alpha 90.000000
_cell_angle_beta 66.862095
_cell_angle_gamma 90.000000
_cell_volume 635.373377
_symmetry_space_group_name_H-M "P 21"
_symmetry_group_IT_number 4
_symmetry_cell_setting 'monoclinic'
loop_
_space_group_symop_operation_xyz
x,y,z
-x,1/2+y,-z
loop_
_atom_site_type_symbol
_atom_site_label
_atom_site_fract_x
_atom_site_fract_y
_atom_site_fract_z
Si Si1 0.910067 0.713660 0.114707
Si Si2 0.280109 0.473062 0.082365
Si Si3 0.252055 0.979286 0.673616
Si Si4 0.122928 0.559783 0.502669
Si Si5 0.356583 0.970635 0.961131
Si Si6 0.483974 0.504797 0.401863
Si Si7 0.703560 0.981959 0.408114
Si Si8 0.004529 0.921927 0.676523
O O1 0.837092 0.530441 0.160081
O O2 0.982162 0.627708 0.176767
O O3 0.876759 0.934472 0.282690
O O4 0.947706 0.752128 0.863497
O O5 0.195755 0.496719 0.281595
O O6 0.323588 0.221035 0.079176
O O7 0.272791 0.471953 0.850214
O O8 0.330152 0.714759 0.075691
O O9 0.316637 0.963851 0.782849
O O10 0.274821 0.220277 0.535704
O O11 0.257308 0.727558 0.557951
O O12 0.043197 0.473276 0.469180
O O13 0.095535 0.835841 0.545887
O O14 0.451766 0.984978 0.840368
O O15 0.496714 0.258272 0.511953
O O16 0.390402 0.511031 0.460840
#
# Coordination Sequence:
#
# PCOD9114836 Si02
#       8
#     2   2   2   2   2   2   2   2
#     4  12  27  45  70  99 135 183 232 294 360 427
#     4  10  21  35  58  88 134 170 219 276 343 398
#     4  10  21  35  58  88 134 170 219 276 343 398
#     4  12  27  45  70  99 135 183 232 294 360 427
#     4  10  19  35  57  97 135 179 221 282 336 408
#     4  12  16  30  56  94 144 172 228 284 332 406
#     4  10  19  35  57  97 135 179 221 282 336 408
#     4  12  26  48  70 100 136 180 240 294 360 432
#
# _framework density 25.182046
#
# number of rings (size 3 to 8) (size 9 to 14) (size 15 to 20)
#    0.000    1.000    7.500    1.500    3.500    4.000 
#    0.000    0.000    0.000    0.000    0.000    5.250 
#    0.000    0.000    0.000    0.000    0.000    0.000 
#
# Total GULP energy -89387.463536 kJ/mol
# GULP energy per Si atom -5586.716471 kJ/mol
# Density = 2.512473 g / cm^3
# Si number density = 25.182046 Si / 1000 Ang^3
#
#
#
# Elastic Constant Matrix: (Units=GPa)
#
#
# Indices 1 2 3 4 5 6 
#
# 1 54.0158 17.8402 36.9857 0.0000 -20.8879 0.0000
# 2 17.8402 181.7810 30.3870 0.0000 -22.2648 0.0000
# 3 36.9857 30.3870 147.0469 0.0000 -15.9481 0.0000
# 4 0.0000 0.0000 0.0000 22.0899 0.0000 -20.8603
# 5 -20.8879 -22.2648 -15.9481 0.0000 54.2793 0.0000
# 6 0.0000 0.0000 0.0000 -20.8603 0.0000 36.3794
#
#
#
# Elastic Compliance Matrix: (Units=1/GPa)
#
#
# Indices 1 2 3 4 5 6 
#
# 1 0.025515 -0.000621 -0.005425 0.000000 0.007970 0.000000
# 2 -0.000621 0.005944 -0.000861 0.000000 0.001946 0.000000
# 3 -0.005425 -0.000861 0.008344 0.000000 0.000011 0.000000
# 4 0.000000 0.000000 0.000000 0.098733 0.000000 0.056614
# 5 0.007970 0.001946 0.000011 0.000000 0.022292 0.000000
# 6 0.000000 0.000000 0.000000 0.056614 0.000000 0.059951
#
#
# Mechanical properties :
#
#
# Convention : Reuss Voigt Hill
#
# Bulk Modulus (GPa) = 38.47732 61.47436 49.97584
# Shear Modulus (GPa) = 20.55446 42.39177 31.47311
#
# Velocity S-wave (km/s) = 2.86008 4.10739 3.53912
# Velocity P-wave (km/s) = 5.12051 6.85268 6.04892
#
# Compressibility (1/GPa) = 0.02598933
#
# Stress axis : x y z
#
# Youngs Moduli (GPa) = 39.19315 168.22524 119.84466
#
# Poissons Ratio (x) = 0.10447 0.65013
# Poissons Ratio (y) = 0.02434 0.10320
# Poissons Ratio (z) = 0.21261 0.14486
#
# Static dielectric constant tensor:
#      x y z
#    x 2.015300 0.000000 -0.024600 
#    y 0.000000 2.169710 0.000000 
#    z -0.024600 0.000000 1.993350 
# 
# From -- ./inp_files/9855.got.cif
#   From: 2010.05.17/outbox.cif.g08.bks.cpg/sg4_5_cif.got.tgz:9855.got - 2010.06.03 18:43:04.
