data_PCOD9114967
_publ_section_title
;
Structure prediction by ZEFSAII (Michael W. Deem and Ramdas Pophale) SiO2 
 PCOD9114967
Probable space group: P 21
;
_chemical_formula_sum "Si O2"
_cell_formula_units_Z 16
_cell_length_a 7.068193
_cell_length_b 6.943833
_cell_length_c 17.209150
_cell_angle_alpha 90.000000
_cell_angle_beta 128.030501
_cell_angle_gamma 90.000000
_cell_volume 665.301502
_symmetry_space_group_name_H-M "P 21"
_symmetry_group_IT_number 4
_symmetry_cell_setting 'monoclinic'
loop_
_space_group_symop_operation_xyz
x,y,z
-x,1/2+y,-z
loop_
_atom_site_type_symbol
_atom_site_label
_atom_site_fract_x
_atom_site_fract_y
_atom_site_fract_z
Si Si1 0.176579 0.640950 0.451053
Si Si2 0.283752 0.159625 0.374425
Si Si3 0.694890 0.286306 0.907449
Si Si4 0.972549 0.495596 0.092552
Si Si5 0.323149 0.181069 0.697100
Si Si6 0.839528 0.122277 0.374425
Si Si7 0.686155 0.640952 0.790772
Si Si8 0.231856 0.600834 0.302901
O O1 0.457596 0.585339 0.531919
O O2 0.138156 0.696560 0.531918
O O3 0.196188 0.735139 0.369263
O O4 0.911602 0.546762 0.369261
O O5 0.242160 0.076610 0.277895
O O6 0.280792 0.389633 0.352939
O O7 0.082594 0.140953 0.388395
O O8 0.448428 0.189932 0.813845
O O9 0.719291 0.462506 0.854395
O O10 0.911643 0.140951 0.941096
O O11 0.731753 0.390951 0.000001
O O12 0.156110 0.319397 0.145604
O O13 0.006902 0.591969 0.186157
O O14 0.221969 0.392269 0.647063
O O15 0.534723 0.140953 0.689817
O O16 0.591530 0.205294 0.277896
#
# Coordination Sequence:
#
# PCOD9114967 Si02
#       8
#     2   2   2   2   2   2   2   2
#     4  11  24  36  64  90 138 172 224 271 344 402
#     4  10  23  40  65  94 134 178 227 276 344 414
#     4  10  19  37  68  96 125 171 229 279 353 410
#     4  10  19  37  68  96 125 171 229 279 353 410
#     4  10  24  40  63  96 134 177 230 281 343 411
#     4  10  23  40  65  94 134 178 227 276 344 414
#     4   9  20  40  64  98 130 174 220 291 340 416
#     4  10  24  40  63  96 134 177 230 281 343 411
#
# _framework density 24.049244000000002
#
# number of rings (size 3 to 8) (size 9 to 14) (size 15 to 20)
#    0.000    2.000    1.250    0.750    7.000    6.000 
#    0.000    0.000   11.000    3.000    0.000    0.000 
#    0.000    0.000    0.000    0.000    0.000    0.000 
#
# Total GULP energy -89142.794376 kJ/mol
# GULP energy per Si atom -5571.424649 kJ/mol
# Density = 2.399451 g / cm^3
# Si number density = 24.049244 Si / 1000 Ang^3
#
#
#
# Elastic Constant Matrix: (Units=GPa)
#
#
# Indices 1 2 3 4 5 6 
#
# 1 178.8207 25.1729 63.9047 0.0000 -4.1913 0.0000
# 2 25.1729 44.8464 22.5194 0.0000 -0.1626 0.0000
# 3 63.9047 22.5194 186.5102 0.0000 4.6696 0.0000
# 4 0.0000 0.0000 0.0000 11.3442 0.0000 -1.3978
# 5 -4.1913 -0.1626 4.6696 0.0000 23.8863 0.0000
# 6 0.0000 0.0000 0.0000 -1.3978 0.0000 34.0882
#
#
#
# Elastic Compliance Matrix: (Units=1/GPa)
#
#
# Indices 1 2 3 4 5 6 
#
# 1 0.006738 -0.002765 -0.002014 0.000000 0.001557 0.000000
# 2 -0.002765 0.024885 -0.002059 0.000000 0.000087 0.000000
# 3 -0.002014 -0.002059 0.006340 0.000000 -0.001607 0.000000
# 4 0.000000 0.000000 0.000000 0.088599 0.000000 0.003633
# 5 0.001557 0.000087 -0.001607 0.000000 0.042453 0.000000
# 6 0.000000 0.000000 0.000000 0.003633 0.000000 0.029485
#
#
# Mechanical properties :
#
#
# Convention : Reuss Voigt Hill
#
# Bulk Modulus (GPa) = 41.17492 70.37457 55.77475
# Shear Modulus (GPa) = 22.69934 33.76910 28.23422
#
# Velocity S-wave (km/s) = 3.07558 3.75128 3.43011
# Velocity P-wave (km/s) = 5.45624 6.93463 6.23937
#
# Compressibility (1/GPa) = 0.02428663
#
# Stress axis : x y z
#
# Youngs Moduli (GPa) = 148.42211 40.18516 157.71736
#
# Poissons Ratio (x) = 0.11112 0.31758
# Poissons Ratio (y) = 0.41040 0.32480
# Poissons Ratio (z) = 0.29887 0.08276
#
# Static dielectric constant tensor:
#      x y z
#    x 1.936680 0.000000 0.000800 
#    y 0.000000 2.256760 0.000000 
#    z 0.000800 0.000000 1.949660 
# 
# From -- ./inp_files/13310.got.cif
#   From: 2010.05.17/outbox.cif.g08.bks.cpg/sg4_7_cif.got.tgz:13310.got - 2010.06.03 18:43:04.
