data_PCOD9114241
_publ_section_title
;
Structure prediction by ZEFSAII (Michael W. Deem and Ramdas Pophale) SiO2 
 PCOD9114241
Probable space group: P 2
;
_chemical_formula_sum "Si O2"
_cell_formula_units_Z 14
_cell_length_a 14.666120
_cell_length_b 6.517948
_cell_length_c 9.039995
_cell_angle_alpha 90.000000
_cell_angle_beta 132.249327
_cell_angle_gamma 90.000000
_cell_volume 639.673951
_symmetry_space_group_name_H-M "P 2"
_symmetry_group_IT_number 3
_symmetry_cell_setting 'monoclinic'
loop_
_space_group_symop_operation_xyz
x,y,z
-x,y,-z
loop_
_atom_site_type_symbol
_atom_site_label
_atom_site_fract_x
_atom_site_fract_y
_atom_site_fract_z
Si Si1 0.400532 0.774980 0.783550
Si Si2 0.176839 0.140620 0.059307
Si Si3 0.401943 0.092061 0.525718
Si Si4 0.762454 0.057377 0.201185
Si Si5 0.265610 0.372700 0.590627
Si Si6 0.982965 0.485606 0.770700
Si Si7 0.000000 0.822678 0.000000
Si Si8 0.000000 0.765698 0.500000
O O1 0.296240 0.610024 0.634665
O O2 0.428882 0.892980 0.659535
O O3 0.349040 0.940511 0.843129
O O4 0.500000 0.665754 0.000000
O O5 0.272987 0.103479 0.295752
O O6 0.076041 0.966231 0.976099
O O7 0.244340 0.091912 0.979665
O O8 0.100700 0.354741 0.956896
O O9 0.500000 0.118816 0.500000
O O10 0.376815 0.270071 0.619776
O O11 0.756337 0.276796 0.272862
O O12 0.882968 0.920280 0.370203
O O13 0.131740 0.333780 0.372875
O O14 0.009828 0.610758 0.650098
O O15 0.930679 0.661140 0.821869
#
# Coordination Sequence:
#
# PCOD9114241 Si02
#       8
#     2   2   2   2   2   2   1   1
#     4  11  25  47  73 101 134 189 242 291 345 406
#     4  12  25  42  67 101 140 188 229 287 357 418
#     4  11  26  47  69 101 142 182 236 292 350 415
#     4  11  24  43  68 100 138 181 234 291 350 408
#     4  11  24  44  71 100 142 181 235 294 347 415
#     4  12  24  42  68 103 141 183 234 285 352 425
#     4  12  24  40  62  96 140 180 224 284 352 420
#     4  12  22  44  68 104 140 184 234 296 342 420
#
# _framework density 21.886150000000001
#
# number of rings (size 3 to 8) (size 9 to 14) (size 15 to 20)
#    0.000    0.571    2.857    5.571    2.000    4.000 
#    0.000    0.000    0.000    0.000    0.000    0.000 
#    0.000    0.000    0.000    0.000    0.000    0.000 
#
# Total GULP energy -78050.547876 kJ/mol
# GULP energy per Si atom -5575.039134 kJ/mol
# Density = 2.183634 g / cm^3
# Si number density = 21.886150 Si / 1000 Ang^3
#
#
#
# Elastic Constant Matrix: (Units=GPa)
#
#
# Indices 1 2 3 4 5 6 
#
# 1 101.0374 22.3880 15.1294 0.0000 -35.0819 0.0000
# 2 22.3880 66.9880 18.8968 0.0000 -23.1196 0.0000
# 3 15.1294 18.8968 96.9389 0.0000 -15.4917 0.0000
# 4 0.0000 0.0000 0.0000 221.5482 0.0000 72.1484
# 5 -35.0819 -23.1196 -15.4917 0.0000 42.9605 0.0000
# 6 0.0000 0.0000 0.0000 72.1484 0.0000 60.4300
#
#
#
# Elastic Compliance Matrix: (Units=1/GPa)
#
#
# Indices 1 2 3 4 5 6 
#
# 1 0.013864 -0.000838 -0.000279 0.000000 0.010770 0.000000
# 2 -0.000838 0.018803 -0.002151 0.000000 0.008660 0.000000
# 3 -0.000279 -0.002151 0.011203 0.000000 0.002654 0.000000
# 4 0.000000 0.000000 0.000000 0.007385 0.000000 -0.008817
# 5 0.010770 0.008660 0.002654 0.000000 0.037690 0.000000
# 6 0.000000 0.000000 0.000000 -0.008817 0.000000 0.027075
#
#
# Mechanical properties :
#
#
# Convention : Reuss Voigt Hill
#
# Bulk Modulus (GPa) = 26.78458 41.97696 34.38077
# Shear Modulus (GPa) = 37.03677 78.89109 57.96393
#
# Velocity S-wave (km/s) = 4.11816 6.01036 5.15187
# Velocity P-wave (km/s) = 5.90567 8.20897 7.15067
#
# Compressibility (1/GPa) = 0.03733492
#
# Stress axis : x y z
#
# Youngs Moduli (GPa) = 72.12719 53.18184 89.26337
#
# Poissons Ratio (x) = 0.04455 0.02494
# Poissons Ratio (y) = 0.06042 0.19199
# Poissons Ratio (z) = 0.02015 0.11439
#
# Static dielectric constant tensor:
#      x y z
#    x 0.430750 0.000000 0.070370 
#    y 0.000000 1.769140 0.000000 
#    z 0.070370 0.000000 1.921650 
# 
# From -- ./inp_files/8069.got.cif
#   From: 2010.05.17/outbox.cif.g08.bks.cpg/sg3_5_cif.got.tgz:8069.got - 2010.06.03 18:33:08.
