data_PCOD9114690
_publ_section_title
;
Structure prediction by ZEFSAII (Michael W. Deem and Ramdas Pophale) SiO2 
 PCOD9114690
Probable space group: P 21
;
_chemical_formula_sum "Si O2"
_cell_formula_units_Z 8
_cell_length_a 11.391235
_cell_length_b 4.899080
_cell_length_c 13.824469
_cell_angle_alpha 90.000000
_cell_angle_beta 21.476840
_cell_angle_gamma 90.000000
_cell_volume 282.464134
_symmetry_space_group_name_H-M "P 21"
_symmetry_group_IT_number 4
_symmetry_cell_setting 'monoclinic'
loop_
_space_group_symop_operation_xyz
x,y,z
-x,1/2+y,-z
loop_
_atom_site_type_symbol
_atom_site_label
_atom_site_fract_x
_atom_site_fract_y
_atom_site_fract_z
Si Si1 0.852518 0.303900 0.375162
Si Si2 0.336150 0.286038 0.364480
Si Si3 0.794094 0.032400 0.137234
Si Si4 0.492401 0.617013 0.071461
O O1 0.875677 0.522881 0.446443
O O2 0.550466 0.446308 0.552049
O O3 0.706799 0.018873 0.522668
O O4 0.217741 0.217201 0.080703
O O5 0.693592 0.168611 0.111872
O O6 0.287484 0.431641 0.300847
O O7 0.991242 0.265005 0.040290
O O8 0.614763 0.394694 0.898871
#
# Coordination Sequence:
#
# PCOD9114690 Si02
#       4
#     2   2   2   2
#     4  10  22  41  67  96 141 172 233 277 336 416
#     4  10  22  41  67  96 141 172 233 277 336 416
#     4  10  18  38  72  96 130 180 220 278 352 404
#     4  12  26  42  68 100 142 184 228 286 338 404
#
# _framework density 28.322179999999999
#
# number of rings (size 3 to 8) (size 9 to 14) (size 15 to 20)
#    1.500    0.000    2.500    3.000    0.000    4.000 
#    0.000    0.000   11.000    0.000    0.000    0.000 
#    0.000    0.000    0.000    0.000    0.000    0.000 
#
# Total GULP energy -44663.509570 kJ/mol
# GULP energy per Si atom -5582.938696 kJ/mol
# Density = 2.825772 g / cm^3
# Si number density = 28.322180 Si / 1000 Ang^3
#
#
#
# Elastic Constant Matrix: (Units=GPa)
#
#
# Indices 1 2 3 4 5 6 
#
# 1 66.2108 37.1365 10.9046 0.0000 -18.7192 0.0000
# 2 37.1365 223.0678 26.5438 0.0000 -9.0699 0.0000
# 3 10.9046 26.5438 68.1055 0.0000 -13.9713 0.0000
# 4 0.0000 0.0000 0.0000 51.8946 0.0000 -13.0685
# 5 -18.7192 -9.0699 -13.9713 0.0000 33.6558 0.0000
# 6 0.0000 0.0000 0.0000 -13.0685 0.0000 81.4260
#
#
#
# Elastic Compliance Matrix: (Units=1/GPa)
#
#
# Indices 1 2 3 4 5 6 
#
# 1 0.019558 -0.002851 0.000059 0.000000 0.010134 0.000000
# 2 -0.002851 0.005126 -0.001731 0.000000 -0.000923 0.000000
# 3 0.000059 -0.001731 0.016680 0.000000 0.006490 0.000000
# 4 0.000000 0.000000 0.000000 0.020081 0.000000 0.003223
# 5 0.010134 -0.000923 0.006490 0.000000 0.037795 0.000000
# 6 0.000000 0.000000 0.000000 0.003223 0.000000 0.012798
#
#
# Mechanical properties :
#
#
# Convention : Reuss Voigt Hill
#
# Bulk Modulus (GPa) = 30.94304 56.28377 43.61340
# Shear Modulus (GPa) = 37.92006 52.24856 45.08431
#
# Velocity S-wave (km/s) = 3.66304 4.29976 3.99411
# Velocity P-wave (km/s) = 5.37025 6.67581 6.05830
#
# Compressibility (1/GPa) = 0.03231744
#
# Stress axis : x y z
#
# Youngs Moduli (GPa) = 51.13065 195.08446 59.95325
#
# Poissons Ratio (x) = 0.55617 -0.00351
# Poissons Ratio (y) = 0.14577 0.10376
# Poissons Ratio (z) = -0.00300 0.33762
#
# Static dielectric constant tensor:
#      x y z
#    x 2.312180 0.000000 0.034900 
#    y 0.000000 2.031070 0.000000 
#    z 0.034900 0.000000 2.343990 
# 
# From -- ./inp_files/2327.got.cif
#   From: 2010.05.17/outbox.cif.g08.bks.cpg/sg4_2_cif.got.tgz:2327.got - 2010.06.03 18:43:04.
