data_PCOD9114203
_publ_section_title
;
Structure prediction by ZEFSAII (Michael W. Deem and Ramdas Pophale) SiO2 
 PCOD9114203
Probable space group: P 2
;
_chemical_formula_sum "Si O2"
_cell_formula_units_Z 16
_cell_length_a 8.988973
_cell_length_b 4.984618
_cell_length_c 19.030457
_cell_angle_alpha 90.000000
_cell_angle_beta 47.691024
_cell_angle_gamma 90.000000
_cell_volume 630.586135
_symmetry_space_group_name_H-M "P 2"
_symmetry_group_IT_number 3
_symmetry_cell_setting 'monoclinic'
loop_
_space_group_symop_operation_xyz
x,y,z
-x,y,-z
loop_
_atom_site_type_symbol
_atom_site_label
_atom_site_fract_x
_atom_site_fract_y
_atom_site_fract_z
Si Si1 0.955664 0.497510 0.182846
Si Si2 0.583281 0.332692 0.551512
Si Si3 0.136650 0.636866 0.270254
Si Si4 0.563327 0.022354 0.900806
Si Si5 0.848084 0.827233 0.483174
Si Si6 0.809720 0.694227 0.023900
Si Si7 0.691430 0.022179 0.252017
Si Si8 0.507158 0.352307 0.191647
O O1 0.890662 0.201813 0.180170
O O2 0.030376 0.479613 0.239513
O O3 0.772580 0.718971 0.235648
O O4 0.126249 0.586762 0.072704
O O5 0.500000 0.372739 0.500000
O O6 0.663248 0.618990 0.553931
O O7 0.415630 0.169916 0.648651
O O8 0.769400 0.127343 0.495896
O O9 0.245515 0.873158 0.191089
O O10 0.305868 0.520988 0.271912
O O11 0.960804 0.738088 0.376649
O O12 0.370763 0.894804 0.925372
O O13 0.562332 0.313597 0.868067
O O14 0.500000 0.017971 0.000000
O O15 0.000000 0.819202 0.500000
O O16 0.723534 0.483211 0.108241
O O17 0.000000 0.825471 0.000000
O O18 0.542861 0.109435 0.234719
#
# Coordination Sequence:
#
# PCOD9114203 Si02
#       8
#     2   2   2   2   2   2   2   2
#     4  12  26  45  73 103 144 189 246 289 352 425
#     4  12  26  49  77 107 147 186 244 301 371 430
#     4  11  27  45  70 105 144 189 240 292 362 426
#     4  11  25  42  67  99 145 187 234 290 350 422
#     4  12  27  47  78 109 146 189 242 303 364 440
#     4  11  23  43  62 101 135 186 232 290 338 418
#     4  12  27  48  73 106 141 190 237 302 357 427
#     4  11  27  41  71  98 150 187 238 293 358 422
#
# _framework density 25.373221000000001
#
# number of rings (size 3 to 8) (size 9 to 14) (size 15 to 20)
#    0.000    0.500    2.500    4.500   10.500    0.500 
#    0.000    0.000    0.000    0.000    0.000    0.000 
#    0.000    0.000    0.000    0.000    0.000    0.000 
#
# Total GULP energy -89414.936855 kJ/mol
# GULP energy per Si atom -5588.433553 kJ/mol
# Density = 2.531547 g / cm^3
# Si number density = 25.373221 Si / 1000 Ang^3
#
#
#
# Elastic Constant Matrix: (Units=GPa)
#
#
# Indices 1 2 3 4 5 6 
#
# 1 106.9138 29.2703 17.1100 0.0000 27.6827 0.0000
# 2 29.2703 76.1703 -22.7463 0.0000 -3.5861 0.0000
# 3 17.1100 -22.7463 52.6069 0.0000 0.6815 0.0000
# 4 0.0000 0.0000 0.0000 11.5144 0.0000 2.7701
# 5 27.6827 -3.5861 0.6815 0.0000 44.5474 0.0000
# 6 0.0000 0.0000 0.0000 2.7701 0.0000 27.8788
#
#
#
# Elastic Compliance Matrix: (Units=1/GPa)
#
#
# Indices 1 2 3 4 5 6 
#
# 1 0.016192 -0.009481 -0.009227 0.000000 -0.010684 0.000000
# 2 -0.009481 0.020681 0.011930 0.000000 0.007374 0.000000
# 3 -0.009227 0.011930 0.027087 0.000000 0.006280 0.000000
# 4 0.000000 0.000000 0.000000 0.088975 0.000000 -0.008841
# 5 -0.010684 0.007374 0.006280 0.000000 0.029585 0.000000
# 6 0.000000 0.000000 0.000000 -0.008841 0.000000 0.036748
#
#
# Mechanical properties :
#
#
# Convention : Reuss Voigt Hill
#
# Bulk Modulus (GPa) = 19.83910 31.43989 25.63950
# Shear Modulus (GPa) = 20.03009 30.92528 25.47768
#
# Velocity S-wave (km/s) = 2.81271 3.49494 3.17222
# Velocity P-wave (km/s) = 4.28769 5.35761 4.85223
#
# Compressibility (1/GPa) = 0.05040552
#
# Stress axis : x y z
#
# Youngs Moduli (GPa) = 61.75924 48.35251 36.91798
#
# Poissons Ratio (x) = 0.45841 0.34065
# Poissons Ratio (y) = 0.58551 -0.44044
# Poissons Ratio (z) = 0.56986 -0.57686
#
# Static dielectric constant tensor:
#      x y z
#    x 2.146650 0.000000 -0.084610 
#    y 0.000000 2.109120 0.000000 
#    z -0.084610 0.000000 2.217140 
# 
# From -- ./inp_files/14845.got.cif
#   From: 2010.05.17/outbox.cif.g08.bks.cpg/sg3_8_cif.got.tgz:14845.got - 2010.06.03 18:33:08.
