data_PCOD9114917
_publ_section_title
;
Structure prediction by ZEFSAII (Michael W. Deem and Ramdas Pophale) SiO2 
 PCOD9114917
Probable space group: P 21
;
_chemical_formula_sum "Si O2"
_cell_formula_units_Z 16
_cell_length_a 9.213987
_cell_length_b 5.134880
_cell_length_c 17.948688
_cell_angle_alpha 90.000000
_cell_angle_beta 129.093270
_cell_angle_gamma 90.000000
_cell_volume 659.082449
_symmetry_space_group_name_H-M "P 21"
_symmetry_group_IT_number 4
_symmetry_cell_setting 'monoclinic'
loop_
_space_group_symop_operation_xyz
x,y,z
-x,1/2+y,-z
loop_
_atom_site_type_symbol
_atom_site_label
_atom_site_fract_x
_atom_site_fract_y
_atom_site_fract_z
Si Si1 0.916729 0.491590 0.509641
Si Si2 0.858628 0.072762 0.138107
Si Si3 0.467580 0.730416 0.666153
Si Si4 0.710267 0.331138 0.960216
Si Si5 0.830272 0.920636 0.719108
Si Si6 0.033274 0.712756 0.093329
Si Si7 0.417580 0.209674 0.745977
Si Si8 0.039979 0.263464 0.693675
O O1 0.712340 0.364593 0.431073
O O2 0.972618 0.484777 0.614446
O O3 0.951843 0.782399 0.491490
O O4 0.969751 0.279493 0.222473
O O5 0.007721 0.994057 0.121993
O O6 0.693407 0.182536 0.034001
O O7 0.854247 0.842051 0.195295
O O8 0.435930 0.442449 0.690412
O O9 0.646522 0.747695 0.669211
O O10 0.500321 0.936250 0.744418
O O11 0.522398 0.328842 0.852087
O O12 0.852356 0.206386 0.945062
O O13 0.824541 0.595206 0.016012
O O14 0.850498 0.119058 0.657655
O O15 0.856747 0.064813 0.806509
O O16 0.206101 0.136029 0.699945
#
# Coordination Sequence:
#
# PCOD9114917 Si02
#       8
#     2   2   2   2   2   2   2   2
#     4  12  25  50  80 106 142 191 247 299 375 455
#     4  10  23  42  64  98 147 189 236 300 374 431
#     4  12  25  48  74 114 135 191 252 309 353 457
#     4  11  21  36  66 100 136 195 243 296 355 441
#     4  10  24  43  71 101 148 184 246 305 382 424
#     4  10  19  36  63  97 135 189 241 298 354 434
#     4  12  27  44  77 103 150 190 252 300 366 441
#     4  11  26  49  71 103 147 195 233 317 377 439
#
# _framework density 24.276174999999999
#
# number of rings (size 3 to 8) (size 9 to 14) (size 15 to 20)
#    0.000    1.000    5.000    0.750    8.750    0.000 
#    9.000    0.000    0.000    0.000    0.000    0.000 
#    0.000    0.000    0.000    0.000    0.000    0.000 
#
# Total GULP energy -89158.305018 kJ/mol
# GULP energy per Si atom -5572.394064 kJ/mol
# Density = 2.422092 g / cm^3
# Si number density = 24.276175 Si / 1000 Ang^3
#
#
#
# Elastic Constant Matrix: (Units=GPa)
#
#
# Indices 1 2 3 4 5 6 
#
# 1 84.0435 15.9882 14.3572 0.0000 -10.8661 0.0000
# 2 15.9882 74.4646 -11.3916 0.0000 -12.6082 0.0000
# 3 14.3572 -11.3916 91.1532 0.0000 -3.4640 0.0000
# 4 0.0000 0.0000 0.0000 30.2566 0.0000 -8.6021
# 5 -10.8661 -12.6082 -3.4640 0.0000 35.8692 0.0000
# 6 0.0000 0.0000 0.0000 -8.6021 0.0000 15.3975
#
#
#
# Elastic Compliance Matrix: (Units=1/GPa)
#
#
# Indices 1 2 3 4 5 6 
#
# 1 0.013171 -0.002704 -0.002305 0.000000 0.002817 0.000000
# 2 -0.002704 0.015200 0.002507 0.000000 0.004766 0.000000
# 3 -0.002305 0.002507 0.011697 0.000000 0.001312 0.000000
# 4 0.000000 0.000000 0.000000 0.039291 0.000000 0.021951
# 5 0.002817 0.004766 0.001312 0.000000 0.030534 0.000000
# 6 0.000000 0.000000 0.000000 0.021951 0.000000 0.077209
#
#
# Mechanical properties :
#
#
# Convention : Reuss Voigt Hill
#
# Bulk Modulus (GPa) = 28.52010 31.95212 30.23611
# Shear Modulus (GPa) = 24.53445 31.68516 28.10980
#
# Velocity S-wave (km/s) = 3.18250 3.61667 3.40651
# Velocity P-wave (km/s) = 5.02774 5.53452 5.28720
#
# Compressibility (1/GPa) = 0.03506299
#
# Stress axis : x y z
#
# Youngs Moduli (GPa) = 75.92460 65.78897 85.49379
#
# Poissons Ratio (x) = 0.17787 0.19709
# Poissons Ratio (y) = 0.20527 -0.21429
# Poissons Ratio (z) = 0.17503 -0.16490
#
# Static dielectric constant tensor:
#      x y z
#    x 1.978680 0.000000 0.022510 
#    y 0.000000 2.095740 0.000000 
#    z 0.022510 0.000000 2.008000 
# 
# From -- ./inp_files/10016.got.cif
#   From: 2010.05.17/outbox.cif.g08.bks.cpg/sg4_6_cif.got.tgz:10016.got - 2010.06.03 18:43:04.
