data_PCOD9114766
_publ_section_title
;
Structure prediction by ZEFSAII (Michael W. Deem and Ramdas Pophale) SiO2 
 PCOD9114766
Probable space group: P 21
;
_chemical_formula_sum "Si O2"
_cell_formula_units_Z 12
_cell_length_a 10.551109
_cell_length_b 4.964429
_cell_length_c 18.696683
_cell_angle_alpha 90.000000
_cell_angle_beta 141.057898
_cell_angle_gamma 90.000000
_cell_volume 615.547080
_symmetry_space_group_name_H-M "P 21"
_symmetry_group_IT_number 4
_symmetry_cell_setting 'monoclinic'
loop_
_space_group_symop_operation_xyz
x,y,z
-x,1/2+y,-z
loop_
_atom_site_type_symbol
_atom_site_label
_atom_site_fract_x
_atom_site_fract_y
_atom_site_fract_z
Si Si1 0.133976 0.583340 0.055762
Si Si2 0.375210 0.831709 0.292201
Si Si3 0.340404 0.358542 0.005889
Si Si4 0.805967 0.086722 0.651919
Si Si5 0.553013 0.345620 0.429387
Si Si6 0.232720 0.856407 0.869979
O O1 0.270518 0.729288 0.174883
O O2 0.258225 0.456657 0.045227
O O3 0.013969 0.324995 0.034771
O O4 0.217593 0.777611 0.288262
O O5 0.558016 0.630974 0.392845
O O6 0.458350 0.130676 0.333223
O O7 0.282156 0.056104 0.958217
O O8 0.242164 0.554060 0.903242
O O9 0.580795 0.391779 0.102487
O O10 0.619391 0.881339 0.584561
O O11 0.750352 0.244776 0.555836
O O12 0.017919 0.940301 0.745307
#
# Coordination Sequence:
#
# PCOD9114766 Si02
#       6
#     2   2   2   2   2   2
#     4  12  23  35  57  79 112 148 183 223 276 334
#     4  10  20  32  48  78 109 139 166 238 263 317
#     4  10  22  40  50  88 105 148 186 221 273 333
#     4  10  19  33  54  80 104 145 174 229 278 308
#     4  10  20  31  51  80 111 129 187 222 274 317
#     4  10  22  35  62  73 117 141 184 231 268 331
#
# _framework density 19.494852000000002
#
# number of rings (size 3 to 8) (size 9 to 14) (size 15 to 20)
#    1.000    0.667    1.667    4.000    4.667    0.000 
#    0.000    0.000    0.000    2.000    0.000    0.000 
#    0.000    0.000    0.000    0.000    0.000    0.000 
#
# Total GULP energy -66957.050051 kJ/mol
# GULP energy per Si atom -5579.754171 kJ/mol
# Density = 1.945048 g / cm^3
# Si number density = 19.494852 Si / 1000 Ang^3
#
#
#
# Elastic Constant Matrix: (Units=GPa)
#
#
# Indices 1 2 3 4 5 6 
#
# 1 62.2873 -2.3799 6.6722 0.0000 -2.1615 0.0000
# 2 -2.3799 60.7281 -21.0388 0.0000 1.2553 0.0000
# 3 6.6722 -21.0388 62.0095 0.0000 7.0871 0.0000
# 4 0.0000 0.0000 0.0000 25.2598 0.0000 -2.5399
# 5 -2.1615 1.2553 7.0871 0.0000 26.5558 0.0000
# 6 0.0000 0.0000 0.0000 -2.5399 0.0000 19.2203
#
#
#
# Elastic Compliance Matrix: (Units=1/GPa)
#
#
# Indices 1 2 3 4 5 6 
#
# 1 0.016330 -0.000092 -0.002002 0.000000 0.001868 0.000000
# 2 -0.000092 0.018844 0.006711 0.000000 -0.002689 0.000000
# 3 -0.002002 0.006711 0.019261 0.000000 -0.005621 0.000000
# 4 0.000000 0.000000 0.000000 0.040122 0.000000 0.005302
# 5 0.001868 -0.002689 -0.005621 0.000000 0.039436 0.000000
# 6 0.000000 0.000000 0.000000 0.005302 0.000000 0.052729
#
#
# Mechanical properties :
#
#
# Convention : Reuss Voigt Hill
#
# Bulk Modulus (GPa) = 15.70643 16.83690 16.27167
# Shear Modulus (GPa) = 25.16216 27.65861 26.41039
#
# Velocity S-wave (km/s) = 3.59654 3.77074 3.68467
# Velocity P-wave (km/s) = 5.03200 5.25483 5.14462
#
# Compressibility (1/GPa) = 0.06366817
#
# Stress axis : x y z
#
# Youngs Moduli (GPa) = 61.23562 53.06833 51.91803
#
# Poissons Ratio (x) = 0.00489 0.10393
# Poissons Ratio (y) = 0.00564 -0.34840
# Poissons Ratio (z) = 0.12259 -0.35612
#
# Static dielectric constant tensor:
#      x y z
#    x 1.673890 0.000000 -0.001710 
#    y 0.000000 1.712330 0.000000 
#    z -0.001710 0.000000 1.698350 
# 
# From -- ./inp_files/14864.got.cif
#   From: 2010.05.17/outbox.cif.g08.bks.cpg/sg4_8_cif.got.tgz:14864.got - 2010.06.03 18:43:04.
