data_PCOD9114124
_publ_section_title
;
Structure prediction by ZEFSAII (Michael W. Deem and Ramdas Pophale) SiO2 
 PCOD9114124
Probable space group: P 2
;
_chemical_formula_sum "Si O2"
_cell_formula_units_Z 11
_cell_length_a 5.205805
_cell_length_b 5.091230
_cell_length_c 15.805378
_cell_angle_alpha 90.000000
_cell_angle_beta 66.254444
_cell_angle_gamma 90.000000
_cell_volume 383.441601
_symmetry_space_group_name_H-M "P 2"
_symmetry_group_IT_number 3
_symmetry_cell_setting 'monoclinic'
loop_
_space_group_symop_operation_xyz
x,y,z
-x,y,-z
loop_
_atom_site_type_symbol
_atom_site_label
_atom_site_fract_x
_atom_site_fract_y
_atom_site_fract_z
Si Si1 0.122414 0.889330 0.641704
Si Si2 0.000000 0.244861 0.500000
Si Si3 0.570982 0.562171 0.666453
Si Si4 0.000000 0.339966 0.000000
Si Si5 0.926680 0.233030 0.196020
Si Si6 0.277403 0.751073 0.197352
Si Si7 0.500000 0.703958 0.000000
O O1 0.411587 0.773572 0.626814
O O2 0.966990 0.995210 0.752303
O O3 0.367101 0.311120 0.722025
O O4 0.093764 0.072555 0.567817
O O5 0.741024 0.409527 0.566624
O O6 0.456336 0.724869 0.777926
O O7 0.880851 0.666421 0.668922
O O8 0.918481 0.188380 0.097198
O O9 0.261681 0.522906 0.990013
O O10 0.140394 0.474655 0.184166
O O11 0.380672 0.870421 0.093546
#
# Coordination Sequence:
#
# PCOD9114124 Si02
#       7
#     2   1   2   1   2   2   1
#     4  10  29  56  78 121 162 214 287 349 423 506
#     4  12  32  56  84 122 160 226 288 358 430 506
#     4  12  27  59  82 115 174 215 285 364 421 513
#     4  12  26  48  88 126 176 236 280 350 456 512
#     4  10  27  52  83 122 168 225 277 352 431 516
#     4  10  27  51  83 122 169 220 285 349 427 520
#     4  12  26  48  88 128 176 232 284 354 444 520
#
# _framework density 28.687549000000001
#
# number of rings (size 3 to 8) (size 9 to 14) (size 15 to 20)
#    1.091    0.000    1.818    1.091    7.636    7.273 
#    3.273    0.000    0.000    0.000    0.000    0.000 
#    0.000    0.000    0.000    0.000    0.000    0.000 
#
# Total GULP energy -61490.126040 kJ/mol
# GULP energy per Si atom -5590.011458 kJ/mol
# Density = 2.862226 g / cm^3
# Si number density = 28.687549 Si / 1000 Ang^3
#
#
#
# Elastic Constant Matrix: (Units=GPa)
#
#
# Indices 1 2 3 4 5 6 
#
# 1 160.8196 75.5269 93.3545 0.0000 27.0401 0.0000
# 2 75.5269 147.6429 111.6164 0.0000 24.4894 0.0000
# 3 93.3545 111.6164 311.9264 0.0000 18.5968 0.0000
# 4 0.0000 0.0000 0.0000 52.5511 0.0000 9.3225
# 5 27.0401 24.4894 18.5968 0.0000 51.1636 0.0000
# 6 0.0000 0.0000 0.0000 9.3225 0.0000 70.7322
#
#
#
# Elastic Compliance Matrix: (Units=1/GPa)
#
#
# Indices 1 2 3 4 5 6 
#
# 1 0.008933 -0.003038 -0.001422 0.000000 -0.002750 0.000000
# 2 -0.003038 0.010900 -0.002837 0.000000 -0.002580 0.000000
# 3 -0.001422 -0.002837 0.004621 0.000000 0.000430 0.000000
# 4 0.000000 0.000000 0.000000 0.019485 0.000000 -0.002568
# 5 -0.002750 -0.002580 0.000430 0.000000 0.022077 0.000000
# 6 0.000000 0.000000 0.000000 -0.002568 0.000000 0.014476
#
#
# Mechanical properties :
#
#
# Convention : Reuss Voigt Hill
#
# Bulk Modulus (GPa) = 101.43390 131.26495 116.34942
# Shear Modulus (GPa) = 50.82592 57.54879 54.18736
#
# Velocity S-wave (km/s) = 4.21373 4.48376 4.35084
# Velocity P-wave (km/s) = 7.68824 8.52418 8.11697
#
# Compressibility (1/GPa) = 0.00985864
#
# Stress axis : x y z
#
# Youngs Moduli (GPa) = 111.94326 91.74052 216.39361
#
# Poissons Ratio (x) = 0.27874 0.30780
# Poissons Ratio (y) = 0.34012 0.61397
# Poissons Ratio (z) = 0.15923 0.26029
#
# Static dielectric constant tensor:
#      x y z
#    x 2.113540 0.000000 -0.050120 
#    y 0.000000 2.564790 0.000000 
#    z -0.050120 0.000000 3.223710 
# 
# From -- ./inp_files/2671.got.cif
#   From: 2010.05.17/outbox.cif.g08.bks.cpg/sg3_2_cif.got.tgz:2671.got - 2010.06.03 18:33:08.
