data_PCOD9114586
_publ_section_title
;
Structure prediction by ZEFSAII (Michael W. Deem and Ramdas Pophale) SiO2 
 PCOD9114586
Probable space group: P 21
;
_chemical_formula_sum "Si O2"
_cell_formula_units_Z 14
_cell_length_a 17.139957
_cell_length_b 7.456551
_cell_length_c 10.846834
_cell_angle_alpha 90.000000
_cell_angle_beta 148.645175
_cell_angle_gamma 90.000000
_cell_volume 721.331659
_symmetry_space_group_name_H-M "P 21"
_symmetry_group_IT_number 4
_symmetry_cell_setting 'monoclinic'
loop_
_space_group_symop_operation_xyz
x,y,z
-x,1/2+y,-z
loop_
_atom_site_type_symbol
_atom_site_label
_atom_site_fract_x
_atom_site_fract_y
_atom_site_fract_z
Si Si1 0.844585 0.635870 0.281472
Si Si2 0.004354 0.757980 0.269418
Si Si3 0.361223 0.236486 0.794692
Si Si4 0.132714 0.073459 0.293101
Si Si5 0.696028 0.134313 0.199585
Si Si6 0.909454 0.391789 0.005265
Si Si7 0.144849 0.740056 0.815378
O O1 0.688752 0.655777 0.141095
O O2 0.856629 0.438248 0.244991
O O3 0.883401 0.761996 0.217135
O O4 0.976681 0.669361 0.559830
O O5 0.166158 0.736002 0.551519
O O6 0.973904 0.574328 0.153669
O O7 0.020051 0.934208 0.208875
O O8 0.269479 0.132385 0.565063
O O9 0.310530 0.441311 0.744151
O O10 0.536529 0.224908 0.005297
O O11 0.041009 0.255749 0.141408
O O12 0.179361 0.965401 0.232931
O O13 0.740091 0.129028 0.114135
O O14 0.827420 0.279675 0.003359
#
# Coordination Sequence:
#
# PCOD9114586 Si02
#       7
#     2   2   2   2   2   2   2
#     4  10  18  33  57  88 119 151 192 252 310 352
#     4  10  21  37  60  93 125 153 200 256 308 363
#     4  12  22  37  60  92 124 160 199 253 315 368
#     4  12  22  38  61  89 126 163 207 251 293 361
#     4  11  23  37  59  92 126 157 196 255 322 370
#     4  11  22  37  61  89 122 165 209 248 297 351
#     4  10  20  35  56  89 120 155 201 251 301 361
#
# _framework density 19.408548
#
# number of rings (size 3 to 8) (size 9 to 14) (size 15 to 20)
#    0.000    1.143    4.286    5.143    2.000    0.000 
#    0.000    0.000    0.000   10.286    0.000    0.000 
#    0.000    0.000    0.000    0.000    0.000    0.000 
#
# Total GULP energy -78102.092861 kJ/mol
# GULP energy per Si atom -5578.720919 kJ/mol
# Density = 1.936437 g / cm^3
# Si number density = 19.408548 Si / 1000 Ang^3
#
#
#
# Elastic Constant Matrix: (Units=GPa)
#
#
# Indices 1 2 3 4 5 6 
#
# 1 127.5291 32.2722 45.5928 0.0000 -4.7998 0.0000
# 2 32.2722 84.5403 16.8797 0.0000 -8.5713 0.0000
# 3 45.5928 16.8797 41.7494 0.0000 0.6409 0.0000
# 4 0.0000 0.0000 0.0000 23.6661 0.0000 -10.2860
# 5 -4.7998 -8.5713 0.6409 0.0000 33.9656 0.0000
# 6 0.0000 0.0000 0.0000 -10.2860 0.0000 41.8746
#
#
#
# Elastic Compliance Matrix: (Units=1/GPa)
#
#
# Indices 1 2 3 4 5 6 
#
# 1 0.013368 -0.002199 -0.013734 0.000000 0.001593 0.000000
# 2 -0.002199 0.013621 -0.003154 0.000000 0.003186 0.000000
# 3 -0.013734 -0.003154 0.040279 0.000000 -0.003497 0.000000
# 4 0.000000 0.000000 0.000000 0.047305 0.000000 0.011620
# 5 0.001593 0.003186 -0.003497 0.000000 0.030537 0.000000
# 6 0.000000 0.000000 0.000000 0.011620 0.000000 0.026735
#
#
# Mechanical properties :
#
#
# Convention : Reuss Voigt Hill
#
# Bulk Modulus (GPa) = 34.37163 49.25647 41.81405
# Shear Modulus (GPa) = 22.75654 30.50622 26.63138
#
# Velocity S-wave (km/s) = 3.42790 3.96889 3.70827
# Velocity P-wave (km/s) = 5.78059 6.81444 6.31870
#
# Compressibility (1/GPa) = 0.02909377
#
# Stress axis : x y z
#
# Youngs Moduli (GPa) = 74.80682 73.41581 24.82663
#
# Poissons Ratio (x) = 0.16147 0.34096
# Poissons Ratio (y) = 0.16452 0.07831
# Poissons Ratio (z) = 1.02737 0.23157
#
# Static dielectric constant tensor:
#      x y z
#    x 1.763170 0.000000 -0.030430 
#    y 0.000000 1.743320 0.000000 
#    z -0.030430 0.000000 1.629740 
# 
# From -- ./inp_files/12919.got.cif
#   From: 2010.05.17/outbox.cif.g08.bks.cpg/sg4_7_cif.got.tgz:12919.got - 2010.06.03 18:43:04.
