data_PCOD9114092
_publ_section_title
;
Structure prediction by ZEFSAII (Michael W. Deem and Ramdas Pophale) SiO2 
 PCOD9114092
Probable space group: P 2
;
_chemical_formula_sum "Si O2"
_cell_formula_units_Z 10
_cell_length_a 12.268095
_cell_length_b 5.358438
_cell_length_c 17.837559
_cell_angle_alpha 90.000000
_cell_angle_beta 158.899170
_cell_angle_gamma 90.000000
_cell_volume 422.148954
_symmetry_space_group_name_H-M "P 2"
_symmetry_group_IT_number 3
_symmetry_cell_setting 'monoclinic'
loop_
_space_group_symop_operation_xyz
x,y,z
-x,y,-z
loop_
_atom_site_type_symbol
_atom_site_label
_atom_site_fract_x
_atom_site_fract_y
_atom_site_fract_z
Si Si1 0.570232 0.915700 0.957995
Si Si2 0.370502 0.215855 0.341877
Si Si3 0.817916 0.397735 0.053582
Si Si4 0.000000 0.786627 0.500000
Si Si5 0.559647 0.492659 0.323008
Si Si6 0.000000 0.856474 0.000000
O O1 0.714543 0.654420 0.024233
O O2 0.263110 0.936781 0.711367
O O3 0.783088 0.155560 0.082831
O O4 0.500000 0.897247 0.000000
O O5 0.500000 0.094127 0.500000
O O6 0.586729 0.334474 0.416956
O O7 0.154228 0.430037 0.237316
O O8 0.138261 0.032160 0.152418
O O9 0.593123 0.333256 0.840602
O O10 0.153173 0.621206 0.531693
O O11 0.290162 0.693315 0.163034
#
# Coordination Sequence:
#
# PCOD9114092 Si02
#       6
#     2   2   2   1   2   1
#     4  11  26  46  72 103 148 193 239 302 369 438
#     4  12  26  41  74 110 139 195 251 312 363 445
#     4  11  23  48  72 103 147 192 243 302 370 438
#     4  10  26  44  72 106 136 198 240 300 360 446
#     4  11  24  47  75  98 151 191 248 302 373 443
#     4  12  22  50  70 104 152 198 240 314 376 436
#
# _framework density 23.688319
#
# number of rings (size 3 to 8) (size 9 to 14) (size 15 to 20)
#    0.000    0.800    4.000    3.000    2.800    5.600 
#    0.000    0.000    0.000    0.000    0.000    0.000 
#    0.000    0.000    0.000    0.000    0.000    0.000 
#
# Total GULP energy -55905.856693 kJ/mol
# GULP energy per Si atom -5590.585669 kJ/mol
# Density = 2.363440 g / cm^3
# Si number density = 23.688319 Si / 1000 Ang^3
#
#
#
# Elastic Constant Matrix: (Units=GPa)
#
#
# Indices 1 2 3 4 5 6 
#
# 1 166.3285 66.3320 31.5899 0.0000 -0.8723 0.0000
# 2 66.3320 97.6866 40.6698 0.0000 0.6134 0.0000
# 3 31.5899 40.6698 62.7838 0.0000 0.6631 0.0000
# 4 0.0000 0.0000 0.0000 14.0111 0.0000 10.7038
# 5 -0.8723 0.6134 0.6631 0.0000 53.6552 0.0000
# 6 0.0000 0.0000 0.0000 10.7038 0.0000 33.0181
#
#
#
# Elastic Compliance Matrix: (Units=1/GPa)
#
#
# Indices 1 2 3 4 5 6 
#
# 1 0.008271 -0.005318 -0.000719 0.000000 0.000204 0.000000
# 2 -0.005318 0.017437 -0.008617 0.000000 -0.000179 0.000000
# 3 -0.000719 -0.008617 0.021873 0.000000 -0.000183 0.000000
# 4 0.000000 0.000000 0.000000 0.094867 0.000000 -0.030754
# 5 0.000204 -0.000179 -0.000183 0.000000 0.018645 0.000000
# 6 0.000000 0.000000 0.000000 -0.030754 0.000000 0.040256
#
#
# Mechanical properties :
#
#
# Convention : Reuss Voigt Hill
#
# Bulk Modulus (GPa) = 54.72704 67.10913 60.91809
# Shear Modulus (GPa) = 21.11950 32.68401 26.90176
#
# Velocity S-wave (km/s) = 2.98914 3.71853 3.37360
# Velocity P-wave (km/s) = 5.92169 6.84311 6.39901
#
# Compressibility (1/GPa) = 0.01827250
#
# Stress axis : x y z
#
# Youngs Moduli (GPa) = 120.91000 57.35017 45.71778
#
# Poissons Ratio (x) = 0.30499 0.03285
# Poissons Ratio (y) = 0.64301 0.39397
# Poissons Ratio (z) = 0.08689 0.49421
#
# Static dielectric constant tensor:
#      x y z
#    x 1.978470 0.000000 0.005430 
#    y 0.000000 1.910980 0.000000 
#    z 0.005430 0.000000 1.957860 
# 
# From -- ./inp_files/4908.got.cif
#   From: 2010.05.17/outbox.cif.g08.bks.cpg/sg3_3_cif.got.tgz:4908.got - 2010.06.03 18:33:08.
