data_PCOD9114882
_publ_section_title
;
Structure prediction by ZEFSAII (Michael W. Deem and Ramdas Pophale) SiO2 
 PCOD9114882
Probable space group: P 21
;
_chemical_formula_sum "Si O2"
_cell_formula_units_Z 14
_cell_length_a 14.246024
_cell_length_b 7.641121
_cell_length_c 10.869520
_cell_angle_alpha 90.000000
_cell_angle_beta 36.334347
_cell_angle_gamma 90.000000
_cell_volume 701.046273
_symmetry_space_group_name_H-M "P 21"
_symmetry_group_IT_number 4
_symmetry_cell_setting 'monoclinic'
loop_
_space_group_symop_operation_xyz
x,y,z
-x,1/2+y,-z
loop_
_atom_site_type_symbol
_atom_site_label
_atom_site_fract_x
_atom_site_fract_y
_atom_site_fract_z
Si Si1 0.963658 0.547430 0.390551
Si Si2 0.696890 0.658313 0.149420
Si Si3 0.034150 0.135475 0.327618
Si Si4 0.198681 0.547533 0.956249
Si Si5 0.887653 0.427093 0.133124
Si Si6 0.125404 0.352136 0.668241
Si Si7 0.667246 0.130069 0.421123
O O1 0.943158 0.601511 0.552595
O O2 0.847368 0.666093 0.427432
O O3 0.972902 0.335791 0.373528
O O4 0.135635 0.608676 0.154527
O O5 0.779315 0.576167 0.184770
O O6 0.511101 0.625149 0.346928
O O7 0.803942 0.603123 0.920010
O O8 0.712633 0.865231 0.126861
O O9 0.915729 0.993186 0.394254
O O10 0.037225 0.494483 0.052770
O O11 0.316597 0.652954 0.744252
O O12 0.786326 0.292327 0.323333
O O13 0.975292 0.343239 0.920712
O O14 0.257688 0.449023 0.609770
#
# Coordination Sequence:
#
# PCOD9114882 Si02
#       7
#     2   2   2   2   2   2   2
#     4  11  19  36  62  88 112 149 211 246 282 342
#     4  10  22  35  56  87 124 152 189 244 307 350
#     4  10  21  37  62  86 113 154 203 253 284 345
#     4  10  20  35  58  89 113 158 195 242 292 353
#     4  10  19  36  57  86 115 151 201 237 287 358
#     4  10  21  36  60  86 114 156 200 245 289 346
#     4  11  20  35  57  86 125 152 187 245 307 356
#
# _framework density 19.970151999999999
#
# number of rings (size 3 to 8) (size 9 to 14) (size 15 to 20)
#    0.000    1.714    2.857    4.286    2.000    0.000 
#    0.000    0.000    6.286    0.000    0.000    0.000 
#    0.000    0.000    0.000    0.000    0.000    0.000 
#
# Total GULP energy -77934.642716 kJ/mol
# GULP energy per Si atom -5566.760194 kJ/mol
# Density = 1.992470 g / cm^3
# Si number density = 19.970152 Si / 1000 Ang^3
#
#
#
# Elastic Constant Matrix: (Units=GPa)
#
#
# Indices 1 2 3 4 5 6 
#
# 1 53.4821 8.5479 50.4964 0.0000 15.3820 0.0000
# 2 8.5479 74.7256 35.0661 0.0000 -2.2820 0.0000
# 3 50.4964 35.0661 113.0179 0.0000 0.9254 0.0000
# 4 0.0000 0.0000 0.0000 24.6281 0.0000 8.0519
# 5 15.3820 -2.2820 0.9254 0.0000 31.6213 0.0000
# 6 0.0000 0.0000 0.0000 8.0519 0.0000 27.8142
#
#
#
# Elastic Compliance Matrix: (Units=1/GPa)
#
#
# Indices 1 2 3 4 5 6 
#
# 1 0.042945 0.003984 -0.020260 0.000000 -0.020010 0.000000
# 2 0.003984 0.016084 -0.006765 0.000000 -0.000579 0.000000
# 3 -0.020260 -0.006765 0.019928 0.000000 0.008784 0.000000
# 4 0.000000 0.000000 0.000000 0.044849 0.000000 -0.012983
# 5 -0.020010 -0.000579 0.008784 0.000000 0.041059 0.000000
# 6 0.000000 0.000000 0.000000 -0.012983 0.000000 0.039711
#
#
# Mechanical properties :
#
#
# Convention : Reuss Voigt Hill
#
# Bulk Modulus (GPa) = 30.42025 47.71626 39.06826
# Shear Modulus (GPa) = 19.11189 26.62042 22.86615
#
# Velocity S-wave (km/s) = 3.09693 3.65500 3.38748
# Velocity P-wave (km/s) = 5.29660 6.46202 5.90812
#
# Compressibility (1/GPa) = 0.03287284
#
# Stress axis : x y z
#
# Youngs Moduli (GPa) = 23.28542 62.17469 50.18166
#
# Poissons Ratio (x) = -0.24769 1.01669
# Poissons Ratio (y) = -0.09276 0.33950
# Poissons Ratio (z) = 0.47177 0.42064
#
# Static dielectric constant tensor:
#      x y z
#    x 1.740280 0.000000 0.037280 
#    y 0.000000 1.847140 0.000000 
#    z 0.037280 0.000000 1.715420 
# 
# From -- ./inp_files/7525.got.cif
#   From: 2010.05.17/outbox.cif.g08.bks.cpg/sg4_4_cif.got.tgz:7525.got - 2010.06.03 18:43:04.
