data_PCOD9114793
_publ_section_title
;
Structure prediction by ZEFSAII (Michael W. Deem and Ramdas Pophale) SiO2 
 PCOD9114793
Probable space group: P 21
;
_chemical_formula_sum "Si O2"
_cell_formula_units_Z 14
_cell_length_a 9.400127
_cell_length_b 8.041574
_cell_length_c 7.055585
_cell_angle_alpha 90.000000
_cell_angle_beta 78.558038
_cell_angle_gamma 90.000000
_cell_volume 522.744882
_symmetry_space_group_name_H-M "P 21"
_symmetry_group_IT_number 4
_symmetry_cell_setting 'monoclinic'
loop_
_space_group_symop_operation_xyz
x,y,z
-x,1/2+y,-z
loop_
_atom_site_type_symbol
_atom_site_label
_atom_site_fract_x
_atom_site_fract_y
_atom_site_fract_z
Si Si1 0.779887 0.349620 0.337850
Si Si2 0.410939 0.773741 0.139875
Si Si3 0.836172 0.976833 0.497665
Si Si4 0.529379 0.858467 0.482191
Si Si5 0.921463 0.852854 0.870738
Si Si6 0.856277 0.499886 0.695913
Si Si7 0.346082 0.473783 0.907316
O O1 0.609127 0.372673 0.346222
O O2 0.813642 0.492694 0.483689
O O3 0.905394 0.362606 0.146914
O O4 0.808902 0.166267 0.427566
O O5 0.470689 0.725824 0.336234
O O6 0.283223 0.906936 0.185937
O O7 0.347891 0.633314 0.029626
O O8 0.558147 0.839259 0.007934
O O9 0.691466 0.862610 0.520346
O O10 0.878753 0.974715 0.707940
O O11 0.984652 0.914210 0.358727
O O12 0.559913 0.998593 0.308397
O O13 0.882080 0.671884 0.797461
O O14 0.814538 0.903169 0.068390
#
# Coordination Sequence:
#
# PCOD9114793 Si02
#       7
#     2   2   2   2   2   2   2
#     4   9  19  36  55  81 115 152 185 229 274 349
#     4   9  19  36  59  78 112 150 191 224 278 339
#     4  10  20  37  59  84 117 148 187 238 288 324
#     4   9  21  35  58  81 119 142 184 239 284 323
#     4  10  19  33  63  86 107 150 195 225 281 342
#     4   9  18  35  58  84 111 152 190 231 272 350
#     4  10  20  36  62  82 111 150 194 230 277 341
#
# _framework density 26.781704000000001
#
# number of rings (size 3 to 8) (size 9 to 14) (size 15 to 20)
#    0.857    1.714    0.000    2.571    0.000    3.429 
#    0.000    2.857    0.000    0.000    0.000    0.000 
#    0.000    0.000    0.000    0.000    0.000    0.000 
#
# Total GULP energy -78013.283100 kJ/mol
# GULP energy per Si atom -5572.377364 kJ/mol
# Density = 2.672075 g / cm^3
# Si number density = 26.781704 Si / 1000 Ang^3
#
#
#
# Elastic Constant Matrix: (Units=GPa)
#
#
# Indices 1 2 3 4 5 6 
#
# 1 167.9581 22.2075 67.9739 0.0000 -40.4157 0.0000
# 2 22.2075 61.2100 28.0340 0.0000 -21.6628 0.0000
# 3 67.9739 28.0340 90.9888 0.0000 -54.9417 0.0000
# 4 0.0000 0.0000 0.0000 17.4503 0.0000 -14.9885
# 5 -40.4157 -21.6628 -54.9417 0.0000 61.5051 0.0000
# 6 0.0000 0.0000 0.0000 -14.9885 0.0000 21.6707
#
#
#
# Elastic Compliance Matrix: (Units=1/GPa)
#
#
# Indices 1 2 3 4 5 6 
#
# 1 0.008538 -0.000226 -0.006446 0.000000 -0.000227 0.000000
# 2 -0.000226 0.019318 -0.003831 0.000000 0.003234 0.000000
# 3 -0.006446 -0.003831 0.029556 0.000000 0.020817 0.000000
# 4 0.000000 0.000000 0.000000 0.141173 0.000000 0.097642
# 5 -0.000227 0.003234 0.020817 0.000000 0.035844 0.000000
# 6 0.000000 0.000000 0.000000 0.097642 0.000000 0.113679
#
#
# Mechanical properties :
#
#
# Convention : Reuss Voigt Hill
#
# Bulk Modulus (GPa) = 27.46699 61.84309 44.65504
# Shear Modulus (GPa) = 13.11483 33.58798 23.35140
#
# Velocity S-wave (km/s) = 2.21530 3.54522 2.95603
# Velocity P-wave (km/s) = 4.10141 6.31663 5.32548
#
# Compressibility (1/GPa) = 0.03640734
#
# Stress axis : x y z
#
# Youngs Moduli (GPa) = 117.12742 51.76518 33.83400
#
# Poissons Ratio (x) = 0.01169 0.21809
# Poissons Ratio (y) = 0.02645 0.12960
# Poissons Ratio (z) = 0.75498 0.19829
#
# Static dielectric constant tensor:
#      x y z
#    x 2.111030 0.000000 0.025380 
#    y 0.000000 2.388910 0.000000 
#    z 0.025380 0.000000 2.212600 
# 
# From -- ./inp_files/10838.got.cif
#   From: 2010.05.17/outbox.cif.g08.bks.cpg/sg4_6_cif.got.tgz:10838.got - 2010.06.03 18:43:04.
