data_PCOD9114822
_publ_section_title
;
Structure prediction by ZEFSAII (Michael W. Deem and Ramdas Pophale) SiO2 
 PCOD9114822
Probable space group: P 21
;
_chemical_formula_sum "Si O2"
_cell_formula_units_Z 16
_cell_length_a 8.834597
_cell_length_b 13.962854
_cell_length_c 7.004474
_cell_angle_alpha 90.000000
_cell_angle_beta 52.592415
_cell_angle_gamma 90.000000
_cell_volume 686.340668
_symmetry_space_group_name_H-M "P 21"
_symmetry_group_IT_number 4
_symmetry_cell_setting 'monoclinic'
loop_
_space_group_symop_operation_xyz
x,y,z
-x,1/2+y,-z
loop_
_atom_site_type_symbol
_atom_site_label
_atom_site_fract_x
_atom_site_fract_y
_atom_site_fract_z
Si Si1 0.308515 0.505950 0.025513
Si Si2 0.356703 0.869754 0.860216
Si Si3 0.048209 0.819114 0.577476
Si Si4 0.773067 0.893008 0.535262
Si Si5 0.270496 0.999915 0.296865
Si Si6 0.800471 0.664243 0.916187
Si Si7 0.979813 0.488745 0.970363
Si Si8 0.628561 0.206171 0.844705
O O1 0.280269 0.424856 0.207695
O O2 0.297805 0.602686 0.154917
O O3 0.520412 0.507166 0.769611
O O4 0.142088 0.497828 0.002515
O O5 0.564886 0.877421 0.604796
O O6 0.327537 0.947515 0.053528
O O7 0.172692 0.902038 0.880227
O O8 0.363745 0.769976 0.968316
O O9 0.124831 0.928653 0.510728
O O10 0.238736 0.758226 0.407246
O O11 0.922086 0.809761 0.476380
O O12 0.924113 0.760449 0.823584
O O13 0.898109 0.964594 0.314152
O O14 0.187107 0.101325 0.291593
O O15 0.868737 0.588873 0.023915
O O16 0.580621 0.694163 0.082916
#
# Coordination Sequence:
#
# PCOD9114822 Si02
#       8
#     2   2   2   2   2   2   2   2
#     4  10  23  40  63  87 129 162 201 251 312 361
#     4   9  18  37  63  89 119 160 208 249 301 360
#     4  11  19  35  67  92 114 160 211 242 304 366
#     4  11  20  40  66  86 115 168 199 244 313 356
#     4   8  18  37  58  89 122 159 199 252 298 361
#     4  10  19  34  62  87 122 161 204 247 305 362
#     4  11  22  43  60  92 124 161 205 254 296 373
#     4  10  19  36  59  92 123 159 199 259 301 359
#
# _framework density 23.312037
#
# number of rings (size 3 to 8) (size 9 to 14) (size 15 to 20)
#    0.000    2.000    5.000    1.500    0.000    0.000 
#    4.500    0.000    0.000    0.000    0.000    0.000 
#    0.000    0.000    0.000    0.000    0.000    0.000 
#
# Total GULP energy -89207.572288 kJ/mol
# GULP energy per Si atom -5575.473268 kJ/mol
# Density = 2.325898 g / cm^3
# Si number density = 23.312037 Si / 1000 Ang^3
#
#
#
# Elastic Constant Matrix: (Units=GPa)
#
#
# Indices 1 2 3 4 5 6 
#
# 1 131.5667 13.3359 24.2410 0.0000 -31.0787 0.0000
# 2 13.3359 76.4771 2.0262 0.0000 -13.2487 0.0000
# 3 24.2410 2.0262 51.8742 0.0000 -24.2249 0.0000
# 4 0.0000 0.0000 0.0000 19.5412 0.0000 -18.3421
# 5 -31.0787 -13.2487 -24.2249 0.0000 34.6455 0.0000
# 6 0.0000 0.0000 0.0000 -18.3421 0.0000 31.0244
#
#
#
# Elastic Compliance Matrix: (Units=1/GPa)
#
#
# Indices 1 2 3 4 5 6 
#
# 1 0.009666 -0.000273 -0.000751 0.000000 0.008042 0.000000
# 2 -0.000273 0.014312 0.002985 0.000000 0.007315 0.000000
# 3 -0.000751 0.002985 0.029296 0.000000 0.020952 0.000000
# 4 0.000000 0.000000 0.000000 0.114982 0.000000 0.067979
# 5 0.008042 0.007315 0.020952 0.000000 0.053525 0.000000
# 6 0.000000 0.000000 0.000000 0.067979 0.000000 0.072423
#
#
# Mechanical properties :
#
#
# Convention : Reuss Voigt Hill
#
# Bulk Modulus (GPa) = 17.48367 37.68046 27.58206
# Shear Modulus (GPa) = 16.16303 31.72987 23.94645
#
# Velocity S-wave (km/s) = 2.63598 3.69330 3.20850
# Velocity P-wave (km/s) = 4.09642 5.86395 5.05799
#
# Compressibility (1/GPa) = 0.05719622
#
# Stress axis : x y z
#
# Youngs Moduli (GPa) = 103.45172 69.87371 34.13389
#
# Poissons Ratio (x) = 0.01904 0.02563
# Poissons Ratio (y) = 0.02820 -0.10187
# Poissons Ratio (z) = 0.07769 -0.20854
#
# Static dielectric constant tensor:
#      x y z
#    x 2.007360 0.000000 -0.026870 
#    y 0.000000 1.925300 0.000000 
#    z -0.026870 0.000000 1.938090 
# 
# From -- ./inp_files/6589.got.cif
#   From: 2010.05.17/outbox.cif.g08.bks.cpg/sg4_4_cif.got.tgz:6589.got - 2010.06.03 18:43:04.
