data_PCOD9114721
_publ_section_title
;
Structure prediction by ZEFSAII (Michael W. Deem and Ramdas Pophale) SiO2 
 PCOD9114721
Probable space group: P 21
;
_chemical_formula_sum "Si O2"
_cell_formula_units_Z 16
_cell_length_a 9.961331
_cell_length_b 5.657615
_cell_length_c 28.318233
_cell_angle_alpha 90.000000
_cell_angle_beta 157.701887
_cell_angle_gamma 90.000000
_cell_volume 605.541124
_symmetry_space_group_name_H-M "P 21"
_symmetry_group_IT_number 4
_symmetry_cell_setting 'monoclinic'
loop_
_space_group_symop_operation_xyz
x,y,z
-x,1/2+y,-z
loop_
_atom_site_type_symbol
_atom_site_label
_atom_site_fract_x
_atom_site_fract_y
_atom_site_fract_z
Si Si1 0.780186 0.931190 0.928201
Si Si2 0.266436 0.407246 0.190629
Si Si3 0.040684 0.515666 0.842522
Si Si4 0.662918 0.953935 0.440943
Si Si5 0.413051 0.240975 0.037268
Si Si6 0.838555 0.961907 0.657331
Si Si7 0.200094 0.961202 0.382553
Si Si8 0.384563 0.973389 0.597185
O O1 0.580069 0.901219 0.812455
O O2 0.587032 0.900264 0.916058
O O3 0.037638 0.694015 0.010755
O O4 0.519072 0.482236 0.315956
O O5 0.089244 0.175834 0.155857
O O6 0.935326 0.581154 0.075209
O O7 0.355069 0.372892 0.969027
O O8 0.670008 0.418114 0.703175
O O9 0.229307 0.601490 0.855947
O O10 0.498302 0.961426 0.438924
O O11 0.787369 0.218983 0.470706
O O12 0.841770 0.698405 0.493431
O O13 0.431943 0.960112 0.505000
O O14 0.995693 0.211235 0.689593
O O15 0.751716 0.970465 0.685270
O O16 0.981627 0.714890 0.682819
#
# Coordination Sequence:
#
# PCOD9114721 Si02
#       8
#     2   2   2   2   2   2   2   2
#     4  10  21  34  48  63  85 115 151 184 224 264
#     4  10  19  31  45  61  87 115 146 185 219 261
#     4  11  19  30  44  64  86 113 150 186 220 258
#     4   9  17  26  38  58  81 109 138 172 211 255
#     4  11  20  31  45  64  87 116 150 189 222 260
#     4   8  13  21  34  53  75 104 133 162 199 251
#     4   8  13  22  34  50  77 106 132 159 202 253
#     4   9  16  25  40  59  80 106 140 173 209 252
#
# _framework density 26.422649
#
# number of rings (size 3 to 8) (size 9 to 14) (size 15 to 20)
#    0.000    2.500    3.750    0.000    0.000    0.000 
#    0.000    0.000    0.000    0.000    0.000    0.000 
#    0.000    0.000    0.000   54.000    0.000    3.750 
#
# Total GULP energy -89177.875857 kJ/mol
# GULP energy per Si atom -5573.617241 kJ/mol
# Density = 2.636251 g / cm^3
# Si number density = 26.422649 Si / 1000 Ang^3
#
#
#
# Elastic Constant Matrix: (Units=GPa)
#
#
# Indices 1 2 3 4 5 6 
#
# 1 123.7305 11.6431 6.1488 0.0021 -25.3617 -0.0002
# 2 11.6431 190.6196 19.6444 0.0021 3.0910 -0.0001
# 3 6.1488 19.6444 49.3736 0.0160 -21.5936 -0.0024
# 4 0.0021 0.0021 0.0160 28.0958 -0.0018 -19.6823
# 5 -25.3617 3.0910 -21.5936 -0.0018 39.3245 -0.0005
# 6 -0.0002 -0.0001 -0.0024 -19.6823 -0.0005 26.6831
#
#
#
# Elastic Compliance Matrix: (Units=1/GPa)
#
#
# Indices 1 2 3 4 5 6 
#
# 1 0.009622 -0.000975 0.002549 -0.000003 0.007682 -0.000002
# 2 -0.000975 0.005709 -0.003450 0.000002 -0.002972 0.000001
# 3 0.002549 -0.003450 0.029146 -0.000028 0.017920 -0.000017
# 4 -0.000003 0.000002 -0.000028 0.073651 -0.000013 0.054327
# 5 0.007682 -0.002972 0.017920 -0.000013 0.040457 -0.000007
# 6 -0.000002 0.000001 -0.000017 0.054327 -0.000007 0.077550
#
#
# Mechanical properties :
#
#
# Convention : Reuss Voigt Hill
#
# Bulk Modulus (GPa) = 24.55432 48.73292 36.64362
# Shear Modulus (GPa) = 19.72680 40.57318 30.14999
#
# Velocity S-wave (km/s) = 2.73534 3.92285 3.38163
# Velocity P-wave (km/s) = 4.39195 6.24516 5.39867
#
# Compressibility (1/GPa) = 0.04072603
#
# Stress axis : x y z
#
# Youngs Moduli (GPa) = 103.93127 175.15172 34.30984
#
# Poissons Ratio (x) = 0.17077 -0.08747
# Poissons Ratio (y) = 0.10133 0.11837
# Poissons Ratio (z) = -0.26496 0.60427
#
# Static dielectric constant tensor:
#      x y z
#    x 2.067890 -0.000010 0.016090 
#    y -0.000010 2.306270 -0.000010 
#    z 0.016090 -0.000010 2.151890 
# 
# From -- ./inp_files/8640.got.cif
#   From: 2010.05.17/outbox.cif.g08.bks.cpg/sg4_5_cif.got.tgz:8640.got - 2010.06.03 18:43:04.
