data_PCOD9114808
_publ_section_title
;
Structure prediction by ZEFSAII (Michael W. Deem and Ramdas Pophale) SiO2 
 PCOD9114808
Probable space group: P 21
;
_chemical_formula_sum "Si O2"
_cell_formula_units_Z 16
_cell_length_a 10.747519
_cell_length_b 12.545099
_cell_length_c 8.157812
_cell_angle_alpha 90.000000
_cell_angle_beta 42.843642
_cell_angle_gamma 90.000000
_cell_volume 747.936816
_symmetry_space_group_name_H-M "P 21"
_symmetry_group_IT_number 4
_symmetry_cell_setting 'monoclinic'
loop_
_space_group_symop_operation_xyz
x,y,z
-x,1/2+y,-z
loop_
_atom_site_type_symbol
_atom_site_label
_atom_site_fract_x
_atom_site_fract_y
_atom_site_fract_z
Si Si1 0.799269 0.913960 0.811906
Si Si2 0.917560 0.124416 0.541207
Si Si3 0.903175 0.285598 0.285367
Si Si4 0.817122 0.824461 0.260494
Si Si5 0.672248 0.216648 0.061702
Si Si6 0.691656 0.024500 0.253015
Si Si7 0.415245 0.876758 0.611178
Si Si8 0.276909 0.220143 0.314581
O O1 0.685808 0.817044 0.846613
O O2 0.986865 0.860888 0.694126
O O3 0.846320 0.005476 0.637007
O O4 0.706816 0.968128 0.058930
O O5 0.869326 0.176681 0.414480
O O6 0.133861 0.138751 0.371360
O O7 0.812906 0.193102 0.782245
O O8 0.727124 0.346769 0.389625
O O9 0.042709 0.272697 0.999269
O O10 0.832519 0.953847 0.225666
O O11 0.605374 0.810555 0.409646
O O12 0.824119 0.775718 0.432934
O O13 0.661448 0.337146 0.139964
O O14 0.472071 0.180567 0.190471
O O15 0.719240 0.145946 0.177901
O O16 0.493872 0.996106 0.520549
#
# Coordination Sequence:
#
# PCOD9114808 Si02
#       8
#     2   2   2   2   2   2   2   2
#     4   9  20  37  53  79 112 142 181 224 271 318
#     4  10  22  34  55  83 107 144 182 222 270 328
#     4  10  19  34  57  74 108 141 179 219 269 318
#     4   8  18  35  54  78 105 139 173 225 267 313
#     4  10  20  36  56  81 107 144 181 226 270 324
#     4   8  18  35  53  79 107 141 179 214 277 315
#     4   9  19  33  57  76 105 139 182 218 266 318
#     4  10  20  36  59  76 113 142 181 224 274 316
#
# _framework density 21.392178999999999
#
# number of rings (size 3 to 8) (size 9 to 14) (size 15 to 20)
#    0.750    2.000    0.000    0.750    3.500    1.000 
#    0.000    1.250   11.000    0.000    0.000    0.000 
#    0.000    0.000    0.000    0.000    0.000    0.000 
#
# Total GULP energy -89130.122029 kJ/mol
# GULP energy per Si atom -5570.632627 kJ/mol
# Density = 2.134349 g / cm^3
# Si number density = 21.392179 Si / 1000 Ang^3
#
#
#
# Elastic Constant Matrix: (Units=GPa)
#
#
# Indices 1 2 3 4 5 6 
#
# 1 44.6412 -12.5253 -1.7119 0.0000 -14.1335 0.0000
# 2 -12.5253 30.0986 9.8982 0.0000 1.1997 0.0000
# 3 -1.7119 9.8982 43.7756 0.0000 -2.2130 0.0000
# 4 0.0000 0.0000 0.0000 27.7728 0.0000 9.4900
# 5 -14.1335 1.1997 -2.2130 0.0000 22.0978 0.0000
# 6 0.0000 0.0000 0.0000 9.4900 0.0000 18.9975
#
#
#
# Elastic Compliance Matrix: (Units=1/GPa)
#
#
# Indices 1 2 3 4 5 6 
#
# 1 0.032276 0.012849 -0.000638 0.000000 0.019882 0.000000
# 2 0.012849 0.041178 -0.008549 0.000000 0.005126 0.000000
# 3 -0.000638 -0.008549 0.024881 0.000000 0.002548 0.000000
# 4 0.000000 0.000000 0.000000 0.043418 0.000000 -0.021689
# 5 0.019882 0.005126 0.002548 0.000000 0.057946 0.000000
# 6 0.000000 0.000000 0.000000 -0.021689 0.000000 0.063473
#
#
# Mechanical properties :
#
#
# Convention : Reuss Voigt Hill
#
# Bulk Modulus (GPa) = 9.46451 12.20417 10.83434
# Shear Modulus (GPa) = 17.17810 21.96390 19.57100
#
# Velocity S-wave (km/s) = 2.83681 3.20773 3.02796
# Velocity P-wave (km/s) = 3.89409 4.40871 4.15937
#
# Compressibility (1/GPa) = 0.10565784
#
# Stress axis : x y z
#
# Youngs Moduli (GPa) = 30.98268 24.28473 40.19170
#
# Poissons Ratio (x) = -0.31203 0.02564
# Poissons Ratio (y) = -0.39809 0.34361
# Poissons Ratio (z) = 0.01977 0.20762
#
# Static dielectric constant tensor:
#      x y z
#    x 1.786000 0.000000 0.010710 
#    y 0.000000 1.855220 0.000000 
#    z 0.010710 0.000000 1.769200 
# 
# From -- ./inp_files/5922.got.cif
#   From: 2010.05.17/outbox.cif.g08.bks.cpg/sg4_3_cif.got.tgz:5922.got - 2010.06.03 18:43:04.
