data_PCOD9114082
_publ_section_title
;
Structure prediction by ZEFSAII (Michael W. Deem and Ramdas Pophale) SiO2 
 PCOD9114082
Probable space group: P 2
;
_chemical_formula_sum "Si O2"
_cell_formula_units_Z 10
_cell_length_a 15.208502
_cell_length_b 5.478397
_cell_length_c 10.304817
_cell_angle_alpha 90.000000
_cell_angle_beta 26.695468
_cell_angle_gamma 90.000000
_cell_volume 385.715151
_symmetry_space_group_name_H-M "P 2"
_symmetry_group_IT_number 3
_symmetry_cell_setting 'monoclinic'
loop_
_space_group_symop_operation_xyz
x,y,z
-x,y,-z
loop_
_atom_site_type_symbol
_atom_site_label
_atom_site_fract_x
_atom_site_fract_y
_atom_site_fract_z
Si Si1 0.399727 0.223740 0.360304
Si Si2 0.284787 0.911300 0.732753
Si Si3 0.326608 0.877491 0.144019
Si Si4 0.041430 0.184689 0.683263
Si Si5 0.728228 0.538925 0.029219
O O1 0.216465 0.327848 0.523853
O O2 0.311968 0.980319 0.546747
O O3 0.567606 0.123847 0.045307
O O4 0.515966 0.408894 0.298710
O O5 0.500000 0.981080 0.500000
O O6 0.247061 0.661724 0.861415
O O7 0.113304 0.083290 0.009518
O O8 0.145272 0.964652 0.469296
O O9 0.271355 0.731830 0.088217
O O10 0.500000 0.752071 0.000000
O O11 0.906572 0.354827 0.773648
#
# Coordination Sequence:
#
# PCOD9114082 Si02
#       5
#     2   2   2   2   2
#     4  11  26  50  73 108 151 190 247 308 365 439
#     4  12  25  47  73 108 148 195 241 306 365 433
#     4  10  25  48  75 108 151 192 244 307 369 437
#     4  11  27  49  76 109 149 195 245 306 369 437
#     4  12  26  48  81 105 150 196 251 297 374 436
#
# _framework density 25.925868000000001
#
# number of rings (size 3 to 8) (size 9 to 14) (size 15 to 20)
#    0.000    0.800    4.000    0.600    2.800   12.000 
#    3.600    2.000    0.000    0.000    0.000    0.000 
#    0.000    0.000    0.000    0.000    0.000    0.000 
#
# Total GULP energy -55958.237109 kJ/mol
# GULP energy per Si atom -5595.823711 kJ/mol
# Density = 2.586686 g / cm^3
# Si number density = 25.925868 Si / 1000 Ang^3
#
#
#
# Elastic Constant Matrix: (Units=GPa)
#
#
# Indices 1 2 3 4 5 6 
#
# 1 87.5585 38.0016 47.1406 0.0000 -17.1915 0.0000
# 2 38.0016 65.1117 30.5690 0.0000 -15.5728 0.0000
# 3 47.1406 30.5690 144.4170 0.0000 -21.0719 0.0000
# 4 0.0000 0.0000 0.0000 30.7473 0.0000 6.1191
# 5 -17.1915 -15.5728 -21.0719 0.0000 61.8310 0.0000
# 6 0.0000 0.0000 0.0000 6.1191 0.0000 9.9508
#
#
#
# Elastic Compliance Matrix: (Units=1/GPa)
#
#
# Indices 1 2 3 4 5 6 
#
# 1 0.017142 -0.007905 -0.003701 0.000000 0.001514 0.000000
# 2 -0.007905 0.021332 -0.001549 0.000000 0.002647 0.000000
# 3 -0.003701 -0.001549 0.008685 0.000000 0.001541 0.000000
# 4 0.000000 0.000000 0.000000 0.037058 0.000000 -0.022789
# 5 0.001514 0.002647 0.001541 0.000000 0.017786 0.000000
# 6 0.000000 0.000000 0.000000 -0.022789 0.000000 0.114508
#
#
# Mechanical properties :
#
#
# Convention : Reuss Voigt Hill
#
# Bulk Modulus (GPa) = 47.96391 58.72329 53.34360
# Shear Modulus (GPa) = 20.01833 32.59754 26.30794
#
# Velocity S-wave (km/s) = 2.78175 3.54974 3.18895
# Velocity P-wave (km/s) = 5.37197 6.28494 5.84631
#
# Compressibility (1/GPa) = 0.02084901
#
# Stress axis : x y z
#
# Youngs Moduli (GPa) = 58.33740 46.87797 115.13800
#
# Poissons Ratio (x) = 0.37056 0.42616
# Poissons Ratio (y) = 0.46114 0.17834
# Poissons Ratio (z) = 0.21592 0.07261
#
# Static dielectric constant tensor:
#      x y z
#    x 2.114100 0.000000 0.007020 
#    y 0.000000 2.059780 0.000000 
#    z 0.007020 0.000000 1.931960 
# 
# From -- ./inp_files/12329.got.cif
#   From: 2010.05.17/outbox.cif.g08.bks.cpg/sg3_7_cif.got.tgz:12329.got - 2010.06.03 18:33:08.
