data_PCOD9114574
_publ_section_title
;
Structure prediction by ZEFSAII (Michael W. Deem and Ramdas Pophale) SiO2 
 PCOD9114574
Probable space group: P 21
;
_chemical_formula_sum "Si O2"
_cell_formula_units_Z 14
_cell_length_a 10.148701
_cell_length_b 5.164544
_cell_length_c 18.232669
_cell_angle_alpha 90.000000
_cell_angle_beta 56.020252
_cell_angle_gamma 90.000000
_cell_volume 792.447324
_symmetry_space_group_name_H-M "P 21"
_symmetry_group_IT_number 4
_symmetry_cell_setting 'monoclinic'
loop_
_space_group_symop_operation_xyz
x,y,z
-x,1/2+y,-z
loop_
_atom_site_type_symbol
_atom_site_label
_atom_site_fract_x
_atom_site_fract_y
_atom_site_fract_z
Si Si1 0.582062 0.286810 0.180074
Si Si2 0.903045 0.723971 0.821373
Si Si3 0.617094 0.270578 0.728458
Si Si4 0.922423 0.219613 0.725900
Si Si5 0.955197 0.278343 0.061959
Si Si6 0.535393 0.849349 0.944601
Si Si7 0.059451 0.848588 0.441705
O O1 0.489750 0.518347 0.249696
O O2 0.767914 0.273981 0.138044
O O3 0.562389 0.349434 0.099985
O O4 0.492445 0.017984 0.223636
O O5 0.713357 0.751610 0.875505
O O6 0.951186 0.447279 0.774376
O O7 0.953162 0.762148 0.889521
O O8 0.967724 0.949180 0.747967
O O9 0.749084 0.324653 0.625043
O O10 0.734308 0.219160 0.761735
O O11 0.998458 0.282410 0.623080
O O12 0.000147 0.536570 0.003540
O O13 0.461394 0.632992 0.021060
O O14 0.991214 0.632552 0.517332
#
# Coordination Sequence:
#
# PCOD9114574 Si02
#       7
#     2   2   2   2   2   2   2
#     4  12  21  39  54  79 112 149 189 243 273 347
#     4  12  21  39  54  79 112 149 189 243 273 347
#     4  10  20  35  58  84 114 142 186 222 286 338
#     4  10  20  35  58  84 114 142 186 222 286 338
#     4  12  26  42  56  80 114 156 204 248 288 324
#     4  12  20  30  50  74  98 134 178 230 288 320
#     4  10  18  32  56  94 126 138 170 234 292 338
#
# _framework density 17.666788
#
# number of rings (size 3 to 8) (size 9 to 14) (size 15 to 20)
#    0.857    0.000    2.857    6.857    0.000    0.000 
#    0.000    0.000    0.000    0.000    0.000   20.000 
#    0.000    0.000    0.000    0.000    0.000    0.000 
#
# Total GULP energy -78151.012132 kJ/mol
# GULP energy per Si atom -5582.215152 kJ/mol
# Density = 1.762658 g / cm^3
# Si number density = 17.666788 Si / 1000 Ang^3
#
#
#
# Elastic Constant Matrix: (Units=GPa)
#
#
# Indices 1 2 3 4 5 6 
#
# 1 26.0323 9.4279 -2.6894 0.0000 -1.2657 0.0000
# 2 9.4279 59.4390 -14.3136 0.0000 -13.0318 0.0000
# 3 -2.6894 -14.3136 33.1563 0.0000 -2.0767 0.0000
# 4 0.0000 0.0000 0.0000 52.0768 0.0000 -4.9715
# 5 -1.2657 -13.0318 -2.0767 0.0000 26.2470 0.0000
# 6 0.0000 0.0000 0.0000 -4.9715 0.0000 19.4315
#
#
#
# Elastic Compliance Matrix: (Units=1/GPa)
#
#
# Indices 1 2 3 4 5 6 
#
# 1 0.040804 -0.006679 0.000344 0.000000 -0.001321 0.000000
# 2 -0.006679 0.022912 0.010092 0.000000 0.011852 0.000000
# 3 0.000344 0.010092 0.035033 0.000000 0.007799 0.000000
# 4 0.000000 0.000000 0.000000 0.019683 0.000000 0.005036
# 5 -0.001321 0.011852 0.007799 0.000000 0.044538 0.000000
# 6 0.000000 0.000000 0.000000 0.005036 0.000000 0.052751
#
#
# Mechanical properties :
#
#
# Convention : Reuss Voigt Hill
#
# Bulk Modulus (GPa) = 9.41069 11.49749 10.45409
# Shear Modulus (GPa) = 20.52296 27.96458 24.24377
#
# Velocity S-wave (km/s) = 3.41202 3.98287 3.70845
# Velocity P-wave (km/s) = 4.56737 5.26052 4.92615
#
# Compressibility (1/GPa) = 0.10626211
#
# Stress axis : x y z
#
# Youngs Moduli (GPa) = 24.50738 43.64486 28.54440
#
# Poissons Ratio (x) = 0.29151 -0.00981
# Poissons Ratio (y) = 0.16369 -0.28806
# Poissons Ratio (z) = -0.00842 -0.44045
#
# Static dielectric constant tensor:
#      x y z
#    x 1.566360 0.000000 -0.002800 
#    y 0.000000 1.601510 0.000000 
#    z -0.002800 0.000000 1.606670 
# 
# From -- ./inp_files/13541.got.cif
#   From: 2010.05.17/outbox.cif.g08.bks.cpg/sg4_7_cif.got.tgz:13541.got - 2010.06.03 18:43:04.
