data_PCOD9114810
_publ_section_title
;
Structure prediction by ZEFSAII (Michael W. Deem and Ramdas Pophale) SiO2 
 PCOD9114810
Probable space group: P 21
;
_chemical_formula_sum "Si O2"
_cell_formula_units_Z 16
_cell_length_a 18.632082
_cell_length_b 5.277519
_cell_length_c 31.262908
_cell_angle_alpha 90.000000
_cell_angle_beta 15.918504
_cell_angle_gamma 90.000000
_cell_volume 843.137803
_symmetry_space_group_name_H-M "P 21"
_symmetry_group_IT_number 4
_symmetry_cell_setting 'monoclinic'
loop_
_space_group_symop_operation_xyz
x,y,z
-x,1/2+y,-z
loop_
_atom_site_type_symbol
_atom_site_label
_atom_site_fract_x
_atom_site_fract_y
_atom_site_fract_z
Si Si1 0.169776 0.558810 0.412015
Si Si2 0.789508 0.779517 0.871861
Si Si3 0.105182 0.737384 0.539823
Si Si4 0.865210 0.280049 0.882363
Si Si5 0.745458 0.348934 0.795437
Si Si6 0.563022 0.956949 0.436863
Si Si7 0.594795 0.009329 0.806247
Si Si8 0.828141 0.459328 0.415027
O O1 0.233307 0.603207 0.425721
O O2 0.411520 0.569818 0.240289
O O3 0.023195 0.288928 0.491505
O O4 0.806409 0.496983 0.880822
O O5 0.973923 0.779459 0.724853
O O6 0.891199 0.005343 0.845375
O O7 0.490906 0.872991 0.035573
O O8 0.899109 0.569346 0.684219
O O9 0.900270 0.935574 0.637322
O O10 0.276822 0.851314 0.479688
O O11 0.141832 0.370288 0.742784
O O12 0.623680 0.307538 0.053910
O O13 0.582881 0.227604 0.848526
O O14 0.973512 0.180572 0.685036
O O15 0.444988 0.709208 0.529016
O O16 0.397767 0.019323 0.489135
#
# Coordination Sequence:
#
# PCOD9114810 Si02
#       8
#     2   2   2   2   2   2   2   2
#     4  10  19  34  57  84 119 150 185 237 296 361
#     4  11  23  37  56  83 117 154 185 241 285 354
#     4  10  20  35  53  85 117 150 186 233 299 359
#     4  11  21  39  60  82 113 148 205 240 283 337
#     4  10  21  34  52  84 119 144 183 229 296 353
#     4  12  24  43  58  82 113 160 209 245 282 342
#     4   9  19  35  56  87 112 149 186 240 290 351
#     4  11  25  35  56  81 118 159 191 239 293 347
#
# _framework density 18.97673
#
# number of rings (size 3 to 8) (size 9 to 14) (size 15 to 20)
#    0.000    1.500    5.000    0.000    5.250    0.000 
#    0.000    0.000    0.000    0.000    3.250    0.000 
#    0.000    0.000    0.000    0.000    0.000    0.000 
#
# Total GULP energy -89083.645726 kJ/mol
# GULP energy per Si atom -5567.727858 kJ/mol
# Density = 1.893354 g / cm^3
# Si number density = 18.976730 Si / 1000 Ang^3
#
#
#
# Elastic Constant Matrix: (Units=GPa)
#
#
# Indices 1 2 3 4 5 6 
#
# 1 112.2989 7.7105 47.6786 -0.0001 8.7095 0.0006
# 2 7.7105 58.6300 8.0378 0.0002 1.5439 0.0004
# 3 47.6786 8.0378 57.0710 -0.0001 -3.4519 -0.0008
# 4 -0.0001 0.0002 -0.0001 23.7345 0.0001 3.3750
# 5 8.7095 1.5439 -3.4519 0.0001 31.4892 -0.0001
# 6 0.0006 0.0004 -0.0008 3.3750 -0.0001 22.6120
#
#
#
# Elastic Compliance Matrix: (Units=1/GPa)
#
#
# Indices 1 2 3 4 5 6 
#
# 1 0.014669 -0.000062 -0.012575 0.000000 -0.005433 -0.000001
# 2 -0.000062 0.017432 -0.002470 0.000000 -0.001108 0.000000
# 3 -0.012575 -0.002470 0.028784 0.000000 0.006755 0.000001
# 4 0.000000 0.000000 0.000000 0.043046 0.000000 -0.006425
# 5 -0.005433 -0.001108 0.006755 0.000000 0.034054 0.000001
# 6 -0.000001 0.000000 0.000001 -0.006425 0.000001 0.045183
#
#
# Mechanical properties :
#
#
# Convention : Reuss Voigt Hill
#
# Bulk Modulus (GPa) = 32.60444 39.42818 36.01631
# Shear Modulus (GPa) = 22.36060 26.53870 24.44965
#
# Velocity S-wave (km/s) = 3.43639 3.74369 3.59333
# Velocity P-wave (km/s) = 5.74139 6.28563 6.01967
#
# Compressibility (1/GPa) = 0.03067067
#
# Stress axis : x y z
#
# Youngs Moduli (GPa) = 68.16926 57.36539 34.74160
#
# Poissons Ratio (x) = 0.00357 0.43688
# Poissons Ratio (y) = 0.00424 0.08582
# Poissons Ratio (z) = 0.85723 0.14170
#
# Static dielectric constant tensor:
#      x y z
#    x 1.806160 0.000000 0.038730 
#    y 0.000000 1.761670 0.000000 
#    z 0.038730 0.000000 1.698310 
# 
# From -- ./inp_files/11763.got.cif
#   From: 2010.05.17/outbox.cif.g08.bks.cpg/sg4_6_cif.got.tgz:11763.got - 2010.06.03 18:43:04.
