data_PCOD9114784
_publ_section_title
;
Structure prediction by ZEFSAII (Michael W. Deem and Ramdas Pophale) SiO2 
 PCOD9114784
Probable space group: P 21
;
_chemical_formula_sum "Si O2"
_cell_formula_units_Z 16
_cell_length_a 18.960465
_cell_length_b 9.348987
_cell_length_c 8.807237
_cell_angle_alpha 90.000000
_cell_angle_beta 147.331886
_cell_angle_gamma 90.000000
_cell_volume 842.681604
_symmetry_space_group_name_H-M "P 21"
_symmetry_group_IT_number 4
_symmetry_cell_setting 'monoclinic'
loop_
_space_group_symop_operation_xyz
x,y,z
-x,1/2+y,-z
loop_
_atom_site_type_symbol
_atom_site_label
_atom_site_fract_x
_atom_site_fract_y
_atom_site_fract_z
Si Si1 0.211178 0.786460 0.308644
Si Si2 0.218314 0.261615 0.413656
Si Si3 0.586809 0.956841 0.098402
Si Si4 0.316579 0.998478 0.749079
Si Si5 0.134550 0.550791 0.372214
Si Si6 0.870207 0.566242 0.020118
Si Si7 0.467396 0.788837 0.598668
Si Si8 0.354214 0.023766 0.162422
O O1 0.122038 0.659126 0.208460
O O2 0.338261 0.728586 0.449682
O O3 0.259521 0.870042 0.546484
O O4 0.153882 0.910519 0.098984
O O5 0.357040 0.344798 0.675067
O O6 0.228154 0.137399 0.557064
O O7 0.121268 0.389029 0.284442
O O8 0.187743 0.183863 0.201545
O O9 0.714300 0.054043 0.300186
O O10 0.547042 0.872663 0.874426
O O11 0.459028 0.030263 0.934029
O O12 0.331427 0.967429 0.951744
O O13 0.026101 0.584703 0.300649
O O14 0.784274 0.568557 0.014793
O O15 0.553031 0.662271 0.684545
O O16 0.419747 0.904793 0.389048
#
# Coordination Sequence:
#
# PCOD9114784 Si02
#       8
#     2   2   2   2   2   2   2   2
#     4   9  20  36  57  79 109 139 190 229 262 318
#     4   9  20  35  60  79 103 150 181 229 267 312
#     4   9  20  33  60  77 105 140 189 223 259 320
#     4  10  19  37  56  82 109 140 182 226 284 320
#     4  10  19  33  59  80 105 143 194 224 256 319
#     4  10  21  36  52  84 112 145 178 225 274 326
#     4  10  21  37  53  84 108 141 177 231 279 327
#     4  11  22  35  55  79 119 138 171 227 291 322
#
# _framework density 18.987003999999999
#
# number of rings (size 3 to 8) (size 9 to 14) (size 15 to 20)
#    0.750    1.500    1.250    2.250    3.500    1.000 
#    0.000    2.500    0.000    3.000    0.000    0.000 
#    0.000    0.000    0.000    0.000    0.000    0.000 
#
# Total GULP energy -89138.009031 kJ/mol
# GULP energy per Si atom -5571.125564 kJ/mol
# Density = 1.894379 g / cm^3
# Si number density = 18.987004 Si / 1000 Ang^3
#
#
#
# Elastic Constant Matrix: (Units=GPa)
#
#
# Indices 1 2 3 4 5 6 
#
# 1 120.6767 38.0296 27.9902 0.0000 11.2642 0.0000
# 2 38.0296 73.3061 7.6923 0.0000 9.9080 0.0000
# 3 27.9902 7.6923 37.1431 0.0000 -0.3058 0.0000
# 4 0.0000 0.0000 0.0000 10.9738 0.0000 4.4549
# 5 11.2642 9.9080 -0.3058 0.0000 24.2070 0.0000
# 6 0.0000 0.0000 0.0000 4.4549 0.0000 24.2153
#
#
#
# Elastic Compliance Matrix: (Units=1/GPa)
#
#
# Indices 1 2 3 4 5 6 
#
# 1 0.012057 -0.004904 -0.008101 0.000000 -0.003705 0.000000
# 2 -0.004904 0.016786 0.000181 0.000000 -0.004587 0.000000
# 3 -0.008101 0.000181 0.033024 0.000000 0.004112 0.000000
# 4 0.000000 0.000000 0.000000 0.098481 0.000000 -0.018118
# 5 -0.003705 -0.004587 0.004112 0.000000 0.044964 0.000000
# 6 0.000000 0.000000 0.000000 -0.018118 0.000000 0.044629
#
#
# Mechanical properties :
#
#
# Convention : Reuss Voigt Hill
#
# Bulk Modulus (GPa) = 27.60885 42.06113 34.83499
# Shear Modulus (GPa) = 17.38159 22.37348 19.87754
#
# Velocity S-wave (km/s) = 3.02892 3.43645 3.23910
# Velocity P-wave (km/s) = 5.17735 6.16005 5.68995
#
# Compressibility (1/GPa) = 0.03622027
#
# Stress axis : x y z
#
# Youngs Moduli (GPa) = 82.94081 59.57210 30.28133
#
# Poissons Ratio (x) = 0.29214 0.24530
# Poissons Ratio (y) = 0.40674 -0.00549
# Poissons Ratio (z) = 0.67187 -0.01080
#
# Static dielectric constant tensor:
#      x y z
#    x 1.632040 0.000000 0.034880 
#    y 0.000000 1.688010 0.000000 
#    z 0.034880 0.000000 1.679950 
# 
# From -- ./inp_files/9608.got.cif
#   From: 2010.05.17/outbox.cif.g08.bks.cpg/sg4_5_cif.got.tgz:9608.got - 2010.06.03 18:43:04.
