data_PCOD9114742
_publ_section_title
;
Structure prediction by ZEFSAII (Michael W. Deem and Ramdas Pophale) SiO2 
 PCOD9114742
Probable space group: P 21
;
_chemical_formula_sum "Si O2"
_cell_formula_units_Z 16
_cell_length_a 6.894600
_cell_length_b 5.214498
_cell_length_c 19.280972
_cell_angle_alpha 90.000000
_cell_angle_beta 65.754170
_cell_angle_gamma 90.000000
_cell_volume 632.042453
_symmetry_space_group_name_H-M "P 21"
_symmetry_group_IT_number 4
_symmetry_cell_setting 'monoclinic'
loop_
_space_group_symop_operation_xyz
x,y,z
-x,1/2+y,-z
loop_
_atom_site_type_symbol
_atom_site_label
_atom_site_fract_x
_atom_site_fract_y
_atom_site_fract_z
Si Si1 0.724797 0.028260 0.574685
Si Si2 0.970076 0.136574 0.814762
Si Si3 0.736966 0.793440 0.061011
Si Si4 0.954056 0.550473 0.344764
Si Si5 0.375389 0.037505 0.350408
Si Si6 0.246294 0.617273 0.801509
Si Si7 0.757131 0.273749 0.981354
Si Si8 0.878250 0.058397 0.398266
O O1 0.918112 0.016366 0.602091
O O2 0.585545 0.250586 0.629666
O O3 0.806045 0.101025 0.487193
O O4 0.640702 0.739942 0.584929
O O5 0.114275 0.389894 0.784399
O O6 0.907013 0.067759 0.745445
O O7 0.790233 0.246254 0.893294
O O8 0.104251 0.884426 0.825518
O O9 0.993098 0.765938 0.031170
O O10 0.690098 0.960127 0.137473
O O11 0.673269 0.513891 0.039693
O O12 0.662940 0.999819 0.015633
O O13 0.820913 0.291925 0.357907
O O14 0.804385 0.788453 0.381195
O O15 0.536546 0.154443 0.271597
O O16 0.135470 0.025947 0.354778
#
# Coordination Sequence:
#
# PCOD9114742 Si02
#       8
#     2   2   2   2   2   2   2   2
#     4  10  19  35  59  77  95 132 187 238 256 281
#     4  11  21  33  50  77 114 142 162 205 269 328
#     4   9  16  28  46  67  94 129 169 202 232 284
#     4  10  19  32  53  79 103 132 172 222 269 303
#     4  10  19  32  53  79 103 132 172 222 269 303
#     4  11  21  33  50  77 114 142 162 205 269 328
#     4   9  16  28  46  67  94 129 169 202 232 284
#     4  10  19  35  59  77  95 132 187 238 256 281
#
# _framework density 25.314754000000001
#
# number of rings (size 3 to 8) (size 9 to 14) (size 15 to 20)
#    0.000    2.000    0.000    9.000    0.000    0.000 
#    0.000    0.000    0.000   25.500    0.000   14.000 
#    0.000    8.000    0.000    0.000    0.000    0.000 
#
# Total GULP energy -89130.823211 kJ/mol
# GULP energy per Si atom -5570.676451 kJ/mol
# Density = 2.525714 g / cm^3
# Si number density = 25.314754 Si / 1000 Ang^3
#
#
#
# Elastic Constant Matrix: (Units=GPa)
#
#
# Indices 1 2 3 4 5 6 
#
# 1 48.0602 -66.0088 -54.4457 0.0000 23.6372 0.0000
# 2 -66.0088 104.1618 -77.0205 0.0000 43.6826 0.0000
# 3 -54.4457 -77.0205 -16.5738 0.0000 67.2693 0.0000
# 4 0.0000 0.0000 0.0000 46.9781 0.0000 0.3341
# 5 23.6372 43.6826 67.2693 0.0000 7.0019 0.0000
# 6 0.0000 0.0000 0.0000 0.3341 0.0000 -5.8930
#
#
#
# Elastic Compliance Matrix: (Units=1/GPa)
#
#
# Indices 1 2 3 4 5 6 
#
# 1 0.011388 0.000140 -0.004942 0.000000 0.008160 0.000000
# 2 0.000140 0.004908 -0.003737 0.000000 0.004812 0.000000
# 3 -0.004942 -0.003737 0.003391 0.000000 0.007422 0.000000
# 4 0.000000 0.000000 0.000000 0.021278 0.000000 0.001207
# 5 0.008160 0.004812 0.007422 0.000000 0.013943 0.000000
# 6 0.000000 0.000000 0.000000 0.001207 0.000000 -0.169624
#
#
# Mechanical properties :
#
#
# Convention : Reuss Voigt Hill
#
# Bulk Modulus (GPa) = 383.30671 -28.81132 177.24769
# Shear Modulus (GPa) = -51.66930 31.82559 -9.92186
#
# Velocity S-wave (km/s) = -4.52273 3.54954 -1.98189
# Velocity P-wave (km/s) = 11.15669 2.32229 8.05806
#
# Compressibility (1/GPa) = 0.00260888
#
# Stress axis : x y z
#
# Youngs Moduli (GPa) = 87.81179 203.75379 294.91476
#
# Poissons Ratio (x) = -0.02859 1.45747
# Poissons Ratio (y) = -0.01232 1.10216
# Poissons Ratio (z) = 0.43397 0.76147
#
# Static dielectric constant tensor:
#      x y z
#    x 2.118200 0.000000 0.004130 
#    y 0.000000 2.218610 0.000000 
#    z 0.004130 0.000000 1.997200 
# 
# From -- ./inp_files/14797.got.cif
#   From: 2010.05.17/outbox.cif.g08.bks.cpg/sg4_8_cif.got.tgz:14797.got - 2010.06.03 18:43:04.
