data_PCOD9114759
_publ_section_title
;
Structure prediction by ZEFSAII (Michael W. Deem and Ramdas Pophale) SiO2 
 PCOD9114759
Probable space group: P 21
;
_chemical_formula_sum "Si O2"
_cell_formula_units_Z 16
_cell_length_a 18.159600
_cell_length_b 4.917654
_cell_length_c 6.888275
_cell_angle_alpha 90.000000
_cell_angle_beta 69.844654
_cell_angle_gamma 90.000000
_cell_volume 577.470969
_symmetry_space_group_name_H-M "P 21"
_symmetry_group_IT_number 4
_symmetry_cell_setting 'monoclinic'
loop_
_space_group_symop_operation_xyz
x,y,z
-x,1/2+y,-z
loop_
_atom_site_type_symbol
_atom_site_label
_atom_site_fract_x
_atom_site_fract_y
_atom_site_fract_z
Si Si1 0.320640 0.218110 0.327372
Si Si2 0.575431 0.542366 0.236379
Si Si3 0.094472 0.111995 0.377521
Si Si4 0.482140 0.049268 0.262618
Si Si5 0.157061 0.708937 0.824099
Si Si6 0.775663 0.207304 0.648300
Si Si7 0.970765 0.127626 0.775344
Si Si8 0.260610 0.236740 0.807312
O O1 0.412334 0.192120 0.208947
O O2 0.266772 0.427852 0.255453
O O3 0.302607 0.311089 0.564310
O O4 0.294204 0.905025 0.352667
O O5 0.558607 0.238574 0.183628
O O6 0.552501 0.547232 0.485978
O O7 0.666293 0.626109 0.134177
O O8 0.510999 0.745172 0.205171
O O9 0.172882 0.933318 0.284781
O O10 0.037869 0.931366 0.297368
O O11 0.060202 0.074781 0.628060
O O12 0.083162 0.413185 0.300830
O O13 0.170703 0.634425 0.587393
O O14 0.213171 0.508182 0.897958
O O15 0.194454 0.006068 0.827377
O O16 0.069057 0.647974 0.978559
#
# Coordination Sequence:
#
# PCOD9114759 Si02
#       8
#     2   2   2   2   2   2   2   2
#     4   9  17  28  44  69 103 137 170 212 261 309
#     4   9  15  23  37  60  94 136 172 201 245 307
#     4  10  21  38  57  77 104 138 176 221 270 321
#     4   9  15  23  37  60  94 136 172 201 245 307
#     4  10  19  33  52  76 105 137 172 216 267 317
#     4  10  19  33  52  76 105 137 172 216 267 317
#     4  10  21  38  57  77 104 138 176 221 270 321
#     4   9  17  28  44  69 103 137 170 212 261 309
#
# _framework density 27.70702
#
# number of rings (size 3 to 8) (size 9 to 14) (size 15 to 20)
#    0.000    2.500    0.000    3.000    0.000    6.000 
#    0.000    7.500    0.000    0.000    0.000    0.000 
#    0.000   56.000    0.000    0.000    0.000    0.000 
#
# Total GULP energy -89401.147114 kJ/mol
# GULP energy per Si atom -5587.571695 kJ/mol
# Density = 2.764396 g / cm^3
# Si number density = 27.707020 Si / 1000 Ang^3
#
#
#
# Elastic Constant Matrix: (Units=GPa)
#
#
# Indices 1 2 3 4 5 6 
#
# 1 78.9545 12.8593 10.2318 0.0000 -8.0012 0.0000
# 2 12.8593 118.0927 -1.1019 0.0000 -6.7421 0.0000
# 3 10.2318 -1.1019 136.5218 0.0000 -12.3959 0.0000
# 4 0.0000 0.0000 0.0000 8.5850 0.0000 -7.1537
# 5 -8.0012 -6.7421 -12.3959 0.0000 29.5432 0.0000
# 6 0.0000 0.0000 0.0000 -7.1537 0.0000 41.7672
#
#
#
# Elastic Compliance Matrix: (Units=1/GPa)
#
#
# Indices 1 2 3 4 5 6 
#
# 1 0.013273 -0.001281 -0.000733 0.000000 0.002995 0.000000
# 2 -0.001281 0.008712 0.000328 0.000000 0.001779 0.000000
# 3 -0.000733 0.000328 0.007663 0.000000 0.003092 0.000000
# 4 0.000000 0.000000 0.000000 0.135875 0.000000 0.023272
# 5 0.002995 0.001779 0.003092 0.000000 0.036363 0.000000
# 6 0.000000 0.000000 0.000000 0.023272 0.000000 0.027928
#
#
# Mechanical properties :
#
#
# Convention : Reuss Voigt Hill
#
# Bulk Modulus (GPa) = 38.05914 41.94970 40.00442
# Shear Modulus (GPa) = 20.66587 36.75106 28.70847
#
# Velocity S-wave (km/s) = 2.73403 3.64595 3.22241
# Velocity P-wave (km/s) = 4.87162 5.73562 5.32118
#
# Compressibility (1/GPa) = 0.02627490
#
# Stress axis : x y z
#
# Youngs Moduli (GPa) = 75.34278 114.78367 130.49471
#
# Poissons Ratio (x) = 0.14706 0.09568
# Poissons Ratio (y) = 0.09653 -0.04278
# Poissons Ratio (z) = 0.05524 -0.03763
#
# Static dielectric constant tensor:
#      x y z
#    x 2.261660 0.000000 0.041950 
#    y 0.000000 2.035050 0.000000 
#    z 0.041950 0.000000 2.202020 
# 
# From -- ./inp_files/9418.got.cif
#   From: 2010.05.17/outbox.cif.g08.bks.cpg/sg4_5_cif.got.tgz:9418.got - 2010.06.03 18:43:04.
