data_PCOD9114035
_publ_section_title
;
Structure prediction by ZEFSAII (Michael W. Deem and Ramdas Pophale) SiO2 
 PCOD9114035
Probable space group: P 2
;
_chemical_formula_sum "Si O2"
_cell_formula_units_Z 16
_cell_length_a 9.325811
_cell_length_b 5.369316
_cell_length_c 27.219226
_cell_angle_alpha 90.000000
_cell_angle_beta 27.599226
_cell_angle_gamma 90.000000
_cell_volume 631.435081
_symmetry_space_group_name_H-M "P 2"
_symmetry_group_IT_number 3
_symmetry_cell_setting 'monoclinic'
loop_
_space_group_symop_operation_xyz
x,y,z
-x,y,-z
loop_
_atom_site_type_symbol
_atom_site_label
_atom_site_fract_x
_atom_site_fract_y
_atom_site_fract_z
Si Si1 0.835154 0.544160 0.998395
Si Si2 0.270154 0.200978 0.204848
Si Si3 0.151133 0.121986 0.345871
Si Si4 0.745093 0.620346 0.469691
Si Si5 0.649157 0.901510 0.617645
Si Si6 0.668019 0.304803 0.343362
Si Si7 0.591985 0.895763 0.924395
Si Si8 0.898082 0.540980 0.182799
O O1 0.535189 0.374968 0.101227
O O2 0.711780 0.797849 0.011502
O O3 0.000000 0.580802 0.000000
O O4 0.049510 0.449371 0.888568
O O5 0.352613 0.117451 0.234567
O O6 0.924083 0.309723 0.308209
O O7 0.223887 0.986354 0.178732
O O8 0.971126 0.382441 0.397774
O O9 0.307375 0.104523 0.351451
O O10 0.940691 0.873192 0.407081
O O11 0.500000 0.631179 0.500000
O O12 0.550392 0.539317 0.577596
O O13 0.402710 0.714934 0.717481
O O14 0.000000 0.808837 0.500000
O O15 0.528130 0.057361 0.607128
O O16 0.852139 0.329274 0.236726
O O17 0.803442 0.689358 0.886745
O O18 0.500000 0.062628 0.000000
#
# Coordination Sequence:
#
# PCOD9114035 Si02
#       8
#     2   2   2   2   2   2   2   2
#     4  11  28  49  74 111 153 202 267 341 416 479
#     4  12  27  46  78 110 155 210 270 336 404 499
#     4  12  30  48  80 116 162 210 267 339 400 478
#     4  12  27  50  78 114 161 211 272 326 406 483
#     4  12  27  48  75 119 163 213 271 333 409 476
#     4  12  26  45  80 109 158 213 271 328 401 494
#     4  10  24  46  74 106 146 201 268 329 401 483
#     4  11  26  47  79 107 156 210 266 334 402 489
#
# _framework density 25.339103000000001
#
# number of rings (size 3 to 8) (size 9 to 14) (size 15 to 20)
#    0.000    0.500    5.000    1.125   10.500    1.000 
#    0.000    0.000    0.000    0.000    0.000    0.000 
#    0.000    0.000    0.000    0.000    0.000    0.000 
#
# Total GULP energy -89402.694667 kJ/mol
# GULP energy per Si atom -5587.668417 kJ/mol
# Density = 2.528143 g / cm^3
# Si number density = 25.339103 Si / 1000 Ang^3
#
#
#
# Elastic Constant Matrix: (Units=GPa)
#
#
# Indices 1 2 3 4 5 6 
#
# 1 147.3027 7.6622 46.7715 0.0000 13.3874 0.0000
# 2 7.6622 64.0624 11.5963 0.0000 -1.9270 0.0000
# 3 46.7715 11.5963 111.5120 -0.0001 22.4143 0.0000
# 4 0.0000 0.0000 -0.0001 39.3573 0.0000 -15.1026
# 5 13.3874 -1.9270 22.4143 0.0000 59.9658 0.0000
# 6 0.0000 0.0000 0.0000 -15.1026 0.0000 20.3489
#
#
#
# Elastic Compliance Matrix: (Units=1/GPa)
#
#
# Indices 1 2 3 4 5 6 
#
# 1 0.007859 -0.000390 -0.003136 0.000000 -0.000595 0.000000
# 2 -0.000390 0.016012 -0.001754 0.000000 0.001257 0.000000
# 3 -0.003136 -0.001754 0.011176 0.000000 -0.003534 0.000000
# 4 0.000000 0.000000 0.000000 0.035526 0.000000 0.026367
# 5 -0.000595 0.001257 -0.003534 0.000000 0.018170 0.000000
# 6 0.000000 0.000000 0.000000 0.026367 0.000000 0.068711
#
#
# Mechanical properties :
#
#
# Convention : Reuss Voigt Hill
#
# Bulk Modulus (GPa) = 40.84057 50.54857 45.69457
# Shear Modulus (GPa) = 28.38062 41.05754 34.71908
#
# Velocity S-wave (km/s) = 3.35032 4.02969 3.70561
# Velocity P-wave (km/s) = 5.57842 6.45317 6.03167
#
# Compressibility (1/GPa) = 0.02448546
#
# Stress axis : x y z
#
# Youngs Moduli (GPa) = 127.24463 62.45399 89.47978
#
# Poissons Ratio (x) = 0.02437 0.28062
# Poissons Ratio (y) = 0.04965 0.15696
# Poissons Ratio (z) = 0.39905 0.10955
#
# Static dielectric constant tensor:
#      x y z
#    x 2.003100 0.000000 0.010780 
#    y 0.000000 2.089750 0.000000 
#    z 0.010780 0.000000 2.195700 
# 
# From -- ./inp_files/16477.got.cif
#   From: 2010.05.17/outbox.cif.g08.bks.cpg/sg3_9_cif.got.tgz:16477.got - 2010.06.03 18:33:08.
