data_PCOD9114619
_publ_section_title
;
Structure prediction by ZEFSAII (Michael W. Deem and Ramdas Pophale) SiO2 
 PCOD9114619
Probable space group: P 21
;
_chemical_formula_sum "Si O2"
_cell_formula_units_Z 10
_cell_length_a 6.994201
_cell_length_b 4.931128
_cell_length_c 18.485503
_cell_angle_alpha 90.000000
_cell_angle_beta 40.823943
_cell_angle_gamma 90.000000
_cell_volume 416.791300
_symmetry_space_group_name_H-M "P 21"
_symmetry_group_IT_number 4
_symmetry_cell_setting 'monoclinic'
loop_
_space_group_symop_operation_xyz
x,y,z
-x,1/2+y,-z
loop_
_atom_site_type_symbol
_atom_site_label
_atom_site_fract_x
_atom_site_fract_y
_atom_site_fract_z
Si Si1 0.848942 0.263940 0.575529
Si Si2 0.730318 0.285067 0.770234
Si Si3 0.918171 0.728912 0.905527
Si Si4 0.188746 0.242813 0.770234
Si Si5 0.540279 0.298967 0.094473
O O1 0.854685 0.360648 0.657258
O O2 0.516282 0.167231 0.657258
O O3 0.937440 0.513940 0.500000
O O4 0.474922 0.493521 0.870263
O O5 0.972805 0.263940 0.763598
O O6 0.619353 0.977150 0.798997
O O7 0.656675 0.763940 0.921663
O O8 0.184657 0.550729 0.798997
O O9 0.792141 0.513940 0.000000
O O10 0.044025 0.034359 0.870263
#
# Coordination Sequence:
#
# PCOD9114619 Si02
#       5
#     2   2   2   2   2
#     4  12  26  44  64  86 120 164 214 272 318 352
#     4  10  22  39  62  91 123 158 203 252 303 369
#     4  10  18  34  62  94 126 162 196 237 301 373
#     4  10  22  39  62  91 123 158 203 252 303 369
#     4  10  18  34  62  94 126 162 196 237 301 373
#
# _framework density 23.992823999999999
#
# number of rings (size 3 to 8) (size 9 to 14) (size 15 to 20)
#    0.000    1.600    0.000    7.200    0.000    1.600 
#    0.000    4.000    0.000    9.600    0.000    0.000 
#    0.000    0.000    0.000    0.000    0.000    0.000 
#
# Total GULP energy -55751.515195 kJ/mol
# GULP energy per Si atom -5575.151519 kJ/mol
# Density = 2.393821 g / cm^3
# Si number density = 23.992824 Si / 1000 Ang^3
#
#
#
# Elastic Constant Matrix: (Units=GPa)
#
#
# Indices 1 2 3 4 5 6 
#
# 1 114.5863 14.1136 30.2227 0.0000 -0.2508 0.0000
# 2 14.1136 191.8192 51.9031 0.0000 0.2707 0.0000
# 3 30.2227 51.9031 111.0869 0.0000 0.2256 0.0000
# 4 0.0000 0.0000 0.0000 58.0969 0.0000 0.3749
# 5 -0.2508 0.2707 0.2256 0.0000 24.6760 0.0000
# 6 0.0000 0.0000 0.0000 0.3749 0.0000 5.7137
#
#
#
# Elastic Compliance Matrix: (Units=1/GPa)
#
#
# Indices 1 2 3 4 5 6 
#
# 1 0.009402 0.000000 -0.002558 0.000000 0.000119 0.000000
# 2 0.000000 0.005968 -0.002788 0.000000 -0.000040 0.000000
# 3 -0.002558 -0.002788 0.011001 0.000000 -0.000096 0.000000
# 4 0.000000 0.000000 0.000000 0.017220 0.000000 -0.001130
# 5 0.000119 -0.000040 -0.000096 0.000000 0.040528 0.000000
# 6 0.000000 0.000000 0.000000 -0.001130 0.000000 0.175091
#
#
# Mechanical properties :
#
#
# Convention : Reuss Voigt Hill
#
# Bulk Modulus (GPa) = 63.78338 67.77457 65.77898
# Shear Modulus (GPa) = 18.17337 39.11420 28.64378
#
# Velocity S-wave (km/s) = 2.75517 4.04201 3.45896
# Velocity P-wave (km/s) = 6.06328 7.07764 6.59000
#
# Compressibility (1/GPa) = 0.01567807
#
# Stress axis : x y z
#
# Youngs Moduli (GPa) = 106.35986 167.56743 90.90112
#
# Poissons Ratio (x) = -0.00005 0.23256
# Poissons Ratio (y) = -0.00003 0.25346
# Poissons Ratio (z) = 0.27210 0.46723
#
# Static dielectric constant tensor:
#      x y z
#    x 1.975300 0.000000 -0.000510 
#    y 0.000000 1.857110 0.000000 
#    z -0.000510 0.000000 1.904130 
# 
# From -- ./inp_files/15536.got.cif
#   From: 2010.05.17/outbox.cif.g08.bks.cpg/sg4_8_cif.got.tgz:15536.got - 2010.06.03 18:43:04.
