data_PCOD9114377
_publ_section_title
;
Structure prediction by ZEFSAII (Michael W. Deem and Ramdas Pophale) SiO2 
 PCOD9114377
Probable space group: P 2
;
_chemical_formula_sum "Si O2"
_cell_formula_units_Z 14
_cell_length_a 14.290015
_cell_length_b 6.281650
_cell_length_c 18.187428
_cell_angle_alpha 90.000000
_cell_angle_beta 157.104939
_cell_angle_gamma 90.000000
_cell_volume 635.151067
_symmetry_space_group_name_H-M "P 2"
_symmetry_group_IT_number 3
_symmetry_cell_setting 'monoclinic'
loop_
_space_group_symop_operation_xyz
x,y,z
-x,y,-z
loop_
_atom_site_type_symbol
_atom_site_label
_atom_site_fract_x
_atom_site_fract_y
_atom_site_fract_z
Si Si1 0.857755 0.228530 0.962794
Si Si2 0.283092 0.903145 0.012296
Si Si3 0.111697 0.584951 0.234178
Si Si4 0.754960 0.814231 0.291971
Si Si5 0.500000 0.490685 0.000000
Si Si6 0.500000 0.935279 0.500000
Si Si7 0.365154 0.270079 0.530308
Si Si8 0.882513 0.131514 0.254406
O O1 0.606143 0.317794 0.749977
O O2 0.803750 0.073351 0.990979
O O3 0.000000 0.113563 0.000000
O O4 0.038511 0.410767 0.121404
O O5 0.570499 0.886557 0.221259
O O6 0.209279 0.983584 0.878284
O O7 0.138728 0.686404 0.920666
O O8 0.277061 0.776587 0.325079
O O9 0.256804 0.464800 0.404173
O O10 0.606353 0.640889 0.139444
O O11 0.830917 0.007325 0.292845
O O12 0.000000 0.719775 0.500000
O O13 0.716582 0.339710 0.131536
O O14 0.431494 0.085467 0.519125
O O15 0.155884 0.189949 0.433412
#
# Coordination Sequence:
#
# PCOD9114377 Si02
#       8
#     2   2   2   2   1   1   2   2
#     4  12  27  46  70 107 144 186 244 299 355 422
#     4  12  24  49  74 101 151 190 234 298 361 417
#     4  12  25  45  74 100 142 187 242 294 356 423
#     4  12  27  46  73 112 142 189 243 290 354 429
#     4  12  24  46  76 102 148 186 238 296 354 422
#     4  12  24  46  74  96 144 188 234 296 360 420
#     4  12  26  46  71 105 138 189 238 292 356 425
#     4  12  24  48  75 103 149 189 233 296 362 418
#
# _framework density 22.042000999999999
#
# number of rings (size 3 to 8) (size 9 to 14) (size 15 to 20)
#    0.000    0.000    5.714    4.714    0.000    4.571 
#    0.000    1.429    0.000    0.000    0.000    0.000 
#    0.000    0.000    0.000    0.000    0.000    0.000 
#
# Total GULP energy -78403.766798 kJ/mol
# GULP energy per Si atom -5600.269057 kJ/mol
# Density = 2.199183 g / cm^3
# Si number density = 22.042001 Si / 1000 Ang^3
#
#
#
# Elastic Constant Matrix: (Units=GPa)
#
#
# Indices 1 2 3 4 5 6 
#
# 1 79.7842 37.9875 34.9272 0.0000 26.3714 0.0000
# 2 37.9875 79.9486 15.7355 0.0000 2.6239 0.0000
# 3 34.9272 15.7355 124.1416 0.0000 6.9586 0.0000
# 4 0.0000 0.0000 0.0000 26.2123 0.0000 23.2890
# 5 26.3714 2.6239 6.9586 0.0000 46.7636 0.0000
# 6 0.0000 0.0000 0.0000 23.2890 0.0000 19.9214
#
#
#
# Elastic Compliance Matrix: (Units=1/GPa)
#
#
# Indices 1 2 3 4 5 6 
#
# 1 0.023029 -0.009651 -0.004597 0.000000 -0.011761 0.000000
# 2 -0.009651 0.016884 0.000326 0.000000 0.004447 0.000000
# 3 -0.004597 0.000326 0.009240 0.000000 0.001199 0.000000
# 4 0.000000 0.000000 0.000000 -0.986789 0.000000 1.153596
# 5 -0.011761 0.004447 0.001199 0.000000 0.027589 0.000000
# 6 0.000000 0.000000 0.000000 1.153596 0.000000 -1.298404
#
#
# Mechanical properties :
#
#
# Convention : Reuss Voigt Hill
#
# Bulk Modulus (GPa) = 46.92890 51.24164 49.08527
# Shear Modulus (GPa) = -2.30043 31.59442 14.64699
#
# Velocity S-wave (km/s) = -1.02270 3.79010 2.58059
# Velocity P-wave (km/s) = 4.46568 6.51543 5.58539
#
# Compressibility (1/GPa) = 0.02130883
#
# Stress axis : x y z
#
# Youngs Moduli (GPa) = 43.42384 59.22840 108.22483
#
# Poissons Ratio (x) = 0.57164 0.49746
# Poissons Ratio (y) = 0.41910 -0.03529
# Poissons Ratio (z) = 0.19960 -0.01931
#
# Static dielectric constant tensor:
#      x y z
#    x 1.850290 0.000000 0.048910 
#    y 0.000000 1.798550 0.000000 
#    z 0.048910 0.000000 1.837360 
# 
# From -- ./inp_files/16051.got.cif
#   From: 2010.05.17/outbox.cif.g08.bks.cpg/sg3_9_cif.got.tgz:16051.got - 2010.06.03 18:33:08.
