data_PCOD9114848
_publ_section_title
;
Structure prediction by ZEFSAII (Michael W. Deem and Ramdas Pophale) SiO2 
 PCOD9114848
Probable space group: P 21
;
_chemical_formula_sum "Si O2"
_cell_formula_units_Z 14
_cell_length_a 8.226714
_cell_length_b 7.927002
_cell_length_c 12.405275
_cell_angle_alpha 90.000000
_cell_angle_beta 43.339427
_cell_angle_gamma 90.000000
_cell_volume 555.223426
_symmetry_space_group_name_H-M "P 21"
_symmetry_group_IT_number 4
_symmetry_cell_setting 'monoclinic'
loop_
_space_group_symop_operation_xyz
x,y,z
-x,1/2+y,-z
loop_
_atom_site_type_symbol
_atom_site_label
_atom_site_fract_x
_atom_site_fract_y
_atom_site_fract_z
Si Si1 0.418923 0.866140 0.393538
Si Si2 0.376968 0.541947 0.920742
Si Si3 0.660882 0.012727 0.638892
Si Si4 0.624742 0.709330 0.494147
Si Si5 0.098253 0.976331 0.934472
Si Si6 0.700948 0.839848 0.830713
Si Si7 0.066247 0.661602 0.801710
O O1 0.270634 0.700194 0.431669
O O2 0.617411 0.790180 0.379341
O O3 0.527496 0.944732 0.231519
O O4 0.286434 0.020237 0.520999
O O5 0.516440 0.714456 0.863928
O O6 0.410376 0.434621 0.012953
O O7 0.098523 0.575285 0.041120
O O8 0.373017 0.017907 0.786366
O O9 0.711012 0.857582 0.532572
O O10 0.763250 0.969792 0.706315
O O11 0.342850 0.670655 0.644702
O O12 0.042162 0.796849 0.909330
O O13 0.035541 0.998368 0.090100
O O14 0.908011 0.725486 0.780548
#
# Coordination Sequence:
#
# PCOD9114848 Si02
#       7
#     2   2   2   2   2   2   2
#     4  12  22  41  66  91 120 172 220 269 303 375
#     4  11  21  37  62  93 133 166 210 259 329 381
#     4  11  22  39  66  93 129 161 211 265 324 385
#     4  11  23  41  65  90 122 166 226 265 306 372
#     4  10  19  35  60  91 121 161 208 263 310 373
#     4  11  22  38  60  96 137 165 199 266 341 387
#     4  10  21  37  59  92 130 161 212 269 313 387
#
# _framework density 25.215071999999999
#
# number of rings (size 3 to 8) (size 9 to 14) (size 15 to 20)
#    0.000    1.143    4.286    4.286    0.000    0.000 
#    0.000    1.429    0.000    0.000    0.000    0.000 
#    0.000    0.000    0.000    0.000    0.000    0.000 
#
# Total GULP energy -78275.890892 kJ/mol
# GULP energy per Si atom -5591.135064 kJ/mol
# Density = 2.515768 g / cm^3
# Si number density = 25.215072 Si / 1000 Ang^3
#
#
#
# Elastic Constant Matrix: (Units=GPa)
#
#
# Indices 1 2 3 4 5 6 
#
# 1 85.1174 57.5897 34.8027 0.0000 23.5936 0.0000
# 2 57.5897 161.6626 52.1786 0.0000 22.9460 0.0000
# 3 34.8027 52.1786 88.7415 0.0000 45.2281 0.0000
# 4 0.0000 0.0000 0.0000 46.9243 0.0000 30.2084
# 5 23.5936 22.9460 45.2281 0.0000 50.9515 0.0000
# 6 0.0000 0.0000 0.0000 30.2084 0.0000 43.9766
#
#
#
# Elastic Compliance Matrix: (Units=1/GPa)
#
#
# Indices 1 2 3 4 5 6 
#
# 1 0.016881 -0.004901 -0.001606 0.000000 -0.004184 0.000000
# 2 -0.004901 0.009086 -0.004550 0.000000 0.002217 0.000000
# 3 -0.001606 -0.004550 0.024015 0.000000 -0.018525 0.000000
# 4 0.000000 0.000000 0.000000 0.038207 0.000000 -0.026245
# 5 -0.004184 0.002217 -0.018525 0.000000 0.037010 0.000000
# 6 0.000000 0.000000 0.000000 -0.026245 0.000000 0.040767
#
#
# Mechanical properties :
#
#
# Convention : Reuss Voigt Hill
#
# Bulk Modulus (GPa) = 35.88413 69.40707 52.64560
# Shear Modulus (GPa) = 25.33328 41.10051 33.21689
#
# Velocity S-wave (km/s) = 3.17312 4.04170 3.63346
# Velocity P-wave (km/s) = 5.26185 7.02611 6.20698
#
# Compressibility (1/GPa) = 0.02786747
#
# Stress axis : x y z
#
# Youngs Moduli (GPa) = 59.23761 110.06417 41.64063
#
# Poissons Ratio (x) = 0.53947 0.06688
# Poissons Ratio (y) = 0.29035 0.18945
# Poissons Ratio (z) = 0.09514 0.50075
#
# Static dielectric constant tensor:
#      x y z
#    x 1.976890 0.000000 -0.005130 
#    y 0.000000 2.168130 0.000000 
#    z -0.005130 0.000000 2.025740 
# 
# From -- ./inp_files/7871.got.cif
#   From: 2010.05.17/outbox.cif.g08.bks.cpg/sg4_4_cif.got.tgz:7871.got - 2010.06.03 18:43:04.
