data_PCOD9114846
_publ_section_title
;
Structure prediction by ZEFSAII (Michael W. Deem and Ramdas Pophale) SiO2 
 PCOD9114846
Probable space group: P 21
;
_chemical_formula_sum "Si O2"
_cell_formula_units_Z 16
_cell_length_a 10.351797
_cell_length_b 8.735334
_cell_length_c 11.443133
_cell_angle_alpha 90.000000
_cell_angle_beta 37.756206
_cell_angle_gamma 90.000000
_cell_volume 633.587409
_symmetry_space_group_name_H-M "P 21"
_symmetry_group_IT_number 4
_symmetry_cell_setting 'monoclinic'
loop_
_space_group_symop_operation_xyz
x,y,z
-x,1/2+y,-z
loop_
_atom_site_type_symbol
_atom_site_label
_atom_site_fract_x
_atom_site_fract_y
_atom_site_fract_z
Si Si1 0.826237 0.246230 0.968152
Si Si2 0.080966 0.661235 0.358403
Si Si3 0.867997 0.147416 0.256200
Si Si4 0.605516 0.572754 0.713860
Si Si5 0.990852 0.460627 0.040335
Si Si6 0.308513 0.110802 0.014829
Si Si7 0.379800 0.756679 0.364614
Si Si8 0.604672 0.904526 0.915785
O O1 0.595413 0.178460 0.159597
O O2 0.000397 0.115027 0.886205
O O3 0.868167 0.253643 0.797862
O O4 0.843671 0.393668 0.040517
O O5 0.213061 0.717236 0.377948
O O6 0.832180 0.653399 0.559686
O O7 0.176214 0.492770 0.259595
O O8 0.831819 0.025691 0.178687
O O9 0.674567 0.169972 0.478619
O O10 0.961655 0.312373 0.144273
O O11 0.061630 0.090684 0.197823
O O12 0.633149 0.436566 0.600869
O O13 0.522562 0.469785 0.882016
O O14 0.391471 0.202163 0.842475
O O15 0.369474 0.228030 0.076018
O O16 0.455951 0.963617 0.919579
#
# Coordination Sequence:
#
# PCOD9114846 Si02
#       8
#     2   2   2   2   2   2   2   2
#     4  10  22  43  65  90 128 170 219 270 320 382
#     4  10  20  35  59  92 126 161 205 262 326 384
#     4  11  22  43  65  87 124 167 214 269 322 382
#     4  10  19  35  59  89 127 170 209 257 326 388
#     4  10  23  43  65  87 121 172 220 266 315 370
#     4  10  20  36  58  88 124 164 206 253 320 385
#     4  10  21  36  62  95 125 163 210 264 329 389
#     4   9  19  33  55  86 125 163 199 251 316 392
#
# _framework density 25.253025999999998
#
# number of rings (size 3 to 8) (size 9 to 14) (size 15 to 20)
#    0.000    2.000    0.000    4.500    0.000    5.000 
#    0.000   16.250    0.000    0.000    0.000    0.000 
#    0.000    0.000    0.000    0.000    0.000    0.000 
#
# Total GULP energy -89146.348910 kJ/mol
# GULP energy per Si atom -5571.646807 kJ/mol
# Density = 2.519555 g / cm^3
# Si number density = 25.253026 Si / 1000 Ang^3
#
#
#
# Elastic Constant Matrix: (Units=GPa)
#
#
# Indices 1 2 3 4 5 6 
#
# 1 62.9752 8.1563 20.1714 0.0000 3.3602 0.0000
# 2 8.1563 97.1286 11.2862 0.0000 -4.9005 0.0000
# 3 20.1714 11.2862 136.7388 0.0000 -10.2857 0.0000
# 4 0.0000 0.0000 0.0000 28.2538 0.0000 8.3422
# 5 3.3602 -4.9005 -10.2857 0.0000 36.3685 0.0000
# 6 0.0000 0.0000 0.0000 8.3422 0.0000 43.7153
#
#
#
# Elastic Compliance Matrix: (Units=1/GPa)
#
#
# Indices 1 2 3 4 5 6 
#
# 1 0.017003 -0.001252 -0.002591 0.000000 -0.002472 0.000000
# 2 -0.001252 0.010538 -0.000582 0.000000 0.001371 0.000000
# 3 -0.002591 -0.000582 0.007924 0.000000 0.002402 0.000000
# 4 0.000000 0.000000 0.000000 0.037507 0.000000 -0.007157
# 5 -0.002472 0.001371 0.002402 0.000000 0.028589 0.000000
# 6 0.000000 0.000000 0.000000 -0.007157 0.000000 0.024241
#
#
# Mechanical properties :
#
#
# Convention : Reuss Voigt Hill
#
# Bulk Modulus (GPa) = 37.57152 41.78562 39.67857
# Shear Modulus (GPa) = 34.83777 38.81611 36.82694
#
# Velocity S-wave (km/s) = 3.71826 3.92482 3.82294
# Velocity P-wave (km/s) = 5.77445 6.09276 5.93574
#
# Compressibility (1/GPa) = 0.02661591
#
# Stress axis : x y z
#
# Youngs Moduli (GPa) = 58.81255 94.89902 126.19655
#
# Poissons Ratio (x) = 0.11877 0.32697
# Poissons Ratio (y) = 0.07360 0.07345
# Poissons Ratio (z) = 0.15238 0.05523
#
# Static dielectric constant tensor:
#      x y z
#    x 2.129560 0.000000 0.051800 
#    y 0.000000 2.173700 0.000000 
#    z 0.051800 0.000000 1.939740 
# 
# From -- ./inp_files/12111.got.cif
#   From: 2010.05.17/outbox.cif.g08.bks.cpg/sg4_7_cif.got.tgz:12111.got - 2010.06.03 18:43:04.
