data_PCOD9114510
_publ_section_title
;
Structure prediction by ZEFSAII (Michael W. Deem and Ramdas Pophale) SiO2 
 PCOD9114510
Probable space group: P 21
;
_chemical_formula_sum "Si O2"
_cell_formula_units_Z 16
_cell_length_a 7.316925
_cell_length_b 11.206045
_cell_length_c 9.598361
_cell_angle_alpha 90.000000
_cell_angle_beta 134.430444
_cell_angle_gamma 90.000000
_cell_volume 562.001628
_symmetry_space_group_name_H-M "P 21"
_symmetry_group_IT_number 4
_symmetry_cell_setting 'monoclinic'
loop_
_space_group_symop_operation_xyz
x,y,z
-x,1/2+y,-z
loop_
_atom_site_type_symbol
_atom_site_label
_atom_site_fract_x
_atom_site_fract_y
_atom_site_fract_z
Si Si1 0.680961 0.930680 0.459587
Si Si2 0.025913 0.681177 0.817726
Si Si3 0.789182 0.930173 0.100674
Si Si4 0.789183 0.432180 0.100674
Si Si5 0.444029 0.681177 0.606512
Si Si6 0.680962 0.431674 0.459587
Si Si7 0.950543 0.681177 0.173997
Si Si8 0.767331 0.681177 0.395082
O O1 0.499999 0.931177 0.499999
O O2 0.636222 0.807629 0.357546
O O3 0.979271 0.935532 0.661589
O O4 0.619637 0.056141 0.354378
O O5 0.157256 0.559681 0.936433
O O6 0.157256 0.802673 0.936434
O O7 0.732403 0.681177 0.708626
O O8 0.997588 0.681177 0.633520
O O9 0.855410 0.805484 0.058167
O O10 0.020728 0.926822 0.338411
O O11 0.500000 0.931177 1.000000
O O12 0.855410 0.556869 0.058167
O O13 0.380363 0.806212 0.645622
O O14 0.251560 0.681177 0.369134
O O15 0.636223 0.554725 0.357547
O O16 0.831967 0.681177 0.267179
#
# Coordination Sequence:
#
# PCOD9114510 Si02
#       8
#     2   2   2   2   2   2   2   2
#     4  10  17  33  57  85 108 146 192 229 275 324
#     4  10  19  34  57  82 112 146 194 234 275 324
#     4  10  20  34  56  84 114 147 186 226 278 338
#     4  10  20  34  56  84 114 147 186 226 278 338
#     4  10  18  32  52  87 109 140 195 228 271 322
#     4  10  17  33  57  85 108 146 192 229 275 324
#     4  10  23  34  54  89 116 144 188 236 292 319
#     4  10  20  34  55  86 119 140 181 252 280 319
#
# _framework density 28.469667999999999
#
# number of rings (size 3 to 8) (size 9 to 14) (size 15 to 20)
#    0.000    2.000    5.000    0.750    0.000    9.000 
#    0.000    0.000    0.000    1.500   13.000    0.000 
#    0.000    0.000    0.000    0.000    0.000    0.000 
#
# Total GULP energy -89623.295960 kJ/mol
# GULP energy per Si atom -5601.455997 kJ/mol
# Density = 2.840487 g / cm^3
# Si number density = 28.469668 Si / 1000 Ang^3
#
#
#
# Elastic Constant Matrix: (Units=GPa)
#
#
# Indices 1 2 3 4 5 6 
#
# 1 131.8856 60.2255 48.3926 0.0000 23.5642 0.0000
# 2 60.2255 373.4626 66.9169 0.0000 41.1440 0.0000
# 3 48.3926 66.9169 235.2221 0.0000 35.7362 0.0000
# 4 0.0000 0.0000 0.0000 4.2435 0.0000 49.2007
# 5 23.5642 41.1440 35.7362 0.0000 62.3926 0.0000
# 6 0.0000 0.0000 0.0000 49.2007 0.0000 16.3747
#
#
#
# Elastic Compliance Matrix: (Units=1/GPa)
#
#
# Indices 1 2 3 4 5 6 
#
# 1 0.008840 -0.000986 -0.001237 0.000000 -0.001980 0.000000
# 2 -0.000986 0.003072 -0.000460 0.000000 -0.001390 0.000000
# 3 -0.001237 -0.000460 0.004950 0.000000 -0.002065 0.000000
# 4 0.000000 0.000000 0.000000 -0.006964 0.000000 0.020926
# 5 -0.001980 -0.001390 -0.002065 0.000000 0.018875 0.000000
# 6 0.000000 0.000000 0.000000 0.020926 0.000000 -0.001805
#
#
# Mechanical properties :
#
#
# Convention : Reuss Voigt Hill
#
# Bulk Modulus (GPa) = 86.98334 121.29339 104.13836
# Shear Modulus (GPa) = 138.24750 54.27117 96.25934
#
# Velocity S-wave (km/s) = 6.97603 4.37083 5.82105
# Velocity P-wave (km/s) = 9.77272 8.25646 9.04641
#
# Compressibility (1/GPa) = 0.01149646
#
# Stress axis : x y z
#
# Youngs Moduli (GPa) = 113.11832 325.50164 202.00239
#
# Poissons Ratio (x) = 0.32086 0.24998
# Poissons Ratio (y) = 0.11151 0.09292
# Poissons Ratio (z) = 0.13998 0.14973
#
# Static dielectric constant tensor:
#      x y z
#    x 2.215320 0.000000 -0.033780 
#    y 0.000000 2.284970 0.000000 
#    z -0.033780 0.000000 2.154190 
# 
# From -- ./inp_files/15008.got.cif
#   From: 2010.05.17/outbox.cif.g08.bks.cpg/sg4_8_cif.got.tgz:15008.got - 2010.06.03 18:43:04.
