data_PCOD9114950
_publ_section_title
;
Structure prediction by ZEFSAII (Michael W. Deem and Ramdas Pophale) SiO2 
 PCOD9114950
Probable space group: P 21
;
_chemical_formula_sum "Si O2"
_cell_formula_units_Z 14
_cell_length_a 12.153438
_cell_length_b 7.580035
_cell_length_c 8.923380
_cell_angle_alpha 90.000000
_cell_angle_beta 132.805518
_cell_angle_gamma 90.000000
_cell_volume 603.110945
_symmetry_space_group_name_H-M "P 21"
_symmetry_group_IT_number 4
_symmetry_cell_setting 'monoclinic'
loop_
_space_group_symop_operation_xyz
x,y,z
-x,1/2+y,-z
loop_
_atom_site_type_symbol
_atom_site_label
_atom_site_fract_x
_atom_site_fract_y
_atom_site_fract_z
Si Si1 0.588164 0.572090 0.406372
Si Si2 0.274467 0.412730 0.544325
Si Si3 0.517073 0.687554 0.673686
Si Si4 0.028358 0.603714 0.472246
Si Si5 0.953066 0.826376 0.941287
Si Si6 0.076708 0.964266 0.340032
Si Si7 0.174646 0.009386 0.981695
O O1 0.619325 0.742275 0.329207
O O2 0.533432 0.663260 0.509430
O O3 0.489180 0.395409 0.288915
O O4 0.756989 0.492956 0.569627
O O5 0.371756 0.582797 0.592123
O O6 0.169448 0.473003 0.583512
O O7 0.167852 0.373128 0.299536
O O8 0.656375 0.574018 0.864637
O O9 0.071657 0.786945 0.434274
O O10 0.972967 0.613699 0.590076
O O11 0.895439 0.525690 0.246752
O O12 0.908201 0.649794 0.986335
O O13 0.962927 0.947763 0.098294
O O14 0.115550 0.833530 0.009340
#
# Coordination Sequence:
#
# PCOD9114950 Si02
#       7
#     2   2   2   2   2   2   2
#     4  12  22  37  65  96 133 168 214 266 332 389
#     4  11  22  40  67  98 131 173 212 275 327 399
#     4  12  22  39  64  95 135 171 212 264 339 390
#     4  10  23  40  67  93 131 171 224 271 326 386
#     4  10  19  37  62  95 124 162 220 269 323 377
#     4  11  21  39  65  96 128 173 218 277 324 387
#     4  10  21  38  62  95 130 164 216 278 319 396
#
# _framework density 23.212975
#
# number of rings (size 3 to 8) (size 9 to 14) (size 15 to 20)
#    0.000    1.143    5.714    0.857    0.000    1.143 
#    2.571    0.000   12.571    0.000    0.000    0.000 
#    0.000    0.000    0.000    0.000    0.000    0.000 
#
# Total GULP energy -78117.361355 kJ/mol
# GULP energy per Si atom -5579.811525 kJ/mol
# Density = 2.316014 g / cm^3
# Si number density = 23.212975 Si / 1000 Ang^3
#
#
#
# Elastic Constant Matrix: (Units=GPa)
#
#
# Indices 1 2 3 4 5 6 
#
# 1 95.9344 23.7474 27.2214 0.0000 10.3543 0.0000
# 2 23.7474 108.0544 9.8519 0.0000 7.1916 0.0000
# 3 27.2214 9.8519 41.6315 0.0000 -6.6631 0.0000
# 4 0.0000 0.0000 0.0000 24.1296 0.0000 0.2370
# 5 10.3543 7.1916 -6.6631 0.0000 22.8942 0.0000
# 6 0.0000 0.0000 0.0000 0.2370 0.0000 44.5769
#
#
#
# Elastic Compliance Matrix: (Units=1/GPa)
#
#
# Indices 1 2 3 4 5 6 
#
# 1 0.014937 -0.001666 -0.010876 0.000000 -0.009398 0.000000
# 2 -0.001666 0.009970 -0.001732 0.000000 -0.002883 0.000000
# 3 -0.010876 -0.001732 0.034000 0.000000 0.015358 0.000000
# 4 0.000000 0.000000 0.000000 0.041445 0.000000 -0.000220
# 5 -0.009398 -0.002883 0.015358 0.000000 0.053305 0.000000
# 6 0.000000 0.000000 0.000000 -0.000220 0.000000 0.022434
#
#
# Mechanical properties :
#
#
# Convention : Reuss Voigt Hill
#
# Bulk Modulus (GPa) = 32.93878 40.80686 36.87282
# Shear Modulus (GPa) = 23.28197 30.64010 26.96103
#
# Velocity S-wave (km/s) = 3.17041 3.63706 3.41172
# Velocity P-wave (km/s) = 5.25572 5.93760 5.60704
#
# Compressibility (1/GPa) = 0.03035936
#
# Stress axis : x y z
#
# Youngs Moduli (GPa) = 66.94986 100.29703 29.41183
#
# Poissons Ratio (x) = 0.16705 0.31990
# Poissons Ratio (y) = 0.11151 0.05094
# Poissons Ratio (z) = 0.72818 0.17369
#
# Static dielectric constant tensor:
#      x y z
#    x 1.865230 0.000000 0.042950 
#    y 0.000000 2.089530 0.000000 
#    z 0.042950 0.000000 1.885590 
# 
# From -- ./inp_files/8048.got.cif
#   From: 2010.05.17/outbox.cif.g08.bks.cpg/sg4_5_cif.got.tgz:8048.got - 2010.06.03 18:43:04.
