data_PCOD9114762
_publ_section_title
;
Structure prediction by ZEFSAII (Michael W. Deem and Ramdas Pophale) SiO2 
 PCOD9114762
Probable space group: P 21
;
_chemical_formula_sum "Si O2"
_cell_formula_units_Z 16
_cell_length_a 14.040429
_cell_length_b 8.427228
_cell_length_c 9.309588
_cell_angle_alpha 90.000000
_cell_angle_beta 55.868695
_cell_angle_gamma 90.000000
_cell_volume 911.794177
_symmetry_space_group_name_H-M "P 21"
_symmetry_group_IT_number 4
_symmetry_cell_setting 'monoclinic'
loop_
_space_group_symop_operation_xyz
x,y,z
-x,1/2+y,-z
loop_
_atom_site_type_symbol
_atom_site_label
_atom_site_fract_x
_atom_site_fract_y
_atom_site_fract_z
Si Si1 0.285647 0.821330 0.567596
Si Si2 0.106833 0.660396 0.894025
Si Si3 0.875089 0.802944 0.205804
Si Si4 0.351661 0.666647 0.788730
Si Si5 0.460227 0.660696 0.234178
Si Si6 0.628778 0.807075 0.317677
Si Si7 0.486229 0.302723 0.107859
Si Si8 0.694782 0.679696 0.549886
O O1 0.157544 0.781488 0.731150
O O2 0.359769 0.792703 0.650568
O O3 0.337185 0.695062 0.411963
O O4 0.300320 0.994882 0.491973
O O5 0.100325 0.488973 0.826173
O O6 0.212283 0.653972 0.919339
O O7 0.987723 0.710260 0.063825
O O8 0.766348 0.772135 0.190697
O O9 0.819203 0.752662 0.405480
O O10 0.390862 0.492414 0.700824
O O11 0.416861 0.720072 0.874846
O O12 0.554385 0.700905 0.275537
O O13 0.473378 0.485091 0.162700
O O14 0.481542 0.779690 0.084257
O O15 0.387105 0.264276 0.501128
O O16 0.365249 0.217619 0.249970
#
# Coordination Sequence:
#
# PCOD9114762 Si02
#       8
#     2   2   2   2   2   2   2   2
#     4  10  19  33  53  76 104 135 170 210 254 301
#     4   9  18  31  52  78 104 131 169 213 254 296
#     4   9  18  31  52  78 104 131 169 213 254 296
#     4   9  19  34  52  76 104 134 170 210 253 300
#     4  12  23  35  51  74 105 138 171 209 256 308
#     4   9  19  34  52  76 104 134 170 210 253 300
#     4  12  23  35  51  74 105 138 171 209 256 308
#     4  10  19  33  53  76 104 135 170 210 254 301
#
# _framework density 17.547820999999999
#
# number of rings (size 3 to 8) (size 9 to 14) (size 15 to 20)
#    1.500    0.500    0.000    6.000    0.000    0.000 
#    0.000    0.000    0.000    1.500    0.000    0.000 
#    0.000    0.000    0.000    0.000    0.000    0.000 
#
# Total GULP energy -89078.781770 kJ/mol
# GULP energy per Si atom -5567.423861 kJ/mol
# Density = 1.750788 g / cm^3
# Si number density = 17.547821 Si / 1000 Ang^3
#
#
#
# Elastic Constant Matrix: (Units=GPa)
#
#
# Indices 1 2 3 4 5 6 
#
# 1 21.2050 -0.5305 18.6100 0.0000 -11.6698 0.0000
# 2 -0.5305 44.5561 -16.8407 0.0000 -10.3083 0.0000
# 3 18.6100 -16.8407 69.2107 0.0000 -12.7844 0.0000
# 4 0.0000 0.0000 0.0000 32.4850 0.0000 -3.0407
# 5 -11.6698 -10.3083 -12.7844 0.0000 26.0213 0.0000
# 6 0.0000 0.0000 0.0000 -3.0407 0.0000 24.2828
#
#
#
# Elastic Compliance Matrix: (Units=1/GPa)
#
#
# Indices 1 2 3 4 5 6 
#
# 1 0.075058 0.001534 -0.014824 0.000000 0.026986 0.000000
# 2 0.001534 0.030475 0.010294 0.000000 0.017818 0.000000
# 3 -0.014824 0.010294 0.022507 0.000000 0.008488 0.000000
# 4 0.000000 0.000000 0.000000 0.031149 0.000000 0.003900
# 5 0.026986 0.017818 0.008488 0.000000 0.061761 0.000000
# 6 0.000000 0.000000 0.000000 0.003900 0.000000 0.041670
#
#
# Mechanical properties :
#
#
# Convention : Reuss Voigt Hill
#
# Bulk Modulus (GPa) = 8.19348 15.27217 11.73283
# Shear Modulus (GPa) = 16.16576 25.47334 20.81955
#
# Velocity S-wave (km/s) = 3.03849 3.81419 3.44822
# Velocity P-wave (km/s) = 4.12180 5.30278 4.74914
#
# Compressibility (1/GPa) = 0.12204824
#
# Stress axis : x y z
#
# Youngs Moduli (GPa) = 13.32297 32.81369 44.42981
#
# Poissons Ratio (x) = -0.05033 0.65864
# Poissons Ratio (y) = -0.02044 -0.45737
# Poissons Ratio (z) = 0.19750 -0.33779
#
# Static dielectric constant tensor:
#      x y z
#    x 1.591540 0.000000 -0.030670 
#    y 0.000000 1.620270 0.000000 
#    z -0.030670 0.000000 1.617650 
# 
# From -- ./inp_files/9158.got.cif
#   From: 2010.05.17/outbox.cif.g08.bks.cpg/sg4_5_cif.got.tgz:9158.got - 2010.06.03 18:43:04.
