data_PCOD9114966
_publ_section_title
;
Structure prediction by ZEFSAII (Michael W. Deem and Ramdas Pophale) SiO2 
 PCOD9114966
Probable space group: P 21
;
_chemical_formula_sum "Si O2"
_cell_formula_units_Z 16
_cell_length_a 9.061042
_cell_length_b 11.080554
_cell_length_c 11.696019
_cell_angle_alpha 90.000000
_cell_angle_beta 39.895249
_cell_angle_gamma 90.000000
_cell_volume 753.177209
_symmetry_space_group_name_H-M "P 21"
_symmetry_group_IT_number 4
_symmetry_cell_setting 'monoclinic'
loop_
_space_group_symop_operation_xyz
x,y,z
-x,1/2+y,-z
loop_
_atom_site_type_symbol
_atom_site_label
_atom_site_fract_x
_atom_site_fract_y
_atom_site_fract_z
Si Si1 0.666247 0.852690 0.754026
Si Si2 0.898293 0.669501 0.755094
Si Si3 0.373255 0.757707 0.369380
Si Si4 0.389199 0.356841 0.551687
Si Si5 0.406355 0.143682 0.381203
Si Si6 0.846930 0.460882 0.614954
Si Si7 0.368244 0.010667 0.793523
Si Si8 0.098810 0.542462 0.844146
O O1 0.739582 0.787006 0.827838
O O2 0.588934 0.738836 0.724350
O O3 0.894165 0.912655 0.559973
O O4 0.465535 0.948877 0.852046
O O5 0.813841 0.545975 0.744411
O O6 0.129195 0.699378 0.546622
O O7 0.979106 0.642141 0.834611
O O8 0.456259 0.834351 0.429073
O O9 0.322927 0.846433 0.293869
O O10 0.547593 0.647999 0.252633
O O11 0.339099 0.225608 0.529115
O O12 0.517849 0.439137 0.380501
O O13 0.166714 0.429753 0.723897
O O14 0.659723 0.090424 0.251515
O O15 0.223001 0.044754 0.451540
O O16 0.093840 0.004346 0.951599
#
# Coordination Sequence:
#
# PCOD9114966 Si02
#       8
#     2   2   2   2   2   2   2   2
#     4   9  20  38  62  87 128 166 206 268 316 389
#     4  10  19  39  64  90 125 167 211 265 326 387
#     4  11  20  37  66  90 125 169 214 263 324 382
#     4  11  21  41  65  92 127 171 214 271 326 384
#     4  10  20  37  64  92 126 162 218 264 319 388
#     4  10  19  37  67  94 121 173 216 260 330 392
#     4  11  24  42  64  98 134 164 222 274 327 388
#     4  12  23  41  66  99 130 170 215 279 328 388
#
# _framework density 21.243341000000001
#
# number of rings (size 3 to 8) (size 9 to 14) (size 15 to 20)
#    0.000    1.500    5.000    0.750    0.000    2.000 
#    2.250    0.000    8.250    0.000    0.000    0.000 
#    0.000    0.000    0.000    0.000    0.000    0.000 
#
# Total GULP energy -89263.114411 kJ/mol
# GULP energy per Si atom -5578.944651 kJ/mol
# Density = 2.119499 g / cm^3
# Si number density = 21.243341 Si / 1000 Ang^3
#
#
#
# Elastic Constant Matrix: (Units=GPa)
#
#
# Indices 1 2 3 4 5 6 
#
# 1 94.5746 32.1731 9.8688 0.0000 -15.3164 0.0000
# 2 32.1731 92.5645 35.2912 0.0000 -12.9916 0.0000
# 3 9.8688 35.2912 57.3127 0.0000 -12.6707 0.0000
# 4 0.0000 0.0000 0.0000 -4.1162 0.0000 -3.8765
# 5 -15.3164 -12.9916 -12.6707 0.0000 13.7005 0.0000
# 6 0.0000 0.0000 0.0000 -3.8765 0.0000 51.3886
#
#
#
# Elastic Compliance Matrix: (Units=1/GPa)
#
#
# Indices 1 2 3 4 5 6 
#
# 1 0.014028 -0.004072 0.003400 0.000000 0.014966 0.000000
# 2 -0.004072 0.015810 -0.008455 0.000000 0.002621 0.000000
# 3 0.003400 -0.008455 0.026569 0.000000 0.020356 0.000000
# 4 0.000000 0.000000 0.000000 -0.226827 0.000000 -0.017111
# 5 0.014966 0.002621 0.020356 0.000000 0.111033 0.000000
# 6 0.000000 0.000000 0.000000 -0.017111 0.000000 0.018169
#
#
# Mechanical properties :
#
#
# Convention : Reuss Voigt Hill
#
# Bulk Modulus (GPa) = 26.20898 44.34645 35.27772
# Shear Modulus (GPa) = -487.83796 23.33582 -232.25107
#
# Velocity S-wave (km/s) = -15.17041 3.31796 -10.46739
# Velocity P-wave (km/s) = 17.16073 5.96651 11.37742
#
# Compressibility (1/GPa) = 0.03815486
#
# Stress axis : x y z
#
# Youngs Moduli (GPa) = 71.28746 63.25236 37.63784
#
# Poissons Ratio (x) = 0.25754 -0.12798
# Poissons Ratio (y) = 0.29025 0.31821
# Poissons Ratio (z) = -0.24240 0.53477
#
# Static dielectric constant tensor:
#      x y z
#    x 1.812650 0.000000 0.020100 
#    y 0.000000 1.831720 0.000000 
#    z 0.020100 0.000000 1.761530 
# 
# From -- ./inp_files/6287.got.cif
#   From: 2010.05.17/outbox.cif.g08.bks.cpg/sg4_4_cif.got.tgz:6287.got - 2010.06.03 18:43:04.
