data_PCOD9114097
_publ_section_title
;
Structure prediction by ZEFSAII (Michael W. Deem and Ramdas Pophale) SiO2 
 PCOD9114097
Probable space group: P 2
;
_chemical_formula_sum "Si O2"
_cell_formula_units_Z 9
_cell_length_a 7.628811
_cell_length_b 5.109795
_cell_length_c 10.645666
_cell_angle_alpha 90.000000
_cell_angle_beta 107.905361
_cell_angle_gamma 90.000000
_cell_volume 394.886168
_symmetry_space_group_name_H-M "P 2"
_symmetry_group_IT_number 3
_symmetry_cell_setting 'monoclinic'
loop_
_space_group_symop_operation_xyz
x,y,z
-x,y,-z
loop_
_atom_site_type_symbol
_atom_site_label
_atom_site_fract_x
_atom_site_fract_y
_atom_site_fract_z
Si Si1 0.303036 0.226600 0.404878
Si Si2 0.013947 0.835194 0.746365
Si Si3 0.233529 0.518090 0.149177
Si Si4 0.702281 0.026592 0.001881
Si Si5 0.000000 0.522660 0.500000
O O1 0.500000 0.137224 0.500000
O O2 0.169352 0.357688 0.479859
O O3 0.341001 0.433144 0.300239
O O4 0.171594 0.999937 0.320637
O O5 0.959020 0.616195 0.835904
O O6 0.070568 0.702333 0.629295
O O7 0.171978 0.996964 0.847732
O O8 0.779607 0.255520 0.932749
O O9 0.692885 0.756937 0.919271
O O10 0.500000 0.101912 0.000000
#
# Coordination Sequence:
#
# PCOD9114097 Si02
#       5
#     2   2   2   2   1
#     4  11  26  48  78 106 156 200 252 310 376 454
#     4  11  26  47  78 107 154 199 250 315 371 461
#     4  11  26  48  74 109 146 200 251 306 378 445
#     4  12  28  46  77 112 153 194 254 315 380 447
#     4  10  26  46  72 116 148 200 256 306 380 448
#
# _framework density 22.791381000000001
#
# number of rings (size 3 to 8) (size 9 to 14) (size 15 to 20)
#    0.000    0.889    2.222    2.000   12.444    7.111 
#    0.000    0.000    0.000    0.000    0.000    0.000 
#    0.000    0.000    0.000    0.000    0.000    0.000 
#
# Total GULP energy -50366.845553 kJ/mol
# GULP energy per Si atom -5596.316173 kJ/mol
# Density = 2.273951 g / cm^3
# Si number density = 22.791381 Si / 1000 Ang^3
#
#
#
# Elastic Constant Matrix: (Units=GPa)
#
#
# Indices 1 2 3 4 5 6 
#
# 1 102.9609 43.5179 99.5689 0.0000 -0.2160 0.0000
# 2 43.5179 122.6245 57.9617 0.0000 -3.9240 0.0000
# 3 99.5689 57.9617 138.0617 0.0000 14.5806 0.0000
# 4 0.0000 0.0000 0.0000 48.3775 0.0000 -32.8786
# 5 -0.2160 -3.9240 14.5806 0.0000 48.9790 0.0000
# 6 0.0000 0.0000 0.0000 -32.8786 0.0000 179.2325
#
#
#
# Elastic Compliance Matrix: (Units=1/GPa)
#
#
# Indices 1 2 3 4 5 6 
#
# 1 0.034817 0.000201 -0.026030 0.000000 0.007919 0.000000
# 2 0.000201 0.010400 -0.004749 0.000000 0.002248 0.000000
# 3 -0.026030 -0.004749 0.028973 0.000000 -0.009120 0.000000
# 4 0.000000 0.000000 0.000000 0.023615 0.000000 0.004332
# 5 0.007919 0.002248 -0.009120 0.000000 0.023347 0.000000
# 6 0.000000 0.000000 0.000000 0.004332 0.000000 0.006374
#
#
# Mechanical properties :
#
#
# Convention : Reuss Voigt Hill
#
# Bulk Modulus (GPa) = 76.72215 85.08268 80.90241
# Shear Modulus (GPa) = 25.90324 66.15770 46.03047
#
# Velocity S-wave (km/s) = 3.37491 5.39356 4.49892
# Velocity P-wave (km/s) = 6.99447 8.72923 7.90955
#
# Compressibility (1/GPa) = 0.01303405
#
# Stress axis : x y z
#
# Youngs Moduli (GPa) = 28.72175 96.15287 34.51501
#
# Poissons Ratio (x) = -0.01936 0.89844
# Poissons Ratio (y) = -0.00578 0.16390
# Poissons Ratio (z) = 0.74764 0.45661
#
# Static dielectric constant tensor:
#      x y z
#    x 1.589950 0.000000 0.142920 
#    y 0.000000 1.902790 0.000000 
#    z 0.142920 0.000000 1.774090 
# 
# From -- ./inp_files/9511.got.cif
#   From: 2010.05.17/outbox.cif.g08.bks.cpg/sg3_5_cif.got.tgz:9511.got - 2010.06.03 18:33:08.
