data_PCOD9114083
_publ_section_title
;
Structure prediction by ZEFSAII (Michael W. Deem and Ramdas Pophale) SiO2 
 PCOD9114083
Probable space group: P 2
;
_chemical_formula_sum "Si O2"
_cell_formula_units_Z 13
_cell_length_a 7.782729
_cell_length_b 5.508865
_cell_length_c 16.591489
_cell_angle_alpha 90.000000
_cell_angle_beta 133.581509
_cell_angle_gamma 90.000000
_cell_volume 515.293277
_symmetry_space_group_name_H-M "P 2"
_symmetry_group_IT_number 3
_symmetry_cell_setting 'monoclinic'
loop_
_space_group_symop_operation_xyz
x,y,z
-x,y,-z
loop_
_atom_site_type_symbol
_atom_site_label
_atom_site_fract_x
_atom_site_fract_y
_atom_site_fract_z
Si Si1 0.760726 0.051670 0.193667
Si Si2 0.000000 0.374584 0.500000
Si Si3 0.569660 0.036289 0.373023
Si Si4 0.114514 0.777502 0.926744
Si Si5 0.343368 0.898392 0.150543
Si Si6 0.146237 0.410975 0.265121
Si Si7 0.150408 0.739830 0.409334
O O1 0.506349 0.085714 0.152979
O O2 0.911576 0.292033 0.228033
O O3 0.759340 0.905078 0.108082
O O4 0.923369 0.884832 0.303455
O O5 0.778759 0.205202 0.406945
O O6 0.924542 0.541373 0.549655
O O7 0.495892 0.843799 0.280026
O O8 0.343172 0.206223 0.316025
O O9 0.677541 0.921149 0.487977
O O10 0.956546 0.554085 0.844573
O O11 0.912817 0.962176 0.895125
O O12 0.279415 0.716111 0.056483
O O13 0.248278 0.604317 0.362084
#
# Coordination Sequence:
#
# PCOD9114083 Si02
#       7
#     2   1   2   2   2   2   2
#     4  11  23  48  75 111 150 199 252 318 386 451
#     4  12  26  44  72 120 146 206 256 298 400 468
#     4  12  26  46  75 113 153 202 254 316 383 461
#     4  10  25  49  72 110 145 201 263 317 382 444
#     4  11  23  49  77  99 154 196 248 330 373 438
#     4  11  26  48  75 109 156 204 261 308 390 462
#     4  11  26  45  71 110 158 191 251 317 379 461
#
# _framework density 25.228352999999998
#
# number of rings (size 3 to 8) (size 9 to 14) (size 15 to 20)
#    0.000    0.923    1.538    4.615    4.308    3.692 
#    5.538    3.077    0.000    0.000    0.000    0.000 
#    0.000    0.000    0.000    0.000    0.000    0.000 
#
# Total GULP energy -72722.084310 kJ/mol
# GULP energy per Si atom -5594.006485 kJ/mol
# Density = 2.517093 g / cm^3
# Si number density = 25.228353 Si / 1000 Ang^3
#
#
#
# Elastic Constant Matrix: (Units=GPa)
#
#
# Indices 1 2 3 4 5 6 
#
# 1 137.2867 24.0007 39.5005 0.0000 9.3254 0.0000
# 2 24.0007 80.2913 56.6929 0.0000 -0.3770 0.0000
# 3 39.5005 56.6929 187.2561 0.0000 -34.1218 0.0000
# 4 0.0000 0.0000 0.0000 12.1318 0.0000 0.7839
# 5 9.3254 -0.3770 -34.1218 0.0000 48.4159 0.0000
# 6 0.0000 0.0000 0.0000 0.7839 0.0000 35.8831
#
#
#
# Elastic Compliance Matrix: (Units=1/GPa)
#
#
# Indices 1 2 3 4 5 6 
#
# 1 0.008238 -0.001104 -0.001944 0.000000 -0.002965 0.000000
# 2 -0.001104 0.016601 -0.005428 0.000000 -0.003484 0.000000
# 3 -0.001944 -0.005428 0.008553 0.000000 0.006360 0.000000
# 4 0.000000 0.000000 0.000000 0.082544 0.000000 -0.001803
# 5 -0.002965 -0.003484 0.006360 0.000000 0.025680 0.000000
# 6 0.000000 0.000000 0.000000 -0.001803 0.000000 0.027908
#
#
# Mechanical properties :
#
#
# Convention : Reuss Voigt Hill
#
# Bulk Modulus (GPa) = 60.82758 71.69136 66.25947
# Shear Modulus (GPa) = 26.04784 38.26216 32.15500
#
# Velocity S-wave (km/s) = 3.21671 3.89862 3.57397
# Velocity P-wave (km/s) = 6.16113 6.98172 6.58422
#
# Compressibility (1/GPa) = 0.01643991
#
# Stress axis : x y z
#
# Youngs Moduli (GPa) = 121.39313 60.23783 116.92479
#
# Poissons Ratio (x) = 0.06649 0.22728
# Poissons Ratio (y) = 0.13400 0.63466
# Poissons Ratio (z) = 0.23597 0.32697
#
# Static dielectric constant tensor:
#      x y z
#    x 2.027430 0.000000 -0.007920 
#    y 0.000000 1.982800 0.000000 
#    z -0.007920 0.000000 2.008010 
# 
# From -- ./inp_files/14907.got.cif
#   From: 2010.05.17/outbox.cif.g08.bks.cpg/sg3_8_cif.got.tgz:14907.got - 2010.06.03 18:33:08.
