data_PCOD9114844
_publ_section_title
;
Structure prediction by ZEFSAII (Michael W. Deem and Ramdas Pophale) SiO2 
 PCOD9114844
Probable space group: P 21
;
_chemical_formula_sum "Si O2"
_cell_formula_units_Z 16
_cell_length_a 11.931464
_cell_length_b 13.349161
_cell_length_c 8.736759
_cell_angle_alpha 90.000000
_cell_angle_beta 34.829452
_cell_angle_gamma 90.000000
_cell_volume 794.762353
_symmetry_space_group_name_H-M "P 21"
_symmetry_group_IT_number 4
_symmetry_cell_setting 'monoclinic'
loop_
_space_group_symop_operation_xyz
x,y,z
-x,1/2+y,-z
loop_
_atom_site_type_symbol
_atom_site_label
_atom_site_fract_x
_atom_site_fract_y
_atom_site_fract_z
Si Si1 0.603835 0.019280 0.708157
Si Si2 0.555071 0.206456 0.549553
Si Si3 0.745393 0.878926 0.023467
Si Si4 0.433491 0.335660 0.097289
Si Si5 0.585910 0.091338 0.214637
Si Si6 0.104503 0.613995 0.402094
Si Si7 0.304300 0.105932 0.286508
Si Si8 0.839002 0.304900 0.471543
O O1 0.547346 0.096479 0.638894
O O2 0.812584 0.047521 0.550890
O O3 0.446000 0.046677 0.014701
O O4 0.590634 0.899673 0.720573
O O5 0.368684 0.279965 0.786090
O O6 0.588888 0.177681 0.336923
O O7 0.732934 0.260778 0.439652
O O8 0.693763 0.881382 0.899953
O O9 0.660184 0.982410 0.186260
O O10 0.979303 0.873679 0.777846
O O11 0.655164 0.338874 0.782234
O O12 0.358341 0.223008 0.203719
O O13 0.369087 0.078764 0.385263
O O14 0.726597 0.122261 0.915548
O O15 0.912750 0.582638 0.525688
O O16 0.064968 0.718347 0.531613
#
# Coordination Sequence:
#
# PCOD9114844 Si02
#       8
#     2   2   2   2   2   2   2   2
#     4  10  20  36  58  90 115 160 205 251 298 360
#     4  10  23  42  58  86 131 164 199 247 305 373
#     4  11  21  39  65  88 120 165 204 252 310 360
#     4  11  19  35  62  95 118 152 204 259 308 346
#     4  11  24  39  58  95 125 161 207 245 306 374
#     4  10  19  35  59  87 119 153 204 253 294 355
#     4  11  20  37  61  88 121 156 201 261 302 344
#     4  10  20  39  63  87 117 159 206 254 305 354
#
# _framework density 20.131803999999999
#
# number of rings (size 3 to 8) (size 9 to 14) (size 15 to 20)
#    0.000    1.500    8.750    0.000    1.750    2.000 
#    0.000    0.000    0.000    1.500    0.000    0.000 
#    0.000    0.000    0.000    0.000    0.000    0.000 
#
# Total GULP energy -89157.921234 kJ/mol
# GULP energy per Si atom -5572.370077 kJ/mol
# Density = 2.008598 g / cm^3
# Si number density = 20.131804 Si / 1000 Ang^3
#
#
#
# Elastic Constant Matrix: (Units=GPa)
#
#
# Indices 1 2 3 4 5 6 
#
# 1 54.3282 -10.6498 32.1313 0.0000 -18.5364 0.0000
# 2 -10.6498 57.8544 -0.9865 0.0000 5.7739 0.0000
# 3 32.1313 -0.9865 42.1131 0.0000 -16.0997 0.0000
# 4 0.0000 0.0000 0.0000 25.3662 0.0000 9.6592
# 5 -18.5364 5.7739 -16.0997 0.0000 31.8124 0.0000
# 6 0.0000 0.0000 0.0000 9.6592 0.0000 21.4428
#
#
#
# Elastic Compliance Matrix: (Units=1/GPa)
#
#
# Indices 1 2 3 4 5 6 
#
# 1 0.037051 0.005608 -0.025137 0.000000 0.007850 0.000000
# 2 0.005608 0.018487 -0.004810 0.000000 -0.002522 0.000000
# 3 -0.025137 -0.004810 0.046553 0.000000 0.009786 0.000000
# 4 0.000000 0.000000 0.000000 0.047585 0.000000 -0.021435
# 5 0.007850 -0.002522 0.009786 0.000000 0.041418 0.000000
# 6 0.000000 0.000000 0.000000 -0.021435 0.000000 0.056292
#
#
# Mechanical properties :
#
#
# Convention : Reuss Voigt Hill
#
# Bulk Modulus (GPa) = 18.72183 21.69842 20.21013
# Shear Modulus (GPa) = 15.93033 24.64431 20.28732
#
# Velocity S-wave (km/s) = 2.81606 3.50258 3.17791
# Velocity P-wave (km/s) = 4.46020 5.21143 4.85038
#
# Compressibility (1/GPa) = 0.05341358
#
# Stress axis : x y z
#
# Youngs Moduli (GPa) = 26.98990 54.09266 21.48098
#
# Poissons Ratio (x) = -0.30337 0.53996
# Poissons Ratio (y) = -0.15137 0.10332
# Poissons Ratio (z) = 0.67844 0.26019
#
# Static dielectric constant tensor:
#      x y z
#    x 1.743310 0.000000 -0.028440 
#    y 0.000000 1.788150 0.000000 
#    z -0.028440 0.000000 1.697110 
# 
# From -- ./inp_files/8509.got.cif
#   From: 2010.05.17/outbox.cif.g08.bks.cpg/sg4_5_cif.got.tgz:8509.got - 2010.06.03 18:43:04.
