data_PCOD9114634
_publ_section_title
;
Structure prediction by ZEFSAII (Michael W. Deem and Ramdas Pophale) SiO2 
 PCOD9114634
Probable space group: P 21
;
_chemical_formula_sum "Si O2"
_cell_formula_units_Z 16
_cell_length_a 12.104691
_cell_length_b 7.563960
_cell_length_c 11.559700
_cell_angle_alpha 90.000000
_cell_angle_beta 143.373210
_cell_angle_gamma 90.000000
_cell_volume 631.441147
_symmetry_space_group_name_H-M "P 21"
_symmetry_group_IT_number 4
_symmetry_cell_setting 'monoclinic'
loop_
_space_group_symop_operation_xyz
x,y,z
-x,1/2+y,-z
loop_
_atom_site_type_symbol
_atom_site_label
_atom_site_fract_x
_atom_site_fract_y
_atom_site_fract_z
Si Si1 0.259764 0.379040 0.513334
Si Si2 0.956359 0.100229 0.218334
Si Si3 0.467116 0.627108 0.121577
Si Si4 0.255318 0.088996 0.832349
Si Si5 0.868865 0.726609 0.027225
Si Si6 0.469772 0.408727 0.333263
Si Si7 0.721642 0.155791 0.664376
Si Si8 0.971732 0.915049 0.470894
O O1 0.413769 0.271441 0.710856
O O2 0.327766 0.515969 0.477174
O O3 0.152705 0.480387 0.526255
O O4 0.114209 0.244817 0.328973
O O5 0.998264 0.038697 0.383641
O O6 0.938859 0.919879 0.130495
O O7 0.747225 0.169608 0.044163
O O8 0.541288 0.607615 0.052810
O O9 0.502979 0.447137 0.225763
O O10 0.213097 0.116135 0.932256
O O11 0.135346 0.248714 0.673324
O O12 0.169154 0.913590 0.701025
O O13 0.056857 0.646440 0.133570
O O14 0.697759 0.767656 0.799615
O O15 0.644917 0.339720 0.550542
O O16 0.390045 0.589581 0.319186
#
# Coordination Sequence:
#
# PCOD9114634 Si02
#       8
#     2   2   2   2   2   2   2   2
#     4  11  22  39  63  93 129 177 221 271 330 390
#     4  10  21  40  61  95 135 176 218 267 335 399
#     4  10  22  42  66  96 136 172 214 280 326 394
#     4  10  20  38  62 100 132 173 215 258 337 394
#     4  10  24  45  69  98 131 175 222 272 334 392
#     4  11  27  46  69 100 131 175 227 272 333 388
#     4  12  26  45  71  95 130 175 223 281 326 390
#     4  10  18  35  59  91 130 167 218 255 325 395
#
# _framework density 25.338863
#
# number of rings (size 3 to 8) (size 9 to 14) (size 15 to 20)
#    0.000    1.500    3.750    1.500    1.750    5.000 
#    9.000    0.000    0.000    0.000    0.000    0.000 
#    0.000    0.000    0.000    0.000    0.000    0.000 
#
# Total GULP energy -89454.467724 kJ/mol
# GULP energy per Si atom -5590.904233 kJ/mol
# Density = 2.528119 g / cm^3
# Si number density = 25.338863 Si / 1000 Ang^3
#
#
#
# Elastic Constant Matrix: (Units=GPa)
#
#
# Indices 1 2 3 4 5 6 
#
# 1 99.1486 20.6257 -1.0599 0.0000 5.6894 0.0000
# 2 20.6257 46.2805 0.2602 0.0000 10.4856 0.0000
# 3 -1.0599 0.2602 47.5671 0.0000 11.0598 0.0000
# 4 0.0000 0.0000 0.0000 38.1783 0.0000 5.0908
# 5 5.6894 10.4856 11.0598 0.0000 23.8344 0.0000
# 6 0.0000 0.0000 0.0000 5.0908 0.0000 39.6123
#
#
#
# Elastic Compliance Matrix: (Units=1/GPa)
#
#
# Indices 1 2 3 4 5 6 
#
# 1 0.011131 -0.004791 0.000450 0.000000 -0.000758 0.000000
# 2 -0.004791 0.026353 0.002442 0.000000 -0.011583 0.000000
# 3 0.000450 0.002442 0.023870 0.000000 -0.012258 0.000000
# 4 0.000000 0.000000 0.000000 0.026650 0.000000 -0.003425
# 5 -0.000758 -0.011583 -0.012258 0.000000 0.052921 0.000000
# 6 0.000000 0.000000 0.000000 -0.003425 0.000000 0.025685
#
#
# Mechanical properties :
#
#
# Convention : Reuss Voigt Hill
#
# Bulk Modulus (GPa) = 17.37412 25.84982 21.61197
# Shear Modulus (GPa) = 26.37232 31.86966 29.12099
#
# Velocity S-wave (km/s) = 3.22962 3.55031 3.39375
# Velocity P-wave (km/s) = 4.55838 5.19904 4.88922
#
# Compressibility (1/GPa) = 0.05755686
#
# Stress axis : x y z
#
# Youngs Moduli (GPa) = 89.83955 37.94571 41.89397
#
# Poissons Ratio (x) = 0.18182 -0.01887
# Poissons Ratio (y) = 0.43046 -0.10232
# Poissons Ratio (z) = -0.04047 -0.09268
#
# Static dielectric constant tensor:
#      x y z
#    x 2.041110 0.000000 0.018160 
#    y 0.000000 2.119960 0.000000 
#    z 0.018160 0.000000 1.976760 
# 
# From -- ./inp_files/12150.got.cif
#   From: 2010.05.17/outbox.cif.g08.bks.cpg/sg4_7_cif.got.tgz:12150.got - 2010.06.03 18:43:04.
