data_PCOD9114655
_publ_section_title
;
Structure prediction by ZEFSAII (Michael W. Deem and Ramdas Pophale) SiO2 
 PCOD9114655
Probable space group: P 21
;
_chemical_formula_sum "Si O2"
_cell_formula_units_Z 16
_cell_length_a 17.160198
_cell_length_b 5.391465
_cell_length_c 9.114358
_cell_angle_alpha 90.000000
_cell_angle_beta 128.651237
_cell_angle_gamma 90.000000
_cell_volume 658.544628
_symmetry_space_group_name_H-M "P 21"
_symmetry_group_IT_number 4
_symmetry_cell_setting 'monoclinic'
loop_
_space_group_symop_operation_xyz
x,y,z
-x,1/2+y,-z
loop_
_atom_site_type_symbol
_atom_site_label
_atom_site_fract_x
_atom_site_fract_y
_atom_site_fract_z
Si Si1 0.413785 0.727270 0.255372
Si Si2 0.050274 0.810131 0.621735
Si Si3 0.697116 0.734418 0.974246
Si Si4 0.813352 0.635490 0.862644
Si Si5 0.065687 0.367985 0.259067
Si Si6 0.781487 0.248745 0.603809
Si Si7 0.375284 0.420435 0.487869
Si Si8 0.787888 0.577223 0.359016
O O1 0.362166 0.487005 0.124713
O O2 0.412237 0.647631 0.426341
O O3 0.529324 0.769135 0.352416
O O4 0.358756 0.981628 0.144465
O O5 0.985571 0.041867 0.478969
O O6 0.041620 0.834579 0.791053
O O7 0.158419 0.869427 0.679847
O O8 0.806920 0.719682 0.023431
O O9 0.715597 0.719229 0.168346
O O10 0.900565 0.744618 0.857068
O O11 0.795684 0.356558 0.783882
O O12 0.706542 0.760041 0.694472
O O13 0.108409 0.645785 0.303366
O O14 0.128845 0.240579 0.462855
O O15 0.742698 0.454429 0.449063
O O16 0.699834 0.039051 0.485744
#
# Coordination Sequence:
#
# PCOD9114655 Si02
#       8
#     2   2   2   2   2   2   2   2
#     4  11  23  37  64  90 120 155 210 260 299 367
#     4  10  19  35  61  92 115 159 215 257 291 355
#     4  11  24  39  60  92 126 165 196 247 324 371
#     4   9  19  35  59  87 120 156 201 257 300 362
#     4   9  19  35  61  87 118 158 213 255 293 353
#     4  10  18  36  63  89 115 160 206 258 297 358
#     4  10  20  36  63  90 113 152 215 258 297 344
#     4  10  22  37  63  87 129 163 204 248 315 378
#
# _framework density 24.296001
#
# number of rings (size 3 to 8) (size 9 to 14) (size 15 to 20)
#    0.000    2.000    2.500    1.500    3.500    0.000 
#    0.000    0.000   11.000    0.000    0.000    0.000 
#    0.000    0.000    0.000    0.000    0.000    0.000 
#
# Total GULP energy -89183.497555 kJ/mol
# GULP energy per Si atom -5573.968597 kJ/mol
# Density = 2.424070 g / cm^3
# Si number density = 24.296001 Si / 1000 Ang^3
#
#
#
# Elastic Constant Matrix: (Units=GPa)
#
#
# Indices 1 2 3 4 5 6 
#
# 1 60.5307 14.7584 19.6568 0.0000 7.7600 0.0000
# 2 14.7584 108.1056 19.1124 0.0000 2.3616 0.0000
# 3 19.6568 19.1124 60.8937 0.0000 -7.3042 0.0000
# 4 0.0000 0.0000 0.0000 9.5655 0.0000 11.1775
# 5 7.7600 2.3616 -7.3042 0.0000 20.7926 0.0000
# 6 0.0000 0.0000 0.0000 11.1775 0.0000 26.8720
#
#
#
# Elastic Compliance Matrix: (Units=1/GPa)
#
#
# Indices 1 2 3 4 5 6 
#
# 1 0.020550 -0.001266 -0.007453 0.000000 -0.010144 0.000000
# 2 -0.001266 0.009977 -0.002925 0.000000 -0.001688 0.000000
# 3 -0.007453 -0.002925 0.021005 0.000000 0.010492 0.000000
# 4 0.000000 0.000000 0.000000 0.203409 0.000000 -0.084609
# 5 -0.010144 -0.001688 0.010492 0.000000 0.055757 0.000000
# 6 0.000000 0.000000 0.000000 -0.084609 0.000000 0.072407
#
#
# Mechanical properties :
#
#
# Convention : Reuss Voigt Hill
#
# Bulk Modulus (GPa) = 35.40714 37.39835 36.40274
# Shear Modulus (GPa) = 12.02478 23.17952 17.60215
#
# Velocity S-wave (km/s) = 2.22711 3.09212 2.69455
# Velocity P-wave (km/s) = 4.60633 5.30796 4.96954
#
# Compressibility (1/GPa) = 0.02824289
#
# Stress axis : x y z
#
# Youngs Moduli (GPa) = 48.66183 100.22933 47.60858
#
# Poissons Ratio (x) = 0.12691 0.35483
# Poissons Ratio (y) = 0.06162 0.13927
# Poissons Ratio (z) = 0.36267 0.29319
#
# Static dielectric constant tensor:
#      x y z
#    x 2.115760 0.000000 -0.071060 
#    y 0.000000 1.996200 0.000000 
#    z -0.071060 0.000000 2.008740 
# 
# From -- ./inp_files/9441.got.cif
#   From: 2010.05.17/outbox.cif.g08.bks.cpg/sg4_5_cif.got.tgz:9441.got - 2010.06.03 18:43:04.
