data_PCOD9114368
_publ_section_title
;
Structure prediction by ZEFSAII (Michael W. Deem and Ramdas Pophale) SiO2 
 PCOD9114368
Probable space group: P 2
;
_chemical_formula_sum "Si O2"
_cell_formula_units_Z 9
_cell_length_a 7.719034
_cell_length_b 5.157702
_cell_length_c 9.290789
_cell_angle_alpha 90.000000
_cell_angle_beta 101.940373
_cell_angle_gamma 90.000000
_cell_volume 361.886193
_symmetry_space_group_name_H-M "P 2"
_symmetry_group_IT_number 3
_symmetry_cell_setting 'monoclinic'
loop_
_space_group_symop_operation_xyz
x,y,z
-x,y,-z
loop_
_atom_site_type_symbol
_atom_site_label
_atom_site_fract_x
_atom_site_fract_y
_atom_site_fract_z
Si Si1 0.085620 0.059470 0.162204
Si Si2 0.711271 0.559299 0.775947
Si Si3 0.500000 0.384155 0.000000
Si Si4 0.780764 0.638052 0.463110
Si Si5 0.741882 0.130277 0.274831
O O1 0.245608 0.252533 0.222316
O O2 0.945451 0.101348 0.263065
O O3 0.134290 0.760210 0.153594
O O4 0.000000 0.154944 0.000000
O O5 0.696404 0.644055 0.607436
O O6 0.580677 0.565335 0.888984
O O7 0.635280 0.201313 0.111794
O O8 0.727759 0.370114 0.379690
O O9 0.000000 0.652025 0.500000
O O10 0.702488 0.868285 0.352676
#
# Coordination Sequence:
#
# PCOD9114368 Si02
#       5
#     2   2   1   2   2
#     4  12  23  44  79 114 142 208 265 325 355 465
#     4  12  27  46  78 113 158 194 266 312 399 445
#     4  12  32  52  74 120 164 214 240 326 394 482
#     4  12  24  47  82 117 144 202 263 334 367 458
#     4  12  26  48  80 113 158 194 266 315 398 446
#
# _framework density 24.869696000000001
#
# number of rings (size 3 to 8) (size 9 to 14) (size 15 to 20)
#    0.000    0.000    6.667    2.667    3.111    4.444 
#    0.000    2.222    0.000    0.000    0.000    0.000 
#    0.000    0.000    0.000    0.000    0.000    0.000 
#
# Total GULP energy -50360.051315 kJ/mol
# GULP energy per Si atom -5595.561257 kJ/mol
# Density = 2.481309 g / cm^3
# Si number density = 24.869696 Si / 1000 Ang^3
#
#
#
# Elastic Constant Matrix: (Units=GPa)
#
#
# Indices 1 2 3 4 5 6 
#
# 1 83.2900 17.2558 69.1098 0.0000 -38.1479 0.0000
# 2 17.2558 123.4757 44.3217 0.0000 -12.1326 0.0000
# 3 69.1098 44.3217 155.1133 0.0000 -35.8704 0.0000
# 4 0.0000 0.0000 0.0000 46.5576 0.0000 -1.0608
# 5 -38.1479 -12.1326 -35.8704 0.0000 61.8924 0.0000
# 6 0.0000 0.0000 0.0000 -1.0608 0.0000 22.0656
#
#
#
# Elastic Compliance Matrix: (Units=1/GPa)
#
#
# Indices 1 2 3 4 5 6 
#
# 1 0.023130 0.000683 -0.008283 0.000000 0.009590 0.000000
# 2 0.000683 0.009050 -0.002751 0.000000 0.000600 0.000000
# 3 -0.008283 -0.002751 0.011107 0.000000 0.000793 0.000000
# 4 0.000000 0.000000 0.000000 0.021502 0.000000 0.001034
# 5 0.009590 0.000600 0.000793 0.000000 0.022645 0.000000
# 6 0.000000 0.000000 0.000000 0.001034 0.000000 0.045369
#
#
# Mechanical properties :
#
#
# Convention : Reuss Voigt Hill
#
# Bulk Modulus (GPa) = 44.27935 69.25039 56.76487
# Shear Modulus (GPa) = 31.04966 41.51591 36.28278
#
# Velocity S-wave (km/s) = 3.53724 4.09018 3.82372
# Velocity P-wave (km/s) = 5.87588 7.08603 6.50914
#
# Compressibility (1/GPa) = 0.02258389
#
# Stress axis : x y z
#
# Youngs Moduli (GPa) = 43.23479 110.49836 90.03603
#
# Poissons Ratio (x) = -0.07547 0.74575
# Poissons Ratio (y) = -0.02953 0.24772
# Poissons Ratio (z) = 0.35810 0.30402
#
# Static dielectric constant tensor:
#      x y z
#    x 2.097940 0.000000 0.089190 
#    y 0.000000 1.906270 0.000000 
#    z 0.089190 0.000000 1.977750 
# 
# From -- ./inp_files/4731.got.cif
#   From: 2010.05.17/outbox.cif.g08.bks.cpg/sg3_3_cif.got.tgz:4731.got - 2010.06.03 18:33:08.
