data_PCOD9114621
_publ_section_title
;
Structure prediction by ZEFSAII (Michael W. Deem and Ramdas Pophale) SiO2 
 PCOD9114621
Probable space group: P 21
;
_chemical_formula_sum "Si O2"
_cell_formula_units_Z 14
_cell_length_a 9.496751
_cell_length_b 12.966359
_cell_length_c 9.391286
_cell_angle_alpha 90.000000
_cell_angle_beta 151.204766
_cell_angle_gamma 90.000000
_cell_volume 557.028577
_symmetry_space_group_name_H-M "P 21"
_symmetry_group_IT_number 4
_symmetry_cell_setting 'monoclinic'
loop_
_space_group_symop_operation_xyz
x,y,z
-x,1/2+y,-z
loop_
_atom_site_type_symbol
_atom_site_label
_atom_site_fract_x
_atom_site_fract_y
_atom_site_fract_z
Si Si1 0.062265 0.500000 0.909602
Si Si2 0.462660 0.698974 0.690305
Si Si3 0.689797 0.538778 0.341784
Si Si4 0.748038 0.874260 0.432499
Si Si5 0.479935 0.381520 0.466366
Si Si6 0.702711 0.335016 0.208792
Si Si7 0.894312 0.584361 0.215931
O O1 0.841444 0.575476 0.622772
O O2 0.810007 0.415425 0.722602
O O3 0.345914 0.517268 0.057886
O O4 0.263171 0.475921 0.228673
O O5 0.580931 0.780982 0.684019
O O6 0.467861 0.753521 0.848596
O O7 0.125664 0.670836 0.374248
O O8 0.647041 0.594884 0.876320
O O9 0.809310 0.422542 0.414768
O O10 0.769206 0.595479 0.265722
O O11 0.572474 0.849938 0.418598
O O12 0.008705 0.797485 0.616599
O O13 0.930321 0.978129 0.623079
O O14 0.519962 0.882578 0.102102
#
# Coordination Sequence:
#
# PCOD9114621 Si02
#       7
#     2   2   2   2   2   2   2
#     4  10  18  34  63  92 116 156 224 254 296 365
#     4  12  23  39  67  98 128 163 226 274 328 375
#     4  10  19  36  62  94 120 159 213 268 301 381
#     4  11  24  43  65  93 134 174 218 258 325 399
#     4  11  23  38  67  95 125 175 223 258 310 403
#     4  11  21  38  69  92 121 166 225 262 312 390
#     4  11  24  38  65  96 134 165 209 282 342 361
#
# _framework density 25.133362000000002
#
# number of rings (size 3 to 8) (size 9 to 14) (size 15 to 20)
#    0.000    1.143    2.857    6.857    0.000    0.000 
#    0.000    0.000   31.429    0.000    0.000    0.000 
#    0.000    0.000    0.000    0.000    0.000    0.000 
#
# Total GULP energy -77973.411870 kJ/mol
# GULP energy per Si atom -5569.529419 kJ/mol
# Density = 2.507616 g / cm^3
# Si number density = 25.133362 Si / 1000 Ang^3
#
#
#
# Elastic Constant Matrix: (Units=GPa)
#
#
# Indices 1 2 3 4 5 6 
#
# 1 123.4199 11.4411 36.8279 0.0000 -0.6960 0.0000
# 2 11.4411 39.7174 -3.4661 0.0000 2.8566 0.0000
# 3 36.8279 -3.4661 134.0930 0.0000 18.8548 0.0000
# 4 0.0000 0.0000 0.0000 24.3244 0.0000 -1.3856
# 5 -0.6960 2.8566 18.8548 0.0000 30.8343 0.0000
# 6 0.0000 0.0000 0.0000 -1.3856 0.0000 -3.7413
#
#
#
# Elastic Compliance Matrix: (Units=1/GPa)
#
#
# Indices 1 2 3 4 5 6 
#
# 1 0.009284 -0.003098 -0.002954 0.000000 0.002303 0.000000
# 2 -0.003098 0.026524 0.002070 0.000000 -0.003793 0.000000
# 3 -0.002954 0.002070 0.009145 0.000000 -0.005850 0.000000
# 4 0.000000 0.000000 0.000000 0.040261 0.000000 -0.014911
# 5 0.002303 -0.003793 -0.005850 0.000000 0.036412 0.000000
# 6 0.000000 0.000000 0.000000 -0.014911 0.000000 -0.261764
#
#
# Mechanical properties :
#
#
# Convention : Reuss Voigt Hill
#
# Bulk Modulus (GPa) = 27.03505 42.98178 35.00842
# Shear Modulus (GPa) = -41.72061 27.11198 -7.30431
#
# Velocity S-wave (km/s) = -4.07869 3.28796 -1.70661
# Velocity P-wave (km/s) = 3.37653 5.61719 3.17426
#
# Compressibility (1/GPa) = 0.03698901
#
# Stress axis : x y z
#
# Youngs Moduli (GPa) = 107.71319 37.70223 109.35149
#
# Poissons Ratio (x) = 0.11679 0.32298
# Poissons Ratio (y) = 0.33367 -0.22632
# Poissons Ratio (z) = 0.31814 -0.07803
#
# Static dielectric constant tensor:
#      x y z
#    x 1.977900 0.000000 -0.003870 
#    y 0.000000 2.113710 0.000000 
#    z -0.003870 0.000000 2.004310 
# 
# From -- ./inp_files/6516.got.cif
#   From: 2010.05.17/outbox.cif.g08.bks.cpg/sg4_4_cif.got.tgz:6516.got - 2010.06.03 18:43:04.
