data_PCOD9114091
_publ_section_title
;
Structure prediction by ZEFSAII (Michael W. Deem and Ramdas Pophale) SiO2 
 PCOD9114091
Probable space group: P 2
;
_chemical_formula_sum "Si O2"
_cell_formula_units_Z 16
_cell_length_a 13.528550
_cell_length_b 7.078947
_cell_length_c 8.843905
_cell_angle_alpha 90.000000
_cell_angle_beta 61.418273
_cell_angle_gamma 90.000000
_cell_volume 743.747576
_symmetry_space_group_name_H-M "P 2"
_symmetry_group_IT_number 3
_symmetry_cell_setting 'monoclinic'
loop_
_space_group_symop_operation_xyz
x,y,z
-x,y,-z
loop_
_atom_site_type_symbol
_atom_site_label
_atom_site_fract_x
_atom_site_fract_y
_atom_site_fract_z
Si Si1 0.808603 0.933790 0.333359
Si Si2 0.390945 0.402384 0.188438
Si Si3 0.041071 0.839901 0.321656
Si Si4 0.238299 0.245169 0.857709
Si Si5 0.491712 0.136148 0.682173
Si Si6 0.225397 0.108600 0.184617
Si Si7 0.128421 0.651381 0.966902
Si Si8 0.630137 0.843281 0.729851
O O1 0.805264 0.795223 0.190871
O O2 0.717140 0.879864 0.527020
O O3 0.932698 0.909013 0.309618
O O4 0.789568 0.140883 0.278112
O O5 0.418244 0.286846 0.321477
O O6 0.278930 0.305593 0.201509
O O7 0.379710 0.623784 0.227248
O O8 0.500000 0.370476 0.000000
O O9 0.000000 0.727595 0.500000
O O10 0.113556 0.014936 0.333613
O O11 0.116657 0.721865 0.148379
O O12 0.371143 0.231502 0.789335
O O13 0.188937 0.452116 0.905501
O O14 0.192368 0.129057 0.034361
O O15 0.500000 0.091148 0.500000
O O16 0.516080 0.946622 0.759184
O O17 0.321256 0.958809 0.163024
O O18 0.000000 0.635756 0.000000
#
# Coordination Sequence:
#
# PCOD9114091 Si02
#       8
#     2   2   2   2   2   2   2   2
#     4  11  24  45  69 101 138 176 227 283 343 409
#     4  11  26  44  68 103 138 179 231 284 338 409
#     4  11  23  47  71  99 137 182 229 284 349 411
#     4  12  25  43  70  98 139 182 226 277 345 404
#     4  11  25  45  66 102 137 176 232 279 341 414
#     4  11  25  43  68  97 137 180 231 276 340 412
#     4  10  26  43  69 102 137 176 229 285 338 416
#     4  11  26  44  70  99 141 179 224 289 339 404
#
# _framework density 21.512674000000001
#
# number of rings (size 3 to 8) (size 9 to 14) (size 15 to 20)
#    0.000    1.000    5.000    0.000    7.000    1.500 
#    0.000    1.875    0.000    0.000    0.000    0.000 
#    0.000    0.000    0.000    0.000    0.000    0.000 
#
# Total GULP energy -89370.205730 kJ/mol
# GULP energy per Si atom -5585.637858 kJ/mol
# Density = 2.146371 g / cm^3
# Si number density = 21.512674 Si / 1000 Ang^3
#
#
#
# Elastic Constant Matrix: (Units=GPa)
#
#
# Indices 1 2 3 4 5 6 
#
# 1 64.0947 35.8215 21.6858 0.0000 0.8623 0.0000
# 2 35.8215 152.4980 44.9682 0.0000 6.3509 0.0000
# 3 21.6858 44.9682 99.2277 0.0000 -4.1818 0.0000
# 4 0.0000 0.0000 0.0000 33.8867 0.0000 -1.4349
# 5 0.8623 6.3509 -4.1818 0.0000 34.7287 0.0000
# 6 0.0000 0.0000 0.0000 -1.4349 0.0000 31.2722
#
#
#
# Elastic Compliance Matrix: (Units=1/GPa)
#
#
# Indices 1 2 3 4 5 6 
#
# 1 0.018436 -0.003622 -0.002391 0.000000 -0.000083 0.000000
# 2 -0.003622 0.008395 -0.003089 0.000000 -0.001817 0.000000
# 3 -0.002391 -0.003089 0.012088 0.000000 0.002080 0.000000
# 4 0.000000 0.000000 0.000000 0.029568 0.000000 0.001357
# 5 -0.000083 -0.001817 0.002080 0.000000 0.029379 0.000000
# 6 0.000000 0.000000 0.000000 0.001357 0.000000 0.032040
#
#
# Mechanical properties :
#
#
# Convention : Reuss Voigt Hill
#
# Bulk Modulus (GPa) = 48.27656 57.86350 53.07003
# Shear Modulus (GPa) = 32.25465 34.20050 33.22758
#
# Velocity S-wave (km/s) = 3.87632 3.99153 3.93435
# Velocity P-wave (km/s) = 6.52106 6.94254 6.73510
#
# Compressibility (1/GPa) = 0.02071398
#
# Stress axis : x y z
#
# Youngs Moduli (GPa) = 54.24050 119.11888 82.72553
#
# Poissons Ratio (x) = 0.43146 0.19782
# Poissons Ratio (y) = 0.19646 0.25558
# Poissons Ratio (z) = 0.12970 0.36801
#
# Static dielectric constant tensor:
#      x y z
#    x 1.777880 0.000000 -0.038060 
#    y 0.000000 1.747780 0.000000 
#    z -0.038060 0.000000 1.808770 
# 
# From -- ./inp_files/8311.got.cif
#   From: 2010.05.17/outbox.cif.g08.bks.cpg/sg3_5_cif.got.tgz:8311.got - 2010.06.03 18:33:08.
