data_PCOD9114834
_publ_section_title
;
Structure prediction by ZEFSAII (Michael W. Deem and Ramdas Pophale) SiO2 
 PCOD9114834
Probable space group: P 21
;
_chemical_formula_sum "Si O2"
_cell_formula_units_Z 14
_cell_length_a 9.067608
_cell_length_b 6.969412
_cell_length_c 19.455293
_cell_angle_alpha 90.000000
_cell_angle_beta 23.843447
_cell_angle_gamma 90.000000
_cell_volume 497.009682
_symmetry_space_group_name_H-M "P 21"
_symmetry_group_IT_number 4
_symmetry_cell_setting 'monoclinic'
loop_
_space_group_symop_operation_xyz
x,y,z
-x,1/2+y,-z
loop_
_atom_site_type_symbol
_atom_site_label
_atom_site_fract_x
_atom_site_fract_y
_atom_site_fract_z
Si Si1 0.377161 0.109800 0.894233
Si Si2 0.667140 0.198703 0.914743
Si Si3 0.537547 0.537104 0.287889
Si Si4 0.508037 0.109494 0.269733
Si Si5 0.319798 0.922092 0.632635
Si Si6 0.683956 0.978345 0.332400
Si Si7 0.397672 0.652981 0.913294
O O1 0.506963 0.222230 0.906947
O O2 0.562521 0.145088 0.740800
O O3 0.402646 0.879817 0.893506
O O4 0.944735 0.142740 0.075336
O O5 0.928385 0.016801 0.791814
O O6 0.937646 0.363917 0.827810
O O7 0.439754 0.144198 0.079704
O O8 0.375919 0.323075 0.343708
O O9 0.475211 0.552220 0.396844
O O10 0.983335 0.567845 0.095359
O O11 0.480381 0.961956 0.345140
O O12 0.401055 0.057431 0.237509
O O13 0.493707 0.916962 0.483746
O O14 0.286388 0.708149 0.675062
#
# Coordination Sequence:
#
# PCOD9114834 Si02
#       7
#     2   2   2   2   2   2   2
#     4  10  19  35  57  86 127 146 192 250 309 359
#     4  11  22  36  61  90 125 158 194 260 312 349
#     4   8  18  35  59  85 113 159 201 240 289 361
#     4   9  18  35  59  88 115 157 197 240 299 368
#     4  10  21  38  64  84 115 159 219 245 290 362
#     4  11  20  38  63  90 116 161 207 252 294 360
#     4   9  18  35  57  85 119 156 194 239 299 367
#
# _framework density 28.168465000000001
#
# number of rings (size 3 to 8) (size 9 to 14) (size 15 to 20)
#    0.000    2.286    2.857    0.000    0.000    3.429 
#    2.571    0.000    3.143    1.714    0.000    0.000 
#    0.000    0.000    0.000    0.000    0.000    0.000 
#
# Total GULP energy -78221.763847 kJ/mol
# GULP energy per Si atom -5587.268846 kJ/mol
# Density = 2.810435 g / cm^3
# Si number density = 28.168465 Si / 1000 Ang^3
#
#
#
# Elastic Constant Matrix: (Units=GPa)
#
#
# Indices 1 2 3 4 5 6 
#
# 1 224.2293 38.2774 88.6958 0.0000 76.4682 0.0000
# 2 38.2774 123.1591 17.2173 0.0000 12.9742 0.0000
# 3 88.6958 17.2173 65.2311 0.0000 48.5330 0.0000
# 4 0.0000 0.0000 0.0000 31.9578 0.0000 16.6602
# 5 76.4682 12.9742 48.5330 0.0000 70.1722 0.0000
# 6 0.0000 0.0000 0.0000 16.6602 0.0000 48.5047
#
#
#
# Elastic Compliance Matrix: (Units=1/GPa)
#
#
# Indices 1 2 3 4 5 6 
#
# 1 0.010147 -0.001267 -0.011145 0.000000 -0.003115 0.000000
# 2 -0.001267 0.008589 -0.000803 0.000000 0.000348 0.000000
# 3 -0.011145 -0.000803 0.044393 0.000000 -0.018411 0.000000
# 4 0.000000 0.000000 0.000000 0.038116 0.000000 -0.013092
# 5 -0.003115 0.000348 -0.018411 0.000000 0.030314 0.000000
# 6 0.000000 0.000000 0.000000 -0.013092 0.000000 0.025113
#
#
# Mechanical properties :
#
#
# Convention : Reuss Voigt Hill
#
# Bulk Modulus (GPa) = 27.24857 77.88895 52.56876
# Shear Modulus (GPa) = 25.59702 48.02221 36.80961
#
# Velocity S-wave (km/s) = 3.01775 4.13343 3.61884
# Velocity P-wave (km/s) = 4.67300 7.10573 6.01367
#
# Compressibility (1/GPa) = 0.03669918
#
# Stress axis : x y z
#
# Youngs Moduli (GPa) = 98.55502 116.42756 22.52596
#
# Poissons Ratio (x) = 0.14756 0.25104
# Poissons Ratio (y) = 0.12491 0.01809
# Poissons Ratio (z) = 1.09835 0.09348
#
# Static dielectric constant tensor:
#      x y z
#    x 2.252130 0.000000 0.025540 
#    y 0.000000 2.255750 0.000000 
#    z 0.025540 0.000000 2.206990 
# 
# From -- ./inp_files/10841.got.cif
#   From: 2010.05.17/outbox.cif.g08.bks.cpg/sg4_6_cif.got.tgz:10841.got - 2010.06.03 18:43:04.
