data_PCOD9114113
_publ_section_title
;
Structure prediction by ZEFSAII (Michael W. Deem and Ramdas Pophale) SiO2 
 PCOD9114113
Probable space group: P 2
;
_chemical_formula_sum "Si O2"
_cell_formula_units_Z 14
_cell_length_a 13.524290
_cell_length_b 5.104215
_cell_length_c 27.511133
_cell_angle_alpha 90.000000
_cell_angle_beta 162.993121
_cell_angle_gamma 90.000000
_cell_volume 555.466360
_symmetry_space_group_name_H-M "P 2"
_symmetry_group_IT_number 3
_symmetry_cell_setting 'monoclinic'
loop_
_space_group_symop_operation_xyz
x,y,z
-x,y,-z
loop_
_atom_site_type_symbol
_atom_site_label
_atom_site_fract_x
_atom_site_fract_y
_atom_site_fract_z
Si Si1 0.751819 0.839300 0.195462
Si Si2 0.638991 0.912520 0.447697
Si Si3 0.473515 0.687913 0.196970
Si Si4 0.100145 0.218162 0.600822
Si Si5 0.275243 0.339964 0.973663
Si Si6 0.190651 0.127248 0.322332
Si Si7 0.166387 0.596013 0.155244
O O1 0.679522 0.445481 0.271784
O O2 0.027542 0.813503 0.367822
O O3 0.224293 0.157945 0.518975
O O4 0.533902 0.579033 0.089429
O O5 0.449623 0.730362 0.320777
O O6 0.373375 0.978573 0.364411
O O7 0.030526 0.932386 0.748745
O O8 0.335515 0.557299 0.182138
O O9 0.698279 0.944223 0.311007
O O10 0.160240 0.765098 0.015609
O O11 0.000000 0.307936 0.500000
O O12 0.508219 0.077324 0.918045
O O13 0.058019 0.323958 0.821890
O O14 0.014113 0.381054 0.895638
O O15 0.500000 0.242302 0.500000
#
# Coordination Sequence:
#
# PCOD9114113 Si02
#       7
#     2   2   2   2   2   2   2
#     4  11  27  51  74 109 147 196 242 302 368 434
#     4  11  25  48  78 109 147 192 250 302 364 433
#     4  11  27  48  71 106 151 195 244 300 364 433
#     4  12  25  46  74 105 147 190 245 293 370 427
#     4  12  26  48  78 107 149 191 246 294 374 435
#     4  10  26  49  77 110 148 191 245 305 364 434
#     4  11  26  46  74 109 147 195 246 303 362 431
#
# _framework density 25.204045000000001
#
# number of rings (size 3 to 8) (size 9 to 14) (size 15 to 20)
#    0.000    0.857    1.429    3.429    2.000   11.429 
#    0.000    6.429    0.000    0.000    0.000    0.000 
#    0.000    0.000    0.000    0.000    0.000    0.000 
#
# Total GULP energy -78471.498153 kJ/mol
# GULP energy per Si atom -5605.107011 kJ/mol
# Density = 2.514668 g / cm^3
# Si number density = 25.204045 Si / 1000 Ang^3
#
#
#
# Elastic Constant Matrix: (Units=GPa)
#
#
# Indices 1 2 3 4 5 6 
#
# 1 182.3109 37.4677 51.0531 -0.0249 2.1764 -0.0009
# 2 37.4677 101.1661 78.9431 -0.0035 9.5073 -0.0008
# 3 51.0531 78.9431 205.8369 -0.0367 -7.1810 -0.0045
# 4 -0.0249 -0.0035 -0.0367 -210.8306 -0.0286 -3.5661
# 5 2.1764 9.5073 -7.1810 -0.0286 43.3800 -0.0017
# 6 -0.0009 -0.0008 -0.0045 -3.5661 -0.0017 30.8616
#
#
#
# Elastic Compliance Matrix: (Units=1/GPa)
#
#
# Indices 1 2 3 4 5 6 
#
# 1 0.006056 -0.001506 -0.000929 -0.000001 -0.000128 0.000000
# 2 -0.001506 0.015211 -0.005606 0.000001 -0.004186 -0.000001
# 3 -0.000929 -0.005606 0.007325 -0.000001 0.002488 0.000001
# 4 -0.000001 0.000001 -0.000001 -0.004734 -0.000004 -0.000547
# 5 -0.000128 -0.004186 0.002488 -0.000004 0.024388 0.000001
# 6 0.000000 -0.000001 0.000001 -0.000547 0.000001 0.032340
#
#
# Mechanical properties :
#
#
# Convention : Reuss Voigt Hill
#
# Bulk Modulus (GPa) = 79.93581 91.58238 85.75910
# Shear Modulus (GPa) = 49.58450 -5.86113 21.86169
#
# Velocity S-wave (km/s) = 4.44026 -1.52660 2.94834
# Velocity P-wave (km/s) = 7.62051 5.77130 6.75944
#
# Compressibility (1/GPa) = 0.01251004
#
# Stress axis : x y z
#
# Youngs Moduli (GPa) = 165.11656 65.74399 136.51024
#
# Poissons Ratio (x) = 0.09902 0.12681
# Poissons Ratio (y) = 0.24869 0.76528
# Poissons Ratio (z) = 0.15338 0.36856
#
# Static dielectric constant tensor:
#      x y z
#    x 2.060330 0.000000 -0.028220 
#    y 0.000000 1.935770 0.000000 
#    z -0.028220 0.000000 2.011850 
# 
# From -- ./inp_files/16539.got.cif
#   From: 2010.05.17/outbox.cif.g08.bks.cpg/sg3_9_cif.got.tgz:16539.got - 2010.06.03 18:33:08.
