data_PCOD9114032
_publ_section_title
;
Structure prediction by ZEFSAII (Michael W. Deem and Ramdas Pophale) SiO2 
 PCOD9114032
Probable space group: P 2
;
_chemical_formula_sum "Si O2"
_cell_formula_units_Z 14
_cell_length_a 8.995727
_cell_length_b 6.801990
_cell_length_c 17.237651
_cell_angle_alpha 90.000000
_cell_angle_beta 38.199372
_cell_angle_gamma 90.000000
_cell_volume 652.258380
_symmetry_space_group_name_H-M "P 2"
_symmetry_group_IT_number 3
_symmetry_cell_setting 'monoclinic'
loop_
_space_group_symop_operation_xyz
x,y,z
-x,y,-z
loop_
_atom_site_type_symbol
_atom_site_label
_atom_site_fract_x
_atom_site_fract_y
_atom_site_fract_z
Si Si1 0.954114 0.859790 0.262449
Si Si2 0.000000 0.703144 0.500000
Si Si3 0.472240 0.255592 0.816792
Si Si4 0.430855 0.620148 0.112911
Si Si5 0.500000 0.605386 0.500000
Si Si6 0.149583 0.922221 0.013554
Si Si7 0.011666 0.064022 0.384681
Si Si8 0.362144 0.383395 0.401299
O O1 0.176671 0.725782 0.201716
O O2 0.993769 0.913342 0.156293
O O3 0.713664 0.742887 0.381003
O O4 0.958298 0.050971 0.315431
O O5 0.774194 0.558532 0.588437
O O6 0.983015 0.849426 0.434433
O O7 0.546550 0.445326 0.835698
O O8 0.434136 0.309002 0.741768
O O9 0.714038 0.125617 0.716516
O O10 0.259853 0.133455 0.943982
O O11 0.500000 0.538922 0.000000
O O12 0.622743 0.783991 0.060735
O O13 0.436605 0.470625 0.452769
O O14 0.000000 0.851085 0.000000
O O15 0.828601 0.211958 0.501025
#
# Coordination Sequence:
#
# PCOD9114032 Si02
#       8
#     2   1   2   2   1   2   2   2
#     4  11  25  49  74 103 146 192 239 295 364 423
#     4  12  20  44  68 102 144 180 244 294 356 428
#     4  12  24  42  74 106 137 189 239 295 353 429
#     4  10  24  46  74 102 139 190 238 291 354 426
#     4  12  28  46  72 110 152 192 234 306 366 420
#     4  11  28  47  71 106 142 188 238 298 359 426
#     4  12  23  41  76 105 136 190 243 298 353 429
#     4  12  26  43  70 109 143 186 242 297 361 428
#
# _framework density 21.463885999999999
#
# number of rings (size 3 to 8) (size 9 to 14) (size 15 to 20)
#    0.000    0.571    5.714    1.714    4.000    3.429 
#    2.571    0.000    0.000    0.000    0.000    0.000 
#    0.000    0.000    0.000    0.000    0.000    0.000 
#
# Total GULP energy -78264.252363 kJ/mol
# GULP energy per Si atom -5590.303740 kJ/mol
# Density = 2.141503 g / cm^3
# Si number density = 21.463886 Si / 1000 Ang^3
#
#
#
# Elastic Constant Matrix: (Units=GPa)
#
#
# Indices 1 2 3 4 5 6 
#
# 1 119.2078 28.4060 78.7885 0.0000 22.7398 0.0000
# 2 28.4060 78.2271 55.7263 0.0000 15.2127 0.0000
# 3 78.7885 55.7263 156.6118 0.0000 38.6804 0.0000
# 4 0.0000 0.0000 0.0000 -4.6631 0.0000 -4.9439
# 5 22.7398 15.2127 38.6804 0.0000 33.4405 0.0000
# 6 0.0000 0.0000 0.0000 -4.9439 0.0000 3.0860
#
#
#
# Elastic Compliance Matrix: (Units=1/GPa)
#
#
# Indices 1 2 3 4 5 6 
#
# 1 0.012639 -0.000037 -0.005917 0.000000 -0.001733 0.000000
# 2 -0.000037 0.017150 -0.005828 0.000000 -0.001035 0.000000
# 3 -0.005917 -0.005828 0.013701 0.000000 -0.009173 0.000000
# 4 0.000000 0.000000 0.000000 -0.079469 0.000000 -0.127313
# 5 -0.001733 -0.001035 -0.009173 0.000000 0.042164 0.000000
# 6 0.000000 0.000000 0.000000 -0.127313 0.000000 0.120083
#
#
# Mechanical properties :
#
#
# Convention : Reuss Voigt Hill
#
# Bulk Modulus (GPa) = 50.18628 75.54314 62.86471
# Shear Modulus (GPa) = 31.95394 19.11441 25.53418
#
# Velocity S-wave (km/s) = 3.86259 2.98743 3.45285
# Velocity P-wave (km/s) = 6.58220 6.86815 6.72669
#
# Compressibility (1/GPa) = 0.01992576
#
# Stress axis : x y z
#
# Youngs Moduli (GPa) = 79.11983 58.30998 72.98559
#
# Poissons Ratio (x) = 0.00217 0.43186
# Poissons Ratio (y) = 0.00295 0.42535
# Poissons Ratio (z) = 0.46816 0.33982
#
# Static dielectric constant tensor:
#      x y z
#    x 1.876440 0.000000 0.021030 
#    y 0.000000 1.775300 0.000000 
#    z 0.021030 0.000000 1.808760 
# 
# From -- ./inp_files/14825.got.cif
#   From: 2010.05.17/outbox.cif.g08.bks.cpg/sg3_8_cif.got.tgz:14825.got - 2010.06.03 18:33:08.
