data_PCOD9114906
_publ_section_title
;
Structure prediction by ZEFSAII (Michael W. Deem and Ramdas Pophale) SiO2 
 PCOD9114906
Probable space group: P 21
;
_chemical_formula_sum "Si O2"
_cell_formula_units_Z 16
_cell_length_a 6.457826
_cell_length_b 5.265764
_cell_length_c 20.497884
_cell_angle_alpha 90.000000
_cell_angle_beta 73.038888
_cell_angle_gamma 90.000000
_cell_volume 666.719391
_symmetry_space_group_name_H-M "P 21"
_symmetry_group_IT_number 4
_symmetry_cell_setting 'monoclinic'
loop_
_space_group_symop_operation_xyz
x,y,z
-x,1/2+y,-z
loop_
_atom_site_type_symbol
_atom_site_label
_atom_site_fract_x
_atom_site_fract_y
_atom_site_fract_z
Si Si1 0.586440 0.691090 0.349190
Si Si2 0.642617 0.608058 0.483101
Si Si3 0.071370 0.265934 0.787860
Si Si4 0.709987 0.696504 0.615730
Si Si5 0.965916 0.871452 0.868333
Si Si6 0.382010 0.644056 0.837317
Si Si7 0.837241 0.670603 0.739740
Si Si8 0.574709 0.569925 0.957523
O O1 0.724440 0.677362 0.403701
O O2 0.743366 0.641703 0.274505
O O3 0.414345 0.464291 0.370552
O O4 0.459029 0.960713 0.356312
O O5 0.550577 0.319983 0.491379
O O6 0.786752 0.649097 0.534352
O O7 0.225124 0.461207 0.812458
O O8 0.905339 0.385984 0.751532
O O9 0.920922 0.165551 0.861518
O O10 0.879371 0.708790 0.659773
O O11 0.945843 0.813866 0.791347
O O12 0.809517 0.699426 0.923927
O O13 0.213310 0.867241 0.868445
O O14 0.584601 0.720782 0.775032
O O15 0.474952 0.531516 0.894897
O O16 0.554964 0.306945 0.997743
#
# Coordination Sequence:
#
# PCOD9114906 Si02
#       8
#     2   2   2   2   2   2   2   2
#     4  10  20  35  62  93 126 173 224 271 335 387
#     4   8  16  31  55  86 121 167 225 270 320 401
#     4  11  23  38  69  98 136 171 221 278 327 387
#     4  10  19  36  61  89 125 177 223 272 336 387
#     4  10  25  42  68  97 132 170 219 267 322 389
#     4  10  23  44  68  97 131 173 216 266 325 384
#     4  10  22  38  61  97 129 169 217 276 326 382
#     4  11  28  48  74 101 136 172 215 264 323 393
#
# _framework density 23.998104999999999
#
# number of rings (size 3 to 8) (size 9 to 14) (size 15 to 20)
#    0.000    2.000    1.250    0.750   10.500    2.000 
#    0.000    0.000    2.750    0.000    0.000    0.000 
#    0.000    0.000    0.000    0.000    0.000    0.000 
#
# Total GULP energy -89098.084280 kJ/mol
# GULP energy per Si atom -5568.630268 kJ/mol
# Density = 2.394348 g / cm^3
# Si number density = 23.998105 Si / 1000 Ang^3
#
#
#
# Elastic Constant Matrix: (Units=GPa)
#
#
# Indices 1 2 3 4 5 6 
#
# 1 55.7884 -3.2474 -1.2276 0.0000 4.3659 0.0000
# 2 -3.2474 39.6259 8.2905 0.0000 -33.1621 0.0000
# 3 -1.2276 8.2905 53.3860 0.0000 12.0269 0.0000
# 4 0.0000 0.0000 0.0000 32.9750 0.0000 -1.4666
# 5 4.3659 -33.1621 12.0269 0.0000 7.3732 0.0000
# 6 0.0000 0.0000 0.0000 -1.4666 0.0000 29.6121
#
#
#
# Elastic Compliance Matrix: (Units=1/GPa)
#
#
# Indices 1 2 3 4 5 6 
#
# 1 0.017972 0.002544 -0.000256 0.000000 0.001216 0.000000
# 2 0.002544 -0.004089 0.008183 0.000000 -0.033244 0.000000
# 3 -0.000256 0.008183 0.014434 0.000000 0.013411 0.000000
# 4 0.000000 0.000000 0.000000 0.030393 0.000000 0.001505
# 5 0.001216 -0.033244 0.013411 0.000000 -0.036490 0.000000
# 6 0.000000 0.000000 0.000000 0.001505 0.000000 0.033845
#
#
# Mechanical properties :
#
#
# Convention : Reuss Voigt Hill
#
# Bulk Modulus (GPa) = 20.30103 17.38125 18.84114
# Shear Modulus (GPa) = 97.00900 23.65772 60.33336
#
# Velocity S-wave (km/s) = 6.36485 3.14318 5.01951
# Velocity P-wave (km/s) = 7.90525 4.52009 6.43911
#
# Compressibility (1/GPa) = 0.04925858
#
# Stress axis : x y z
#
# Youngs Moduli (GPa) = 55.64154 -244.55994 69.28281
#
# Poissons Ratio (x) = 0.62209 0.01771
# Poissons Ratio (y) = -0.14154 -0.56693
# Poissons Ratio (z) = 0.01422 2.00119
#
# Static dielectric constant tensor:
#      x y z
#    x 1.898440 0.000000 -0.020540 
#    y 0.000000 2.510420 0.000000 
#    z -0.020540 0.000000 2.010060 
# 
# From -- ./inp_files/4183.got.cif
#   From: 2010.05.17/outbox.cif.g08.bks.cpg/sg4_3_cif.got.tgz:4183.got - 2010.06.03 18:43:04.
