data_PCOD9114767
_publ_section_title
;
Structure prediction by ZEFSAII (Michael W. Deem and Ramdas Pophale) SiO2 
 PCOD9114767
Probable space group: P 21
;
_chemical_formula_sum "Si O2"
_cell_formula_units_Z 12
_cell_length_a 8.191781
_cell_length_b 8.202761
_cell_length_c 8.206388
_cell_angle_alpha 90.000000
_cell_angle_beta 51.687587
_cell_angle_gamma 90.000000
_cell_volume 432.675229
_symmetry_space_group_name_H-M "P 21"
_symmetry_group_IT_number 4
_symmetry_cell_setting 'monoclinic'
loop_
_space_group_symop_operation_xyz
x,y,z
-x,1/2+y,-z
loop_
_atom_site_type_symbol
_atom_site_label
_atom_site_fract_x
_atom_site_fract_y
_atom_site_fract_z
Si Si1 0.228350 0.410920 0.663266
Si Si2 0.376315 0.580287 0.071082
Si Si3 0.010730 0.092081 0.444476
Si Si4 0.794376 0.379285 0.443653
Si Si5 0.369362 0.259418 0.863402
Si Si6 0.374043 0.755394 0.742329
O O1 0.037409 0.463408 0.668996
O O2 0.196911 0.283176 0.830794
O O3 0.318341 0.578926 0.690214
O O4 0.583850 0.606381 0.051490
O O5 0.365909 0.410880 0.986356
O O6 0.357923 0.716548 0.941737
O O7 0.181853 0.593588 0.310839
O O8 0.195357 0.036493 0.447699
O O9 0.989709 0.266919 0.372693
O O10 0.582501 0.288428 0.628297
O O11 0.776007 0.383974 0.260674
O O12 0.401343 0.332731 0.437773
#
# Coordination Sequence:
#
# PCOD9114767 Si02
#       6
#     2   2   2   2   2   2
#     4   9  18  33  55  77 103 137 175 208 253 314
#     4  10  19  33  55  82 106 130 172 225 260 294
#     4  10  20  35  54  77 104 137 175 216 257 307
#     4   9  20  36  53  75 106 141 175 207 256 318
#     4   9  19  35  55  79 105 137 174 214 256 306
#     4   9  18  34  54  78 106 136 173 216 256 307
#
# _framework density 27.734425999999999
#
# number of rings (size 3 to 8) (size 9 to 14) (size 15 to 20)
#    0.000    2.667    0.000    2.000    0.000    5.333 
#    0.000   10.000    0.000    6.000    0.000    0.000 
#    0.000    0.000    0.000    0.000    0.000    0.000 
#
# Total GULP energy -67128.335678 kJ/mol
# GULP energy per Si atom -5594.027973 kJ/mol
# Density = 2.767130 g / cm^3
# Si number density = 27.734426 Si / 1000 Ang^3
#
#
#
# Elastic Constant Matrix: (Units=GPa)
#
#
# Indices 1 2 3 4 5 6 
#
# 1 117.4063 42.1027 51.8940 0.0000 38.5552 0.0000
# 2 42.1027 92.0806 21.5556 0.0000 18.2145 0.0000
# 3 51.8940 21.5556 98.9657 0.0000 28.5585 0.0000
# 4 0.0000 0.0000 0.0000 41.2319 0.0000 7.4034
# 5 38.5552 18.2145 28.5585 0.0000 44.9448 0.0000
# 6 0.0000 0.0000 0.0000 7.4034 0.0000 52.9020
#
#
#
# Elastic Compliance Matrix: (Units=1/GPa)
#
#
# Indices 1 2 3 4 5 6 
#
# 1 0.014565 -0.004030 -0.004440 0.000000 -0.008041 0.000000
# 2 -0.004030 0.013096 -0.000251 0.000000 -0.001690 0.000000
# 3 -0.004440 -0.000251 0.013909 0.000000 -0.004928 0.000000
# 4 0.000000 0.000000 0.000000 0.024878 0.000000 -0.003482
# 5 -0.008041 -0.001690 -0.004928 0.000000 0.032963 0.000000
# 6 0.000000 0.000000 0.000000 -0.003482 0.000000 0.019390
#
#
# Mechanical properties :
#
#
# Convention : Reuss Voigt Hill
#
# Bulk Modulus (GPa) = 41.44455 59.95079 50.69767
# Shear Modulus (GPa) = 34.65319 40.67576 37.66448
#
# Velocity S-wave (km/s) = 3.53861 3.83380 3.68916
# Velocity P-wave (km/s) = 5.62774 6.42342 6.03870
#
# Compressibility (1/GPa) = 0.02412863
#
# Stress axis : x y z
#
# Youngs Moduli (GPa) = 68.65609 76.35929 71.89487
#
# Poissons Ratio (x) = 0.30773 0.31918
# Poissons Ratio (y) = 0.27669 0.01807
# Poissons Ratio (z) = 0.30480 0.01920
#
# Static dielectric constant tensor:
#      x y z
#    x 2.247460 0.000000 0.001160 
#    y 0.000000 2.247310 0.000000 
#    z 0.001160 0.000000 2.216820 
# 
# From -- ./inp_files/6004.got.cif
#   From: 2010.05.17/outbox.cif.g08.bks.cpg/sg4_4_cif.got.tgz:6004.got - 2010.06.03 18:43:04.
