data_PCOD9114024
_publ_section_title
;
Structure prediction by ZEFSAII (Michael W. Deem and Ramdas Pophale) SiO2 
 PCOD9114024
Probable space group: P 2
;
_chemical_formula_sum "Si O2"
_cell_formula_units_Z 11
_cell_length_a 7.963572
_cell_length_b 6.386878
_cell_length_c 13.713969
_cell_angle_alpha 90.000000
_cell_angle_beta 39.042779
_cell_angle_gamma 90.000000
_cell_volume 439.371234
_symmetry_space_group_name_H-M "P 2"
_symmetry_group_IT_number 3
_symmetry_cell_setting 'monoclinic'
loop_
_space_group_symop_operation_xyz
x,y,z
-x,y,-z
loop_
_atom_site_type_symbol
_atom_site_label
_atom_site_fract_x
_atom_site_fract_y
_atom_site_fract_z
Si Si1 0.121893 0.945680 0.052668
Si Si2 0.363503 0.173887 0.227721
Si Si3 0.500000 0.555117 0.500000
Si Si4 0.581687 0.879948 0.617181
Si Si5 0.826307 0.173192 0.350501
Si Si6 0.709552 0.558337 0.116872
O O1 0.237229 0.709395 0.000353
O O2 0.903492 0.010636 0.230478
O O3 0.000000 0.990637 0.000000
O O4 0.380882 0.090654 0.946886
O O5 0.474598 0.391736 0.220565
O O6 0.101848 0.208322 0.283701
O O7 0.309743 0.993477 0.333286
O O8 0.662450 0.699587 0.502367
O O9 0.718348 0.393622 0.359521
O O10 0.358725 0.730116 0.769526
O O11 0.630457 0.076468 0.521694
O O12 0.000000 0.457216 0.000000
#
# Coordination Sequence:
#
# PCOD9114024 Si02
#       6
#     2   2   1   2   2   2
#     4  10  25  46  78 110 153 206 260 323 394 469
#     4  11  25  49  78 113 159 203 260 330 394 463
#     4  12  30  44  80 116 162 208 270 316 396 476
#     4  11  27  47  73 114 156 205 255 328 389 468
#     4  12  28  49  78 115 159 209 268 322 392 472
#     4  10  24  45  81 112 150 207 258 322 398 469
#
# _framework density 25.035778000000001
#
# number of rings (size 3 to 8) (size 9 to 14) (size 15 to 20)
#    0.000    1.091    0.000    3.273   20.364    5.091 
#    0.000    3.636    0.000    0.000    0.000    0.000 
#    0.000    0.000    0.000    0.000    0.000    0.000 
#
# Total GULP energy -61256.414565 kJ/mol
# GULP energy per Si atom -5568.764960 kJ/mol
# Density = 2.497880 g / cm^3
# Si number density = 25.035778 Si / 1000 Ang^3
#
#
#
# Elastic Constant Matrix: (Units=GPa)
#
#
# Indices 1 2 3 4 5 6 
#
# 1 111.4639 62.9826 18.9570 0.0000 -0.2984 0.0000
# 2 62.9826 167.9951 29.3000 0.0000 -6.3386 0.0000
# 3 18.9570 29.3000 123.2383 0.0000 2.1284 0.0000
# 4 0.0000 0.0000 0.0000 -62.1616 0.0000 64.7992
# 5 -0.2984 -6.3386 2.1284 0.0000 30.9408 0.0000
# 6 0.0000 0.0000 0.0000 64.7992 0.0000 -33.6768
#
#
#
# Elastic Compliance Matrix: (Units=1/GPa)
#
#
# Indices 1 2 3 4 5 6 
#
# 1 0.011468 -0.004194 -0.000755 0.000000 -0.000697 0.000000
# 2 -0.004194 0.007803 -0.001238 0.000000 0.001643 0.000000
# 3 -0.000755 -0.001238 0.008540 0.000000 -0.000848 0.000000
# 4 0.000000 0.000000 0.000000 0.015995 0.000000 0.030776
# 5 -0.000697 0.001643 -0.000848 0.000000 0.032708 0.000000
# 6 0.000000 0.000000 0.000000 0.030776 0.000000 0.029523
#
#
# Mechanical properties :
#
#
# Convention : Reuss Voigt Hill
#
# Bulk Modulus (GPa) = 64.78454 69.46406 67.12430
# Shear Modulus (GPa) = 40.46753 6.45098 23.45925
#
# Velocity S-wave (km/s) = 4.02479 1.60695 3.06441
# Velocity P-wave (km/s) = 6.89432 5.59010 6.27618
#
# Compressibility (1/GPa) = 0.01543578
#
# Stress axis : x y z
#
# Youngs Moduli (GPa) = 87.20022 128.15726 117.10210
#
# Poissons Ratio (x) = 0.53749 0.08840
# Poissons Ratio (y) = 0.36572 0.14502
# Poissons Ratio (z) = 0.06582 0.15871
#
# Static dielectric constant tensor:
#      x y z
#    x 2.671680 0.000000 -0.080740 
#    y 0.000000 1.972450 0.000000 
#    z -0.080740 0.000000 2.089460 
# 
# From -- ./inp_files/13291.got.cif
#   From: 2010.05.17/outbox.cif.g08.bks.cpg/sg3_7_cif.got.tgz:13291.got - 2010.06.03 18:33:08.
