data_PCOD9114708
_publ_section_title
;
Structure prediction by ZEFSAII (Michael W. Deem and Ramdas Pophale) SiO2 
 PCOD9114708
Probable space group: P 21
;
_chemical_formula_sum "Si O2"
_cell_formula_units_Z 10
_cell_length_a 19.962418
_cell_length_b 4.999491
_cell_length_c 5.045433
_cell_angle_alpha 90.000000
_cell_angle_beta 49.938972
_cell_angle_gamma 90.000000
_cell_volume 385.392068
_symmetry_space_group_name_H-M "P 21"
_symmetry_group_IT_number 4
_symmetry_cell_setting 'monoclinic'
loop_
_space_group_symop_operation_xyz
x,y,z
-x,1/2+y,-z
loop_
_atom_site_type_symbol
_atom_site_label
_atom_site_fract_x
_atom_site_fract_y
_atom_site_fract_z
Si Si1 0.942795 0.456010 0.117057
Si Si2 0.726366 0.966394 0.492590
Si Si3 0.309168 0.000847 0.075539
Si Si4 0.168325 0.821514 0.095298
Si Si5 0.447407 0.216866 0.067436
O O1 0.892062 0.456313 0.969454
O O2 0.882028 0.331240 0.501435
O O3 0.977392 0.746188 0.108194
O O4 0.701554 0.226766 0.730916
O O5 0.636179 0.865876 0.588070
O O6 0.803796 0.037778 0.098088
O O7 0.264547 0.945553 0.909171
O O8 0.406110 0.112852 0.893514
O O9 0.251213 0.232016 0.360560
O O10 0.518341 0.451856 0.875197
#
# Coordination Sequence:
#
# PCOD9114708 Si02
#       5
#     2   2   2   2   2
#     4  12  30  50  78 118 152 200 246 326 408 456
#     4  10  23  41  73 112 144 210 263 306 395 443
#     4  10  23  41  73 112 144 210 263 306 395 443
#     4  12  26  52  80 110 160 198 266 320 370 506
#     4  10  18  40  72 106 164 194 262 326 380 446
#
# _framework density 25.947603000000001
#
# number of rings (size 3 to 8) (size 9 to 14) (size 15 to 20)
#    1.200    0.000    4.000    1.200    2.800    4.800 
#    0.000    0.000    8.800    0.000    0.000    0.000 
#    0.000    0.000    0.000    0.000    0.000    0.000 
#
# Total GULP energy -55937.417702 kJ/mol
# GULP energy per Si atom -5593.741770 kJ/mol
# Density = 2.588855 g / cm^3
# Si number density = 25.947603 Si / 1000 Ang^3
#
#
#
# Elastic Constant Matrix: (Units=GPa)
#
#
# Indices 1 2 3 4 5 6 
#
# 1 211.8791 59.5658 26.7379 0.0000 7.9277 0.0000
# 2 59.5658 170.1213 15.0101 0.0000 1.0150 0.0000
# 3 26.7379 15.0101 44.4432 0.0000 7.9742 0.0000
# 4 0.0000 0.0000 0.0000 45.1754 0.0000 -15.9028
# 5 7.9277 1.0150 7.9742 0.0000 30.1811 0.0000
# 6 0.0000 0.0000 0.0000 -15.9028 0.0000 43.7832
#
#
#
# Elastic Compliance Matrix: (Units=1/GPa)
#
#
# Indices 1 2 3 4 5 6 
#
# 1 0.005560 -0.001710 -0.002641 0.000000 -0.000705 0.000000
# 2 -0.001710 0.006588 -0.001299 0.000000 0.000571 0.000000
# 3 -0.002641 -0.001299 0.025610 0.000000 -0.006029 0.000000
# 4 0.000000 0.000000 0.000000 0.025381 0.000000 0.009219
# 5 -0.000705 0.000571 -0.006029 0.000000 0.034892 0.000000
# 6 0.000000 0.000000 0.000000 0.009219 0.000000 0.026188
#
#
# Mechanical properties :
#
#
# Convention : Reuss Voigt Hill
#
# Bulk Modulus (GPa) = 37.79452 69.89681 53.84566
# Shear Modulus (GPa) = 34.64087 45.50328 40.07207
#
# Velocity S-wave (km/s) = 3.65777 4.19222 3.93408
# Velocity P-wave (km/s) = 5.69530 7.10134 6.43683
#
# Compressibility (1/GPa) = 0.02645886
#
# Stress axis : x y z
#
# Youngs Moduli (GPa) = 179.85799 151.79304 39.04727
#
# Poissons Ratio (x) = 0.25949 0.10313
# Poissons Ratio (y) = 0.30747 0.05072
# Poissons Ratio (z) = 0.47502 0.19716
#
# Static dielectric constant tensor:
#      x y z
#    x 2.033050 0.000000 -0.054600 
#    y 0.000000 2.012250 0.000000 
#    z -0.054600 0.000000 2.131080 
# 
# From -- ./inp_files/4221.got.cif
#   From: 2010.05.17/outbox.cif.g08.bks.cpg/sg4_3_cif.got.tgz:4221.got - 2010.06.03 18:43:04.
