data_PCOD9114048
_publ_section_title
;
Structure prediction by ZEFSAII (Michael W. Deem and Ramdas Pophale) SiO2 
 PCOD9114048
Probable space group: P 2
;
_chemical_formula_sum "Si O2"
_cell_formula_units_Z 15
_cell_length_a 25.176620
_cell_length_b 5.199971
_cell_length_c 25.999773
_cell_angle_alpha 90.000000
_cell_angle_beta 10.318175
_cell_angle_gamma 90.000000
_cell_volume 609.674712
_symmetry_space_group_name_H-M "P 2"
_symmetry_group_IT_number 3
_symmetry_cell_setting 'monoclinic'
loop_
_space_group_symop_operation_xyz
x,y,z
-x,y,-z
loop_
_atom_site_type_symbol
_atom_site_label
_atom_site_fract_x
_atom_site_fract_y
_atom_site_fract_z
Si Si1 0.000000 0.312410 0.000000
Si Si2 0.712775 0.818162 0.429813
Si Si3 0.703649 0.727814 0.080479
Si Si4 0.062972 0.660731 0.327985
Si Si5 0.839910 0.357695 0.868664
Si Si6 0.692474 0.599870 0.770133
Si Si7 0.615455 0.320173 0.460995
Si Si8 0.695123 0.022359 0.619567
O O1 0.824367 0.199798 0.216785
O O2 0.704053 0.425282 0.254824
O O3 0.763284 0.577550 0.343151
O O4 0.026556 0.894549 0.155468
O O5 0.572711 0.076326 0.539211
O O6 0.510983 0.699857 0.667066
O O7 0.845087 0.476684 0.919976
O O8 0.513417 0.832494 0.213861
O O9 0.082067 0.542438 0.253015
O O10 0.873694 0.486283 0.548646
O O11 0.396644 0.730991 0.028112
O O12 0.861110 0.907680 0.510160
O O13 0.063277 0.123895 0.650206
O O14 0.515685 0.255274 0.165748
O O15 0.000000 0.733197 0.500000
O O16 0.500000 0.460794 0.000000
#
# Coordination Sequence:
#
# PCOD9114048 Si02
#       8
#     1   2   2   2   2   2   2   2
#     4  10  24  48  76 100 144 172 256 296 364 434
#     4  12  27  45  71 104 149 185 243 290 380 427
#     4  12  27  44  65  99 144 185 229 286 331 453
#     4  11  21  42  63  98 133 168 244 279 343 435
#     4  12  25  42  68  99 134 188 232 285 348 406
#     4   9  19  36  67  94 128 180 216 286 370 420
#     4  11  26  46  72 108 134 196 230 308 362 433
#     4  12  25  42  68  99 134 188 232 285 348 406
#
# _framework density 24.603283000000001
#
# number of rings (size 3 to 8) (size 9 to 14) (size 15 to 20)
#    0.000    0.800    0.000    8.000    5.600    3.200 
#    0.000    0.000    0.000   44.800    0.000    0.000 
#    0.000    0.000    0.000    0.000    0.000    0.000 
#
# Total GULP energy -83514.219892 kJ/mol
# GULP energy per Si atom -5567.614659 kJ/mol
# Density = 2.454729 g / cm^3
# Si number density = 24.603283 Si / 1000 Ang^3
#
#
#
# Elastic Constant Matrix: (Units=GPa)
#
#
# Indices 1 2 3 4 5 6 
#
# 1 145.4014 8.2536 14.5782 0.0000 -3.4598 0.0000
# 2 8.2536 81.6550 27.7282 0.0000 -5.7210 0.0000
# 3 14.5782 27.7282 202.6815 0.0000 -1.4943 0.0000
# 4 0.0000 0.0000 0.0000 34.7033 0.0000 0.0613
# 5 -3.4598 -5.7210 -1.4943 0.0000 66.0805 0.0000
# 6 0.0000 0.0000 0.0000 0.0613 0.0000 4.6607
#
#
#
# Elastic Compliance Matrix: (Units=1/GPa)
#
#
# Indices 1 2 3 4 5 6 
#
# 1 0.006958 -0.000538 -0.000425 0.000000 0.000308 0.000000
# 2 -0.000538 0.012961 -0.001727 0.000000 0.001055 0.000000
# 3 -0.000425 -0.001727 0.005200 0.000000 -0.000054 0.000000
# 4 0.000000 0.000000 0.000000 0.028816 0.000000 -0.000379
# 5 0.000308 0.001055 -0.000054 0.000000 0.015239 0.000000
# 6 0.000000 0.000000 0.000000 -0.000379 0.000000 0.214564
#
#
# Mechanical properties :
#
#
# Convention : Reuss Voigt Hill
#
# Bulk Modulus (GPa) = 50.65447 58.98422 54.81934
# Shear Modulus (GPa) = 16.90920 46.36743 31.63831
#
# Velocity S-wave (km/s) = 2.62444 4.34591 3.58989
# Velocity P-wave (km/s) = 5.46047 7.01490 6.28592
#
# Compressibility (1/GPa) = 0.01974159
#
# Stress axis : x y z
#
# Youngs Moduli (GPa) = 143.72089 77.15303 192.29940
#
# Poissons Ratio (x) = 0.04147 0.08166
# Poissons Ratio (y) = 0.07725 0.33205
# Poissons Ratio (z) = 0.06103 0.13322
#
# Static dielectric constant tensor:
#      x y z
#    x 2.060430 0.000000 0.004850 
#    y 0.000000 1.928470 0.000000 
#    z 0.004850 0.000000 1.798930 
# 
# From -- ./inp_files/16577.got.cif
#   From: 2010.05.17/outbox.cif.g08.bks.cpg/sg3_9_cif.got.tgz:16577.got - 2010.06.03 18:33:08.
