data_PCOD9114353
_publ_section_title
;
Structure prediction by ZEFSAII (Michael W. Deem and Ramdas Pophale) SiO2 
 PCOD9114353
Probable space group: P 2
;
_chemical_formula_sum "Si O2"
_cell_formula_units_Z 10
_cell_length_a 8.517099
_cell_length_b 7.597039
_cell_length_c 14.443740
_cell_angle_alpha 90.000000
_cell_angle_beta 30.351075
_cell_angle_gamma 90.000000
_cell_volume 472.239706
_symmetry_space_group_name_H-M "P 2"
_symmetry_group_IT_number 3
_symmetry_cell_setting 'monoclinic'
loop_
_space_group_symop_operation_xyz
x,y,z
-x,y,-z
loop_
_atom_site_type_symbol
_atom_site_label
_atom_site_fract_x
_atom_site_fract_y
_atom_site_fract_z
Si Si1 0.266552 0.581790 0.285525
Si Si2 0.461994 0.961065 0.194771
Si Si3 0.172060 0.446519 0.643212
Si Si4 0.156682 0.134272 0.510632
Si Si5 0.809900 0.299221 0.002198
O O1 0.485504 0.753961 0.175066
O O2 0.499267 0.416165 0.172859
O O3 0.000000 0.604631 0.500000
O O4 0.070206 0.560952 0.291517
O O5 0.131772 0.011306 0.314105
O O6 0.713093 0.097704 0.030192
O O7 0.414567 0.017339 0.327712
O O8 0.500000 0.534532 0.500000
O O9 0.247066 0.276595 0.539446
O O10 0.006514 0.378786 0.819141
O O11 0.000000 0.227866 0.500000
O O12 0.000000 0.305151 0.000000
#
# Coordination Sequence:
#
# PCOD9114353 Si02
#       5
#     2   2   2   2   2
#     4  12  22  43  71  97 138 171 219 272 335 399
#     4   9  20  41  69  93 129 170 217 262 335 381
#     4  12  24  42  68 100 134 179 221 271 333 392
#     4   8  17  40  65  94 119 170 210 260 326 379
#     4  12  26  44  68  99 135 175 225 275 328 394
#
# _framework density 21.175688000000001
#
# number of rings (size 3 to 8) (size 9 to 14) (size 15 to 20)
#    1.200    0.000    4.000    4.800    0.000    0.800 
#    7.200    1.000    0.000    0.000    0.000    0.000 
#    0.000    0.000    0.000    0.000    0.000    0.000 
#
# Total GULP energy -55750.973086 kJ/mol
# GULP energy per Si atom -5575.097309 kJ/mol
# Density = 2.112749 g / cm^3
# Si number density = 21.175688 Si / 1000 Ang^3
#
#
#
# Elastic Constant Matrix: (Units=GPa)
#
#
# Indices 1 2 3 4 5 6 
#
# 1 96.7295 30.2110 38.3424 0.0000 0.8143 0.0000
# 2 30.2110 108.3892 29.8937 0.0000 1.1737 0.0000
# 3 38.3424 29.8937 100.3794 0.0000 0.1887 0.0000
# 4 0.0000 0.0000 0.0000 8.5240 0.0000 4.9405
# 5 0.8143 1.1737 0.1887 0.0000 28.7304 0.0000
# 6 0.0000 0.0000 0.0000 4.9405 0.0000 -30.8947
#
#
#
# Elastic Compliance Matrix: (Units=1/GPa)
#
#
# Indices 1 2 3 4 5 6 
#
# 1 0.012735 -0.002403 -0.004148 0.000000 -0.000236 0.000000
# 2 -0.002403 0.010509 -0.002211 0.000000 -0.000347 0.000000
# 3 -0.004148 -0.002211 0.012205 0.000000 0.000128 0.000000
# 4 0.000000 0.000000 0.000000 0.107364 0.000000 0.017169
# 5 -0.000236 -0.000347 0.000128 0.000000 0.034826 0.000000
# 6 0.000000 0.000000 0.000000 0.017169 0.000000 -0.029622
#
#
# Mechanical properties :
#
#
# Convention : Reuss Voigt Hill
#
# Bulk Modulus (GPa) = 55.79020 55.82136 55.80578
# Shear Modulus (GPa) = 29.15157 15.07536 22.11346
#
# Velocity S-wave (km/s) = 3.71435 2.67107 3.23505
# Velocity P-wave (km/s) = 6.69319 5.99426 6.35334
#
# Compressibility (1/GPa) = 0.01792430
#
# Stress axis : x y z
#
# Youngs Moduli (GPa) = 78.52416 95.15303 81.93321
#
# Poissons Ratio (x) = 0.22864 0.33989
# Poissons Ratio (y) = 0.18869 0.18118
# Poissons Ratio (z) = 0.32575 0.21041
#
# Static dielectric constant tensor:
#      x y z
#    x 1.747930 0.000000 -0.005240 
#    y 0.000000 1.810260 0.000000 
#    z -0.005240 0.000000 1.815280 
# 
# From -- ./inp_files/13441.got.cif
#   From: 2010.05.17/outbox.cif.g08.bks.cpg/sg3_7_cif.got.tgz:13441.got - 2010.06.03 18:33:08.
