data_PCOD9114583
_publ_section_title
;
Structure prediction by ZEFSAII (Michael W. Deem and Ramdas Pophale) SiO2 
 PCOD9114583
Probable space group: P 21
;
_chemical_formula_sum "Si O2"
_cell_formula_units_Z 12
_cell_length_a 8.764452
_cell_length_b 7.712825
_cell_length_c 9.544904
_cell_angle_alpha 90.000000
_cell_angle_beta 45.002746
_cell_angle_gamma 90.000000
_cell_volume 456.263392
_symmetry_space_group_name_H-M "P 21"
_symmetry_group_IT_number 4
_symmetry_cell_setting 'monoclinic'
loop_
_space_group_symop_operation_xyz
x,y,z
-x,1/2+y,-z
loop_
_atom_site_type_symbol
_atom_site_label
_atom_site_fract_x
_atom_site_fract_y
_atom_site_fract_z
Si Si1 0.016859 0.462350 0.325883
Si Si2 0.329132 0.937895 0.997466
Si Si3 0.644420 0.064208 0.476709
Si Si4 0.758114 0.765321 0.593464
Si Si5 0.365642 0.724115 0.225344
Si Si6 0.802002 0.360712 0.198542
O O1 0.810469 0.578556 0.500638
O O2 0.991644 0.408263 0.182202
O O3 0.067197 0.306911 0.400007
O O4 0.215344 0.589151 0.235711
O O5 0.527078 0.816830 0.808702
O O6 0.152663 0.892396 0.994708
O O7 0.397342 0.138168 0.944618
O O8 0.321740 0.893824 0.164827
O O9 0.781479 0.904724 0.451422
O O10 0.402688 0.986937 0.632233
O O11 0.659221 0.207470 0.591881
O O12 0.723373 0.166302 0.289642
#
# Coordination Sequence:
#
# PCOD9114583 Si02
#       6
#     2   2   2   2   2   2
#     4  10  18  33  53  78 106 131 171 222 254 296
#     4   9  20  36  52  73 103 138 171 204 255 314
#     4   9  19  33  53  79 104 137 172 208 257 310
#     4   9  19  33  53  79 104 137 172 208 257 310
#     4   9  20  36  52  73 103 138 171 204 255 314
#     4  10  18  33  53  78 106 131 171 222 254 296
#
# _framework density 26.300595999999999
#
# number of rings (size 3 to 8) (size 9 to 14) (size 15 to 20)
#    0.000    3.333    0.000    4.000    0.000    4.000 
#    0.000    8.333    0.000    0.000    0.000    0.000 
#    0.000    0.000    0.000    0.000    0.000    0.000 
#
# Total GULP energy -67011.106227 kJ/mol
# GULP energy per Si atom -5584.258852 kJ/mol
# Density = 2.624074 g / cm^3
# Si number density = 26.300596 Si / 1000 Ang^3
#
#
#
# Elastic Constant Matrix: (Units=GPa)
#
#
# Indices 1 2 3 4 5 6 
#
# 1 123.4792 23.6816 35.0552 0.0000 39.4404 0.0000
# 2 23.6816 64.2750 24.8317 0.0000 12.6590 0.0000
# 3 35.0552 24.8317 96.8760 0.0000 26.8502 0.0000
# 4 0.0000 0.0000 0.0000 36.2493 0.0000 6.9724
# 5 39.4404 12.6590 26.8502 0.0000 43.0621 0.0000
# 6 0.0000 0.0000 0.0000 6.9724 0.0000 48.1122
#
#
#
# Elastic Compliance Matrix: (Units=1/GPa)
#
#
# Indices 1 2 3 4 5 6 
#
# 1 0.011865 -0.002057 -0.001115 0.000000 -0.009568 0.000000
# 2 -0.002057 0.017909 -0.003517 0.000000 -0.001188 0.000000
# 3 -0.001115 -0.003517 0.013368 0.000000 -0.006281 0.000000
# 4 0.000000 0.000000 0.000000 0.028378 0.000000 -0.004112
# 5 -0.009568 -0.001188 -0.006281 0.000000 0.036251 0.000000
# 6 0.000000 0.000000 0.000000 -0.004112 0.000000 0.021381
#
#
# Mechanical properties :
#
#
# Convention : Reuss Voigt Hill
#
# Bulk Modulus (GPa) = 33.59569 50.19636 41.89603
# Shear Modulus (GPa) = 32.79769 38.88883 35.84326
#
# Velocity S-wave (km/s) = 3.53517 3.84947 3.69566
# Velocity P-wave (km/s) = 5.42814 6.23578 5.84592
#
# Compressibility (1/GPa) = 0.02976572
#
# Stress axis : x y z
#
# Youngs Moduli (GPa) = 84.27799 55.83905 74.80562
#
# Poissons Ratio (x) = 0.11485 0.08337
# Poissons Ratio (y) = 0.17334 0.26308
# Poissons Ratio (z) = 0.09393 0.19638
#
# Static dielectric constant tensor:
#      x y z
#    x 2.128820 0.000000 -0.069360 
#    y 0.000000 2.107730 0.000000 
#    z -0.069360 0.000000 2.142540 
# 
# From -- ./inp_files/5223.got.cif
#   From: 2010.05.17/outbox.cif.g08.bks.cpg/sg4_3_cif.got.tgz:5223.got - 2010.06.03 18:43:04.
