data_PCOD9114283
_publ_section_title
;
Structure prediction by ZEFSAII (Michael W. Deem and Ramdas Pophale) SiO2 
 PCOD9114283
Probable space group: P 2
;
_chemical_formula_sum "Si O2"
_cell_formula_units_Z 14
_cell_length_a 10.023703
_cell_length_b 5.257977
_cell_length_c 21.692168
_cell_angle_alpha 90.000000
_cell_angle_beta 26.883527
_cell_angle_gamma 90.000000
_cell_volume 516.963094
_symmetry_space_group_name_H-M "P 2"
_symmetry_group_IT_number 3
_symmetry_cell_setting 'monoclinic'
loop_
_space_group_symop_operation_xyz
x,y,z
-x,y,-z
loop_
_atom_site_type_symbol
_atom_site_label
_atom_site_fract_x
_atom_site_fract_y
_atom_site_fract_z
Si Si1 0.448854 0.122880 0.949359
Si Si2 0.270807 0.709423 0.319614
Si Si3 0.038942 0.317759 0.319348
Si Si4 0.633299 0.423535 0.258255
Si Si5 0.225927 0.646238 0.981684
Si Si6 0.268757 0.604176 0.651503
Si Si7 0.657881 0.010928 0.558747
O O1 0.375037 0.401681 0.952785
O O2 0.768699 0.085466 0.785826
O O3 0.221474 0.897148 0.026772
O O4 0.500000 0.129106 0.000000
O O5 0.377809 0.620090 0.343191
O O6 0.571081 0.762620 0.156904
O O7 0.168338 0.455543 0.325820
O O8 0.986843 0.890807 0.432601
O O9 0.008680 0.519597 0.275828
O O10 0.735941 0.209157 0.471275
O O11 0.757636 0.431001 0.276418
O O12 0.906221 0.514669 0.104127
O O13 0.467392 0.153358 0.328660
O O14 0.500000 0.598707 0.500000
O O15 0.397058 0.846155 0.635994
#
# Coordination Sequence:
#
# PCOD9114283 Si02
#       7
#     2   2   2   2   2   2   2
#     4  11  24  48  83 119 163 221 287 358 435 534
#     4  11  26  52  79 113 166 227 292 353 446 539
#     4  11  25  48  76 115 161 221 286 353 438 529
#     4  12  29  48  79 123 163 218 297 363 438 529
#     4  11  26  51  80 120 166 226 288 368 439 529
#     4  12  26  44  73 115 166 209 278 360 439 518
#     4  12  26  49  81 115 166 231 282 367 446 530
#
# _framework density 27.081239
#
# number of rings (size 3 to 8) (size 9 to 14) (size 15 to 20)
#    0.000    0.571    4.286    1.714    4.000    6.857 
#    0.000    1.429    0.000    0.000    0.000    0.000 
#    0.000    0.000    0.000    0.000    0.000    0.000 
#
# Total GULP energy -78024.235799 kJ/mol
# GULP energy per Si atom -5573.159700 kJ/mol
# Density = 2.701960 g / cm^3
# Si number density = 27.081239 Si / 1000 Ang^3
#
#
#
# Elastic Constant Matrix: (Units=GPa)
#
#
# Indices 1 2 3 4 5 6 
#
# 1 110.6098 40.0891 41.6373 0.0000 1.8526 0.0000
# 2 40.0891 84.6447 40.7568 0.0000 -16.2789 0.0000
# 3 41.6373 40.7568 170.1586 0.0000 -12.4908 0.0000
# 4 0.0000 0.0000 0.0000 35.6793 0.0000 3.2082
# 5 1.8526 -16.2789 -12.4908 0.0000 39.6748 0.0000
# 6 0.0000 0.0000 0.0000 3.2082 0.0000 24.7626
#
#
#
# Elastic Compliance Matrix: (Units=1/GPa)
#
#
# Indices 1 2 3 4 5 6 
#
# 1 0.011707 -0.005293 -0.001839 0.000000 -0.003297 0.000000
# 2 -0.005293 0.016613 -0.002217 0.000000 0.006366 0.000000
# 3 -0.001839 -0.002217 0.006958 0.000000 0.001367 0.000000
# 4 0.000000 0.000000 0.000000 0.028358 0.000000 -0.003674
# 5 -0.003297 0.006366 0.001367 0.000000 0.028401 0.000000
# 6 0.000000 0.000000 0.000000 -0.003674 0.000000 0.040859
#
#
# Mechanical properties :
#
#
# Convention : Reuss Voigt Hill
#
# Bulk Modulus (GPa) = 60.31312 67.81993 64.06653
# Shear Modulus (GPa) = 31.82289 36.21868 34.02078
#
# Velocity S-wave (km/s) = 3.43168 3.66103 3.54821
# Velocity P-wave (km/s) = 6.16615 6.55502 6.36356
#
# Compressibility (1/GPa) = 0.01658014
#
# Stress axis : x y z
#
# Youngs Moduli (GPa) = 85.42143 60.19535 143.71789
#
# Poissons Ratio (x) = 0.31863 0.26427
# Poissons Ratio (y) = 0.45216 0.31856
# Poissons Ratio (z) = 0.15707 0.13343
#
# Static dielectric constant tensor:
#      x y z
#    x 2.229800 0.000000 -0.100070 
#    y 0.000000 2.274150 0.000000 
#    z -0.100070 0.000000 2.236760 
# 
# From -- ./inp_files/14844.got.cif
#   From: 2010.05.17/outbox.cif.g08.bks.cpg/sg3_8_cif.got.tgz:14844.got - 2010.06.03 18:33:08.
