data_PCOD9114457
_publ_section_title
;
Structure prediction by ZEFSAII (Michael W. Deem and Ramdas Pophale) SiO2 
 PCOD9114457
Probable space group: P 21
;
_chemical_formula_sum "Si O2"
_cell_formula_units_Z 16
_cell_length_a 6.780293
_cell_length_b 12.458115
_cell_length_c 8.517361
_cell_angle_alpha 90.000000
_cell_angle_beta 81.107747
_cell_angle_gamma 90.000000
_cell_volume 710.811337
_symmetry_space_group_name_H-M "P 21"
_symmetry_group_IT_number 4
_symmetry_cell_setting 'monoclinic'
loop_
_space_group_symop_operation_xyz
x,y,z
-x,1/2+y,-z
loop_
_atom_site_type_symbol
_atom_site_label
_atom_site_fract_x
_atom_site_fract_y
_atom_site_fract_z
Si Si1 0.043373 0.803760 0.854280
Si Si2 0.690340 0.624930 0.201283
Si Si3 0.683536 0.419586 0.391826
Si Si4 0.864200 0.192780 0.824271
Si Si5 0.381858 0.365753 0.708339
Si Si6 0.067683 0.894689 0.365415
Si Si7 0.874368 0.587481 0.854251
Si Si8 0.240241 0.494422 0.007203
O O1 0.252775 0.835251 0.749526
O O2 0.929174 0.705262 0.784327
O O3 0.097236 0.765038 0.024336
O O4 0.886131 0.900701 0.892317
O O5 0.613867 0.526822 0.313946
O O6 0.602621 0.742107 0.240625
O O7 0.922114 0.637137 0.231039
O O8 0.716480 0.598447 0.013943
O O9 0.528907 0.390852 0.547034
O O10 0.894784 0.422668 0.459332
O O11 0.832939 0.280791 0.693713
O O12 0.714265 0.094465 0.881513
O O13 0.391614 0.437784 0.866695
O O14 0.159713 0.383722 0.663244
O O15 0.167348 0.994574 0.262536
O O16 0.078448 0.549905 0.912821
#
# Coordination Sequence:
#
# PCOD9114457 Si02
#       8
#     2   2   2   2   2   2   2   2
#     4  10  16  32  60  82 101 156 198 220 279 352
#     4   9  17  35  59  81 112 158 192 237 286 339
#     4  12  23  34  60  90 118 148 190 238 303 341
#     4   9  16  33  63  77 109 158 196 230 277 346
#     4  10  21  38  58  85 120 147 193 244 290 335
#     4  10  21  38  55  88 123 149 185 241 293 337
#     4   9  16  32  61  79 106 158 199 224 277 350
#     4   9  14  32  60  78  99 156 193 218 279 338
#
# _framework density 22.509488999999999
#
# number of rings (size 3 to 8) (size 9 to 14) (size 15 to 20)
#    0.000    2.500    7.500    0.000    0.000    5.000 
#    0.000    1.250    5.500    0.000    0.000    0.000 
#    0.000    0.000    0.000    0.000    0.000    0.000 
#
# Total GULP energy -89199.610724 kJ/mol
# GULP energy per Si atom -5574.975670 kJ/mol
# Density = 2.245826 g / cm^3
# Si number density = 22.509489 Si / 1000 Ang^3
#
#
#
# Elastic Constant Matrix: (Units=GPa)
#
#
# Indices 1 2 3 4 5 6 
#
# 1 45.1102 8.5655 11.3862 0.0000 -11.4008 0.0000
# 2 8.5655 137.5922 54.6199 0.0000 -16.4924 0.0000
# 3 11.3862 54.6199 108.0069 0.0000 -35.8960 0.0000
# 4 0.0000 0.0000 0.0000 13.8864 0.0000 -3.0648
# 5 -11.4008 -16.4924 -35.8960 0.0000 36.2883 0.0000
# 6 0.0000 0.0000 0.0000 -3.0648 0.0000 9.1699
#
#
#
# Elastic Compliance Matrix: (Units=1/GPa)
#
#
# Indices 1 2 3 4 5 6 
#
# 1 0.024139 -0.000731 0.000350 0.000000 0.007598 0.000000
# 2 -0.000731 0.009125 -0.004820 0.000000 -0.000851 0.000000
# 3 0.000350 -0.004820 0.016340 0.000000 0.014082 0.000000
# 4 0.000000 0.000000 0.000000 0.077748 0.000000 0.025985
# 5 0.007598 -0.000851 0.014082 0.000000 0.043488 0.000000
# 6 0.000000 0.000000 0.000000 0.025985 0.000000 0.117737
#
#
# Mechanical properties :
#
#
# Convention : Reuss Voigt Hill
#
# Bulk Modulus (GPa) = 25.50959 48.87249 37.19104
# Shear Modulus (GPa) = 16.02333 26.27811 21.15072
#
# Velocity S-wave (km/s) = 2.67094 3.42047 3.06867
# Velocity P-wave (km/s) = 4.56830 6.11216 5.39573
#
# Compressibility (1/GPa) = 0.03920094
#
# Stress axis : x y z
#
# Youngs Moduli (GPa) = 41.42747 109.59086 61.20108
#
# Poissons Ratio (x) = 0.08011 -0.02142
# Poissons Ratio (y) = 0.03028 0.29500
# Poissons Ratio (z) = -0.01450 0.52824
#
# Static dielectric constant tensor:
#      x y z
#    x 1.906100 0.000000 -0.032420 
#    y 0.000000 1.918720 0.000000 
#    z -0.032420 0.000000 1.821830 
# 
# From -- ./inp_files/6042.got.cif
#   From: 2010.05.17/outbox.cif.g08.bks.cpg/sg4_4_cif.got.tgz:6042.got - 2010.06.03 18:43:04.
