data_PCOD9114565
_publ_section_title
;
Structure prediction by ZEFSAII (Michael W. Deem and Ramdas Pophale) SiO2 
 PCOD9114565
Probable space group: P 21
;
_chemical_formula_sum "Si O2"
_cell_formula_units_Z 16
_cell_length_a 5.079700
_cell_length_b 10.634441
_cell_length_c 12.027373
_cell_angle_alpha 90.000000
_cell_angle_beta 102.018946
_cell_angle_gamma 90.000000
_cell_volume 635.473368
_symmetry_space_group_name_H-M "P 21"
_symmetry_group_IT_number 4
_symmetry_cell_setting 'monoclinic'
loop_
_space_group_symop_operation_xyz
x,y,z
-x,1/2+y,-z
loop_
_atom_site_type_symbol
_atom_site_label
_atom_site_fract_x
_atom_site_fract_y
_atom_site_fract_z
Si Si1 0.437613 0.590320 0.759529
Si Si2 0.514930 0.215615 0.450277
Si Si3 0.168661 0.834333 0.841221
Si Si4 0.007175 0.920299 0.360871
Si Si5 0.007536 0.888177 0.596384
Si Si6 0.586535 0.220231 0.944265
Si Si7 0.509505 0.256656 0.680738
Si Si8 0.868813 0.643965 0.941900
O O1 0.544779 0.610890 0.645181
O O2 0.167052 0.510393 0.732784
O O3 0.683218 0.548612 0.858111
O O4 0.341120 0.723219 0.800120
O O5 0.282282 0.321287 0.421008
O O6 0.536853 0.164248 0.577716
O O7 0.786791 0.281935 0.432051
O O8 0.101861 0.924643 0.730603
O O9 0.899619 0.765988 0.862715
O O10 0.325729 0.843995 0.973795
O O11 0.011091 0.976887 0.487383
O O12 0.797377 0.802958 0.346988
O O13 0.285595 0.865946 0.341104
O O14 0.586004 0.225513 0.812399
O O15 0.296353 0.180004 0.963137
O O16 0.822194 0.120495 0.999298
#
# Coordination Sequence:
#
# PCOD9114565 Si02
#       8
#     2   2   2   2   2   2   2   2
#     4  10  18  32  50  78  97 126 166 210 252 289
#     4   9  17  29  49  66  95 127 162 196 238 289
#     4   8  17  29  53  70  95 124 172 205 230 282
#     4  10  22  29  50  72 107 128 156 205 264 297
#     4   9  16  31  44  72  95 126 158 200 241 287
#     4   9  17  30  49  72  91 122 166 206 238 279
#     4  10  20  34  46  75 103 134 160 203 249 298
#     4   9  17  28  51  73  89 123 166 213 232 277
#
# _framework density 25.178080000000001
#
# number of rings (size 3 to 8) (size 9 to 14) (size 15 to 20)
#    0.750    2.000    1.250    0.750    1.750    0.000 
#    0.000    0.000    0.000    4.500    0.000    0.000 
#    0.000    0.000    0.000    0.000    0.000    0.000 
#
# Total GULP energy -89109.889368 kJ/mol
# GULP energy per Si atom -5569.368085 kJ/mol
# Density = 2.512077 g / cm^3
# Si number density = 25.178080 Si / 1000 Ang^3
#
#
#
# Elastic Constant Matrix: (Units=GPa)
#
#
# Indices 1 2 3 4 5 6 
#
# 1 111.2247 10.4869 12.6821 0.0000 -15.8735 0.0000
# 2 10.4869 14.0288 19.1701 0.0000 -1.3951 0.0000
# 3 12.6821 19.1701 216.3262 0.0000 -7.7466 0.0000
# 4 0.0000 0.0000 0.0000 22.8127 0.0000 4.3818
# 5 -15.8735 -1.3951 -7.7466 0.0000 29.7165 0.0000
# 6 0.0000 0.0000 0.0000 4.3818 0.0000 14.5535
#
#
#
# Elastic Compliance Matrix: (Units=1/GPa)
#
#
# Indices 1 2 3 4 5 6 
#
# 1 0.010434 -0.007620 0.000253 0.000000 0.005282 0.000000
# 2 -0.007620 0.086780 -0.007312 0.000000 -0.001902 0.000000
# 3 0.000253 -0.007312 0.005298 0.000000 0.001173 0.000000
# 4 0.000000 0.000000 0.000000 0.046526 0.000000 -0.014008
# 5 0.005282 -0.001902 0.001173 0.000000 0.036689 0.000000
# 6 0.000000 0.000000 0.000000 -0.014008 0.000000 0.072930
#
#
# Mechanical properties :
#
#
# Convention : Reuss Voigt Hill
#
# Bulk Modulus (GPa) = 13.66973 47.36199 30.51586
# Shear Modulus (GPa) = 16.00519 33.36591 24.68555
#
# Velocity S-wave (km/s) = 2.52400 3.64427 3.13459
# Velocity P-wave (km/s) = 3.73298 6.04643 5.02466
#
# Compressibility (1/GPa) = 0.07315436
#
# Stress axis : x y z
#
# Youngs Moduli (GPa) = 95.83844 11.52341 188.75914
#
# Poissons Ratio (x) = 0.08781 -0.04770
# Poissons Ratio (y) = 0.73028 1.38012
# Poissons Ratio (z) = -0.02422 0.08425
#
# Static dielectric constant tensor:
#      x y z
#    x 1.976290 0.000000 0.060620 
#    y 0.000000 2.095160 0.000000 
#    z 0.060620 0.000000 2.153440 
# 
# From -- ./inp_files/10585.got.cif
#   From: 2010.05.17/outbox.cif.g08.bks.cpg/sg4_6_cif.got.tgz:10585.got - 2010.06.03 18:43:04.
