data_PCOD9114428
_publ_section_title
;
Structure prediction by ZEFSAII (Michael W. Deem and Ramdas Pophale) SiO2 
 PCOD9114428
Probable space group: P 2
;
_chemical_formula_sum "Si O2"
_cell_formula_units_Z 12
_cell_length_a 15.000000
_cell_length_b 6.000000
_cell_length_c 6.000000
_cell_angle_alpha 90.000000
_cell_angle_beta 110.000000
_cell_angle_gamma 90.000000
_cell_volume 507.434015
_symmetry_space_group_name_H-M "P 2"
_symmetry_group_IT_number 3
_symmetry_cell_setting 'monoclinic'
loop_
_space_group_symop_operation_xyz
x,y,z
-x,y,-z
loop_
_atom_site_type_symbol
_atom_site_label
_atom_site_fract_x
_atom_site_fract_y
_atom_site_fract_z
Si Si1 0.581905 0.104110 0.889729
Si Si2 0.074827 0.933357 0.704605
Si Si3 0.500000 0.743609 0.500000
Si Si4 0.239031 0.200724 0.708987
Si Si5 0.348223 0.441428 0.419250
Si Si6 0.173334 0.551135 0.028434
Si Si7 0.000000 0.267939 0.000000
O O1 0.601950 0.304736 0.735687
O O2 0.554170 0.897432 0.717126
O O3 0.500000 0.151756 0.000000
O O4 0.681412 0.063703 0.092247
O O5 0.128621 0.779556 0.919072
O O6 0.000000 0.793609 0.500000
O O7 0.149373 0.045412 0.603045
O O8 0.020988 0.118935 0.802103
O O9 0.428547 0.596532 0.584909
O O10 0.293740 0.284089 0.540962
O O11 0.204182 0.402586 0.839956
O O12 0.266480 0.591630 0.247772
O O13 0.094276 0.416429 0.099311
#
# Coordination Sequence:
#
# PCOD9114428 Si02
#       7
#     2   2   1   2   2   2   1
#     4  11  24  43  64  92 128 164 212 262 316 378
#     4  11  23  40  66  95 127 169 214 261 316 375
#     4  12  24  38  66  96 124 166 210 264 320 376
#     4  10  23  42  64  93 129 168 211 263 315 375
#     4  11  24  44  66  92 128 169 212 261 318 377
#     4  10  23  40  64  96 129 166 213 264 314 374
#     4  10  22  42  62  90 130 170 208 260 314 370
#
# _framework density 23.648395000000001
#
# number of rings (size 3 to 8) (size 9 to 14) (size 15 to 20)
#    0.000    1.333    0.000    5.000    0.000   11.333 
#    0.000    0.000    0.000    0.000    0.000    0.000 
#    0.000    0.000    0.000    0.000    0.000    0.000 
#
# Total GULP energy -67039.298828 kJ/mol
# GULP energy per Si atom -5586.608236 kJ/mol
# Density = 2.359457 g / cm^3
# Si number density = 23.648395 Si / 1000 Ang^3
#
#
#
# Elastic Constant Matrix: (Units=GPa)
#
#
# Indices 1 2 3 4 5 6 
#
# 1 176.8838 74.2634 64.7142 0.0000 -1.7973 0.0000
# 2 74.2634 59.8929 36.5086 0.0000 20.5436 0.0000
# 3 64.7142 36.5086 66.8741 0.0000 18.3462 0.0000
# 4 0.0000 0.0000 0.0000 9.4866 0.0000 10.0733
# 5 -1.7973 20.5436 18.3462 0.0000 45.6731 0.0000
# 6 0.0000 0.0000 0.0000 10.0733 0.0000 -8.3797
#
#
#
# Elastic Compliance Matrix: (Units=1/GPa)
#
#
# Indices 1 2 3 4 5 6 
#
# 1 0.018917 -0.022353 -0.010188 0.000000 0.014891 0.000000
# 2 -0.022353 0.053271 -0.000715 0.000000 -0.024553 0.000000
# 3 -0.010188 -0.000715 0.028348 0.000000 -0.011466 0.000000
# 4 0.000000 0.000000 0.000000 0.046306 0.000000 0.055664
# 5 0.014891 -0.024553 -0.011466 0.000000 0.038131 0.000000
# 6 0.000000 0.000000 0.000000 0.055664 0.000000 -0.052422
#
#
# Mechanical properties :
#
#
# Convention : Reuss Voigt Hill
#
# Bulk Modulus (GPa) = 29.39102 72.73591 51.06346
# Shear Modulus (GPa) = 23.76385 17.90030 20.83207
#
# Velocity S-wave (km/s) = 3.17343 2.75423 2.97123
# Velocity P-wave (km/s) = 5.08752 6.39831 5.78019
#
# Compressibility (1/GPa) = 0.03402400
#
# Stress axis : x y z
#
# Youngs Moduli (GPa) = 52.86283 18.77196 35.27576
#
# Poissons Ratio (x) = 0.41962 0.35938
# Poissons Ratio (y) = 1.18166 0.02522
# Poissons Ratio (z) = 0.53855 0.01342
#
# Static dielectric constant tensor:
#      x y z
#    x 1.853680 0.000000 0.044550 
#    y 0.000000 1.876560 0.000000 
#    z 0.044550 0.000000 1.915790 
# 
# From -- ./inp_files/2707.got.cif
#   From: 2010.05.17/outbox.ucp.g08.bks.cvg/sg3_2_cif.got.tgz:2707.got - 2010.06.11 12:50:29.
