data_PCOD9114414
_publ_section_title
;
Structure prediction by ZEFSAII (Michael W. Deem and Ramdas Pophale) SiO2 
 PCOD9114414
Probable space group: P 2
;
_chemical_formula_sum "Si O2"
_cell_formula_units_Z 12
_cell_length_a 15.574966
_cell_length_b 5.126851
_cell_length_c 7.560279
_cell_angle_alpha 90.000000
_cell_angle_beta 60.388635
_cell_angle_gamma 90.000000
_cell_volume 524.848223
_symmetry_space_group_name_H-M "P 2"
_symmetry_group_IT_number 3
_symmetry_cell_setting 'monoclinic'
loop_
_space_group_symop_operation_xyz
x,y,z
-x,y,-z
loop_
_atom_site_type_symbol
_atom_site_label
_atom_site_fract_x
_atom_site_fract_y
_atom_site_fract_z
Si Si1 0.797473 0.718790 0.240263
Si Si2 0.405001 0.550024 0.723271
Si Si3 0.595122 0.051630 0.026665
Si Si4 0.061479 0.396019 0.703805
Si Si5 0.074331 0.892843 0.201185
Si Si6 0.796318 0.047721 0.605083
O O1 0.692842 0.600806 0.293129
O O2 0.879860 0.494104 0.184247
O O3 0.791352 0.890817 0.425047
O O4 0.841565 0.883281 0.033886
O O5 0.500000 0.556386 0.500000
O O6 0.399017 0.277928 0.832811
O O7 0.410686 0.778496 0.863524
O O8 0.690732 0.062965 0.804051
O O9 0.500000 0.087498 0.000000
O O10 0.153536 0.328440 0.481952
O O11 0.010622 0.630206 0.270346
O O12 0.128831 0.923527 0.330900
O O13 0.001481 0.131785 0.230253
#
# Coordination Sequence:
#
# PCOD9114414 Si02
#       6
#     2   2   2   2   2   2
#     4  12  30  50  82 117 159 212 263 325 392 466
#     4  12  29  54  85 117 158 201 260 330 400 475
#     4  12  29  54  85 117 158 201 260 330 400 475
#     4  12  30  46  80 114 162 212 266 318 378 466
#     4  12  30  52  74 118 164 212 268 318 386 458
#     4  12  30  50  82 117 159 212 263 325 392 466
#
# _framework density 22.863748999999999
#
# number of rings (size 3 to 8) (size 9 to 14) (size 15 to 20)
#    0.000    0.000    3.333    3.000   18.667    0.000 
#    0.000    0.000    0.000    0.000    0.000    0.000 
#    0.000    0.000    0.000    0.000    0.000    0.000 
#
# Total GULP energy -67287.354183 kJ/mol
# GULP energy per Si atom -5607.279515 kJ/mol
# Density = 2.281171 g / cm^3
# Si number density = 22.863749 Si / 1000 Ang^3
#
#
#
# Elastic Constant Matrix: (Units=GPa)
#
#
# Indices 1 2 3 4 5 6 
#
# 1 138.4404 -3.7519 5.3818 0.0000 9.7675 0.0000
# 2 -3.7519 90.9808 3.4550 0.0000 0.2877 0.0000
# 3 5.3818 3.4550 125.4017 0.0000 -3.5452 0.0000
# 4 0.0000 0.0000 0.0000 35.9885 0.0000 0.6012
# 5 9.7675 0.2877 -3.5452 0.0000 44.2697 0.0000
# 6 0.0000 0.0000 0.0000 0.6012 0.0000 23.3119
#
#
#
# Elastic Compliance Matrix: (Units=1/GPa)
#
#
# Indices 1 2 3 4 5 6 
#
# 1 0.007363 0.000323 -0.000372 0.000000 -0.001657 0.000000
# 2 0.000323 0.011017 -0.000322 0.000000 -0.000169 0.000000
# 3 -0.000372 -0.000322 0.008020 0.000000 0.000726 0.000000
# 4 0.000000 0.000000 0.000000 0.027799 0.000000 -0.000717
# 5 -0.001657 -0.000169 0.000726 0.000000 0.023014 0.000000
# 6 0.000000 0.000000 0.000000 -0.000717 0.000000 0.042915
#
#
# Mechanical properties :
#
#
# Convention : Reuss Voigt Hill
#
# Bulk Modulus (GPa) = 38.97308 40.55476 39.76392
# Shear Modulus (GPa) = 38.63317 44.02989 41.33153
#
# Velocity S-wave (km/s) = 4.11507 4.39310 4.25636
# Velocity P-wave (km/s) = 6.29772 6.59610 6.44863
#
# Compressibility (1/GPa) = 0.02565874
#
# Stress axis : x y z
#
# Youngs Moduli (GPa) = 135.80676 90.76533 124.69237
#
# Poissons Ratio (x) = -0.02932 0.04635
# Poissons Ratio (y) = -0.04387 0.04017
# Poissons Ratio (z) = 0.05049 0.02924
#
# Static dielectric constant tensor:
#      x y z
#    x 1.811450 0.000000 0.018870 
#    y 0.000000 1.854440 0.000000 
#    z 0.018870 0.000000 1.880160 
# 
# From -- ./inp_files/7823.got.cif
#   From: 2010.05.17/outbox.cif.g08.bks.cpg/sg3_4_cif.got.tgz:7823.got - 2010.06.03 18:33:08.
