data_PCOD9114156
_publ_section_title
;
Structure prediction by ZEFSAII (Michael W. Deem and Ramdas Pophale) SiO2 
 PCOD9114156
Probable space group: P 2
;
_chemical_formula_sum "Si O2"
_cell_formula_units_Z 13
_cell_length_a 7.591940
_cell_length_b 10.251892
_cell_length_c 9.923768
_cell_angle_alpha 90.000000
_cell_angle_beta 48.138367
_cell_angle_gamma 90.000000
_cell_volume 575.239775
_symmetry_space_group_name_H-M "P 2"
_symmetry_group_IT_number 3
_symmetry_cell_setting 'monoclinic'
loop_
_space_group_symop_operation_xyz
x,y,z
-x,y,-z
loop_
_atom_site_type_symbol
_atom_site_label
_atom_site_fract_x
_atom_site_fract_y
_atom_site_fract_z
Si Si1 0.300361 0.026360 0.198624
Si Si2 0.386376 0.526680 0.753061
Si Si3 0.516413 0.221592 0.686732
Si Si4 0.000000 0.836850 0.500000
Si Si5 0.908571 0.177630 0.257711
Si Si6 0.865917 0.606910 0.394172
Si Si7 0.228542 0.430083 0.099297
O O1 0.391594 0.159759 0.222291
O O2 0.074973 0.062947 0.223572
O O3 0.500000 0.971828 0.000000
O O4 0.221017 0.930043 0.356851
O O5 0.433665 0.370996 0.720237
O O6 0.645446 0.587196 0.607194
O O7 0.243362 0.581992 0.698597
O O8 0.253539 0.532474 0.962792
O O9 0.732688 0.211945 0.471425
O O10 0.278801 0.145600 0.763254
O O11 0.966325 0.745780 0.386754
O O12 0.079416 0.300698 0.137973
O O13 0.073486 0.499504 0.293574
O O14 0.500000 0.403385 0.000000
#
# Coordination Sequence:
#
# PCOD9114156 Si02
#       7
#     2   2   2   1   2   2   2
#     4  12  27  47  72 105 138 186 244 292 350 422
#     4  11  22  43  71 108 142 176 230 298 366 430
#     4  11  21  43  78 105 146 180 220 299 370 428
#     4  12  28  50  68  92 146 196 250 286 334 420
#     4  11  21  42  72 110 143 181 223 289 373 427
#     4  11  24  45  67  98 140 193 239 289 344 418
#     4  12  23  37  70 110 146 182 226 292 370 433
#
# _framework density 22.599270000000001
#
# number of rings (size 3 to 8) (size 9 to 14) (size 15 to 20)
#    0.000    0.615    4.615    4.615    0.000    3.692 
#    5.538    0.000    0.000    0.000    0.000    0.000 
#    0.000    0.000    0.000    0.000    0.000    0.000 
#
# Total GULP energy -72663.810884 kJ/mol
# GULP energy per Si atom -5589.523914 kJ/mol
# Density = 2.254783 g / cm^3
# Si number density = 22.599270 Si / 1000 Ang^3
#
#
#
# Elastic Constant Matrix: (Units=GPa)
#
#
# Indices 1 2 3 4 5 6 
#
# 1 105.5843 14.4649 23.8810 0.0000 -15.5314 0.0000
# 2 14.4649 67.9997 14.4453 0.0000 -3.1257 0.0000
# 3 23.8810 14.4453 122.9826 0.0000 -23.7098 0.0000
# 4 0.0000 0.0000 0.0000 23.0285 0.0000 6.5440
# 5 -15.5314 -3.1257 -23.7098 0.0000 44.0926 0.0000
# 6 0.0000 0.0000 0.0000 6.5440 0.0000 17.2472
#
#
#
# Elastic Compliance Matrix: (Units=1/GPa)
#
#
# Indices 1 2 3 4 5 6 
#
# 1 0.010427 -0.001819 -0.001258 0.000000 0.002867 0.000000
# 2 -0.001819 0.015400 -0.001527 0.000000 -0.000370 0.000000
# 3 -0.001258 -0.001527 0.009426 0.000000 0.004517 0.000000
# 4 0.000000 0.000000 0.000000 0.048672 0.000000 -0.018468
# 5 0.002867 -0.000370 0.004517 0.000000 0.026092 0.000000
# 6 0.000000 0.000000 0.000000 -0.018468 0.000000 0.064988
#
#
# Mechanical properties :
#
#
# Convention : Reuss Voigt Hill
#
# Bulk Modulus (GPa) = 38.39612 44.68323 41.53968
# Shear Modulus (GPa) = 25.92088 33.12535 29.52312
#
# Velocity S-wave (km/s) = 3.39038 3.83269 3.61830
# Velocity P-wave (km/s) = 5.68798 6.27702 5.98974
#
# Compressibility (1/GPa) = 0.02604430
#
# Stress axis : x y z
#
# Youngs Moduli (GPa) = 95.90815 64.93405 106.09226
#
# Poissons Ratio (x) = 0.11811 0.13349
# Poissons Ratio (y) = 0.17444 0.16201
# Poissons Ratio (z) = 0.12068 0.09916
#
# Static dielectric constant tensor:
#      x y z
#    x 1.907820 0.000000 0.026960 
#    y 0.000000 1.814390 0.000000 
#    z 0.026960 0.000000 1.887470 
# 
# From -- ./inp_files/10644.got.cif
#   From: 2010.05.17/outbox.cif.g08.bks.cpg/sg3_6_cif.got.tgz:10644.got - 2010.06.03 18:33:08.
