data_PCOD9114147
_publ_section_title
;
Structure prediction by ZEFSAII (Michael W. Deem and Ramdas Pophale) SiO2 
 PCOD9114147
Probable space group: P 2
;
_chemical_formula_sum "Si O2"
_cell_formula_units_Z 15
_cell_length_a 7.048490
_cell_length_b 9.117860
_cell_length_c 17.622765
_cell_angle_alpha 90.000000
_cell_angle_beta 34.627997
_cell_angle_gamma 90.000000
_cell_volume 643.575294
_symmetry_space_group_name_H-M "P 2"
_symmetry_group_IT_number 3
_symmetry_cell_setting 'monoclinic'
loop_
_space_group_symop_operation_xyz
x,y,z
-x,y,-z
loop_
_atom_site_type_symbol
_atom_site_label
_atom_site_fract_x
_atom_site_fract_y
_atom_site_fract_z
Si Si1 0.500000 0.088691 0.500000
Si Si2 0.443362 0.386211 0.111555
Si Si3 0.698863 0.687137 0.788963
Si Si4 0.934492 0.868325 0.440410
Si Si5 0.718838 0.313402 0.308432
Si Si6 0.171452 0.136119 0.052524
Si Si7 0.663423 0.646165 0.323597
Si Si8 0.901517 0.802836 0.947337
O O1 0.517333 0.196095 0.422767
O O2 0.806643 0.979429 0.417749
O O3 0.485068 0.530839 0.147314
O O4 0.666705 0.248122 0.060757
O O5 0.058474 0.342585 0.244308
O O6 0.500000 0.419547 0.000000
O O7 0.498123 0.779765 0.917499
O O8 0.748379 0.779944 0.696678
O O9 0.075476 0.657259 0.692755
O O10 0.646389 0.750114 0.555633
O O11 0.000000 0.943315 0.500000
O O12 0.570758 0.474840 0.342789
O O13 0.870218 0.229378 0.186981
O O14 0.041037 0.975677 0.079271
O O15 0.500000 0.117774 0.000000
O O16 0.889883 0.707136 0.180166
O O17 0.000000 0.759374 0.000000
#
# Coordination Sequence:
#
# PCOD9114147 Si02
#       8
#     1   2   2   2   2   2   2   2
#     4  12  24  42  70  96 130 186 220 276 350 398
#     4   8  17  35  60  96 122 157 222 279 323 395
#     4  11  21  39  69  95 119 181 222 274 332 396
#     4  12  27  45  67 102 141 175 229 281 337 410
#     4   9  21  36  67  92 122 169 230 273 326 407
#     4   9  18  36  59  92 124 165 213 274 333 389
#     4  11  22  45  68  97 129 177 232 279 334 404
#     4  12  24  37  62  97 135 175 221 276 339 396
#
# _framework density 23.307296999999998
#
# number of rings (size 3 to 8) (size 9 to 14) (size 15 to 20)
#    0.000    1.867    1.333    5.200    7.467    0.000 
#    0.000    4.667    5.867    0.000    0.000    0.000 
#    0.000    0.000    0.000    0.000    0.000    0.000 
#
# Total GULP energy -83688.610487 kJ/mol
# GULP energy per Si atom -5579.240699 kJ/mol
# Density = 2.325425 g / cm^3
# Si number density = 23.307297 Si / 1000 Ang^3
#
#
#
# Elastic Constant Matrix: (Units=GPa)
#
#
# Indices 1 2 3 4 5 6 
#
# 1 41.3509 1.5031 -4.7643 0.0000 7.8046 0.0000
# 2 1.5031 159.4380 32.6855 0.0000 2.0586 0.0000
# 3 -4.7643 32.6855 91.3767 0.0000 5.3297 0.0000
# 4 0.0000 0.0000 0.0000 31.8371 0.0000 0.5110
# 5 7.8046 2.0586 5.3297 0.0000 27.9684 0.0000
# 6 0.0000 0.0000 0.0000 0.5110 0.0000 1.3901
#
#
#
# Elastic Compliance Matrix: (Units=1/GPa)
#
#
# Indices 1 2 3 4 5 6 
#
# 1 0.025858 -0.000554 0.001987 0.000000 -0.007554 0.000000
# 2 -0.000554 0.006780 -0.002461 0.000000 0.000124 0.000000
# 3 0.001987 -0.002461 0.012084 0.000000 -0.002676 0.000000
# 4 0.000000 0.000000 0.000000 0.031596 0.000000 -0.011616
# 5 -0.007554 0.000124 -0.002676 0.000000 0.038363 0.000000
# 6 0.000000 0.000000 0.000000 -0.011616 0.000000 0.723659
#
#
# Mechanical properties :
#
#
# Convention : Reuss Voigt Hill
#
# Bulk Modulus (GPa) = 23.43802 39.00156 31.21979
# Shear Modulus (GPa) = 5.85056 29.75521 17.80288
#
# Velocity S-wave (km/s) = 1.58607 3.57690 2.76675
# Velocity P-wave (km/s) = 3.66498 5.81626 4.86112
#
# Compressibility (1/GPa) = 0.04266572
#
# Stress axis : x y z
#
# Youngs Moduli (GPa) = 38.67279 147.48738 82.75524
#
# Poissons Ratio (x) = 0.08164 -0.16442
# Poissons Ratio (y) = 0.02141 0.20369
# Poissons Ratio (z) = -0.07683 0.36303
#
# Static dielectric constant tensor:
#      x y z
#    x 1.974630 0.000000 -0.023310 
#    y 0.000000 1.906940 0.000000 
#    z -0.023310 0.000000 2.030510 
# 
# From -- ./inp_files/15045.got.cif
#   From: 2010.05.17/outbox.cif.g08.bks.cpg/sg3_8_cif.got.tgz:15045.got - 2010.06.03 18:33:08.
