data_PCOD9114300
_publ_section_title
;
Structure prediction by ZEFSAII (Michael W. Deem and Ramdas Pophale) SiO2 
 PCOD9114300
Probable space group: P 2
;
_chemical_formula_sum "Si O2"
_cell_formula_units_Z 9
_cell_length_a 8.507745
_cell_length_b 9.071700
_cell_length_c 4.955487
_cell_angle_alpha 90.000000
_cell_angle_beta 88.291969
_cell_angle_gamma 90.000000
_cell_volume 382.293120
_symmetry_space_group_name_H-M "P 2"
_symmetry_group_IT_number 3
_symmetry_cell_setting 'monoclinic'
loop_
_space_group_symop_operation_xyz
x,y,z
-x,y,-z
loop_
_atom_site_type_symbol
_atom_site_label
_atom_site_fract_x
_atom_site_fract_y
_atom_site_fract_z
Si Si1 0.500000 0.172120 0.500000
Si Si2 0.500000 0.378504 0.000000
Si Si3 0.210598 0.548956 0.777130
Si Si4 0.844103 0.735967 0.699762
Si Si5 0.828298 0.072879 0.649782
Si Si6 0.000000 0.303029 0.000000
O O1 0.465317 0.271950 0.247460
O O2 0.672737 0.095596 0.470860
O O3 0.638769 0.477569 0.098725
O O4 0.253731 0.627448 0.493572
O O5 0.156360 0.665107 0.006320
O O6 0.082559 0.415111 0.781639
O O7 0.000000 0.734952 0.500000
O O8 0.802166 0.905884 0.750990
O O9 0.000000 0.071571 0.500000
O O10 0.867030 0.197971 0.873372
#
# Coordination Sequence:
#
# PCOD9114300 Si02
#       6
#     1   1   2   2   2   1
#     4  12  26  48  72 110 146 188 244 314 354 434
#     4  12  26  44  70 108 146 182 248 306 364 424
#     4  12  25  44  73 103 143 190 242 299 365 430
#     4  11  25  45  70 104 145 188 238 300 363 438
#     4  11  28  45  76 107 149 195 247 298 373 436
#     4  12  24  44  76 104 136 196 248 294 360 438
#
# _framework density 23.542144
#
# number of rings (size 3 to 8) (size 9 to 14) (size 15 to 20)
#    0.000    0.444    4.444    2.667    9.333    1.778 
#    0.000    0.000    0.000    0.000    0.000    0.000 
#    0.000    0.000    0.000    0.000    0.000    0.000 
#
# Total GULP energy -50202.084325 kJ/mol
# GULP energy per Si atom -5578.009369 kJ/mol
# Density = 2.348856 g / cm^3
# Si number density = 23.542144 Si / 1000 Ang^3
#
#
#
# Elastic Constant Matrix: (Units=GPa)
#
#
# Indices 1 2 3 4 5 6 
#
# 1 105.7380 22.9671 9.9899 0.0000 41.7059 0.0000
# 2 22.9671 146.5932 43.5722 0.0000 14.2232 0.0000
# 3 9.9899 43.5722 119.0673 0.0000 8.6348 0.0000
# 4 0.0000 0.0000 0.0000 28.8665 0.0000 1.5293
# 5 41.7059 14.2232 8.6348 0.0000 43.3411 0.0000
# 6 0.0000 0.0000 0.0000 1.5293 0.0000 6.2922
#
#
#
# Elastic Compliance Matrix: (Units=1/GPa)
#
#
# Indices 1 2 3 4 5 6 
#
# 1 0.015387 -0.001047 0.000143 0.000000 -0.014491 0.000000
# 2 -0.001047 0.007897 -0.002727 0.000000 -0.001041 0.000000
# 3 0.000143 -0.002727 0.009466 0.000000 -0.001129 0.000000
# 4 0.000000 0.000000 0.000000 0.035094 0.000000 -0.008530
# 5 -0.014491 -0.001041 -0.001129 0.000000 0.037584 0.000000
# 6 0.000000 0.000000 0.000000 -0.008530 0.000000 0.161000
#
#
# Mechanical properties :
#
#
# Convention : Reuss Voigt Hill
#
# Bulk Modulus (GPa) = 39.23253 58.27300 48.75276
# Shear Modulus (GPa) = 17.71883 35.35792 26.53838
#
# Velocity S-wave (km/s) = 2.74641 3.87964 3.36113
# Velocity P-wave (km/s) = 5.17281 6.69889 5.98470
#
# Compressibility (1/GPa) = 0.02548905
#
# Stress axis : x y z
#
# Youngs Moduli (GPa) = 64.98967 126.62936 105.63850
#
# Poissons Ratio (x) = 0.13261 -0.01512
# Poissons Ratio (y) = 0.06806 0.28803
# Poissons Ratio (z) = -0.00930 0.34526
#
# Static dielectric constant tensor:
#      x y z
#    x 2.070030 0.000000 0.013710 
#    y 0.000000 1.931670 0.000000 
#    z 0.013710 0.000000 1.880590 
# 
# From -- ./inp_files/996.got.cif
#   From: 2010.05.17/outbox.cif.g08.bks.cpg/sg3_1_cif.got.tgz:996.got - 2010.06.03 18:33:08.
