data_PCOD9114546
_publ_section_title
;
Structure prediction by ZEFSAII (Michael W. Deem and Ramdas Pophale) SiO2 
 PCOD9114546
Probable space group: P 21
;
_chemical_formula_sum "Si O2"
_cell_formula_units_Z 14
_cell_length_a 10.285328
_cell_length_b 5.153519
_cell_length_c 27.072292
_cell_angle_alpha 90.000000
_cell_angle_beta 157.834898
_cell_angle_gamma 90.000000
_cell_volume 541.386140
_symmetry_space_group_name_H-M "P 21"
_symmetry_group_IT_number 4
_symmetry_cell_setting 'monoclinic'
loop_
_space_group_symop_operation_xyz
x,y,z
-x,1/2+y,-z
loop_
_atom_site_type_symbol
_atom_site_label
_atom_site_fract_x
_atom_site_fract_y
_atom_site_fract_z
Si Si1 0.787261 0.929900 0.483239
Si Si2 0.255182 0.430935 0.638962
Si Si3 0.641833 0.779563 0.843006
Si Si4 0.931078 0.986970 0.637854
Si Si5 0.960049 0.994650 0.261752
Si Si6 0.264171 0.429328 0.921789
Si Si7 0.849101 0.640151 0.019104
O O1 0.949890 0.643187 0.537511
O O2 0.595312 0.964841 0.363528
O O3 0.082564 0.151844 0.582349
O O4 0.675325 0.961926 0.500875
O O5 0.507545 0.513602 0.771412
O O6 0.305006 0.923772 0.745832
O O7 0.849318 0.929531 0.873594
O O8 0.874159 0.755610 0.973083
O O9 0.936527 0.264253 0.665255
O O10 0.894909 0.766536 0.666737
O O11 0.996725 0.934468 0.216419
O O12 0.538536 0.022789 0.116867
O O13 0.134225 0.336021 0.929393
O O14 0.553862 0.209463 0.011250
#
# Coordination Sequence:
#
# PCOD9114546 Si02
#       7
#     2   2   2   2   2   2   2
#     4   9  16  30  47  71  97 135 169 209 255 300
#     4   9  18  29  47  68 103 136 170 204 248 312
#     4  10  19  31  46  74 105 141 171 202 255 314
#     4  10  18  30  50  71 100 129 168 214 259 304
#     4  10  19  32  48  70  96 134 176 216 248 291
#     4  10  20  35  51  69  97 140 187 221 247 284
#     4  10  20  31  49  71 106 143 175 208 250 305
#
# _framework density 25.859544
#
# number of rings (size 3 to 8) (size 9 to 14) (size 15 to 20)
#    0.000    2.286    0.000    6.000    0.000    2.286 
#    0.000    0.000    0.000    0.000    0.000    0.000 
#    0.000   45.714    0.000   24.000    0.000    0.143 
#
# Total GULP energy -78324.604171 kJ/mol
# GULP energy per Si atom -5594.614584 kJ/mol
# Density = 2.580069 g / cm^3
# Si number density = 25.859544 Si / 1000 Ang^3
#
#
#
# Elastic Constant Matrix: (Units=GPa)
#
#
# Indices 1 2 3 4 5 6 
#
# 1 109.7482 9.8948 23.7904 -0.0003 -19.7130 -0.0001
# 2 9.8948 68.8050 18.6023 -0.0003 -9.6621 0.0000
# 3 23.7904 18.6023 126.1601 -0.0001 -52.6129 0.0000
# 4 -0.0003 -0.0003 -0.0001 33.3934 0.0001 -12.2023
# 5 -19.7130 -9.6621 -52.6129 0.0001 58.9905 0.0000
# 6 -0.0001 0.0000 0.0000 -12.2023 0.0000 51.4415
#
#
#
# Elastic Compliance Matrix: (Units=1/GPa)
#
#
# Indices 1 2 3 4 5 6 
#
# 1 0.009790 -0.000873 -0.000657 0.000000 0.002542 0.000000
# 2 -0.000873 0.015238 -0.001852 0.000000 0.000552 0.000000
# 3 -0.000657 -0.001852 0.012905 0.000000 0.010987 0.000000
# 4 0.000000 0.000000 0.000000 0.032788 0.000000 0.007778
# 5 0.002542 0.000552 0.010987 0.000000 0.027691 0.000000
# 6 0.000000 0.000000 0.000000 0.007778 0.000000 0.021284
#
#
# Mechanical properties :
#
#
# Convention : Reuss Voigt Hill
#
# Bulk Modulus (GPa) = 32.08343 45.47649 38.77996
# Shear Modulus (GPa) = 36.53629 45.59345 41.06487
#
# Velocity S-wave (km/s) = 3.76290 4.20351 3.98929
# Velocity P-wave (km/s) = 5.59580 6.41743 6.02065
#
# Compressibility (1/GPa) = 0.03116873
#
# Stress axis : x y z
#
# Youngs Moduli (GPa) = 102.14941 65.62701 77.48643
#
# Poissons Ratio (x) = 0.05730 0.05091
# Poissons Ratio (y) = 0.08919 0.14349
# Poissons Ratio (z) = 0.06712 0.12152
#
# Static dielectric constant tensor:
#      x y z
#    x 2.078410 0.000000 0.024040 
#    y 0.000000 1.983950 0.000000 
#    z 0.024040 0.000000 2.080520 
# 
# From -- ./inp_files/16352.got.cif
#   From: 2010.05.17/outbox.cif.g08.bks.cpg/sg4_9_cif.got.tgz:16352.got - 2010.06.03 18:43:04.
