data_PCOD9114408
_publ_section_title
;
Structure prediction by ZEFSAII (Michael W. Deem and Ramdas Pophale) SiO2 
 PCOD9114408
Probable space group: P 2
;
_chemical_formula_sum "Si O2"
_cell_formula_units_Z 10
_cell_length_a 12.990215
_cell_length_b 5.477651
_cell_length_c 5.914513
_cell_angle_alpha 90.000000
_cell_angle_beta 68.058087
_cell_angle_gamma 90.000000
_cell_volume 390.367073
_symmetry_space_group_name_H-M "P 2"
_symmetry_group_IT_number 3
_symmetry_cell_setting 'monoclinic'
loop_
_space_group_symop_operation_xyz
x,y,z
-x,y,-z
loop_
_atom_site_type_symbol
_atom_site_label
_atom_site_fract_x
_atom_site_fract_y
_atom_site_fract_z
Si Si1 0.386574 0.972210 0.738911
Si Si2 0.826045 0.946162 0.375617
Si Si3 0.099309 0.326591 0.324161
Si Si4 0.685808 0.619590 0.823928
Si Si5 0.500000 0.322682 0.000000
Si Si6 0.000000 0.564590 0.000000
O O1 0.500000 0.941639 0.500000
O O2 0.271619 0.051160 0.708263
O O3 0.425602 0.160384 0.899308
O O4 0.350748 0.731180 0.907547
O O5 0.746752 0.816253 0.623164
O O6 0.907266 0.752967 0.181015
O O7 0.900200 0.122093 0.476452
O O8 0.223166 0.413985 0.232409
O O9 0.000000 0.501644 0.500000
O O10 0.070709 0.367188 0.087020
O O11 0.580001 0.499883 0.794325
#
# Coordination Sequence:
#
# PCOD9114408 Si02
#       6
#     2   2   2   2   1   1
#     4  12  26  50  81 120 161 228 275 355 432 503
#     4  12  29  53  87 119 171 222 285 352 423 514
#     4  12  28  50  85 122 164 223 288 344 419 511
#     4  12  26  52  79 117 164 216 289 350 418 511
#     4  12  28  48  80 120 164 216 292 346 428 518
#     4  12  28  58  86 126 172 234 278 352 432 494
#
# _framework density 25.616914999999999
#
# number of rings (size 3 to 8) (size 9 to 14) (size 15 to 20)
#    0.000    0.000    4.000    5.400    2.800    9.600 
#    3.600    2.000    4.400    0.000    0.000    0.000 
#    0.000    0.000    0.000    0.000    0.000    0.000 
#
# Total GULP energy -55748.227757 kJ/mol
# GULP energy per Si atom -5574.822776 kJ/mol
# Density = 2.555861 g / cm^3
# Si number density = 25.616915 Si / 1000 Ang^3
#
#
#
# Elastic Constant Matrix: (Units=GPa)
#
#
# Indices 1 2 3 4 5 6 
#
# 1 210.7709 49.0082 71.0177 0.0000 10.1244 0.0000
# 2 49.0082 69.8475 57.5709 0.0000 3.3849 0.0000
# 3 71.0177 57.5709 107.3545 0.0000 -22.0844 0.0000
# 4 0.0000 0.0000 0.0000 44.9563 0.0000 -8.7820
# 5 10.1244 3.3849 -22.0844 0.0000 65.0589 0.0000
# 6 0.0000 0.0000 0.0000 -8.7820 0.0000 4.4762
#
#
#
# Elastic Compliance Matrix: (Units=1/GPa)
#
#
# Indices 1 2 3 4 5 6 
#
# 1 0.006534 -0.000874 -0.004358 0.000000 -0.002451 0.000000
# 2 -0.000874 0.028573 -0.016150 0.000000 -0.006833 0.000000
# 3 -0.004358 -0.016150 0.022760 0.000000 0.009244 0.000000
# 4 0.000000 0.000000 0.000000 0.036066 0.000000 0.070760
# 5 -0.002451 -0.006833 0.009244 0.000000 0.019246 0.000000
# 6 0.000000 0.000000 0.000000 0.070760 0.000000 0.362231
#
#
# Mechanical properties :
#
#
# Convention : Reuss Voigt Hill
#
# Bulk Modulus (GPa) = 66.21124 82.57403 74.39263
# Shear Modulus (GPa) = 9.55643 36.92334 23.23988
#
# Velocity S-wave (km/s) = 1.93355 3.80065 3.01526
# Velocity P-wave (km/s) = 5.55766 7.18081 6.42074
#
# Compressibility (1/GPa) = 0.01510318
#
# Stress axis : x y z
#
# Youngs Moduli (GPa) = 153.05339 34.99834 43.93616
#
# Poissons Ratio (x) = 0.03058 0.19146
# Poissons Ratio (y) = 0.13373 0.70958
# Poissons Ratio (z) = 0.66696 0.56523
#
# Static dielectric constant tensor:
#      x y z
#    x 2.047970 0.000000 0.195780 
#    y 0.000000 2.098550 0.000000 
#    z 0.195780 0.000000 2.451750 
# 
# From -- ./inp_files/1936.got.cif
#   From: 2010.05.17/outbox.cif.g08.bks.cpg/sg3_1_cif.got.tgz:1936.got - 2010.06.03 18:33:08.
