data_PCOD9114157
_publ_section_title
;
Structure prediction by ZEFSAII (Michael W. Deem and Ramdas Pophale) SiO2 
 PCOD9114157
Probable space group: P 2
;
_chemical_formula_sum "Si O2"
_cell_formula_units_Z 10
_cell_length_a 13.928770
_cell_length_b 4.826044
_cell_length_c 18.076684
_cell_angle_alpha 90.000000
_cell_angle_beta 161.774803
_cell_angle_gamma 90.000000
_cell_volume 380.035196
_symmetry_space_group_name_H-M "P 2"
_symmetry_group_IT_number 3
_symmetry_cell_setting 'monoclinic'
loop_
_space_group_symop_operation_xyz
x,y,z
-x,y,-z
loop_
_atom_site_type_symbol
_atom_site_label
_atom_site_fract_x
_atom_site_fract_y
_atom_site_fract_z
Si Si1 0.423893 0.834620 0.318303
Si Si2 0.261910 0.224818 0.934813
Si Si3 0.654795 0.682507 0.255067
Si Si4 0.638843 0.331209 0.394034
Si Si5 0.822278 0.105437 0.728108
O O1 0.440261 0.522408 0.304489
O O2 0.723515 0.892920 0.590310
O O3 0.162017 0.934112 0.184303
O O4 0.481845 0.032193 0.289963
O O5 0.533054 0.435477 0.114384
O O6 0.419625 0.929694 0.065609
O O7 0.985847 0.270487 0.675563
O O8 0.090392 0.282391 0.888955
O O9 0.000000 0.789028 0.500000
O O10 0.658158 0.513081 0.334856
O O11 0.500000 0.273093 0.500000
#
# Coordination Sequence:
#
# PCOD9114157 Si02
#       5
#     2   2   2   2   2
#     4   8  18  33  64  95 134 169 209 276 331 410
#     4  11  23  45  71  97 136 191 221 286 376 405
#     4  12  28  46  67 100 138 177 249 306 338 417
#     4  11  21  43  67  97 134 176 227 285 342 426
#     4   7  17  36  65 100 131 175 220 272 337 438
#
# _framework density 26.313351000000001
#
# number of rings (size 3 to 8) (size 9 to 14) (size 15 to 20)
#    1.200    0.800    0.000    4.200    0.000    8.800 
#    0.000   10.000    0.000    0.000    0.000    0.000 
#    0.000    0.000    0.000    0.000    0.000    0.000 
#
# Total GULP energy -55761.717898 kJ/mol
# GULP energy per Si atom -5576.171790 kJ/mol
# Density = 2.625346 g / cm^3
# Si number density = 26.313351 Si / 1000 Ang^3
#
#
#
# Elastic Constant Matrix: (Units=GPa)
#
#
# Indices 1 2 3 4 5 6 
#
# 1 74.3715 21.0565 21.9947 0.0000 -11.6202 0.0000
# 2 21.0565 133.6733 51.8034 0.0000 -9.7638 0.0000
# 3 21.9947 51.8034 150.7596 0.0000 13.5269 0.0000
# 4 0.0000 0.0000 0.0000 47.9645 0.0000 1.9661
# 5 -11.6202 -9.7638 13.5269 0.0000 38.1764 0.0000
# 6 0.0000 0.0000 0.0000 1.9661 0.0000 8.8526
#
#
#
# Elastic Compliance Matrix: (Units=1/GPa)
#
#
# Indices 1 2 3 4 5 6 
#
# 1 0.015255 -0.001134 -0.002299 0.000000 0.005168 0.000000
# 2 -0.001134 0.009154 -0.003263 0.000000 0.003152 0.000000
# 3 -0.002299 -0.003263 0.008498 0.000000 -0.004545 0.000000
# 4 0.000000 0.000000 0.000000 0.021040 0.000000 -0.004673
# 5 0.005168 0.003152 -0.004545 0.000000 0.030184 0.000000
# 6 0.000000 0.000000 0.000000 -0.004673 0.000000 0.114000
#
#
# Mechanical properties :
#
#
# Convention : Reuss Voigt Hill
#
# Bulk Modulus (GPa) = 51.24745 60.94594 56.09669
# Shear Modulus (GPa) = 22.93282 36.59534 29.76408
#
# Velocity S-wave (km/s) = 2.95537 3.73332 3.36689
# Velocity P-wave (km/s) = 5.58245 6.46494 6.03984
#
# Compressibility (1/GPa) = 0.01951317
#
# Stress axis : x y z
#
# Youngs Moduli (GPa) = 65.55368 109.23771 117.68081
#
# Poissons Ratio (x) = 0.12391 0.27060
# Poissons Ratio (y) = 0.07436 0.38398
# Poissons Ratio (z) = 0.15074 0.35643
#
# Static dielectric constant tensor:
#      x y z
#    x 2.168530 0.000000 -0.099270 
#    y 0.000000 1.971920 0.000000 
#    z -0.099270 0.000000 2.164100 
# 
# From -- ./inp_files/15957.got.cif
#   From: 2010.05.17/outbox.cif.g08.bks.cpg/sg3_8_cif.got.tgz:15957.got - 2010.06.03 18:33:08.
