data_PCOD9114782
_publ_section_title
;
Structure prediction by ZEFSAII (Michael W. Deem and Ramdas Pophale) SiO2 
 PCOD9114782
Probable space group: P 21
;
_chemical_formula_sum "Si O2"
_cell_formula_units_Z 14
_cell_length_a 11.345143
_cell_length_b 7.494161
_cell_length_c 9.526808
_cell_angle_alpha 90.000000
_cell_angle_beta 37.284927
_cell_angle_gamma 90.000000
_cell_volume 490.675868
_symmetry_space_group_name_H-M "P 21"
_symmetry_group_IT_number 4
_symmetry_cell_setting 'monoclinic'
loop_
_space_group_symop_operation_xyz
x,y,z
-x,1/2+y,-z
loop_
_atom_site_type_symbol
_atom_site_label
_atom_site_fract_x
_atom_site_fract_y
_atom_site_fract_z
Si Si1 0.095548 0.582170 0.573031
Si Si2 0.023435 0.938234 0.774266
Si Si3 0.472235 0.249681 0.553431
Si Si4 0.567796 0.916443 0.137297
Si Si5 0.048998 0.330517 0.856611
Si Si6 0.695862 0.569083 0.839187
Si Si7 0.491921 0.912717 0.740459
O O1 0.998725 0.495590 0.804611
O O2 0.298037 0.470250 0.386455
O O3 0.113404 0.793176 0.582121
O O4 0.931015 0.572126 0.608150
O O5 0.794087 0.950224 0.953551
O O6 0.062874 0.848608 0.891032
O O7 0.063442 0.146624 0.758134
O O8 0.542913 0.374515 0.612508
O O9 0.269296 0.341340 0.702155
O O10 0.449452 0.069285 0.664782
O O11 0.558171 0.245847 0.315142
O O12 0.429676 0.045556 0.180365
O O13 0.602887 0.738436 0.008229
O O14 0.647779 0.411054 0.994138
#
# Coordination Sequence:
#
# PCOD9114782 Si02
#       7
#     2   2   2   2   2   2   2
#     4  10  22  38  61  89 123 167 211 259 311 373
#     4  10  19  34  60  91 121 162 209 258 313 374
#     4   9  21  38  58  96 123 156 216 256 318 384
#     4   9  21  39  60  91 122 164 215 252 309 383
#     4  10  19  33  58  92 122 158 211 254 313 378
#     4  10  22  42  63  88 127 166 214 258 311 382
#     4  10  22  40  62  91 128 159 206 269 313 372
#
# _framework density 28.532077000000001
#
# number of rings (size 3 to 8) (size 9 to 14) (size 15 to 20)
#    0.000    2.286    1.429    0.857    4.000    1.143 
#    0.000    5.714    0.000    0.000    0.000    0.000 
#    0.000    0.000    0.000    0.000    0.000    0.000 
#
# Total GULP energy -78180.152729 kJ/mol
# GULP energy per Si atom -5584.296623 kJ/mol
# Density = 2.846714 g / cm^3
# Si number density = 28.532077 Si / 1000 Ang^3
#
#
#
# Elastic Constant Matrix: (Units=GPa)
#
#
# Indices 1 2 3 4 5 6 
#
# 1 230.2797 35.4100 35.4623 0.0000 -15.6270 0.0000
# 2 35.4100 137.5896 2.4274 0.0000 6.2403 0.0000
# 3 35.4623 2.4274 63.6274 0.0000 -3.6280 0.0000
# 4 0.0000 0.0000 0.0000 31.4034 0.0000 9.4742
# 5 -15.6270 6.2403 -3.6280 0.0000 46.0912 0.0000
# 6 0.0000 0.0000 0.0000 9.4742 0.0000 61.3292
#
#
#
# Elastic Compliance Matrix: (Units=1/GPa)
#
#
# Indices 1 2 3 4 5 6 
#
# 1 0.005076 -0.001336 -0.002681 0.000000 0.001691 0.000000
# 2 -0.001336 0.007672 0.000368 0.000000 -0.001463 0.000000
# 3 -0.002681 0.000368 0.017220 0.000000 0.000396 0.000000
# 4 0.000000 0.000000 0.000000 0.033400 0.000000 -0.005160
# 5 0.001691 -0.001463 0.000396 0.000000 0.022499 0.000000
# 6 0.000000 0.000000 0.000000 -0.005160 0.000000 0.017103
#
#
# Mechanical properties :
#
#
# Convention : Reuss Voigt Hill
#
# Bulk Modulus (GPa) = 44.11281 64.23291 54.17286
# Shear Modulus (GPa) = 42.43686 51.64455 47.04070
#
# Velocity S-wave (km/s) = 3.86079 4.25909 4.06482
# Velocity P-wave (km/s) = 5.94715 6.83724 6.40767
#
# Compressibility (1/GPa) = 0.02266915
#
# Stress axis : x y z
#
# Youngs Moduli (GPa) = 197.02145 130.35159 58.07348
#
# Poissons Ratio (x) = 0.17410 0.15572
# Poissons Ratio (y) = 0.26315 -0.02139
# Poissons Ratio (z) = 0.52831 -0.04801
#
# Static dielectric constant tensor:
#      x y z
#    x 2.160110 0.000000 -0.014010 
#    y 0.000000 2.352110 0.000000 
#    z -0.014010 0.000000 2.479240 
# 
# From -- ./inp_files/5479.got.cif
#   From: 2010.05.17/outbox.cif.g08.bks.cpg/sg4_3_cif.got.tgz:5479.got - 2010.06.03 18:43:04.
