data_PCOD9114445
_publ_section_title
;
Structure prediction by ZEFSAII (Michael W. Deem and Ramdas Pophale) SiO2 
 PCOD9114445
Probable space group: P 21
;
_chemical_formula_sum "Si O2"
_cell_formula_units_Z 14
_cell_length_a 20.962219
_cell_length_b 5.242276
_cell_length_c 6.553210
_cell_angle_alpha 90.000000
_cell_angle_beta 43.293618
_cell_angle_gamma 90.000000
_cell_volume 493.820352
_symmetry_space_group_name_H-M "P 21"
_symmetry_group_IT_number 4
_symmetry_cell_setting 'monoclinic'
loop_
_space_group_symop_operation_xyz
x,y,z
-x,1/2+y,-z
loop_
_atom_site_type_symbol
_atom_site_label
_atom_site_fract_x
_atom_site_fract_y
_atom_site_fract_z
Si Si1 0.815990 0.152860 0.455719
Si Si2 0.727751 0.654783 0.567556
Si Si3 0.676969 0.664590 0.167506
Si Si4 0.359393 0.659791 0.862620
Si Si5 0.115837 0.279930 0.193368
Si Si6 0.447180 0.463390 0.073768
Si Si7 0.961165 0.282394 0.846479
O O1 0.761009 0.368149 0.448844
O O2 0.753170 0.151912 0.809432
O O3 0.807250 0.867742 0.392628
O O4 0.922279 0.240030 0.167143
O O5 0.692973 0.638250 0.883272
O O6 0.645589 0.802234 0.645646
O O7 0.628831 0.398508 0.310169
O O8 0.776394 0.708082 0.037642
O O9 0.615343 0.911651 0.323097
O O10 0.414373 0.613045 0.943036
O O11 0.090107 0.558937 0.166754
O O12 0.068471 0.259264 0.529703
O O13 0.069543 0.055929 0.168342
O O14 0.487738 0.710544 0.095792
#
# Coordination Sequence:
#
# PCOD9114445 Si02
#       7
#     2   2   2   2   2   2   2
#     4   9  16  31  45  62  94 123 148 190 229 269
#     4   9  18  29  46  69  94 121 149 182 226 280
#     4   9  16  31  45  62  94 123 148 190 229 269
#     4   9  18  29  46  69  94 121 149 182 226 280
#     4  10  20  32  47  67  90 120 160 203 237 265
#     4  10  16  26  44  70 102 124 144 180 228 282
#     4  10  20  32  47  67  90 120 160 203 237 265
#
# _framework density 28.350390000000001
#
# number of rings (size 3 to 8) (size 9 to 14) (size 15 to 20)
#    0.000    2.857    0.000    5.143    0.000    0.000 
#    0.000    5.714    0.000    0.000    0.000    0.000 
#    0.000  411.429    0.000    0.000    0.000    0.000 
#
# Total GULP energy -78160.374231 kJ/mol
# GULP energy per Si atom -5582.883874 kJ/mol
# Density = 2.828586 g / cm^3
# Si number density = 28.350390 Si / 1000 Ang^3
#
#
#
# Elastic Constant Matrix: (Units=GPa)
#
#
# Indices 1 2 3 4 5 6 
#
# 1 90.5011 34.2764 22.7528 0.0000 -16.2087 0.0000
# 2 34.2764 261.0740 24.7500 0.0000 -20.2730 0.0000
# 3 22.7528 24.7500 131.8080 0.0000 -5.5734 0.0000
# 4 0.0000 0.0000 0.0000 36.1593 0.0000 -7.2899
# 5 -16.2087 -20.2730 -5.5734 0.0000 30.3503 0.0000
# 6 0.0000 0.0000 0.0000 -7.2899 0.0000 24.0174
#
#
#
# Elastic Compliance Matrix: (Units=1/GPa)
#
#
# Indices 1 2 3 4 5 6 
#
# 1 0.012958 -0.001076 -0.001786 0.000000 0.005874 0.000000
# 2 -0.001076 0.004185 -0.000510 0.000000 0.002127 0.000000
# 3 -0.001786 -0.000510 0.007998 0.000000 0.000174 0.000000
# 4 0.000000 0.000000 0.000000 0.029458 0.000000 0.008941
# 5 0.005874 0.002127 0.000174 0.000000 0.037538 0.000000
# 6 0.000000 0.000000 0.000000 0.008941 0.000000 0.044350
#
#
# Mechanical properties :
#
#
# Convention : Reuss Voigt Hill
#
# Bulk Modulus (GPa) = 54.35772 71.88237 63.12005
# Shear Modulus (GPa) = 33.47497 44.87902 39.17700
#
# Velocity S-wave (km/s) = 3.43994 3.98303 3.72141
# Velocity P-wave (km/s) = 5.91547 6.82369 6.38574
#
# Compressibility (1/GPa) = 0.01839665
#
# Stress axis : x y z
#
# Youngs Moduli (GPa) = 77.17156 238.94118 125.02610
#
# Poissons Ratio (x) = 0.25706 0.22336
# Poissons Ratio (y) = 0.08302 0.06379
# Poissons Ratio (z) = 0.13786 0.12191
#
# Static dielectric constant tensor:
#      x y z
#    x 2.256330 0.000000 0.119000 
#    y 0.000000 2.279020 0.000000 
#    z 0.119000 0.000000 2.339590 
# 
# From -- ./inp_files/10050.got.cif
#   From: 2010.05.17/outbox.cif.g08.bks.cpg/sg4_6_cif.got.tgz:10050.got - 2010.06.03 18:43:04.
