data_PCOD9114362
_publ_section_title
;
Structure prediction by ZEFSAII (Michael W. Deem and Ramdas Pophale) SiO2 
 PCOD9114362
Probable space group: P 2
;
_chemical_formula_sum "Si O2"
_cell_formula_units_Z 14
_cell_length_a 8.482444
_cell_length_b 8.903156
_cell_length_c 11.110987
_cell_angle_alpha 90.000000
_cell_angle_beta 139.767458
_cell_angle_gamma 90.000000
_cell_volume 541.972338
_symmetry_space_group_name_H-M "P 2"
_symmetry_group_IT_number 3
_symmetry_cell_setting 'monoclinic'
loop_
_space_group_symop_operation_xyz
x,y,z
-x,y,-z
loop_
_atom_site_type_symbol
_atom_site_label
_atom_site_fract_x
_atom_site_fract_y
_atom_site_fract_z
Si Si1 0.315064 0.081900 0.301714
Si Si2 0.186026 0.977573 0.867294
Si Si3 0.211636 0.575902 0.198287
Si Si4 0.507067 0.828902 0.749999
Si Si5 0.000000 0.407779 0.500000
Si Si6 0.485782 0.328901 0.250000
Si Si7 0.500000 0.250021 0.000000
Si Si8 0.048562 0.680228 0.367294
O O1 0.500000 0.164616 0.500000
O O2 0.313351 0.193369 0.188664
O O3 0.478279 0.943388 0.352047
O O4 0.058911 0.024886 0.202117
O O5 0.114156 0.828900 0.750001
O O6 0.276133 0.130599 0.855498
O O7 0.405988 0.919959 0.082534
O O8 0.274186 0.714416 0.147956
O O9 0.436022 0.464433 0.311335
O O10 0.154677 0.632915 0.297884
O O11 0.000000 0.493187 0.000000
O O12 0.259079 0.737843 0.582534
O O13 0.222455 0.308509 0.581737
O O14 0.934861 0.527202 0.355497
O O15 0.441020 0.349292 0.081737
#
# Coordination Sequence:
#
# PCOD9114362 Si02
#       8
#     2   2   2   2   1   2   1   2
#     4  12  25  47  79 109 149 202 263 322 376 463
#     4  12  27  49  80 117 154 202 262 334 389 459
#     4  12  25  47  79 109 149 202 263 322 376 463
#     4  12  22  48  78 120 144 196 270 328 386 448
#     4  12  32  50  72 112 168 204 256 318 406 474
#     4  12  32  48  74 110 158 210 258 310 396 470
#     4  12  32  50  72 112 168 204 256 318 406 474
#     4  12  27  49  80 117 154 202 262 334 389 459
#
# _framework density 25.831575999999998
#
# number of rings (size 3 to 8) (size 9 to 14) (size 15 to 20)
#    0.000    0.000    7.143    0.857   10.000    0.000 
#    0.000    0.000    0.000    0.000    0.000    0.000 
#    0.000    0.000    0.000    0.000    0.000    0.000 
#
# Total GULP energy -78223.133836 kJ/mol
# GULP energy per Si atom -5587.366703 kJ/mol
# Density = 2.577278 g / cm^3
# Si number density = 25.831576 Si / 1000 Ang^3
#
#
#
# Elastic Constant Matrix: (Units=GPa)
#
#
# Indices 1 2 3 4 5 6 
#
# 1 117.2371 31.9641 29.5714 0.0000 0.0864 0.0000
# 2 31.9641 68.3561 -0.4332 0.0000 0.4073 0.0000
# 3 29.5714 -0.4332 122.7646 0.0000 -0.1548 0.0000
# 4 0.0000 0.0000 0.0000 39.8552 0.0000 0.2231
# 5 0.0864 0.4073 -0.1548 0.0000 40.4191 0.0000
# 6 0.0000 0.0000 0.0000 0.2231 0.0000 57.6137
#
#
#
# Elastic Compliance Matrix: (Units=1/GPa)
#
#
# Indices 1 2 3 4 5 6 
#
# 1 0.010519 -0.004935 -0.002551 0.000000 0.000017 0.000000
# 2 -0.004935 0.016946 0.001248 0.000000 -0.000155 0.000000
# 3 -0.002551 0.001248 0.008765 0.000000 0.000026 0.000000
# 4 0.000000 0.000000 0.000000 0.025091 0.000000 -0.000097
# 5 0.000017 -0.000155 0.000026 0.000000 0.024742 0.000000
# 6 0.000000 0.000000 0.000000 -0.000097 0.000000 0.017357
#
#
# Mechanical properties :
#
#
# Convention : Reuss Voigt Hill
#
# Bulk Modulus (GPa) = 42.09892 47.84027 44.96959
# Shear Modulus (GPa) = 40.38333 44.06130 42.22232
#
# Velocity S-wave (km/s) = 3.95819 4.13451 4.04731
# Velocity P-wave (km/s) = 6.10103 6.43059 6.26798
#
# Compressibility (1/GPa) = 0.02375358
#
# Stress axis : x y z
#
# Youngs Moduli (GPa) = 95.06900 59.01190 114.09506
#
# Poissons Ratio (x) = 0.29122 0.29107
# Poissons Ratio (y) = 0.46916 -0.14243
# Poissons Ratio (z) = 0.24253 -0.07367
#
# Static dielectric constant tensor:
#      x y z
#    x 2.036310 0.000000 -0.003930 
#    y 0.000000 2.060550 0.000000 
#    z -0.003930 0.000000 2.349080 
# 
# From -- ./inp_files/10886.got.cif
#   From: 2010.05.17/outbox.cif.g08.bks.cpg/sg3_6_cif.got.tgz:10886.got - 2010.06.03 18:33:08.
