data_PCOD9114405
_publ_section_title
;
Structure prediction by ZEFSAII (Michael W. Deem and Ramdas Pophale) SiO2 
 PCOD9114405
Probable space group: P 2
;
_chemical_formula_sum "Si O2"
_cell_formula_units_Z 11
_cell_length_a 15.699912
_cell_length_b 5.885267
_cell_length_c 15.809985
_cell_angle_alpha 90.000000
_cell_angle_beta 162.570956
_cell_angle_gamma 90.000000
_cell_volume 437.549464
_symmetry_space_group_name_H-M "P 2"
_symmetry_group_IT_number 3
_symmetry_cell_setting 'monoclinic'
loop_
_space_group_symop_operation_xyz
x,y,z
-x,y,-z
loop_
_atom_site_type_symbol
_atom_site_label
_atom_site_fract_x
_atom_site_fract_y
_atom_site_fract_z
Si Si1 0.302585 0.479100 0.986787
Si Si2 0.207293 0.168230 0.515385
Si Si3 0.000000 0.310748 0.000000
Si Si4 0.292345 0.986954 0.410479
Si Si5 0.203613 0.682001 0.075781
Si Si6 0.288440 0.800613 0.731724
O O1 0.472277 0.250909 0.168767
O O2 0.284059 0.618724 0.056377
O O3 0.494546 0.619349 0.103436
O O4 0.997041 0.386974 0.668204
O O5 0.185984 0.076863 0.400329
O O6 0.168226 0.972447 0.547101
O O7 0.788455 0.466230 0.855950
O O8 0.810228 0.164165 0.755960
O O9 0.613831 0.899235 0.722061
O O10 0.123051 0.755321 0.232428
O O11 0.000000 0.704111 0.500000
O O12 0.500000 0.921626 0.000000
#
# Coordination Sequence:
#
# PCOD9114405 Si02
#       6
#     2   2   1   2   2   2
#     4  12  26  49  82 112 152 209 259 320 398 467
#     4  12  26  49  82 112 152 209 259 320 398 467
#     4  12  30  50  76 120 164 206 274 326 380 464
#     4  12  28  50  79 113 154 212 263 321 393 463
#     4  12  28  50  79 113 154 212 263 321 393 463
#     4  12  28  48  80 116 161 203 262 328 390 474
#
# _framework density 25.140014000000001
#
# number of rings (size 3 to 8) (size 9 to 14) (size 15 to 20)
#    0.000    0.000    3.636    4.909    2.545    7.273 
#    0.000    0.000    0.000    0.000    0.000    0.000 
#    0.000    0.000    0.000    0.000    0.000    0.000 
#
# Total GULP energy -61683.724436 kJ/mol
# GULP energy per Si atom -5607.611312 kJ/mol
# Density = 2.508279 g / cm^3
# Si number density = 25.140014 Si / 1000 Ang^3
#
#
#
# Elastic Constant Matrix: (Units=GPa)
#
#
# Indices 1 2 3 4 5 6 
#
# 1 152.1693 52.3652 50.2170 0.0000 -11.1735 0.0000
# 2 52.3652 63.6355 -1.7095 0.0000 -8.9979 0.0000
# 3 50.2170 -1.7095 90.4922 0.0000 1.1898 0.0000
# 4 0.0000 0.0000 0.0000 47.6618 0.0000 10.7579
# 5 -11.1735 -8.9979 1.1898 0.0000 42.0973 0.0000
# 6 0.0000 0.0000 0.0000 10.7579 0.0000 38.3080
#
#
#
# Elastic Compliance Matrix: (Units=1/GPa)
#
#
# Indices 1 2 3 4 5 6 
#
# 1 0.012633 -0.010401 -0.007224 0.000000 0.001334 0.000000
# 2 -0.010401 0.024774 0.006209 0.000000 0.002359 0.000000
# 3 -0.007224 0.006209 0.015190 0.000000 -0.001020 0.000000
# 4 0.000000 0.000000 0.000000 0.022401 0.000000 -0.006291
# 5 0.001334 0.002359 -0.001020 0.000000 0.024642 0.000000
# 6 0.000000 0.000000 0.000000 -0.006291 0.000000 0.027871
#
#
# Mechanical properties :
#
#
# Convention : Reuss Voigt Hill
#
# Bulk Modulus (GPa) = 33.59772 56.44914 45.02343
# Shear Modulus (GPa) = 31.19829 39.30839 35.25334
#
# Velocity S-wave (km/s) = 3.52658 3.95850 3.74877
# Velocity P-wave (km/s) = 5.47500 6.58754 6.05686
#
# Compressibility (1/GPa) = 0.02976392
#
# Stress axis : x y z
#
# Youngs Moduli (GPa) = 79.15808 40.36530 65.83085
#
# Poissons Ratio (x) = 0.41984 0.47559
# Poissons Ratio (y) = 0.82332 -0.40873
# Poissons Ratio (z) = 0.57187 -0.25062
#
# Static dielectric constant tensor:
#      x y z
#    x 2.034620 0.000000 -0.047420 
#    y 0.000000 1.928080 0.000000 
#    z -0.047420 0.000000 1.932180 
# 
# From -- ./inp_files/2781.got.cif
#   From: 2010.05.17/outbox.cif.g08.bks.cpg/sg3_2_cif.got.tgz:2781.got - 2010.06.03 18:33:08.
