data_PCOD9114261
_publ_section_title
;
Structure prediction by ZEFSAII (Michael W. Deem and Ramdas Pophale) SiO2 
 PCOD9114261
Probable space group: P 2
;
_chemical_formula_sum "Si O2"
_cell_formula_units_Z 14
_cell_length_a 19.590438
_cell_length_b 6.211952
_cell_length_c 14.050519
_cell_angle_alpha 90.000000
_cell_angle_beta 160.285000
_cell_angle_gamma 90.000000
_cell_volume 576.812500
_symmetry_space_group_name_H-M "P 2"
_symmetry_group_IT_number 3
_symmetry_cell_setting 'monoclinic'
loop_
_space_group_symop_operation_xyz
x,y,z
-x,y,-z
loop_
_atom_site_type_symbol
_atom_site_label
_atom_site_fract_x
_atom_site_fract_y
_atom_site_fract_z
Si Si1 0.595163 0.536560 0.995074
Si Si2 0.170835 0.171046 0.781898
Si Si3 0.252481 0.225476 0.532758
Si Si4 0.635038 0.784884 0.854743
Si Si5 0.500000 0.254010 0.500000
Si Si6 0.139175 0.441257 0.917593
Si Si7 0.500000 0.912012 0.000000
Si Si8 0.241477 0.000264 0.313095
O O1 0.370263 0.446450 0.711929
O O2 0.622705 0.625065 0.926253
O O3 0.714673 0.310843 0.147779
O O4 0.629089 0.741996 0.105899
O O5 0.085093 0.345024 0.743387
O O6 0.000000 0.046190 0.500000
O O7 0.299820 0.013051 0.015990
O O8 0.282444 0.127485 0.466476
O O9 0.023689 0.313116 0.234927
O O10 0.348522 0.051736 0.733741
O O11 0.401972 0.803160 0.516514
O O12 0.822637 0.698700 0.036799
O O13 0.330600 0.130397 0.339939
O O14 0.635008 0.380060 0.752738
O O15 0.000000 0.951857 0.000000
#
# Coordination Sequence:
#
# PCOD9114261 Si02
#       8
#     2   2   2   2   1   2   1   2
#     4  11  24  45  71 107 156 206 263 326 397 489
#     4  11  25  46  74 107 157 202 257 332 401 475
#     4  12  26  51  75 117 160 209 267 339 408 487
#     4  11  24  51  72 110 157 205 266 331 400 485
#     4  12  24  52  80 112 158 210 278 344 398 478
#     4  11  27  46  77 111 153 207 267 332 404 479
#     4  12  26  44  82 110 162 210 272 332 406 498
#     4  12  24  50  85 112 160 215 266 341 412 473
#
# _framework density 24.271318999999998
#
# number of rings (size 3 to 8) (size 9 to 14) (size 15 to 20)
#    0.000    0.571    5.714    1.286    6.000    4.000 
#    5.143    0.000    0.000    0.000    0.000    0.000 
#    0.000    0.000    0.000    0.000    0.000    0.000 
#
# Total GULP energy -77980.872864 kJ/mol
# GULP energy per Si atom -5570.062347 kJ/mol
# Density = 2.421608 g / cm^3
# Si number density = 24.271319 Si / 1000 Ang^3
#
#
#
# Elastic Constant Matrix: (Units=GPa)
#
#
# Indices 1 2 3 4 5 6 
#
# 1 80.3206 21.4214 8.9477 0.0000 1.3533 0.0000
# 2 21.4214 96.3595 30.0988 0.0000 5.2940 0.0000
# 3 8.9477 30.0988 86.9714 0.0000 -1.2793 0.0000
# 4 0.0000 0.0000 0.0000 31.9884 0.0000 6.9449
# 5 1.3533 5.2940 -1.2793 0.0000 31.4150 0.0000
# 6 0.0000 0.0000 0.0000 6.9449 0.0000 26.0040
#
#
#
# Elastic Compliance Matrix: (Units=1/GPa)
#
#
# Indices 1 2 3 4 5 6 
#
# 1 0.013247 -0.002817 -0.000390 0.000000 -0.000112 0.000000
# 2 -0.002817 0.012378 -0.004025 0.000000 -0.002129 0.000000
# 3 -0.000390 -0.004025 0.012949 0.000000 0.001222 0.000000
# 4 0.000000 0.000000 0.000000 0.033185 0.000000 -0.008863
# 5 -0.000112 -0.002129 0.001222 0.000000 0.032245 0.000000
# 6 0.000000 0.000000 0.000000 -0.008863 0.000000 0.040823
#
#
# Mechanical properties :
#
#
# Convention : Reuss Voigt Hill
#
# Bulk Modulus (GPa) = 41.47601 42.73194 42.10397
# Shear Modulus (GPa) = 29.88141 31.42706 30.65423
#
# Velocity S-wave (km/s) = 3.51257 3.60227 3.55770
# Velocity P-wave (km/s) = 5.79452 5.91151 5.85331
#
# Compressibility (1/GPa) = 0.02411033
#
# Stress axis : x y z
#
# Youngs Moduli (GPa) = 75.49063 80.78629 77.22503
#
# Poissons Ratio (x) = 0.22758 0.03009
# Poissons Ratio (y) = 0.21266 0.31086
# Poissons Ratio (z) = 0.02941 0.32519
#
# Static dielectric constant tensor:
#      x y z
#    x 2.065780 0.000000 0.087540 
#    y 0.000000 2.065600 0.000000 
#    z 0.087540 0.000000 2.019100 
# 
# From -- ./inp_files/14322.got.cif
#   From: 2010.05.17/outbox.cif.g08.bks.cpg/sg3_8_cif.got.tgz:14322.got - 2010.06.03 18:33:08.
