data_PCOD9114990
_publ_section_title
;
Structure prediction by ZEFSAII (Michael W. Deem and Ramdas Pophale) SiO2 
 PCOD9114990
Probable space group: P 21
;
_chemical_formula_sum "Si O2"
_cell_formula_units_Z 14
_cell_length_a 5.556667
_cell_length_b 9.105133
_cell_length_c 10.230124
_cell_angle_alpha 90.000000
_cell_angle_beta 84.828036
_cell_angle_gamma 90.000000
_cell_volume 515.477578
_symmetry_space_group_name_H-M "P 21"
_symmetry_group_IT_number 4
_symmetry_cell_setting 'monoclinic'
loop_
_space_group_symop_operation_xyz
x,y,z
-x,1/2+y,-z
loop_
_atom_site_type_symbol
_atom_site_label
_atom_site_fract_x
_atom_site_fract_y
_atom_site_fract_z
Si Si1 0.804438 0.848620 0.718075
Si Si2 0.973129 0.331848 0.557707
Si Si3 0.686155 0.947878 0.986436
Si Si4 0.292874 0.868469 0.190561
Si Si5 0.676713 0.301140 0.347477
Si Si6 0.060829 0.164194 0.959989
Si Si7 0.656846 0.632570 0.301295
O O1 0.708309 0.966811 0.828657
O O2 0.572272 0.744274 0.701850
O O3 0.888321 0.906592 0.570483
O O4 0.070968 0.785522 0.745263
O O5 0.866987 0.428069 0.681140
O O6 0.757078 0.250625 0.487434
O O7 0.155890 0.219319 0.615579
O O8 0.896153 0.045772 0.039141
O O9 0.449029 0.967330 0.084243
O O10 0.751768 0.775112 0.984722
O O11 0.127258 0.771166 0.104263
O O12 0.474963 0.756473 0.255962
O O13 0.610740 0.474802 0.368117
O O14 0.204244 0.084064 0.838076
#
# Coordination Sequence:
#
# PCOD9114990 Si02
#       7
#     2   2   2   2   2   2   2
#     4  10  22  40  65  92 130 166 228 265 337 393
#     4   9  21  39  59  94 121 164 208 277 318 400
#     4  11  23  41  68  97 132 181 222 286 331 413
#     4  10  22  37  67  90 134 167 230 268 345 390
#     4  10  21  38  68  89 122 167 220 268 322 403
#     4  10  22  41  63  98 131 177 227 278 339 403
#     4  10  19  38  64  90 122 172 221 268 330 406
#
# _framework density 27.159279999999999
#
# number of rings (size 3 to 8) (size 9 to 14) (size 15 to 20)
#    0.857    1.143    1.429    1.714    4.000    2.286 
#    0.000    7.143    0.000    0.000    0.000    0.000 
#    0.000    0.000    0.000    0.000    0.000    0.000 
#
# Total GULP energy -78070.522017 kJ/mol
# GULP energy per Si atom -5576.465858 kJ/mol
# Density = 2.709746 g / cm^3
# Si number density = 27.159280 Si / 1000 Ang^3
#
#
#
# Elastic Constant Matrix: (Units=GPa)
#
#
# Indices 1 2 3 4 5 6 
#
# 1 153.8472 13.0603 30.8264 0.0000 -5.7551 0.0000
# 2 13.0603 76.2165 34.6000 0.0000 8.2055 0.0000
# 3 30.8264 34.6000 133.2583 0.0000 -30.4232 0.0000
# 4 0.0000 0.0000 0.0000 16.0158 0.0000 -1.8936
# 5 -5.7551 8.2055 -30.4232 0.0000 66.7971 0.0000
# 6 0.0000 0.0000 0.0000 -1.8936 0.0000 41.3234
#
#
#
# Elastic Compliance Matrix: (Units=1/GPa)
#
#
# Indices 1 2 3 4 5 6 
#
# 1 0.006834 -0.000512 -0.001450 0.000000 -0.000009 0.000000
# 2 -0.000512 0.015937 -0.004996 0.000000 -0.004277 0.000000
# 3 -0.001450 -0.004996 0.010322 0.000000 0.005190 0.000000
# 4 0.000000 0.000000 0.000000 0.062778 0.000000 0.002877
# 5 -0.000009 -0.004277 0.005190 0.000000 0.017859 0.000000
# 6 0.000000 0.000000 0.000000 0.002877 0.000000 0.024331
#
#
# Mechanical properties :
#
#
# Convention : Reuss Voigt Hill
#
# Bulk Modulus (GPa) = 52.14714 57.81061 54.97888
# Shear Modulus (GPa) = 31.57194 43.81629 37.69412
#
# Velocity S-wave (km/s) = 3.41321 4.02096 3.72948
# Velocity P-wave (km/s) = 5.89707 6.54900 6.23157
#
# Compressibility (1/GPa) = 0.01917651
#
# Stress axis : x y z
#
# Youngs Moduli (GPa) = 146.33583 62.74798 96.88336
#
# Poissons Ratio (x) = 0.03212 0.14047
# Poissons Ratio (y) = 0.07490 0.48403
# Poissons Ratio (z) = 0.21217 0.31349
#
# Static dielectric constant tensor:
#      x y z
#    x 2.271790 0.000000 0.034780 
#    y 0.000000 2.061990 0.000000 
#    z 0.034780 0.000000 2.208370 
# 
# From -- ./inp_files/10448.got.cif
#   From: 2010.05.17/outbox.cif.g08.bks.cpg/sg4_6_cif.got.tgz:10448.got - 2010.06.03 18:43:04.
