data_PCOD9114594
_publ_section_title
;
Structure prediction by ZEFSAII (Michael W. Deem and Ramdas Pophale) SiO2 
 PCOD9114594
Probable space group: P 21
;
_chemical_formula_sum "Si O2"
_cell_formula_units_Z 16
_cell_length_a 30.769413
_cell_length_b 4.972840
_cell_length_c 15.124725
_cell_angle_alpha 90.000000
_cell_angle_beta 20.829026
_cell_angle_gamma 90.000000
_cell_volume 822.903897
_symmetry_space_group_name_H-M "P 21"
_symmetry_group_IT_number 4
_symmetry_cell_setting 'monoclinic'
loop_
_space_group_symop_operation_xyz
x,y,z
-x,1/2+y,-z
loop_
_atom_site_type_symbol
_atom_site_label
_atom_site_fract_x
_atom_site_fract_y
_atom_site_fract_z
Si Si1 0.498504 0.397210 0.382305
Si Si2 0.371070 0.897029 0.673665
Si Si3 0.740748 0.180099 0.853431
Si Si4 0.950946 0.139196 0.901594
Si Si5 0.084509 0.515667 0.845989
Si Si6 0.875313 0.070905 0.850871
Si Si7 0.860864 0.689377 0.719253
Si Si8 0.880533 0.144454 0.406870
O O1 0.447882 0.694126 0.465681
O O2 0.564851 0.402257 0.352149
O O3 0.385520 0.192173 0.606488
O O4 0.601908 0.280566 0.122232
O O5 0.240899 0.763536 0.936590
O O6 0.818986 0.400747 0.760769
O O7 0.788550 0.144362 0.663245
O O8 0.768116 0.898535 0.849169
O O9 0.007656 0.436838 0.785368
O O10 0.892617 0.036879 0.922322
O O11 0.065903 0.943493 0.699143
O O12 0.869782 0.102203 0.144113
O O13 0.163405 0.561638 0.607824
O O14 0.032758 0.213710 0.945843
O O15 0.999201 0.213266 0.579724
O O16 0.860696 0.800894 0.820087
#
# Coordination Sequence:
#
# PCOD9114594 Si02
#       8
#     2   2   2   2   2   2   2   2
#     4  10  22  39  52  71  94 138 195 228 254 292
#     4  10  23  36  55  68  98 142 184 227 258 300
#     4  12  21  39  55  79 107 144 181 227 268 318
#     4  10  20  32  52  79 110 142 177 212 270 335
#     4   8  16  30  50  74 106 138 173 214 263 326
#     4  12  24  38  53  80 115 148 179 214 274 330
#     4  12  26  34  53  80 114 143 176 212 277 330
#     4  10  18  34  52  79 108 141 173 222 274 321
#
# _framework density 19.443341
#
# number of rings (size 3 to 8) (size 9 to 14) (size 15 to 20)
#    0.000    1.500    3.750    1.500    3.500    3.000 
#    0.000    0.000    0.000    0.000    0.000    1.750 
#    0.000    0.000    0.000    0.000    0.000    0.000 
#
# Total GULP energy -89276.813883 kJ/mol
# GULP energy per Si atom -5579.800868 kJ/mol
# Density = 1.939909 g / cm^3
# Si number density = 19.443341 Si / 1000 Ang^3
#
#
#
# Elastic Constant Matrix: (Units=GPa)
#
#
# Indices 1 2 3 4 5 6 
#
# 1 114.0388 7.8274 26.7025 0.0000 45.4982 0.0000
# 2 7.8274 60.7884 -5.6342 0.0000 6.4466 0.0000
# 3 26.7025 -5.6342 60.7140 0.0000 12.0089 0.0000
# 4 0.0000 0.0000 0.0000 19.8011 0.0000 3.5946
# 5 45.4982 6.4466 12.0089 0.0000 31.2482 0.0000
# 6 0.0000 0.0000 0.0000 3.5946 0.0000 13.8677
#
#
#
# Elastic Compliance Matrix: (Units=1/GPa)
#
#
# Indices 1 2 3 4 5 6 
#
# 1 0.021609 0.000084 -0.003538 0.000000 -0.030121 0.000000
# 2 0.000084 0.017157 0.002467 0.000000 -0.004610 0.000000
# 3 -0.003538 0.002467 0.018764 0.000000 -0.002568 0.000000
# 4 0.000000 0.000000 0.000000 0.052996 0.000000 -0.013737
# 5 -0.030121 -0.004610 -0.002568 0.000000 0.077797 0.000000
# 6 0.000000 0.000000 0.000000 -0.013737 0.000000 0.075670
#
#
# Mechanical properties :
#
#
# Convention : Reuss Voigt Hill
#
# Bulk Modulus (GPa) = 18.00010 32.59253 25.29631
# Shear Modulus (GPa) = 17.57555 26.75978 22.16766
#
# Velocity S-wave (km/s) = 3.00982 3.71387 3.38022
# Velocity P-wave (km/s) = 4.62131 5.93209 5.31724
#
# Compressibility (1/GPa) = 0.05555526
#
# Stress axis : x y z
#
# Youngs Moduli (GPa) = 46.27688 58.28449 53.29430
#
# Poissons Ratio (x) = -0.00489 0.18857
# Poissons Ratio (y) = -0.00388 -0.13148
# Poissons Ratio (z) = 0.16374 -0.14379
#
# Static dielectric constant tensor:
#      x y z
#    x 1.723540 0.000000 0.043670 
#    y 0.000000 1.718990 0.000000 
#    z 0.043670 0.000000 1.710250 
# 
# From -- ./inp_files/14627.got.cif
#   From: 2010.05.17/outbox.cif.g08.bks.cpg/sg4_8_cif.got.tgz:14627.got - 2010.06.03 18:43:04.
