data_PCOD9114675
_publ_section_title
;
Structure prediction by ZEFSAII (Michael W. Deem and Ramdas Pophale) SiO2 
 PCOD9114675
Probable space group: P 21
;
_chemical_formula_sum "Si O2"
_cell_formula_units_Z 14
_cell_length_a 14.578681
_cell_length_b 5.952656
_cell_length_c 13.440422
_cell_angle_alpha 90.000000
_cell_angle_beta 32.727678
_cell_angle_gamma 90.000000
_cell_volume 630.602277
_symmetry_space_group_name_H-M "P 21"
_symmetry_group_IT_number 4
_symmetry_cell_setting 'monoclinic'
loop_
_space_group_symop_operation_xyz
x,y,z
-x,1/2+y,-z
loop_
_atom_site_type_symbol
_atom_site_label
_atom_site_fract_x
_atom_site_fract_y
_atom_site_fract_z
Si Si1 0.402319 0.162750 0.194947
Si Si2 0.342389 0.677568 0.767961
Si Si3 0.052038 0.627661 0.907967
Si Si4 0.485551 0.053519 0.762187
Si Si5 0.683768 0.445379 0.525752
Si Si6 0.947989 0.922418 0.841541
Si Si7 0.712664 0.849269 0.898064
O O1 0.444030 0.383262 0.220086
O O2 0.293928 0.206723 0.195999
O O3 0.318700 0.008833 0.355041
O O4 0.582886 0.054685 0.998942
O O5 0.254207 0.650641 0.742176
O O6 0.522198 0.556029 0.618997
O O7 0.379017 0.924903 0.775489
O O8 0.199167 0.564037 0.969882
O O9 0.975143 0.681099 0.870148
O O10 0.005907 0.370178 0.984053
O O11 0.639737 0.183416 0.570624
O O12 0.368316 0.218520 0.933667
O O13 0.862951 0.520614 0.319229
O O14 0.894646 0.912938 0.775260
#
# Coordination Sequence:
#
# PCOD9114675 Si02
#       7
#     2   2   2   2   2   2   2
#     4  10  20  36  60  92 119 171 219 266 324 400
#     4  10  21  43  67  89 131 173 212 276 327 405
#     4  10  23  43  71 103 132 175 230 273 337 409
#     4  10  18  38  63  86 122 166 215 264 327 390
#     4  10  23  42  59  97 131 167 223 272 338 402
#     4  11  22  44  64  97 132 171 220 277 341 395
#     4  11  19  36  64  86 121 169 215 264 328 391
#
# _framework density 22.200998999999999
#
# number of rings (size 3 to 8) (size 9 to 14) (size 15 to 20)
#    0.000    1.714    5.714    0.857    2.000    0.000 
#   20.571    0.000    0.000    0.000    0.000    0.000 
#    0.000    0.000    0.000    0.000    0.000    0.000 
#
# Total GULP energy -77997.470578 kJ/mol
# GULP energy per Si atom -5571.247898 kJ/mol
# Density = 2.215047 g / cm^3
# Si number density = 22.200999 Si / 1000 Ang^3
#
#
#
# Elastic Constant Matrix: (Units=GPa)
#
#
# Indices 1 2 3 4 5 6 
#
# 1 135.3209 19.6880 28.3613 0.0000 -19.9742 0.0000
# 2 19.6880 73.7896 23.1398 0.0000 -5.0478 0.0000
# 3 28.3613 23.1398 95.1011 0.0000 -25.6937 0.0000
# 4 0.0000 0.0000 0.0000 5.1996 0.0000 -5.1051
# 5 -19.9742 -5.0478 -25.6937 0.0000 35.8089 0.0000
# 6 0.0000 0.0000 0.0000 -5.1051 0.0000 31.7181
#
#
#
# Elastic Compliance Matrix: (Units=1/GPa)
#
#
# Indices 1 2 3 4 5 6 
#
# 1 0.008402 -0.001641 -0.001120 0.000000 0.003652 0.000000
# 2 -0.001641 0.015003 -0.003519 0.000000 -0.001325 0.000000
# 3 -0.001120 -0.003519 0.014145 0.000000 0.009028 0.000000
# 4 0.000000 0.000000 0.000000 0.228417 0.000000 0.036765
# 5 0.003652 -0.001325 0.009028 0.000000 0.036254 0.000000
# 6 0.000000 0.000000 0.000000 0.036765 0.000000 0.037445
#
#
# Mechanical properties :
#
#
# Convention : Reuss Voigt Hill
#
# Bulk Modulus (GPa) = 40.01625 49.62108 44.81867
# Shear Modulus (GPa) = 13.86747 30.08017 21.97382
#
# Velocity S-wave (km/s) = 2.50198 3.68489 3.14947
# Velocity P-wave (km/s) = 5.13908 6.36427 5.78421
#
# Compressibility (1/GPa) = 0.02498985
#
# Stress axis : x y z
#
# Youngs Moduli (GPa) = 119.01466 66.65439 70.69852
#
# Poissons Ratio (x) = 0.10937 0.07917
# Poissons Ratio (y) = 0.19528 0.24880
# Poissons Ratio (z) = 0.13328 0.23457
#
# Static dielectric constant tensor:
#      x y z
#    x 1.859650 0.000000 0.008740 
#    y 0.000000 1.900220 0.000000 
#    z 0.008740 0.000000 1.868320 
# 
# From -- ./inp_files/9430.got.cif
#   From: 2010.05.17/outbox.cif.g08.bks.cpg/sg4_5_cif.got.tgz:9430.got - 2010.06.03 18:43:04.
