data_PCOD9114462
_publ_section_title
;
Structure prediction by ZEFSAII (Michael W. Deem and Ramdas Pophale) SiO2 
 PCOD9114462
Probable space group: P 21
;
_chemical_formula_sum "Si O2"
_cell_formula_units_Z 16
_cell_length_a 16.221082
_cell_length_b 9.247239
_cell_length_c 7.269125
_cell_angle_alpha 90.000000
_cell_angle_beta 40.006211
_cell_angle_gamma 90.000000
_cell_volume 700.967102
_symmetry_space_group_name_H-M "P 21"
_symmetry_group_IT_number 4
_symmetry_cell_setting 'monoclinic'
loop_
_space_group_symop_operation_xyz
x,y,z
-x,1/2+y,-z
loop_
_atom_site_type_symbol
_atom_site_label
_atom_site_fract_x
_atom_site_fract_y
_atom_site_fract_z
Si Si1 0.021091 0.817500 0.000005
Si Si2 0.602052 0.133425 0.748382
Si Si3 0.295956 0.920503 0.536910
Si Si4 0.241128 0.417926 0.088237
Si Si5 0.892074 0.088016 0.390104
Si Si6 0.644107 0.864275 0.458240
Si Si7 0.501456 0.597390 0.681641
Si Si8 0.224321 0.191253 0.431786
O O1 0.927390 0.715571 0.278302
O O2 0.166522 0.840825 0.821440
O O3 0.038095 0.739263 0.772545
O O4 0.956559 0.972423 0.143491
O O5 0.600712 0.299093 0.692906
O O6 0.745925 0.109544 0.576879
O O7 0.584506 0.017048 0.619454
O O8 0.511387 0.105514 0.073967
O O9 0.365753 0.012715 0.574754
O O10 0.255451 0.026129 0.436270
O O11 0.236477 0.376028 0.884216
O O12 0.371368 0.515741 0.855750
O O13 0.128493 0.512818 0.375843
O O14 0.258107 0.273368 0.183990
O O15 0.532987 0.760086 0.567250
O O16 0.703381 0.788845 0.537897
#
# Coordination Sequence:
#
# PCOD9114462 Si02
#       8
#     2   2   2   2   2   2   2   2
#     4  10  16  33  62  90 112 162 200 250 301 357
#     4  10  19  36  59  89 114 160 200 244 305 363
#     4  10  21  31  64  89 116 161 205 246 307 365
#     4  10  22  40  60  92 123 162 204 254 317 360
#     4   9  18  33  61  82 120 153 203 239 301 365
#     4  11  21  38  66  83 124 164 195 263 308 364
#     4  10  21  39  54  94 117 156 210 242 307 377
#     4  10  20  40  64  85 122 162 205 254 302 375
#
# _framework density 22.825607999999999
#
# number of rings (size 3 to 8) (size 9 to 14) (size 15 to 20)
#    0.000    2.000    5.000    0.750    1.750    1.000 
#    2.250    0.000   22.000    0.000    0.000    0.000 
#    0.000    0.000    0.000    0.000    0.000    0.000 
#
# Total GULP energy -89110.190504 kJ/mol
# GULP energy per Si atom -5569.386907 kJ/mol
# Density = 2.277366 g / cm^3
# Si number density = 22.825608 Si / 1000 Ang^3
#
#
#
# Elastic Constant Matrix: (Units=GPa)
#
#
# Indices 1 2 3 4 5 6 
#
# 1 16.5465 3.7033 17.8492 0.0000 1.8597 0.0000
# 2 3.7033 109.2293 26.2510 0.0000 2.9858 0.0000
# 3 17.8492 26.2510 108.5064 0.0000 -1.7041 0.0000
# 4 0.0000 0.0000 0.0000 48.4712 0.0000 -9.3778
# 5 1.8597 2.9858 -1.7041 0.0000 36.7600 0.0000
# 6 0.0000 0.0000 0.0000 -9.3778 0.0000 8.5383
#
#
#
# Elastic Compliance Matrix: (Units=1/GPa)
#
#
# Indices 1 2 3 4 5 6 
#
# 1 0.074189 0.000588 -0.012415 0.000000 -0.004377 0.000000
# 2 0.000588 0.009755 -0.002471 0.000000 -0.000937 0.000000
# 3 -0.012415 -0.002471 0.011878 0.000000 0.001379 0.000000
# 4 0.000000 0.000000 0.000000 0.026198 0.000000 0.028773
# 5 -0.004377 -0.000937 0.001379 0.000000 0.027565 0.000000
# 6 0.000000 0.000000 0.000000 0.028773 0.000000 0.148722
#
#
# Mechanical properties :
#
#
# Convention : Reuss Voigt Hill
#
# Bulk Modulus (GPa) = 14.87552 36.65435 25.76494
# Shear Modulus (GPa) = 14.31391 31.18581 22.74986
#
# Velocity S-wave (km/s) = 2.50691 3.70031 3.16045
# Velocity P-wave (km/s) = 3.86143 5.86086 4.96288
#
# Compressibility (1/GPa) = 0.06722453
#
# Stress axis : x y z
#
# Youngs Moduli (GPa) = 13.47916 102.51503 84.19028
#
# Poissons Ratio (x) = -0.06028 1.04522
# Poissons Ratio (y) = -0.00793 0.20807
# Poissons Ratio (z) = 0.16734 0.25336
#
# Static dielectric constant tensor:
#      x y z
#    x 1.909750 0.000000 0.016450 
#    y 0.000000 1.995850 0.000000 
#    z 0.016450 0.000000 1.892790 
# 
# From -- ./inp_files/9938.got.cif
#   From: 2010.05.17/outbox.cif.g08.bks.cpg/sg4_5_cif.got.tgz:9938.got - 2010.06.03 18:43:04.
