data_PCOD9114912
_publ_section_title
;
Structure prediction by ZEFSAII (Michael W. Deem and Ramdas Pophale) SiO2 
 PCOD9114912
Probable space group: P 21
;
_chemical_formula_sum "Si O2"
_cell_formula_units_Z 14
_cell_length_a 12.677633
_cell_length_b 5.052990
_cell_length_c 21.162169
_cell_angle_alpha 90.000000
_cell_angle_beta 153.071931
_cell_angle_gamma 90.000000
_cell_volume 613.934197
_symmetry_space_group_name_H-M "P 21"
_symmetry_group_IT_number 4
_symmetry_cell_setting 'monoclinic'
loop_
_space_group_symop_operation_xyz
x,y,z
-x,1/2+y,-z
loop_
_atom_site_type_symbol
_atom_site_label
_atom_site_fract_x
_atom_site_fract_y
_atom_site_fract_z
Si Si1 0.205619 0.426030 0.057604
Si Si2 0.586120 0.353492 0.016303
Si Si3 0.992570 0.954203 0.676218
Si Si4 0.472507 0.184954 0.523780
Si Si5 0.183468 0.455616 0.709284
Si Si6 0.496598 0.408450 0.774243
Si Si7 0.262178 0.691069 0.212673
O O1 0.340364 0.683854 0.107726
O O2 0.163581 0.474908 0.110450
O O3 0.384695 0.187294 0.149520
O O4 0.960447 0.374944 0.894527
O O5 0.443078 0.433232 0.878349
O O6 0.444414 0.539169 0.991111
O O7 0.846106 0.434845 0.174283
O O8 0.092648 0.742462 0.679336
O O9 0.743351 0.848397 0.563254
O O10 0.025664 0.238317 0.660781
O O11 0.597609 0.417297 0.550156
O O12 0.633719 0.090450 0.667361
O O13 0.238664 0.403741 0.665350
O O14 0.537177 0.337598 0.721817
#
# Coordination Sequence:
#
# PCOD9114912 Si02
#       7
#     2   2   2   2   2   2   2
#     4  10  20  37  65  93 130 162 205 275 326 349
#     4   8  16  30  54  78 114 160 199 246 294 351
#     4  10  21  41  56  86 128 166 206 261 311 379
#     4  12  29  45  66  93 128 179 222 261 323 399
#     4  10  19  36  62  89 124 160 210 256 321 379
#     4  10  20  35  63 102 123 158 207 266 329 380
#     4  10  23  42  66  95 135 165 217 273 322 375
#
# _framework density 22.803746
#
# number of rings (size 3 to 8) (size 9 to 14) (size 15 to 20)
#    0.857    1.143    1.429    1.714    2.000    2.286 
#    0.000    4.286    0.000    0.000    0.000    0.000 
#    0.000    0.000    0.000    0.000    0.000    0.000 
#
# Total GULP energy -78044.203906 kJ/mol
# GULP energy per Si atom -5574.585993 kJ/mol
# Density = 2.275184 g / cm^3
# Si number density = 22.803746 Si / 1000 Ang^3
#
#
#
# Elastic Constant Matrix: (Units=GPa)
#
#
# Indices 1 2 3 4 5 6 
#
# 1 49.4362 -8.2937 -2.7018 0.0000 8.7641 0.0000
# 2 -8.2937 70.9662 -19.2899 0.0000 11.6232 0.0000
# 3 -2.7018 -19.2899 36.9822 0.0000 -8.4987 0.0000
# 4 0.0000 0.0000 0.0000 13.3440 0.0000 10.7008
# 5 8.7641 11.6232 -8.4987 0.0000 8.2200 0.0000
# 6 0.0000 0.0000 0.0000 10.7008 0.0000 23.7445
#
#
#
# Elastic Compliance Matrix: (Units=1/GPa)
#
#
# Indices 1 2 3 4 5 6 
#
# 1 0.031478 0.011386 -0.004163 0.000000 -0.053966 0.000000
# 2 0.011386 0.023110 0.003393 0.000000 -0.041310 0.000000
# 3 -0.004163 0.003393 0.037281 0.000000 0.038186 0.000000
# 4 0.000000 0.000000 0.000000 0.117349 0.000000 -0.052885
# 5 -0.053966 -0.041310 0.038186 0.000000 0.277085 0.000000
# 6 0.000000 0.000000 0.000000 -0.052885 0.000000 0.065948
#
#
# Mechanical properties :
#
#
# Convention : Reuss Voigt Hill
#
# Bulk Modulus (GPa) = 8.84171 10.75708 9.79939
# Shear Modulus (GPa) = 8.79168 21.57305 15.18236
#
# Velocity S-wave (km/s) = 1.96564 3.07910 2.58308
# Velocity P-wave (km/s) = 3.00622 4.16757 3.63359
#
# Compressibility (1/GPa) = 0.11310032
#
# Stress axis : x y z
#
# Youngs Moduli (GPa) = 31.76838 43.27131 26.82329
#
# Poissons Ratio (x) = -0.49268 0.11167
# Poissons Ratio (y) = -0.36171 -0.09101
# Poissons Ratio (z) = 0.13225 -0.14681
#
# Static dielectric constant tensor:
#      x y z
#    x 1.971330 0.000000 -0.005560 
#    y 0.000000 1.826190 0.000000 
#    z -0.005560 0.000000 1.849150 
# 
# From -- ./inp_files/15667.got.cif
#   From: 2010.05.17/outbox.cif.g08.bks.cpg/sg4_8_cif.got.tgz:15667.got - 2010.06.03 18:43:04.
