data_PCOD9114308
_publ_section_title
;
Structure prediction by ZEFSAII (Michael W. Deem and Ramdas Pophale) SiO2 
 PCOD9114308
Probable space group: P 2
;
_chemical_formula_sum "Si O2"
_cell_formula_units_Z 9
_cell_length_a 5.298254
_cell_length_b 10.216281
_cell_length_c 8.247115
_cell_angle_alpha 90.000000
_cell_angle_beta 118.211132
_cell_angle_gamma 90.000000
_cell_volume 393.376011
_symmetry_space_group_name_H-M "P 2"
_symmetry_group_IT_number 3
_symmetry_cell_setting 'monoclinic'
loop_
_space_group_symop_operation_xyz
x,y,z
-x,y,-z
loop_
_atom_site_type_symbol
_atom_site_label
_atom_site_fract_x
_atom_site_fract_y
_atom_site_fract_z
Si Si1 0.345605 0.717450 0.622786
Si Si2 0.000000 0.171163 0.500000
Si Si3 0.651852 0.468578 0.873259
Si Si4 0.481612 0.991582 0.803540
Si Si5 0.803357 0.215499 0.783137
O O1 0.500000 0.748522 0.500000
O O2 0.497900 0.587830 0.736045
O O3 0.425231 0.839736 0.761749
O O4 0.000000 0.705209 0.500000
O O5 0.097779 0.244780 0.367904
O O6 0.233797 0.074009 0.644566
O O7 0.585000 0.332690 0.758400
O O8 0.500000 0.456645 0.000000
O O9 0.000000 0.493207 0.000000
O O10 0.737692 0.060584 0.780806
O O11 0.500000 0.023415 0.000000
O O12 0.000000 0.234492 0.000000
#
# Coordination Sequence:
#
# PCOD9114308 Si02
#       5
#     2   1   2   2   2
#     4  12  27  49  75 115 156 202 264 321 389 467
#     4  12  24  46  74 114 148 200 252 318 382 460
#     4  11  26  51  76 110 156 207 261 316 390 467
#     4  12  25  46  77 109 153 202 254 323 390 461
#     4  11  25  46  77 112 156 199 261 317 391 461
#
# _framework density 22.878874
#
# number of rings (size 3 to 8) (size 9 to 14) (size 15 to 20)
#    0.000    0.444    3.333    4.667    3.111    2.667 
#    4.000    0.000    0.000    0.000    0.000    0.000 
#    0.000    0.000    0.000    0.000    0.000    0.000 
#
# Total GULP energy -50216.656129 kJ/mol
# GULP energy per Si atom -5579.628459 kJ/mol
# Density = 2.282680 g / cm^3
# Si number density = 22.878874 Si / 1000 Ang^3
#
#
#
# Elastic Constant Matrix: (Units=GPa)
#
#
# Indices 1 2 3 4 5 6 
#
# 1 123.2502 5.5879 57.1104 0.0000 -11.1258 0.0000
# 2 5.5879 120.2014 25.0375 0.0000 15.1159 0.0000
# 3 57.1104 25.0375 153.0680 0.0000 -21.1346 0.0000
# 4 0.0000 0.0000 0.0000 16.4969 0.0000 -4.8536
# 5 -11.1258 15.1159 -21.1346 0.0000 45.5682 0.0000
# 6 0.0000 0.0000 0.0000 -4.8536 0.0000 30.9109
#
#
#
# Elastic Compliance Matrix: (Units=1/GPa)
#
#
# Indices 1 2 3 4 5 6 
#
# 1 0.009838 0.000213 -0.003615 0.000000 0.000655 0.000000
# 2 0.000213 0.009262 -0.002149 0.000000 -0.004017 0.000000
# 3 -0.003615 -0.002149 0.008772 0.000000 0.003899 0.000000
# 4 0.000000 0.000000 0.000000 0.063554 0.000000 0.009979
# 5 0.000655 -0.004017 0.003899 0.000000 0.025246 0.000000
# 6 0.000000 0.000000 0.000000 0.009979 0.000000 0.033918
#
#
# Mechanical properties :
#
#
# Convention : Reuss Voigt Hill
#
# Bulk Modulus (GPa) = 59.63052 63.55458 61.59255
# Shear Modulus (GPa) = 29.88966 39.18079 34.53523
#
# Velocity S-wave (km/s) = 3.61838 4.14276 3.88942
# Velocity P-wave (km/s) = 6.60129 7.12196 6.86656
#
# Compressibility (1/GPa) = 0.01676993
#
# Stress axis : x y z
#
# Youngs Moduli (GPa) = 101.64506 107.96408 114.00222
#
# Poissons Ratio (x) = -0.02304 0.41214
# Poissons Ratio (y) = -0.02169 0.24503
# Poissons Ratio (z) = 0.36747 0.23205
#
# Static dielectric constant tensor:
#      x y z
#    x 1.775890 0.000000 0.084570 
#    y 0.000000 1.821850 0.000000 
#    z 0.084570 0.000000 1.928170 
# 
# From -- ./inp_files/933.got.cif
#   From: 2010.05.17/outbox.cif.g08.bks.cpg/sg3_1_cif.got.tgz:933.got - 2010.06.03 18:33:08.
