data_PCOD9114161
_publ_section_title
;
Structure prediction by ZEFSAII (Michael W. Deem and Ramdas Pophale) SiO2 
 PCOD9114161
Probable space group: P 2
;
_chemical_formula_sum "Si O2"
_cell_formula_units_Z 16
_cell_length_a 11.445906
_cell_length_b 8.538412
_cell_length_c 8.068086
_cell_angle_alpha 90.000000
_cell_angle_beta 61.592158
_cell_angle_gamma 90.000000
_cell_volume 693.545340
_symmetry_space_group_name_H-M "P 2"
_symmetry_group_IT_number 3
_symmetry_cell_setting 'monoclinic'
loop_
_space_group_symop_operation_xyz
x,y,z
-x,y,-z
loop_
_atom_site_type_symbol
_atom_site_label
_atom_site_fract_x
_atom_site_fract_y
_atom_site_fract_z
Si Si1 0.943805 0.040960 0.849760
Si Si2 0.311122 0.421890 0.929179
Si Si3 0.690131 0.054487 0.183295
Si Si4 0.198249 0.910900 0.566877
Si Si5 0.424285 0.373110 0.371211
Si Si6 0.188282 0.558723 0.688382
Si Si7 0.061580 0.395707 0.276970
Si Si8 0.424680 0.033539 0.225548
O O1 0.947553 0.219431 0.786640
O O2 0.794116 0.983172 0.981128
O O3 0.042404 0.947922 0.664519
O O4 0.000000 0.035340 0.000000
O O5 0.311972 0.238060 0.868714
O O6 0.466353 0.463175 0.814690
O O7 0.234606 0.519338 0.841503
O O8 0.217292 0.437321 0.152022
O O9 0.543807 0.984564 0.268606
O O10 0.743870 0.029490 0.331577
O O11 0.209543 0.738158 0.630271
O O12 0.290720 0.938295 0.346175
O O13 0.500000 0.348218 0.500000
O O14 0.289091 0.459625 0.505799
O O15 0.394064 0.212565 0.296189
O O16 0.037637 0.504576 0.761348
O O17 0.000000 0.400645 0.500000
O O18 0.500000 0.029264 0.000000
#
# Coordination Sequence:
#
# PCOD9114161 Si02
#       8
#     2   2   2   2   2   2   2   2
#     4   9  19  37  60  85 109 141 194 245 278 320
#     4   9  19  37  60  85 109 141 194 245 278 320
#     4   9  19  37  60  85 109 141 194 245 278 320
#     4  11  22  37  58  85 115 149 187 231 283 336
#     4   9  19  37  60  85 109 141 194 245 278 320
#     4  11  22  37  58  85 115 149 187 231 283 336
#     4  11  22  37  58  85 115 149 187 231 283 336
#     4  11  22  37  58  85 115 149 187 231 283 336
#
# _framework density 23.069869000000001
#
# number of rings (size 3 to 8) (size 9 to 14) (size 15 to 20)
#    0.000    2.000    0.000    6.000    0.000   12.000 
#    0.000    5.000    0.000    0.000    0.000    0.000 
#    0.000    0.000    0.000    0.000    0.000    0.000 
#
# Total GULP energy -89371.472336 kJ/mol
# GULP energy per Si atom -5585.717021 kJ/mol
# Density = 2.301736 g / cm^3
# Si number density = 23.069869 Si / 1000 Ang^3
#
#
#
# Elastic Constant Matrix: (Units=GPa)
#
#
# Indices 1 2 3 4 5 6 
#
# 1 31.5806 -2.4197 35.4745 0.0000 -17.1921 0.0000
# 2 -2.4197 26.0444 18.3804 0.0000 -4.5542 0.0000
# 3 35.4745 18.3804 178.3167 0.0000 -41.5520 0.0000
# 4 0.0000 0.0000 0.0000 3.5705 0.0000 8.4735
# 5 -17.1921 -4.5542 -41.5520 0.0000 44.2744 0.0000
# 6 0.0000 0.0000 0.0000 8.4735 0.0000 -22.8727
#
#
#
# Elastic Compliance Matrix: (Units=1/GPa)
#
#
# Indices 1 2 3 4 5 6 
#
# 1 0.048413 0.012322 -0.007968 0.000000 0.012588 0.000000
# 2 0.012322 0.044548 -0.006221 0.000000 0.003529 0.000000
# 3 -0.007968 -0.006221 0.008914 0.000000 0.004632 0.000000
# 4 0.000000 0.000000 0.000000 0.149039 0.000000 0.055213
# 5 0.012588 0.003529 0.004632 0.000000 0.032184 0.000000
# 6 0.000000 0.000000 0.000000 0.055213 0.000000 -0.023266
#
#
# Mechanical properties :
#
#
# Convention : Reuss Voigt Hill
#
# Bulk Modulus (GPa) = 10.18940 37.64579 23.91760
# Shear Modulus (GPa) = 16.87596 17.29488 17.08542
#
# Velocity S-wave (km/s) = 2.70759 2.74099 2.72434
# Velocity P-wave (km/s) = 3.76843 5.13526 4.50400
#
# Compressibility (1/GPa) = 0.09814118
#
# Stress axis : x y z
#
# Youngs Moduli (GPa) = 20.65581 22.44755 112.18698
#
# Poissons Ratio (x) = -0.27661 0.89391
# Poissons Ratio (y) = -0.25453 0.69792
# Poissons Ratio (z) = 0.16459 0.13965
#
# Static dielectric constant tensor:
#      x y z
#    x 1.933770 0.000000 0.007090 
#    y 0.000000 1.819090 0.000000 
#    z 0.007090 0.000000 1.931920 
# 
# From -- ./inp_files/7451.got.cif
#   From: 2010.05.17/outbox.cif.g08.bks.cpg/sg3_4_cif.got.tgz:7451.got - 2010.06.03 18:33:08.
