data_PCOD9114569
_publ_section_title
;
Structure prediction by ZEFSAII (Michael W. Deem and Ramdas Pophale) SiO2 
 PCOD9114569
Probable space group: P 21
;
_chemical_formula_sum "Si O2"
_cell_formula_units_Z 16
_cell_length_a 16.679539
_cell_length_b 6.922112
_cell_length_c 5.456533
_cell_angle_alpha 90.000000
_cell_angle_beta 109.292810
_cell_angle_gamma 90.000000
_cell_volume 594.619221
_symmetry_space_group_name_H-M "P 21"
_symmetry_group_IT_number 4
_symmetry_cell_setting 'monoclinic'
loop_
_space_group_symop_operation_xyz
x,y,z
-x,1/2+y,-z
loop_
_atom_site_type_symbol
_atom_site_label
_atom_site_fract_x
_atom_site_fract_y
_atom_site_fract_z
Si Si1 0.064281 0.527370 0.823057
Si Si2 0.188432 0.896356 0.880860
Si Si3 0.436361 0.693617 0.452864
Si Si4 0.126791 0.956436 0.322929
Si Si5 0.127432 0.490154 0.390648
Si Si6 0.628273 0.758771 0.677889
Si Si7 0.369399 0.737095 0.888459
Si Si8 0.305651 0.324184 0.751351
O O1 0.117296 0.725034 0.839994
O O2 0.064585 0.436635 0.550320
O O3 0.967145 0.538775 0.806566
O O4 0.109559 0.419028 0.096566
O O5 0.162271 0.024537 0.620808
O O6 0.277091 0.799773 0.894075
O O7 0.183559 0.990442 0.142650
O O8 0.534727 0.674075 0.616428
O O9 0.386765 0.491066 0.367878
O O10 0.394105 0.802842 0.640623
O O11 0.430626 0.785387 0.175777
O O12 0.123246 0.722590 0.350843
O O13 0.217969 0.424410 0.583057
O O14 0.665838 0.702599 0.453110
O O15 0.685825 0.723268 0.975951
O O16 0.369021 0.505567 0.852573
#
# Coordination Sequence:
#
# PCOD9114569 Si02
#       8
#     2   2   2   2   2   2   2   2
#     4  10  19  30  49  78 107 135 166 228 277 308
#     4  10  19  32  51  78 105 134 186 218 263 322
#     4  10  21  34  55  87 112 141 182 230 278 327
#     4  10  19  30  49  78 107 135 166 228 277 308
#     4  10  19  32  51  78 105 134 186 218 263 322
#     4  10  21  34  55  87 112 141 182 230 278 327
#     4  10  18  32  55  81 106 136 181 233 261 323
#     4  10  18  32  55  81 106 136 181 233 261 323
#
# _framework density 26.907975
#
# number of rings (size 3 to 8) (size 9 to 14) (size 15 to 20)
#    0.000    2.000    2.500    3.000    7.000    0.000 
#    0.000    0.000    0.000    0.000   65.000    0.000 
#    0.000    0.000    0.000    0.000    0.000    0.000 
#
# Total GULP energy -89515.516482 kJ/mol
# GULP energy per Si atom -5594.719780 kJ/mol
# Density = 2.684673 g / cm^3
# Si number density = 26.907975 Si / 1000 Ang^3
#
#
#
# Elastic Constant Matrix: (Units=GPa)
#
#
# Indices 1 2 3 4 5 6 
#
# 1 129.4650 25.3414 78.3983 0.0000 -31.4840 0.0000
# 2 25.3414 107.5346 20.3821 0.0000 -4.8547 0.0000
# 3 78.3983 20.3821 270.7409 0.0000 -42.8614 0.0000
# 4 0.0000 0.0000 0.0000 2.0621 0.0000 2.9468
# 5 -31.4840 -4.8547 -42.8614 0.0000 60.7437 0.0000
# 6 0.0000 0.0000 0.0000 2.9468 0.0000 20.2883
#
#
#
# Elastic Compliance Matrix: (Units=1/GPa)
#
#
# Indices 1 2 3 4 5 6 
#
# 1 0.010345 -0.001842 -0.002287 0.000000 0.003601 0.000000
# 2 -0.001842 0.009766 -0.000258 0.000000 -0.000356 0.000000
# 3 -0.002287 -0.000258 0.004711 0.000000 0.002118 0.000000
# 4 0.000000 0.000000 0.000000 0.611943 0.000000 -0.088882
# 5 0.003601 -0.000356 0.002118 0.000000 0.019795 0.000000
# 6 0.000000 0.000000 0.000000 -0.088882 0.000000 0.062199
#
#
# Mechanical properties :
#
#
# Convention : Reuss Voigt Hill
#
# Bulk Modulus (GPa) = 62.31379 83.99823 73.15601
# Shear Modulus (GPa) = 6.82238 42.19340 24.50789
#
# Velocity S-wave (km/s) = 1.59404 3.96417 3.02123
# Velocity P-wave (km/s) = 5.15716 7.22755 6.27829
#
# Compressibility (1/GPa) = 0.01604781
#
# Stress axis : x y z
#
# Youngs Moduli (GPa) = 96.66295 102.39333 212.29160
#
# Poissons Ratio (x) = 0.18860 0.48549
# Poissons Ratio (y) = 0.17804 0.05483
# Poissons Ratio (z) = 0.22106 0.02645
#
# Static dielectric constant tensor:
#      x y z
#    x 2.049460 0.000000 -0.002070 
#    y 0.000000 2.218710 0.000000 
#    z -0.002070 0.000000 2.194130 
# 
# From -- ./inp_files/3718.got.cif
#   From: 2010.05.17/outbox.cif.g08.bks.cpg/sg4_2_cif.got.tgz:3718.got - 2010.06.03 18:43:04.
