data_PCOD9114371
_publ_section_title
;
Structure prediction by ZEFSAII (Michael W. Deem and Ramdas Pophale) SiO2 
 PCOD9114371
Probable space group: P 2
;
_chemical_formula_sum "Si O2"
_cell_formula_units_Z 10
_cell_length_a 10.967898
_cell_length_b 7.766357
_cell_length_c 8.005787
_cell_angle_alpha 90.000000
_cell_angle_beta 42.478535
_cell_angle_gamma 90.000000
_cell_volume 460.522131
_symmetry_space_group_name_H-M "P 2"
_symmetry_group_IT_number 3
_symmetry_cell_setting 'monoclinic'
loop_
_space_group_symop_operation_xyz
x,y,z
-x,y,-z
loop_
_atom_site_type_symbol
_atom_site_label
_atom_site_fract_x
_atom_site_fract_y
_atom_site_fract_z
Si Si1 0.309262 0.695280 0.496305
Si Si2 0.000000 0.529812 0.000000
Si Si3 0.201368 0.800969 0.248297
Si Si4 0.329870 0.496352 0.893150
Si Si5 0.364461 0.137656 0.984348
Si Si6 0.500000 0.987003 0.500000
O O1 0.314466 0.764425 0.302490
O O2 0.461715 0.545097 0.362368
O O3 0.352858 0.853427 0.575869
O O4 0.110452 0.632520 0.746959
O O5 0.825831 0.445880 0.084038
O O6 0.000000 0.756310 0.500000
O O7 0.270351 0.675550 0.035202
O O8 0.211766 0.996597 0.173945
O O9 0.321869 0.338990 0.029409
O O10 0.439384 0.097245 0.721953
O O11 0.500000 0.106126 0.000000
#
# Coordination Sequence:
#
# PCOD9114371 Si02
#       6
#     2   1   2   2   2   1
#     4  12  23  47  79 102 145 191 238 299 365 426
#     4  12  24  44  74 110 142 184 248 300 352 436
#     4  12  24  48  75 105 146 192 242 299 359 428
#     4  12  26  48  74 104 144 195 238 298 365 426
#     4  12  26  48  72 106 145 190 242 298 358 429
#     4  12  24  44  80 104 136 194 240 288 368 428
#
# _framework density 21.714483000000001
#
# number of rings (size 3 to 8) (size 9 to 14) (size 15 to 20)
#    0.000    0.000    8.000    1.800    2.800    0.800 
#    7.200    0.000    0.000    0.000    0.000    0.000 
#    0.000    0.000    0.000    0.000    0.000    0.000 
#
# Total GULP energy -55774.798377 kJ/mol
# GULP energy per Si atom -5577.479838 kJ/mol
# Density = 2.166506 g / cm^3
# Si number density = 21.714483 Si / 1000 Ang^3
#
#
#
# Elastic Constant Matrix: (Units=GPa)
#
#
# Indices 1 2 3 4 5 6 
#
# 1 111.3305 -1.4284 20.3720 0.0000 3.5924 0.0000
# 2 -1.4284 68.8833 -4.1519 0.0000 -12.6682 0.0000
# 3 20.3720 -4.1519 88.6632 0.0000 -16.4926 0.0000
# 4 0.0000 0.0000 0.0000 4.5374 0.0000 13.2085
# 5 3.5924 -12.6682 -16.4926 0.0000 40.3104 0.0000
# 6 0.0000 0.0000 0.0000 13.2085 0.0000 33.5141
#
#
#
# Elastic Compliance Matrix: (Units=1/GPa)
#
#
# Indices 1 2 3 4 5 6 
#
# 1 0.009514 -0.000326 -0.002574 0.000000 -0.002004 0.000000
# 2 -0.000326 0.015676 0.001873 0.000000 0.005722 0.000000
# 3 -0.002574 0.001873 0.013108 0.000000 0.006181 0.000000
# 4 0.000000 0.000000 0.000000 -1.496414 0.000000 0.589763
# 5 -0.002004 0.005722 0.006181 0.000000 0.029313 0.000000
# 6 0.000000 0.000000 0.000000 0.589763 0.000000 -0.202598
#
#
# Mechanical properties :
#
#
# Convention : Reuss Voigt Hill
#
# Bulk Modulus (GPa) = 27.59129 33.16226 30.37677
# Shear Modulus (GPa) = -3.09164 32.61139 14.75988
#
# Velocity S-wave (km/s) = -1.19451 3.87955 2.60998
# Velocity P-wave (km/s) = 3.29113 5.94752 4.80648
#
# Compressibility (1/GPa) = 0.03624332
#
# Stress axis : x y z
#
# Youngs Moduli (GPa) = 105.11132 63.79275 76.29213
#
# Poissons Ratio (x) = 0.02082 0.19637
# Poissons Ratio (y) = 0.03430 -0.14293
# Poissons Ratio (z) = 0.27055 -0.11951
#
# Static dielectric constant tensor:
#      x y z
#    x 1.874400 0.000000 0.018990 
#    y 0.000000 1.781840 0.000000 
#    z 0.018990 0.000000 1.791480 
# 
# From -- ./inp_files/6821.got.cif
#   From: 2010.05.17/outbox.cif.g08.bks.cpg/sg3_4_cif.got.tgz:6821.got - 2010.06.03 18:33:08.
