data_PCOD9114401
_publ_section_title
;
Structure prediction by ZEFSAII (Michael W. Deem and Ramdas Pophale) SiO2 
 PCOD9114401
Probable space group: P 2
;
_chemical_formula_sum "Si O2"
_cell_formula_units_Z 12
_cell_length_a 13.877807
_cell_length_b 4.870026
_cell_length_c 8.279752
_cell_angle_alpha 90.000000
_cell_angle_beta 68.728415
_cell_angle_gamma 90.000000
_cell_volume 521.465248
_symmetry_space_group_name_H-M "P 2"
_symmetry_group_IT_number 3
_symmetry_cell_setting 'monoclinic'
loop_
_space_group_symop_operation_xyz
x,y,z
-x,y,-z
loop_
_atom_site_type_symbol
_atom_site_label
_atom_site_fract_x
_atom_site_fract_y
_atom_site_fract_z
Si Si1 0.770026 0.865560 0.577023
Si Si2 0.221010 0.085875 0.793575
Si Si3 0.445908 0.330682 0.701673
Si Si4 0.111474 0.361314 0.362109
Si Si5 0.891131 0.586159 0.000632
Si Si6 0.466877 0.831415 0.197669
O O1 0.775163 0.980325 0.392272
O O2 0.842298 0.602610 0.555183
O O3 0.652951 0.784816 0.691082
O O4 0.812268 0.102892 0.669463
O O5 0.329059 0.229397 0.771406
O O6 0.192141 0.826853 0.922622
O O7 0.137459 0.324151 0.872329
O O8 0.500000 0.265087 0.500000
O O9 0.508118 0.150565 0.792956
O O10 0.462762 0.650288 0.725726
O O11 0.104334 0.480034 0.185607
O O12 0.000000 0.278850 0.500000
O O13 0.000000 0.697515 0.000000
O O14 0.500000 0.747774 0.000000
#
# Coordination Sequence:
#
# PCOD9114401 Si02
#       6
#     2   2   2   2   2   2
#     4  12  26  47  73 107 144 191 234 294 360 419
#     4  12  26  46  74 107 143 188 240 295 349 424
#     4  12  26  48  72 105 142 192 237 287 356 420
#     4  12  27  48  74 105 146 187 236 294 362 425
#     4  12  27  48  75 107 142 186 240 297 354 424
#     4  12  28  46  72 105 147 187 237 295 351 425
#
# _framework density 23.012080999999998
#
# number of rings (size 3 to 8) (size 9 to 14) (size 15 to 20)
#    0.000    0.000    1.667    8.000    9.333    0.000 
#    0.000    0.000    0.000    0.000    0.000    0.000 
#    0.000    0.000    0.000    0.000    0.000    0.000 
#
# Total GULP energy -67285.164184 kJ/mol
# GULP energy per Si atom -5607.097015 kJ/mol
# Density = 2.295970 g / cm^3
# Si number density = 23.012081 Si / 1000 Ang^3
#
#
#
# Elastic Constant Matrix: (Units=GPa)
#
#
# Indices 1 2 3 4 5 6 
#
# 1 81.6568 10.4142 42.2898 0.0000 -13.0470 0.0000
# 2 10.4142 99.2129 19.1278 0.0000 -7.7804 0.0000
# 3 42.2898 19.1278 135.2174 0.0000 -3.1565 0.0000
# 4 0.0000 0.0000 0.0000 37.9537 0.0000 -4.5491
# 5 -13.0470 -7.7804 -3.1565 0.0000 28.6557 0.0000
# 6 0.0000 0.0000 0.0000 -4.5491 0.0000 53.3897
#
#
#
# Elastic Compliance Matrix: (Units=1/GPa)
#
#
# Indices 1 2 3 4 5 6 
#
# 1 0.015792 -0.000223 -0.004753 0.000000 0.006606 0.000000
# 2 -0.000223 0.010571 -0.001364 0.000000 0.002618 0.000000
# 3 -0.004753 -0.001364 0.009039 0.000000 -0.001539 0.000000
# 4 0.000000 0.000000 0.000000 0.026620 0.000000 0.002268
# 5 0.006606 0.002618 -0.001539 0.000000 0.038446 0.000000
# 6 0.000000 0.000000 0.000000 0.002268 0.000000 0.018923
#
#
# Mechanical properties :
#
#
# Convention : Reuss Voigt Hill
#
# Bulk Modulus (GPa) = 44.01303 51.08341 47.54822
# Shear Modulus (GPa) = 35.80455 40.28351 38.04403
#
# Velocity S-wave (km/s) = 3.94877 4.18848 4.07039
# Velocity P-wave (km/s) = 6.32123 6.75558 6.54201
#
# Compressibility (1/GPa) = 0.02272054
#
# Stress axis : x y z
#
# Youngs Moduli (GPa) = 63.32311 94.59707 110.62952
#
# Poissons Ratio (x) = 0.02112 0.52585
# Poissons Ratio (y) = 0.01413 0.15095
# Poissons Ratio (z) = 0.30099 0.12907
#
# Static dielectric constant tensor:
#      x y z
#    x 1.849780 0.000000 -0.032050 
#    y 0.000000 1.816300 0.000000 
#    z -0.032050 0.000000 1.697860 
# 
# From -- ./inp_files/8213.got.cif
#   From: 2010.05.17/outbox.cif.g08.bks.cpg/sg3_5_cif.got.tgz:8213.got - 2010.06.03 18:33:08.
