data_PCOD9114490
_publ_section_title
;
Structure prediction by ZEFSAII (Michael W. Deem and Ramdas Pophale) SiO2 
 PCOD9114490
Probable space group: P 21
;
_chemical_formula_sum "Si O2"
_cell_formula_units_Z 12
_cell_length_a 12.889267
_cell_length_b 5.352634
_cell_length_c 9.155489
_cell_angle_alpha 90.000000
_cell_angle_beta 43.442071
_cell_angle_gamma 90.000000
_cell_volume 434.336512
_symmetry_space_group_name_H-M "P 21"
_symmetry_group_IT_number 4
_symmetry_cell_setting 'monoclinic'
loop_
_space_group_symop_operation_xyz
x,y,z
-x,1/2+y,-z
loop_
_atom_site_type_symbol
_atom_site_label
_atom_site_fract_x
_atom_site_fract_y
_atom_site_fract_z
Si Si1 0.199204 0.536010 0.217969
Si Si2 0.751935 0.545679 0.543420
Si Si3 0.917880 0.356526 0.115517
Si Si4 0.423005 0.900428 0.646076
Si Si5 0.593998 0.043016 0.733036
Si Si6 0.104497 0.038702 0.285065
O O1 0.359938 0.534921 0.140598
O O2 0.167799 0.292054 0.154658
O O3 0.068985 0.540157 0.481247
O O4 0.148566 0.774058 0.177253
O O5 0.889190 0.455004 0.307776
O O6 0.628779 0.326602 0.653658
O O7 0.799067 0.540867 0.662912
O O8 0.702625 0.825317 0.557833
O O9 0.750829 0.378015 0.219242
O O10 0.022906 0.573080 0.940332
O O11 0.497399 0.141200 0.487435
O O12 0.446477 0.958090 0.795909
#
# Coordination Sequence:
#
# PCOD9114490 Si02
#       6
#     2   2   2   2   2   2
#     4   8  14  23  40  67  96 115 149 198 247 285
#     4  10  18  31  49  69  98 130 164 199 249 294
#     4  12  24  36  50  74 104 136 171 212 250 297
#     4  12  21  36  55  74  98 136 175 207 253 299
#     4  10  17  30  50  73  94 126 164 206 245 293
#     4   8  14  24  40  65  94 123 147 192 248 294
#
# _framework density 27.628347999999999
#
# number of rings (size 3 to 8) (size 9 to 14) (size 15 to 20)
#    0.000    2.000    3.333    2.000    0.000    0.000 
#    0.000    0.000    0.000    0.000    0.000    2.333 
#    0.000    0.000    0.000    0.000    0.000    0.000 
#
# Total GULP energy -67086.832921 kJ/mol
# GULP energy per Si atom -5590.569410 kJ/mol
# Density = 2.756546 g / cm^3
# Si number density = 27.628348 Si / 1000 Ang^3
#
#
#
# Elastic Constant Matrix: (Units=GPa)
#
#
# Indices 1 2 3 4 5 6 
#
# 1 104.7145 23.0019 41.3301 0.0000 -43.0517 0.0000
# 2 23.0019 213.8868 62.3992 0.0000 -14.8416 0.0000
# 3 41.3301 62.3992 100.1070 0.0000 -27.4417 0.0000
# 4 0.0000 0.0000 0.0000 28.7112 0.0000 -7.8142
# 5 -43.0517 -14.8416 -27.4417 0.0000 58.9307 0.0000
# 6 0.0000 0.0000 0.0000 -7.8142 0.0000 27.0946
#
#
#
# Elastic Compliance Matrix: (Units=1/GPa)
#
#
# Indices 1 2 3 4 5 6 
#
# 1 0.014692 0.000115 -0.003653 0.000000 0.009061 0.000000
# 2 0.000115 0.005719 -0.003662 0.000000 -0.000181 0.000000
# 3 -0.003653 -0.003662 0.014668 0.000000 0.003239 0.000000
# 4 0.000000 0.000000 0.000000 0.037796 0.000000 0.010901
# 5 0.009061 -0.000181 0.003239 0.000000 0.025051 0.000000
# 6 0.000000 0.000000 0.000000 0.010901 0.000000 0.040051
#
#
# Mechanical properties :
#
#
# Convention : Reuss Voigt Hill
#
# Bulk Modulus (GPa) = 48.36125 74.68564 61.52344
# Shear Modulus (GPa) = 31.39318 42.41246 36.90282
#
# Velocity S-wave (km/s) = 3.37451 3.92229 3.65867
# Velocity P-wave (km/s) = 5.72061 6.89953 6.33754
#
# Compressibility (1/GPa) = 0.02067771
#
# Stress axis : x y z
#
# Youngs Moduli (GPa) = 68.06580 174.86483 68.17621
#
# Poissons Ratio (x) = -0.02003 0.24907
# Poissons Ratio (y) = -0.00780 0.24963
# Poissons Ratio (z) = 0.24866 0.64028
#
# Static dielectric constant tensor:
#      x y z
#    x 2.223260 0.000000 0.024090 
#    y 0.000000 2.386520 0.000000 
#    z 0.024090 0.000000 2.164770 
# 
# From -- ./inp_files/7269.got.cif
#   From: 2010.05.17/outbox.cif.g08.bks.cpg/sg4_4_cif.got.tgz:7269.got - 2010.06.03 18:43:04.
