data_PCOD9114095
_publ_section_title
;
Structure prediction by ZEFSAII (Michael W. Deem and Ramdas Pophale) SiO2 
 PCOD9114095
Probable space group: P 2
;
_chemical_formula_sum "Si O2"
_cell_formula_units_Z 10
_cell_length_a 8.097052
_cell_length_b 5.144577
_cell_length_c 15.247521
_cell_angle_alpha 90.000000
_cell_angle_beta 38.361301
_cell_angle_gamma 90.000000
_cell_volume 394.185302
_symmetry_space_group_name_H-M "P 2"
_symmetry_group_IT_number 3
_symmetry_cell_setting 'monoclinic'
loop_
_space_group_symop_operation_xyz
x,y,z
-x,y,-z
loop_
_atom_site_type_symbol
_atom_site_label
_atom_site_fract_x
_atom_site_fract_y
_atom_site_fract_z
Si Si1 0.356157 0.550360 0.152108
Si Si2 0.628920 0.642749 0.352676
Si Si3 0.278516 0.329597 0.847638
Si Si4 0.716300 0.998630 0.579482
Si Si5 0.983808 0.040146 0.298323
O O1 0.573859 0.496692 0.137512
O O2 0.169338 0.294218 0.213850
O O3 0.170891 0.798449 0.251329
O O4 0.500000 0.607564 0.000000
O O5 0.500000 0.574425 0.500000
O O6 0.784026 0.460844 0.221071
O O7 0.369947 0.705308 0.401659
O O8 0.814933 0.897201 0.291681
O O9 0.495241 0.117728 0.732398
O O10 0.000000 0.228607 0.000000
O O11 0.242050 0.106041 0.535835
O O12 0.000000 0.037262 0.500000
#
# Coordination Sequence:
#
# PCOD9114095 Si02
#       5
#     2   2   2   2   2
#     4  12  27  50  81 117 166 215 266 334 413 482
#     4  10  26  45  78 112 159 210 278 335 404 479
#     4  12  28  47  79 119 168 211 269 338 413 483
#     4  11  24  46  76 112 152 212 267 333 392 485
#     4  11  26  49  80 114 157 211 276 330 398 484
#
# _framework density 25.368780000000001
#
# number of rings (size 3 to 8) (size 9 to 14) (size 15 to 20)
#    0.000    0.800    2.000    3.000   11.200    2.400 
#    0.000    0.000    0.000    0.000    0.000    0.000 
#    0.000    0.000    0.000    0.000    0.000    0.000 
#
# Total GULP energy -55881.128343 kJ/mol
# GULP energy per Si atom -5588.112834 kJ/mol
# Density = 2.531104 g / cm^3
# Si number density = 25.368780 Si / 1000 Ang^3
#
#
#
# Elastic Constant Matrix: (Units=GPa)
#
#
# Indices 1 2 3 4 5 6 
#
# 1 136.6818 38.4194 45.6016 0.0000 -4.6487 0.0000
# 2 38.4194 114.8131 47.2915 0.0000 -7.3185 0.0000
# 3 45.6016 47.2915 211.2658 0.0000 -6.9640 0.0000
# 4 0.0000 0.0000 0.0000 35.0298 0.0000 -6.6125
# 5 -4.6487 -7.3185 -6.9640 0.0000 51.1233 0.0000
# 6 0.0000 0.0000 0.0000 -6.6125 0.0000 48.0200
#
#
#
# Elastic Compliance Matrix: (Units=1/GPa)
#
#
# Indices 1 2 3 4 5 6 
#
# 1 0.008393 -0.002257 -0.001298 0.000000 0.000263 0.000000
# 2 -0.002257 0.010262 -0.001776 0.000000 0.001022 0.000000
# 3 -0.001298 -0.001776 0.005423 0.000000 0.000366 0.000000
# 4 0.000000 0.000000 0.000000 0.029309 0.000000 0.004036
# 5 0.000263 0.001022 0.000366 0.000000 0.019781 0.000000
# 6 0.000000 0.000000 0.000000 0.004036 0.000000 0.021380
#
#
# Mechanical properties :
#
#
# Convention : Reuss Voigt Hill
#
# Bulk Modulus (GPa) = 74.53948 80.59843 77.56896
# Shear Modulus (GPa) = 45.58659 48.93118 47.25888
#
# Velocity S-wave (km/s) = 4.24365 4.39657 4.32079
# Velocity P-wave (km/s) = 7.31147 7.59031 7.45219
#
# Compressibility (1/GPa) = 0.01341571
#
# Stress axis : x y z
#
# Youngs Moduli (GPa) = 119.15283 97.44834 184.39483
#
# Poissons Ratio (x) = 0.21995 0.23927
# Poissons Ratio (y) = 0.26894 0.32753
# Poissons Ratio (z) = 0.15461 0.17309
#
# Static dielectric constant tensor:
#      x y z
#    x 2.116110 0.000000 -0.005330 
#    y 0.000000 2.078790 0.000000 
#    z -0.005330 0.000000 1.953780 
# 
# From -- ./inp_files/13170.got.cif
#   From: 2010.05.17/outbox.cif.g08.bks.cpg/sg3_7_cif.got.tgz:13170.got - 2010.06.03 18:33:08.
