data_PCOD9114374
_publ_section_title
;
Structure prediction by ZEFSAII (Michael W. Deem and Ramdas Pophale) SiO2 
 PCOD9114374
Probable space group: P 2
;
_chemical_formula_sum "Si O2"
_cell_formula_units_Z 11
_cell_length_a 14.610742
_cell_length_b 6.397240
_cell_length_c 14.416973
_cell_angle_alpha 90.000000
_cell_angle_beta 20.432879
_cell_angle_gamma 90.000000
_cell_volume 470.436596
_symmetry_space_group_name_H-M "P 2"
_symmetry_group_IT_number 3
_symmetry_cell_setting 'monoclinic'
loop_
_space_group_symop_operation_xyz
x,y,z
-x,y,-z
loop_
_atom_site_type_symbol
_atom_site_label
_atom_site_fract_x
_atom_site_fract_y
_atom_site_fract_z
Si Si1 0.418277 0.560990 0.884015
Si Si2 0.930643 0.281839 0.373739
Si Si3 0.500000 0.779518 0.000000
Si Si4 0.635169 0.792383 0.253062
Si Si5 0.864926 0.063291 0.251876
Si Si6 0.000000 0.443621 0.000000
Si Si7 0.000000 0.061041 0.500000
O O1 0.676275 0.422678 0.628324
O O2 0.411604 0.649357 0.994439
O O3 0.417131 0.731758 0.804410
O O4 0.164676 0.418720 0.110602
O O5 0.017605 0.195445 0.390338
O O6 0.868946 0.103542 0.358034
O O7 0.742610 0.920091 0.737833
O O8 0.364749 0.894438 0.546811
O O9 0.776720 0.590756 0.165390
O O10 0.858069 0.968767 0.041793
O O11 0.853911 0.288629 0.211755
#
# Coordination Sequence:
#
# PCOD9114374 Si02
#       7
#     2   2   1   2   2   1   1
#     4  12  24  46  73 107 148 196 245 306 373 449
#     4  12  24  46  73 107 148 196 245 306 373 449
#     4  12  24  42  70 108 148 192 248 298 364 456
#     4  12  28  51  78 110 151 199 253 315 386 452
#     4  12  28  51  78 110 151 199 253 315 386 452
#     4  12  30  54  76 116 152 202 262 326 384 458
#     4  12  24  42  70 108 148 192 248 298 364 456
#
# _framework density 23.382532000000001
#
# number of rings (size 3 to 8) (size 9 to 14) (size 15 to 20)
#    0.000    0.000    1.818    8.182    0.000    4.364 
#    0.000    0.000    0.000    0.000    0.000    0.000 
#    0.000    0.000    0.000    0.000    0.000    0.000 
#
# Total GULP energy -61688.984238 kJ/mol
# GULP energy per Si atom -5608.089476 kJ/mol
# Density = 2.332931 g / cm^3
# Si number density = 23.382532 Si / 1000 Ang^3
#
#
#
# Elastic Constant Matrix: (Units=GPa)
#
#
# Indices 1 2 3 4 5 6 
#
# 1 135.4712 35.7029 -15.8734 0.0000 4.9046 0.0000
# 2 35.7029 95.1955 32.2789 0.0000 -5.7675 0.0000
# 3 -15.8734 32.2789 97.9327 0.0000 -1.0254 0.0000
# 4 0.0000 0.0000 0.0000 57.7671 0.0000 21.8572
# 5 4.9046 -5.7675 -1.0254 0.0000 37.6912 0.0000
# 6 0.0000 0.0000 0.0000 21.8572 0.0000 83.8247
#
#
#
# Elastic Compliance Matrix: (Units=1/GPa)
#
#
# Indices 1 2 3 4 5 6 
#
# 1 0.008958 -0.004450 0.002900 0.000000 -0.001768 0.000000
# 2 -0.004450 0.014148 -0.005357 0.000000 0.002598 0.000000
# 3 0.002900 -0.005357 0.012438 0.000000 -0.000859 0.000000
# 4 0.000000 0.000000 0.000000 0.019206 0.000000 -0.005008
# 5 -0.001768 0.002598 -0.000859 0.000000 0.027136 0.000000
# 6 0.000000 0.000000 0.000000 -0.005008 0.000000 0.013235
#
#
# Mechanical properties :
#
#
# Convention : Reuss Voigt Hill
#
# Bulk Modulus (GPa) = 46.02032 48.09068 47.05550
# Shear Modulus (GPa) = 43.03717 54.28935 48.66326
#
# Velocity S-wave (km/s) = 4.29484 4.82372 4.56694
# Velocity P-wave (km/s) = 6.65721 7.18582 6.92656
#
# Compressibility (1/GPa) = 0.02172953
#
# Stress axis : x y z
#
# Youngs Moduli (GPa) = 111.62754 70.68257 80.39892
#
# Poissons Ratio (x) = 0.31456 -0.23319
# Poissons Ratio (y) = 0.49678 0.43072
# Poissons Ratio (z) = -0.32376 0.37867
#
# Static dielectric constant tensor:
#      x y z
#    x 1.972220 0.000000 0.029960 
#    y 0.000000 1.860300 0.000000 
#    z 0.029960 0.000000 1.804450 
# 
# From -- ./inp_files/2652.got.cif
#   From: 2010.05.17/outbox.cif.g08.bks.cpg/sg3_2_cif.got.tgz:2652.got - 2010.06.03 18:33:08.
