data_PCOD9114328
_publ_section_title
;
Structure prediction by ZEFSAII (Michael W. Deem and Ramdas Pophale) SiO2 
 PCOD9114328
Probable space group: P 2
;
_chemical_formula_sum "Si O2"
_cell_formula_units_Z 12
_cell_length_a 12.447105
_cell_length_b 5.363405
_cell_length_c 9.199207
_cell_angle_alpha 90.000000
_cell_angle_beta 47.016647
_cell_angle_gamma 90.000000
_cell_volume 449.266911
_symmetry_space_group_name_H-M "P 2"
_symmetry_group_IT_number 3
_symmetry_cell_setting 'monoclinic'
loop_
_space_group_symop_operation_xyz
x,y,z
-x,y,-z
loop_
_atom_site_type_symbol
_atom_site_label
_atom_site_fract_x
_atom_site_fract_y
_atom_site_fract_z
Si Si1 0.000000 0.549800 0.000000
Si Si2 0.766145 0.184275 0.058294
Si Si3 0.555203 0.674432 0.714052
Si Si4 0.000000 0.696585 0.500000
Si Si5 0.658605 0.181872 0.465807
Si Si6 0.703672 0.526780 0.883236
Si Si7 0.062419 0.946950 0.720390
O O1 0.877235 0.399475 0.021010
O O2 0.907043 0.728996 0.193530
O O3 0.659252 0.131798 0.292057
O O4 0.685492 0.266365 0.985103
O O5 0.890206 0.988314 0.902377
O O6 0.588230 0.444734 0.574943
O O7 0.633766 0.579918 0.790824
O O8 0.608021 0.936867 0.601598
O O9 0.385106 0.697183 0.919839
O O10 0.877660 0.545721 0.698957
O O11 0.914945 0.865593 0.464205
O O12 0.834049 0.179857 0.342169
#
# Coordination Sequence:
#
# PCOD9114328 Si02
#       7
#     1   2   2   1   2   2   2
#     4  12  20  46  64 112 162 190 246 332 392 446
#     4  12  26  42  76 116 157 197 263 327 387 466
#     4  11  29  53  79 108 162 205 262 315 398 467
#     4  12  26  44  80 108 150 200 270 320 390 458
#     4  12  25  50  79 108 156 213 249 317 402 466
#     4  11  28  50  75 115 154 206 261 328 382 472
#     4  12  25  41  73 114 151 201 256 328 385 462
#
# _framework density 26.710180000000001
#
# number of rings (size 3 to 8) (size 9 to 14) (size 15 to 20)
#    0.000    0.333    6.667    1.000    4.667    4.667 
#    0.000    3.333    0.000    0.000    0.000    0.000 
#    0.000    0.000    0.000    0.000    0.000    0.000 
#
# Total GULP energy -67172.290845 kJ/mol
# GULP energy per Si atom -5597.690904 kJ/mol
# Density = 2.664939 g / cm^3
# Si number density = 26.710180 Si / 1000 Ang^3
#
#
#
# Elastic Constant Matrix: (Units=GPa)
#
#
# Indices 1 2 3 4 5 6 
#
# 1 87.6376 12.9143 41.6865 0.0000 1.1258 0.0000
# 2 12.9143 99.6071 59.2477 0.0000 -1.8207 0.0000
# 3 41.6865 59.2477 180.0400 0.0000 3.5827 0.0000
# 4 0.0000 0.0000 0.0000 53.9740 0.0000 0.7215
# 5 1.1258 -1.8207 3.5827 0.0000 55.2598 0.0000
# 6 0.0000 0.0000 0.0000 0.7215 0.0000 44.2357
#
#
#
# Elastic Compliance Matrix: (Units=1/GPa)
#
#
# Indices 1 2 3 4 5 6 
#
# 1 0.012824 0.000126 -0.003010 0.000000 -0.000062 0.000000
# 2 0.000126 0.012510 -0.004159 0.000000 0.000679 0.000000
# 3 -0.003010 -0.004159 0.007631 0.000000 -0.000570 0.000000
# 4 0.000000 0.000000 0.000000 0.018531 0.000000 -0.000302
# 5 -0.000062 0.000679 -0.000570 0.000000 0.018157 0.000000
# 6 0.000000 0.000000 0.000000 -0.000302 0.000000 0.022611
#
#
# Mechanical properties :
#
#
# Convention : Reuss Voigt Hill
#
# Bulk Modulus (GPa) = 52.96674 66.10906 59.53790
# Shear Modulus (GPa) = 44.38775 47.58965 45.98870
#
# Velocity S-wave (km/s) = 4.08098 4.22560 4.15392
# Velocity P-wave (km/s) = 6.48684 6.97222 6.73390
#
# Compressibility (1/GPa) = 0.01887977
#
# Stress axis : x y z
#
# Youngs Moduli (GPa) = 77.97618 79.93885 131.03870
#
# Poissons Ratio (x) = -0.01010 0.39439
# Poissons Ratio (y) = -0.00985 0.54505
# Poissons Ratio (z) = 0.23469 0.33250
#
# Static dielectric constant tensor:
#      x y z
#    x 2.156150 0.000000 -0.086970 
#    y 0.000000 2.080900 0.000000 
#    z -0.086970 0.000000 2.086310 
# 
# From -- ./inp_files/8177.got.cif
#   From: 2010.05.17/outbox.cif.g08.bks.cpg/sg3_5_cif.got.tgz:8177.got - 2010.06.03 18:33:08.
