data_PCOD9114409
_publ_section_title
;
Structure prediction by ZEFSAII (Michael W. Deem and Ramdas Pophale) SiO2 
 PCOD9114409
Probable space group: P 2
;
_chemical_formula_sum "Si O2"
_cell_formula_units_Z 10
_cell_length_a 13.435291
_cell_length_b 5.585593
_cell_length_c 5.249313
_cell_angle_alpha 90.000000
_cell_angle_beta 71.397830
_cell_angle_gamma 90.000000
_cell_volume 373.349460
_symmetry_space_group_name_H-M "P 2"
_symmetry_group_IT_number 3
_symmetry_cell_setting 'monoclinic'
loop_
_space_group_symop_operation_xyz
x,y,z
-x,y,-z
loop_
_atom_site_type_symbol
_atom_site_label
_atom_site_fract_x
_atom_site_fract_y
_atom_site_fract_z
Si Si1 0.394145 0.203790 0.932414
Si Si2 0.204405 0.953303 0.356288
Si Si3 0.000000 0.230817 0.500000
Si Si4 0.895372 0.595126 0.972611
Si Si5 0.696893 0.590880 0.366973
Si Si6 0.500000 0.801489 0.500000
O O1 0.358316 0.439108 0.812308
O O2 0.425917 0.976789 0.727417
O O3 0.500000 0.241593 0.000000
O O4 0.294728 0.130772 0.185065
O O5 0.177226 0.761063 0.152774
O O6 0.249510 0.832144 0.570223
O O7 0.094482 0.067218 0.512321
O O8 0.052183 0.394382 0.243914
O O9 0.814321 0.472436 0.238228
O O10 0.000000 0.719882 0.000000
O O11 0.582917 0.645825 0.596801
#
# Coordination Sequence:
#
# PCOD9114409 Si02
#       6
#     2   2   1   2   2   1
#     4  12  27  53  85 122 172 233 286 353 438 508
#     4  12  27  53  84 122 174 227 288 356 432 513
#     4  12  26  50  82 120 166 232 284 356 432 514
#     4  12  27  50  80 120 165 227 289 352 426 519
#     4  12  27  49  84 123 167 224 293 350 426 520
#     4  12  26  50  82 120 164 222 292 354 416 518
#
# _framework density 26.784558000000001
#
# number of rings (size 3 to 8) (size 9 to 14) (size 15 to 20)
#    0.000    0.000    6.000    3.600    0.000    9.600 
#    7.200    0.000    0.000    2.400    0.000    0.000 
#    0.000    0.000    0.000    0.000    0.000    0.000 
#
# Total GULP energy -55704.771923 kJ/mol
# GULP energy per Si atom -5570.477192 kJ/mol
# Density = 2.672360 g / cm^3
# Si number density = 26.784558 Si / 1000 Ang^3
#
#
#
# Elastic Constant Matrix: (Units=GPa)
#
#
# Indices 1 2 3 4 5 6 
#
# 1 270.4592 85.3698 55.2346 0.0000 -40.6686 0.0000
# 2 85.3698 102.6475 53.8109 0.0000 11.6030 0.0000
# 3 55.2346 53.8109 94.2329 0.0000 -24.1368 0.0000
# 4 0.0000 0.0000 0.0000 62.7716 0.0000 -23.9147
# 5 -40.6686 11.6030 -24.1368 0.0000 50.2242 0.0000
# 6 0.0000 0.0000 0.0000 -23.9147 0.0000 107.2466
#
#
#
# Elastic Compliance Matrix: (Units=1/GPa)
#
#
# Indices 1 2 3 4 5 6 
#
# 1 0.007208 -0.008697 0.003137 0.000000 0.009354 0.000000
# 2 -0.008697 0.027949 -0.016330 0.000000 -0.021347 0.000000
# 3 0.003137 -0.016330 0.022483 0.000000 0.017118 0.000000
# 4 0.000000 0.000000 0.000000 0.017410 0.000000 0.003882
# 5 0.009354 -0.021347 0.017118 0.000000 0.040643 0.000000
# 6 0.000000 0.000000 0.000000 0.003882 0.000000 0.010190
#
#
# Mechanical properties :
#
#
# Convention : Reuss Voigt Hill
#
# Bulk Modulus (GPa) = 72.14944 95.13004 83.63974
# Shear Modulus (GPa) = 28.68896 62.24343 45.46619
#
# Velocity S-wave (km/s) = 3.27632 4.82587 4.12452
# Velocity P-wave (km/s) = 6.42711 8.16369 7.34689
#
# Compressibility (1/GPa) = 0.01386012
#
# Stress axis : x y z
#
# Youngs Moduli (GPa) = 138.72639 35.77968 44.47810
#
# Poissons Ratio (x) = 0.31117 -0.13952
# Poissons Ratio (y) = 1.20649 0.72633
# Poissons Ratio (z) = -0.43517 0.58429
#
# Static dielectric constant tensor:
#      x y z
#    x 2.061830 0.000000 0.068900 
#    y 0.000000 2.172830 0.000000 
#    z 0.068900 0.000000 2.252430 
# 
# From -- ./inp_files/1925.got.cif
#   From: 2010.05.17/outbox.cif.g08.bks.cpg/sg3_1_cif.got.tgz:1925.got - 2010.06.03 18:33:08.
