data_PCOD9114980
_publ_section_title
;
Structure prediction by ZEFSAII (Michael W. Deem and Ramdas Pophale) SiO2 
 PCOD9114980
Probable space group: P 21
;
_chemical_formula_sum "Si O2"
_cell_formula_units_Z 16
_cell_length_a 20.996189
_cell_length_b 8.770180
_cell_length_c 9.529633
_cell_angle_alpha 90.000000
_cell_angle_beta 153.869236
_cell_angle_gamma 90.000000
_cell_volume 772.846880
_symmetry_space_group_name_H-M "P 21"
_symmetry_group_IT_number 4
_symmetry_cell_setting 'monoclinic'
loop_
_space_group_symop_operation_xyz
x,y,z
-x,1/2+y,-z
loop_
_atom_site_type_symbol
_atom_site_label
_atom_site_fract_x
_atom_site_fract_y
_atom_site_fract_z
Si Si1 0.328499 0.184410 0.952388
Si Si2 0.795562 0.203752 0.426264
Si Si3 0.094510 0.413393 0.620813
Si Si4 0.189135 0.746517 0.857949
Si Si5 0.648442 0.532509 0.713069
Si Si6 0.904448 0.602148 0.032398
Si Si7 0.292147 0.994052 0.610071
Si Si8 0.557023 0.974205 0.942062
O O1 0.212083 0.297112 0.794236
O O2 0.267533 0.075730 0.710323
O O3 0.434305 0.295975 0.076610
O O4 0.387903 0.091150 0.203337
O O5 0.752153 0.253859 0.183515
O O6 0.731069 0.316313 0.411222
O O7 0.969456 0.213940 0.770852
O O8 0.715148 0.042229 0.284346
O O9 0.162288 0.564577 0.830288
O O10 0.970404 0.323882 0.459360
O O11 0.005240 0.479810 0.311653
O O12 0.288204 0.858739 0.147707
O O13 0.515576 0.540239 0.343690
O O14 0.778187 0.631325 0.897552
O O15 0.819020 0.548791 0.727361
O O16 0.451044 0.014712 0.859413
#
# Coordination Sequence:
#
# PCOD9114980 Si02
#       8
#     2   2   2   2   2   2   2   2
#     4  12  22  38  66  91 120 168 210 248 319 370
#     4  11  21  41  64  86 127 165 200 257 315 365
#     4  10  20  36  64  93 125 156 198 260 316 367
#     4  10  19  38  61  93 126 152 202 258 315 364
#     4  10  23  41  64  94 124 157 209 266 311 371
#     4   9  21  41  62  90 125 152 202 260 315 361
#     4  11  25  40  63  90 127 166 210 253 307 377
#     4  11  25  43  60  89 130 168 207 258 308 369
#
# _framework density 20.702679
#
# number of rings (size 3 to 8) (size 9 to 14) (size 15 to 20)
#    0.000    1.500    3.750    3.000    3.500    0.000 
#    0.000    0.000    0.000    9.000    0.000    0.000 
#    0.000    0.000    0.000    0.000    0.000    0.000 
#
# Total GULP energy -89121.015949 kJ/mol
# GULP energy per Si atom -5570.063497 kJ/mol
# Density = 2.065556 g / cm^3
# Si number density = 20.702679 Si / 1000 Ang^3
#
#
#
# Elastic Constant Matrix: (Units=GPa)
#
#
# Indices 1 2 3 4 5 6 
#
# 1 72.1900 27.3692 13.7521 0.0000 -3.8520 0.0000
# 2 27.3692 71.2428 7.0293 0.0000 0.7726 0.0000
# 3 13.7521 7.0293 32.6472 0.0000 11.4868 0.0000
# 4 0.0000 0.0000 0.0000 15.2405 0.0000 4.8040
# 5 -3.8520 0.7726 11.4868 0.0000 23.4686 0.0000
# 6 0.0000 0.0000 0.0000 4.8040 0.0000 41.3306
#
#
#
# Elastic Compliance Matrix: (Units=1/GPa)
#
#
# Indices 1 2 3 4 5 6 
#
# 1 0.018358 -0.006239 -0.009087 0.000000 0.007666 0.000000
# 2 -0.006239 0.016492 -0.000449 0.000000 -0.001347 0.000000
# 3 -0.009087 -0.000449 0.042371 0.000000 -0.022215 0.000000
# 4 0.000000 0.000000 0.000000 0.068110 0.000000 -0.007917
# 5 0.007666 -0.001347 -0.022215 0.000000 0.054786 0.000000
# 6 0.000000 0.000000 0.000000 -0.007917 0.000000 0.025115
#
#
# Mechanical properties :
#
#
# Convention : Reuss Voigt Hill
#
# Bulk Modulus (GPa) = 21.89537 30.26459 26.07998
# Shear Modulus (GPa) = 18.38192 24.53657 21.45924
#
# Velocity S-wave (km/s) = 2.98300 3.44639 3.22303
# Velocity P-wave (km/s) = 4.73956 5.52152 5.14542
#
# Compressibility (1/GPa) = 0.04567176
#
# Stress axis : x y z
#
# Youngs Moduli (GPa) = 54.47264 60.63455 23.60090
#
# Poissons Ratio (x) = 0.37830 0.21446
# Poissons Ratio (y) = 0.33986 0.01059
# Poissons Ratio (z) = 0.49499 0.02722
#
# Static dielectric constant tensor:
#      x y z
#    x 1.779310 0.000000 0.034130 
#    y 0.000000 1.814400 0.000000 
#    z 0.034130 0.000000 1.727430 
# 
# From -- ./inp_files/9936.got.cif
#   From: 2010.05.17/outbox.cif.g08.bks.cpg/sg4_5_cif.got.tgz:9936.got - 2010.06.03 18:43:04.
