data_PCOD9114679
_publ_section_title
;
Structure prediction by ZEFSAII (Michael W. Deem and Ramdas Pophale) SiO2 
 PCOD9114679
Probable space group: P 21
;
_chemical_formula_sum "Si O2"
_cell_formula_units_Z 16
_cell_length_a 9.234417
_cell_length_b 10.158470
_cell_length_c 7.570976
_cell_angle_alpha 90.000000
_cell_angle_beta 57.175973
_cell_angle_gamma 90.000000
_cell_volume 596.821365
_symmetry_space_group_name_H-M "P 21"
_symmetry_group_IT_number 4
_symmetry_cell_setting 'monoclinic'
loop_
_space_group_symop_operation_xyz
x,y,z
-x,1/2+y,-z
loop_
_atom_site_type_symbol
_atom_site_label
_atom_site_fract_x
_atom_site_fract_y
_atom_site_fract_z
Si Si1 0.155804 0.401020 0.396743
Si Si2 0.294817 0.724306 0.087418
Si Si3 0.962075 0.052639 0.967229
Si Si4 0.725999 0.673291 0.439735
Si Si5 0.193275 0.000346 0.285998
Si Si6 0.046279 0.786158 0.786944
Si Si7 0.415061 0.839612 0.627920
Si Si8 0.490122 0.048769 0.822231
O O1 0.181307 0.301892 0.540446
O O2 0.347155 0.454281 0.227907
O O3 0.010920 0.512512 0.533414
O O4 0.079210 0.312860 0.290181
O O5 0.199582 0.842816 0.249353
O O6 0.433129 0.679970 0.141530
O O7 0.174779 0.607698 0.086353
O O8 0.373014 0.782170 0.852685
O O9 0.143824 0.103087 0.775730
O O10 0.974625 0.895572 0.974753
O O11 0.936000 0.138589 0.157661
O O12 0.705494 0.574024 0.621195
O O13 0.561742 0.744048 0.460607
O O14 0.303184 0.041774 0.040422
O O15 0.243180 0.829460 0.628571
O O16 0.470076 0.988928 0.636870
#
# Coordination Sequence:
#
# PCOD9114679 Si02
#       8
#     2   2   2   2   2   2   2   2
#     4  11  23  41  69 101 123 177 230 272 338 408
#     4  10  18  38  64  97 125 171 219 284 326 395
#     4  11  23  43  69  92 140 180 224 279 350 405
#     4  11  21  43  70  96 128 174 232 284 329 407
#     4  11  21  37  70  97 128 168 226 282 332 384
#     4  11  24  45  63  99 140 180 218 280 355 407
#     4   9  22  38  62  92 136 171 215 278 336 402
#     4  10  20  39  65  96 132 169 226 275 332 392
#
# _framework density 26.808689999999999
#
# number of rings (size 3 to 8) (size 9 to 14) (size 15 to 20)
#    0.000    1.500    5.000    0.000    0.000    3.000 
#    2.250    2.500    0.000    0.000    0.000    0.000 
#    0.000    0.000    0.000    0.000    0.000    0.000 
#
# Total GULP energy -89344.070286 kJ/mol
# GULP energy per Si atom -5584.004393 kJ/mol
# Density = 2.674767 g / cm^3
# Si number density = 26.808690 Si / 1000 Ang^3
#
#
#
# Elastic Constant Matrix: (Units=GPa)
#
#
# Indices 1 2 3 4 5 6 
#
# 1 127.8047 12.1961 0.2056 0.0000 -12.7414 0.0000
# 2 12.1961 51.4984 1.8699 0.0000 -5.9635 0.0000
# 3 0.2056 1.8699 51.8292 0.0000 1.1211 0.0000
# 4 0.0000 0.0000 0.0000 44.3859 0.0000 2.8020
# 5 -12.7414 -5.9635 1.1211 0.0000 37.1735 0.0000
# 6 0.0000 0.0000 0.0000 2.8020 0.0000 50.6879
#
#
#
# Elastic Compliance Matrix: (Units=1/GPa)
#
#
# Indices 1 2 3 4 5 6 
#
# 1 0.008237 -0.001653 -0.000028 0.000000 0.002559 0.000000
# 2 -0.001653 0.020149 -0.000779 0.000000 0.002689 0.000000
# 3 -0.000028 -0.000779 0.019338 0.000000 -0.000718 0.000000
# 4 0.000000 0.000000 0.000000 0.022609 0.000000 -0.001250
# 5 0.002559 0.002689 -0.000718 0.000000 0.028231 0.000000
# 6 0.000000 0.000000 0.000000 -0.001250 0.000000 0.019798
#
#
# Mechanical properties :
#
#
# Convention : Reuss Voigt Hill
#
# Bulk Modulus (GPa) = 23.36241 28.85284 26.10763
# Shear Modulus (GPa) = 36.35027 40.90685 38.62856
#
# Velocity S-wave (km/s) = 3.68627 3.91049 3.80003
# Velocity P-wave (km/s) = 5.18184 5.58347 5.38640
#
# Compressibility (1/GPa) = 0.04280380
#
# Stress axis : x y z
#
# Youngs Moduli (GPa) = 121.39765 49.62945 51.71203
#
# Poissons Ratio (x) = 0.08206 0.00147
# Poissons Ratio (y) = 0.20073 0.04026
# Poissons Ratio (z) = 0.00344 0.03864
#
# Static dielectric constant tensor:
#      x y z
#    x 2.152250 0.000000 0.044650 
#    y 0.000000 2.266530 0.000000 
#    z 0.044650 0.000000 2.094340 
# 
# From -- ./inp_files/6064.got.cif
#   From: 2010.05.17/outbox.cif.g08.bks.cpg/sg4_4_cif.got.tgz:6064.got - 2010.06.03 18:43:04.
