data_PCOD9114256
_publ_section_title
;
Structure prediction by ZEFSAII (Michael W. Deem and Ramdas Pophale) SiO2 
 PCOD9114256
Probable space group: P 2
;
_chemical_formula_sum "Si O2"
_cell_formula_units_Z 14
_cell_length_a 8.863389
_cell_length_b 6.357563
_cell_length_c 16.735088
_cell_angle_alpha 90.000000
_cell_angle_beta 39.582553
_cell_angle_gamma 90.000000
_cell_volume 600.878936
_symmetry_space_group_name_H-M "P 2"
_symmetry_group_IT_number 3
_symmetry_cell_setting 'monoclinic'
loop_
_space_group_symop_operation_xyz
x,y,z
-x,y,-z
loop_
_atom_site_type_symbol
_atom_site_label
_atom_site_fract_x
_atom_site_fract_y
_atom_site_fract_z
Si Si1 0.794589 0.915280 0.322614
Si Si2 0.000000 0.476529 0.500000
Si Si3 0.484606 0.143489 0.814129
Si Si4 0.464906 0.523856 0.100774
Si Si5 0.500000 0.551175 0.500000
Si Si6 0.122525 0.844442 0.035201
Si Si7 0.117061 0.825765 0.316108
Si Si8 0.459975 0.232060 0.375296
O O1 0.722144 0.699646 0.395106
O O2 0.949679 0.880074 0.180185
O O3 0.953335 0.994737 0.333442
O O4 0.555974 0.031629 0.388250
O O5 0.968304 0.647053 0.586088
O O6 0.790766 0.313472 0.559438
O O7 0.588760 0.347005 0.813398
O O8 0.386314 0.210499 0.768126
O O9 0.682264 0.963717 0.720675
O O10 0.288524 0.046798 0.952357
O O11 0.259814 0.697743 0.189516
O O12 0.500000 0.427051 0.000000
O O13 0.705498 0.647409 0.021490
O O14 0.503353 0.414207 0.420118
O O15 0.000000 0.809904 0.000000
#
# Coordination Sequence:
#
# PCOD9114256 Si02
#       8
#     2   1   2   2   1   2   2   2
#     4  12  27  50  75 112 158 202 253 331 386 473
#     4  12  26  52  80 108 156 216 258 326 390 468
#     4  11  27  44  78 116 148 200 263 322 381 477
#     4  11  24  44  74 113 148 194 254 315 381 479
#     4  12  30  48  74 110 154 212 254 318 390 472
#     4  11  25  46  74 109 152 200 248 320 404 453
#     4  11  26  50  76 108 151 205 252 316 399 458
#     4  12  28  48  75 113 155 197 274 315 387 473
#
# _framework density 23.299202999999999
#
# number of rings (size 3 to 8) (size 9 to 14) (size 15 to 20)
#    0.000    0.571    5.714    0.429    6.000    6.857 
#    0.000    0.000    0.000    0.000    0.000    0.000 
#    0.000    0.000    0.000    0.000    0.000    0.000 
#
# Total GULP energy -78033.943597 kJ/mol
# GULP energy per Si atom -5573.853114 kJ/mol
# Density = 2.324617 g / cm^3
# Si number density = 23.299203 Si / 1000 Ang^3
#
#
#
# Elastic Constant Matrix: (Units=GPa)
#
#
# Indices 1 2 3 4 5 6 
#
# 1 119.3779 31.3899 30.3980 0.0000 16.3849 0.0000
# 2 31.3899 83.8691 39.1570 0.0000 6.5124 0.0000
# 3 30.3980 39.1570 98.1419 0.0000 13.0496 0.0000
# 4 0.0000 0.0000 0.0000 31.2200 0.0000 0.6759
# 5 16.3849 6.5124 13.0496 0.0000 42.6776 0.0000
# 6 0.0000 0.0000 0.0000 0.6759 0.0000 59.7450
#
#
#
# Elastic Compliance Matrix: (Units=1/GPa)
#
#
# Indices 1 2 3 4 5 6 
#
# 1 0.009899 -0.002738 -0.001588 0.000000 -0.002897 0.000000
# 2 -0.002738 0.015419 -0.005348 0.000000 0.000334 0.000000
# 3 -0.001588 -0.005348 0.013161 0.000000 -0.002598 0.000000
# 4 0.000000 0.000000 0.000000 0.032039 0.000000 -0.000362
# 5 -0.002897 0.000334 -0.002598 0.000000 0.025287 0.000000
# 6 0.000000 0.000000 0.000000 -0.000362 0.000000 0.016742
#
#
# Mechanical properties :
#
#
# Convention : Reuss Voigt Hill
#
# Bulk Modulus (GPa) = 52.27674 55.91986 54.09830
# Shear Modulus (GPa) = 36.16046 40.09148 38.12597
#
# Velocity S-wave (km/s) = 3.94382 4.15266 4.04959
# Velocity P-wave (km/s) = 6.57451 6.85898 6.71825
#
# Compressibility (1/GPa) = 0.01912897
#
# Stress axis : x y z
#
# Youngs Moduli (GPa) = 101.02197 64.85367 75.98432
#
# Poissons Ratio (x) = 0.17759 0.12068
# Poissons Ratio (y) = 0.27664 0.40638
# Poissons Ratio (z) = 0.16045 0.34685
#
# Static dielectric constant tensor:
#      x y z
#    x 1.909270 0.000000 -0.079180 
#    y 0.000000 1.850690 0.000000 
#    z -0.079180 0.000000 1.890530 
# 
# From -- ./inp_files/14826.got.cif
#   From: 2010.05.17/outbox.cif.g08.bks.cpg/sg3_8_cif.got.tgz:14826.got - 2010.06.03 18:33:08.
