data_PCOD9114758
_publ_section_title
;
Structure prediction by ZEFSAII (Michael W. Deem and Ramdas Pophale) SiO2 
 PCOD9114758
Probable space group: P 21
;
_chemical_formula_sum "Si O2"
_cell_formula_units_Z 16
_cell_length_a 17.373721
_cell_length_b 5.502519
_cell_length_c 12.517437
_cell_angle_alpha 90.000000
_cell_angle_beta 139.895631
_cell_angle_gamma 90.000000
_cell_volume 770.865064
_symmetry_space_group_name_H-M "P 21"
_symmetry_group_IT_number 4
_symmetry_cell_setting 'monoclinic'
loop_
_space_group_symop_operation_xyz
x,y,z
-x,1/2+y,-z
loop_
_atom_site_type_symbol
_atom_site_label
_atom_site_fract_x
_atom_site_fract_y
_atom_site_fract_z
Si Si1 0.784882 0.007020 0.536396
Si Si2 0.388217 0.762654 0.921904
Si Si3 0.889579 0.507408 0.561456
Si Si4 0.293936 0.387343 0.978601
Si Si5 0.991457 0.978110 0.925817
Si Si6 0.475354 0.594699 0.790061
Si Si7 0.116660 0.706118 0.882614
Si Si8 0.147473 0.021682 0.712174
O O1 0.830212 0.243590 0.517931
O O2 0.643747 0.050870 0.403885
O O3 0.809645 0.748458 0.503202
O O4 0.867415 0.999528 0.728676
O O5 0.436873 0.744487 0.855235
O O6 0.281158 0.953766 0.814549
O O7 0.333750 0.519466 0.911962
O O8 0.483973 0.844101 0.111500
O O9 0.923629 0.524701 0.472487
O O10 0.001354 0.531521 0.760898
O O11 0.405953 0.220924 0.132023
O O12 0.244720 0.575245 0.014428
O O13 0.173915 0.253098 0.812842
O O14 0.094740 0.904281 0.950417
O O15 0.984605 0.736710 0.992874
O O16 0.105193 0.831830 0.754811
#
# Coordination Sequence:
#
# PCOD9114758 Si02
#       8
#     2   2   2   2   2   2   2   2
#     4  11  25  41  67 101 131 172 223 280 324 393
#     4  10  19  33  51  87 126 193 218 247 291 378
#     4  11  24  38  60  95 142 179 211 260 319 395
#     4  10  22  36  56  88 131 184 222 258 313 379
#     4  11  25  49  74  99 122 164 224 298 366 399
#     4  11  20  33  59  88 139 176 233 251 303 383
#     4  10  25  39  64  94 130 166 228 267 341 407
#     4  10  22  35  55  90 137 184 211 255 315 388
#
# _framework density 20.755903
#
# number of rings (size 3 to 8) (size 9 to 14) (size 15 to 20)
#    0.000    1.500    2.500    2.250   12.250    0.000 
#    0.000    0.000    0.000    0.000    9.750    0.000 
#    0.000    0.000    0.000    0.000    0.000    0.000 
#
# Total GULP energy -89203.340051 kJ/mol
# GULP energy per Si atom -5575.208753 kJ/mol
# Density = 2.070866 g / cm^3
# Si number density = 20.755903 Si / 1000 Ang^3
#
#
#
# Elastic Constant Matrix: (Units=GPa)
#
#
# Indices 1 2 3 4 5 6 
#
# 1 60.8706 33.7553 39.1242 0.0000 7.3863 0.0000
# 2 33.7553 110.7035 43.2506 0.0000 -1.1528 0.0000
# 3 39.1242 43.2506 102.2198 0.0000 -0.0810 0.0000
# 4 0.0000 0.0000 0.0000 26.7199 0.0000 2.3953
# 5 7.3863 -1.1528 -0.0810 0.0000 21.5932 0.0000
# 6 0.0000 0.0000 0.0000 2.3953 0.0000 34.8145
#
#
#
# Elastic Compliance Matrix: (Units=1/GPa)
#
#
# Indices 1 2 3 4 5 6 
#
# 1 0.025000 -0.004761 -0.007561 0.000000 -0.008834 0.000000
# 2 -0.004761 0.011736 -0.003141 0.000000 0.002243 0.000000
# 3 -0.007561 -0.003141 0.014008 0.000000 0.002471 0.000000
# 4 0.000000 0.000000 0.000000 0.037658 0.000000 -0.002591
# 5 -0.008834 0.002243 0.002471 0.000000 0.049462 0.000000
# 6 0.000000 0.000000 0.000000 -0.002591 0.000000 0.028902
#
#
# Mechanical properties :
#
#
# Convention : Reuss Voigt Hill
#
# Bulk Modulus (GPa) = 50.46296 56.22823 53.34559
# Shear Modulus (GPa) = 24.47399 27.13643 25.80521
#
# Velocity S-wave (km/s) = 3.43758 3.61973 3.52983
# Velocity P-wave (km/s) = 6.33414 6.67975 6.50923
#
# Compressibility (1/GPa) = 0.01981652
#
# Stress axis : x y z
#
# Youngs Moduli (GPa) = 39.99925 85.21152 71.38725
#
# Poissons Ratio (x) = 0.40568 0.53979
# Poissons Ratio (y) = 0.19043 0.22426
# Poissons Ratio (z) = 0.30245 0.26769
#
# Static dielectric constant tensor:
#      x y z
#    x 1.775710 0.000000 0.050470 
#    y 0.000000 1.896020 0.000000 
#    z 0.050470 0.000000 1.782880 
# 
# From -- ./inp_files/11684.got.cif
#   From: 2010.05.17/outbox.cif.g08.bks.cpg/sg4_6_cif.got.tgz:11684.got - 2010.06.03 18:43:04.
