data_PCOD9114184
_publ_section_title
;
Structure prediction by ZEFSAII (Michael W. Deem and Ramdas Pophale) SiO2 
 PCOD9114184
Probable space group: P 2
;
_chemical_formula_sum "Si O2"
_cell_formula_units_Z 8
_cell_length_a 16.233135
_cell_length_b 5.124487
_cell_length_c 13.784526
_cell_angle_alpha 90.000000
_cell_angle_beta 162.624743
_cell_angle_gamma 90.000000
_cell_volume 342.433422
_symmetry_space_group_name_H-M "P 2"
_symmetry_group_IT_number 3
_symmetry_cell_setting 'monoclinic'
loop_
_space_group_symop_operation_xyz
x,y,z
-x,y,-z
loop_
_atom_site_type_symbol
_atom_site_label
_atom_site_fract_x
_atom_site_fract_y
_atom_site_fract_z
Si Si1 0.383998 0.141760 0.696039
Si Si2 0.930426 0.502663 0.144881
Si Si3 0.069390 0.858626 0.683292
Si Si4 0.991590 0.005693 0.103370
O O1 0.246966 0.427307 0.531402
O O2 0.194794 0.993262 0.562911
O O3 0.295011 0.020969 0.492191
O O4 0.698564 0.081246 0.068624
O O5 0.823218 0.639063 0.121445
O O6 0.894066 0.717793 0.020797
O O7 0.164436 0.228656 0.008517
O O8 0.000000 0.749278 0.500000
O O9 0.000000 0.060691 0.000000
#
# Coordination Sequence:
#
# PCOD9114184 Si02
#       4
#     2   2   2   2
#     4   9  23  40  67 101 141 175 236 284 339 423
#     4   9  21  40  66 102 140 174 235 283 341 424
#     4  11  22  44  70 100 140 190 228 292 352 413
#     4   9  18  40  71 100 138 182 224 288 354 413
#
# _framework density 23.362203999999998
#
# number of rings (size 3 to 8) (size 9 to 14) (size 15 to 20)
#    1.500    1.000    0.000    1.500    0.000    5.000 
#    0.000   10.000    5.500    0.000    0.000    0.000 
#    0.000    0.000    0.000    0.000    0.000    0.000 
#
# Total GULP energy -44549.137900 kJ/mol
# GULP energy per Si atom -5568.642238 kJ/mol
# Density = 2.330903 g / cm^3
# Si number density = 23.362204 Si / 1000 Ang^3
#
#
#
# Elastic Constant Matrix: (Units=GPa)
#
#
# Indices 1 2 3 4 5 6 
#
# 1 158.4241 39.4189 49.6759 0.0000 -22.0986 0.0000
# 2 39.4189 138.1144 1.4736 0.0000 10.0561 0.0000
# 3 49.6759 1.4736 40.7734 0.0000 8.7583 0.0000
# 4 0.0000 0.0000 0.0000 12.4100 0.0000 5.2501
# 5 -22.0986 10.0561 8.7583 0.0000 48.4221 0.0000
# 6 0.0000 0.0000 0.0000 5.2501 0.0000 21.1803
#
#
#
# Elastic Compliance Matrix: (Units=1/GPa)
#
#
# Indices 1 2 3 4 5 6 
#
# 1 0.016588 -0.005425 -0.022767 0.000000 0.012815 0.000000
# 2 -0.005425 0.009126 0.007510 0.000000 -0.005729 0.000000
# 3 -0.022767 0.007510 0.056765 0.000000 -0.022217 0.000000
# 4 0.000000 0.000000 0.000000 0.090020 0.000000 -0.022314
# 5 0.012815 -0.005729 -0.022217 0.000000 0.031709 0.000000
# 6 0.000000 0.000000 0.000000 -0.022314 0.000000 0.052745
#
#
# Mechanical properties :
#
#
# Convention : Reuss Voigt Hill
#
# Bulk Modulus (GPa) = 24.32191 57.60541 40.96366
# Shear Modulus (GPa) = 16.02457 32.85203 24.43830
#
# Velocity S-wave (km/s) = 2.62185 3.75401 3.23780
# Velocity P-wave (km/s) = 4.42706 6.59554 5.61694
#
# Compressibility (1/GPa) = 0.04111520
#
# Stress axis : x y z
#
# Youngs Moduli (GPa) = 60.28329 109.58163 17.61662
#
# Poissons Ratio (x) = 0.59444 0.40108
# Poissons Ratio (y) = 0.32701 -0.13230
# Poissons Ratio (z) = 1.37247 -0.82294
#
# Static dielectric constant tensor:
#      x y z
#    x 1.872940 0.000000 0.031390 
#    y 0.000000 1.941530 0.000000 
#    z 0.031390 0.000000 1.914420 
# 
# From -- ./inp_files/1902.got.cif
#   From: 2010.05.17/outbox.cif.g08.bks.cpg/sg3_1_cif.got.tgz:1902.got - 2010.06.03 18:33:08.
