data_PCOD9114272
_publ_section_title
;
Structure prediction by ZEFSAII (Michael W. Deem and Ramdas Pophale) SiO2 
 PCOD9114272
Probable space group: P 2
;
_chemical_formula_sum "Si O2"
_cell_formula_units_Z 10
_cell_length_a 7.485954
_cell_length_b 4.896312
_cell_length_c 10.888270
_cell_angle_alpha 90.000000
_cell_angle_beta 68.572199
_cell_angle_gamma 90.000000
_cell_volume 371.508021
_symmetry_space_group_name_H-M "P 2"
_symmetry_group_IT_number 3
_symmetry_cell_setting 'monoclinic'
loop_
_space_group_symop_operation_xyz
x,y,z
-x,y,-z
loop_
_atom_site_type_symbol
_atom_site_label
_atom_site_fract_x
_atom_site_fract_y
_atom_site_fract_z
Si Si1 0.670732 0.526880 0.874282
Si Si2 0.982991 0.814897 0.648411
Si Si3 0.381207 0.634269 0.637304
Si Si4 0.021714 0.215032 0.866541
Si Si5 0.554174 0.168358 0.240878
O O1 0.777550 0.686546 0.737009
O O2 0.854364 0.437481 0.907620
O O3 0.500000 0.654043 0.000000
O O4 0.425729 0.254882 0.159474
O O5 0.000000 0.886390 0.500000
O O6 0.164305 0.623725 0.638390
O O7 0.003356 0.054769 0.743621
O O8 0.500000 0.782324 0.500000
O O9 0.507295 0.361728 0.631428
O O10 0.399926 0.857017 0.742785
O O11 0.238315 0.317099 0.820675
O O12 0.000000 0.048896 0.000000
#
# Coordination Sequence:
#
# PCOD9114272 Si02
#       5
#     2   2   2   2   2
#     4  12  26  45  78 111 156 208 270 328 404 482
#     4  11  27  47  77 117 159 206 267 337 405 481
#     4  11  24  46  72 109 157 212 256 329 405 485
#     4  11  25  49  72 112 157 207 268 331 400 479
#     4  11  25  45  73 108 155 202 269 327 397 474
#
# _framework density 26.917318000000002
#
# number of rings (size 3 to 8) (size 9 to 14) (size 15 to 20)
#    0.000    0.800    4.000    1.800    5.600    5.600 
#    0.000    0.000    0.000    0.000    0.000    0.000 
#    0.000    0.000    0.000    0.000    0.000    0.000 
#
# Total GULP energy -55810.045076 kJ/mol
# GULP energy per Si atom -5581.004508 kJ/mol
# Density = 2.685605 g / cm^3
# Si number density = 26.917318 Si / 1000 Ang^3
#
#
#
# Elastic Constant Matrix: (Units=GPa)
#
#
# Indices 1 2 3 4 5 6 
#
# 1 152.1340 3.3608 0.8035 0.0000 -20.0419 0.0000
# 2 3.3608 102.6165 14.5715 0.0000 9.7484 0.0000
# 3 0.8035 14.5715 156.0127 0.0000 4.9371 0.0000
# 4 0.0000 0.0000 0.0000 37.3251 0.0000 4.0321
# 5 -20.0419 9.7484 4.9371 0.0000 41.5705 0.0000
# 6 0.0000 0.0000 0.0000 4.0321 0.0000 45.3262
#
#
#
# Elastic Compliance Matrix: (Units=1/GPa)
#
#
# Indices 1 2 3 4 5 6 
#
# 1 0.007052 -0.000554 -0.000097 0.000000 0.003541 0.000000
# 2 -0.000554 0.010127 -0.000863 0.000000 -0.002539 0.000000
# 3 -0.000097 -0.000863 0.006510 0.000000 -0.000618 0.000000
# 4 0.000000 0.000000 0.000000 0.027052 0.000000 -0.002406
# 5 0.003541 -0.002539 -0.000618 0.000000 0.026432 0.000000
# 6 0.000000 0.000000 0.000000 -0.002406 0.000000 0.022276
#
#
# Mechanical properties :
#
#
# Convention : Reuss Voigt Hill
#
# Bulk Modulus (GPa) = 48.39409 49.80384 49.09896
# Shear Modulus (GPa) = 45.71921 50.97952 48.34936
#
# Velocity S-wave (km/s) = 4.12576 4.35665 4.24278
# Velocity P-wave (km/s) = 6.38073 6.62193 6.50245
#
# Compressibility (1/GPa) = 0.02066368
#
# Stress axis : x y z
#
# Youngs Moduli (GPa) = 141.79489 98.74713 153.60166
#
# Poissons Ratio (x) = 0.05467 0.01485
# Poissons Ratio (y) = 0.07851 0.13250
# Poissons Ratio (z) = 0.01371 0.08518
#
# Static dielectric constant tensor:
#      x y z
#    x 2.074880 0.000000 0.220740 
#    y 0.000000 2.205040 0.000000 
#    z 0.220740 0.000000 0.277090 
# 
# From -- ./inp_files/4834.got.cif
#   From: 2010.05.17/outbox.cif.g08.bks.cpg/sg3_3_cif.got.tgz:4834.got - 2010.06.03 18:33:08.
