data_PCOD9114185
_publ_section_title
;
Structure prediction by ZEFSAII (Michael W. Deem and Ramdas Pophale) SiO2 
 PCOD9114185
Probable space group: P 2
;
_chemical_formula_sum "Si O2"
_cell_formula_units_Z 10
_cell_length_a 11.987476
_cell_length_b 7.698236
_cell_length_c 9.255426
_cell_angle_alpha 90.000000
_cell_angle_beta 29.628597
_cell_angle_gamma 90.000000
_cell_volume 422.252832
_symmetry_space_group_name_H-M "P 2"
_symmetry_group_IT_number 3
_symmetry_cell_setting 'monoclinic'
loop_
_space_group_symop_operation_xyz
x,y,z
-x,y,-z
loop_
_atom_site_type_symbol
_atom_site_label
_atom_site_fract_x
_atom_site_fract_y
_atom_site_fract_z
Si Si1 0.063576 0.975320 0.755089
Si Si2 0.936958 0.313868 0.404743
Si Si3 0.666429 0.774514 0.200091
Si Si4 0.767700 0.413495 0.172749
Si Si5 0.364597 0.660110 0.297407
O O1 0.213154 0.815186 0.531788
O O2 0.160286 0.146786 0.570843
O O3 0.000000 0.981711 0.000000
O O4 0.822481 0.921018 0.958997
O O5 0.778516 0.484067 0.563628
O O6 0.000000 0.284337 0.500000
O O7 0.166530 0.349048 0.059311
O O8 0.500000 0.865063 0.500000
O O9 0.780491 0.622878 0.166110
O O10 0.552796 0.655889 0.208037
O O11 0.500000 0.366117 0.500000
O O12 0.000000 0.358536 0.000000
O O13 0.500000 0.702479 0.000000
#
# Coordination Sequence:
#
# PCOD9114185 Si02
#       5
#     2   2   2   2   2
#     4  12  27  50  80 117 153 207 275 334 410 490
#     4  12  28  49  76 118 164 208 269 336 421 496
#     4  11  22  44  79 109 149 204 264 329 403 481
#     4  11  23  45  80 116 154 208 270 334 401 485
#     4  12  28  50  78 113 161 214 269 337 416 493
#
# _framework density 23.682492
#
# number of rings (size 3 to 8) (size 9 to 14) (size 15 to 20)
#    0.000    0.400    4.000    4.800    2.800    2.400 
#    7.200    0.000    0.000    0.000    0.000    0.000 
#    0.000    0.000    0.000    0.000    0.000    0.000 
#
# Total GULP energy -55721.476773 kJ/mol
# GULP energy per Si atom -5572.147677 kJ/mol
# Density = 2.362859 g / cm^3
# Si number density = 23.682492 Si / 1000 Ang^3
#
#
#
# Elastic Constant Matrix: (Units=GPa)
#
#
# Indices 1 2 3 4 5 6 
#
# 1 142.7299 47.9259 77.3210 0.0000 17.7696 0.0000
# 2 47.9259 152.4034 46.5315 0.0000 14.1828 0.0000
# 3 77.3210 46.5315 156.1036 0.0000 23.7309 0.0000
# 4 0.0000 0.0000 0.0000 2.4504 0.0000 23.8330
# 5 17.7696 14.1828 23.7309 0.0000 46.3724 0.0000
# 6 0.0000 0.0000 0.0000 23.8330 0.0000 8.4943
#
#
#
# Elastic Compliance Matrix: (Units=1/GPa)
#
#
# Indices 1 2 3 4 5 6 
#
# 1 0.010057 -0.001748 -0.004289 0.000000 -0.001124 0.000000
# 2 -0.001748 0.007585 -0.001241 0.000000 -0.001015 0.000000
# 3 -0.004289 -0.001241 0.009318 0.000000 -0.002745 0.000000
# 4 0.000000 0.000000 0.000000 -0.015523 0.000000 0.043555
# 5 -0.001124 -0.001015 -0.002745 0.000000 0.023711 0.000000
# 6 0.000000 0.000000 0.000000 0.043555 0.000000 -0.004478
#
#
# Mechanical properties :
#
#
# Convention : Reuss Voigt Hill
#
# Bulk Modulus (GPa) = 80.62778 88.31043 84.46911
# Shear Modulus (GPa) = 101.29847 30.09399 65.69623
#
# Velocity S-wave (km/s) = 6.54725 3.56859 5.27263
# Velocity P-wave (km/s) = 9.55377 7.37225 8.53301
#
# Compressibility (1/GPa) = 0.01240267
#
# Stress axis : x y z
#
# Youngs Moduli (GPa) = 99.43416 131.84721 107.32252
#
# Poissons Ratio (x) = 0.23052 0.46034
# Poissons Ratio (y) = 0.17385 0.13314
# Poissons Ratio (z) = 0.42651 0.16356
#
# Static dielectric constant tensor:
#      x y z
#    x 2.144780 0.000000 -0.066060 
#    y 0.000000 1.978470 0.000000 
#    z -0.066060 0.000000 2.171970 
# 
# From -- ./inp_files/6776.got.cif
#   From: 2010.05.17/outbox.cif.g08.bks.cpg/sg3_4_cif.got.tgz:6776.got - 2010.06.03 18:33:08.
