data_PCOD9114497
_publ_section_title
;
Structure prediction by ZEFSAII (Michael W. Deem and Ramdas Pophale) SiO2 
 PCOD9114497
Probable space group: P 21
;
_chemical_formula_sum "Si O2"
_cell_formula_units_Z 14
_cell_length_a 18.638922
_cell_length_b 5.454513
_cell_length_c 10.252797
_cell_angle_alpha 90.000000
_cell_angle_beta 147.238800
_cell_angle_gamma 90.000000
_cell_volume 564.063317
_symmetry_space_group_name_H-M "P 21"
_symmetry_group_IT_number 4
_symmetry_cell_setting 'monoclinic'
loop_
_space_group_symop_operation_xyz
x,y,z
-x,1/2+y,-z
loop_
_atom_site_type_symbol
_atom_site_label
_atom_site_fract_x
_atom_site_fract_y
_atom_site_fract_z
Si Si1 0.281958 0.583590 0.256213
Si Si2 0.969111 0.583592 0.696099
Si Si3 0.468853 0.083604 0.876935
Si Si4 0.747945 0.583590 0.641751
Si Si5 0.845676 0.583592 0.230799
Si Si6 0.000988 0.583592 0.190787
Si Si7 0.676860 0.083592 0.964983
O O1 0.364406 0.583592 0.249511
O O2 0.301730 0.335264 0.366103
O O3 0.301729 0.831912 0.366105
O O4 0.125882 0.583592 0.973111
O O5 0.916958 0.836687 0.675002
O O6 0.946458 0.583592 0.506506
O O7 0.916958 0.330498 0.675002
O O8 0.317667 0.083595 0.599153
O O9 0.500003 0.833610 0.000010
O O10 0.558622 0.083593 0.885109
O O11 0.904108 0.583591 0.919013
O O12 0.760431 0.832392 0.112007
O O13 0.760432 0.334791 0.112009
O O14 0.914950 0.583592 0.194466
#
# Coordination Sequence:
#
# PCOD9114497 Si02
#       7
#     2   2   2   2   2   2   2
#     4  10  19  35  57 102 121 151 181 225 309 358
#     4  10  18  28  52  86 143 159 174 206 279 393
#     4  12  28  48  63  82 105 159 217 253 298 338
#     4  10  20  38  62  83 121 147 191 249 294 353
#     4  12  19  33  53  93 134 159 179 224 290 363
#     4  10  17  31  50  89 122 158 188 208 285 357
#     4  12  23  37  59  87 126 149 202 243 289 356
#
# _framework density 24.819911000000001
#
# number of rings (size 3 to 8) (size 9 to 14) (size 15 to 20)
#    0.000    1.143    5.714    3.429    0.000    1.143 
#    0.000    0.000    0.000    0.000    0.000   80.000 
#    0.000    0.000    0.000    0.000    0.000    0.000 
#
# Total GULP energy -78438.659390 kJ/mol
# GULP energy per Si atom -5602.761385 kJ/mol
# Density = 2.476342 g / cm^3
# Si number density = 24.819911 Si / 1000 Ang^3
#
#
#
# Elastic Constant Matrix: (Units=GPa)
#
#
# Indices 1 2 3 4 5 6 
#
# 1 75.8579 43.7050 48.0784 0.0000 12.7243 0.0000
# 2 43.7050 264.1024 73.1146 0.0000 -4.5456 0.0000
# 3 48.0784 73.1146 128.2191 0.0000 -27.3241 0.0000
# 4 0.0000 0.0000 0.0000 32.4015 0.0000 -5.7277
# 5 12.7243 -4.5456 -27.3241 0.0000 42.7349 0.0000
# 6 0.0000 0.0000 0.0000 -5.7277 0.0000 39.4508
#
#
#
# Elastic Compliance Matrix: (Units=1/GPa)
#
#
# Indices 1 2 3 4 5 6 
#
# 1 0.023185 -0.000997 -0.011136 0.000000 -0.014130 0.000000
# 2 -0.000997 0.004607 -0.002414 0.000000 -0.000757 0.000000
# 3 -0.011136 -0.002414 0.016213 0.000000 0.013425 0.000000
# 4 0.000000 0.000000 0.000000 0.031676 0.000000 0.004599
# 5 -0.014130 -0.000757 0.013425 0.000000 0.036111 0.000000
# 6 0.000000 0.000000 0.000000 0.004599 0.000000 0.026016
#
#
# Mechanical properties :
#
#
# Convention : Reuss Voigt Hill
#
# Bulk Modulus (GPa) = 67.07278 88.66393 77.86836
# Shear Modulus (GPa) = 29.09136 43.13620 36.11378
#
# Velocity S-wave (km/s) = 3.42731 4.17342 3.81863
# Velocity P-wave (km/s) = 6.53792 7.68269 7.13330
#
# Compressibility (1/GPa) = 0.01490918
#
# Stress axis : x y z
#
# Youngs Moduli (GPa) = 43.13077 217.07179 61.67991
#
# Poissons Ratio (x) = 0.21642 0.68690
# Poissons Ratio (y) = 0.04300 0.14892
# Poissons Ratio (z) = 0.48032 0.52409
#
# Static dielectric constant tensor:
#      x y z
#    x 2.029950 0.000000 0.028230 
#    y 0.000000 1.967510 0.000000 
#    z 0.028230 0.000000 1.947390 
# 
# From -- ./inp_files/12955.got.cif
#   From: 2010.05.17/outbox.cif.g08.bks.cpg/sg4_7_cif.got.tgz:12955.got - 2010.06.03 18:43:04.
