data_PCOD9114716
_publ_section_title
;
Structure prediction by ZEFSAII (Michael W. Deem and Ramdas Pophale) SiO2 
 PCOD9114716
Probable space group: P 21
;
_chemical_formula_sum "Si O2"
_cell_formula_units_Z 14
_cell_length_a 7.283843
_cell_length_b 11.690234
_cell_length_c 7.983933
_cell_angle_alpha 90.000000
_cell_angle_beta 128.684152
_cell_angle_gamma 90.000000
_cell_volume 530.677969
_symmetry_space_group_name_H-M "P 21"
_symmetry_group_IT_number 4
_symmetry_cell_setting 'monoclinic'
loop_
_space_group_symop_operation_xyz
x,y,z
-x,1/2+y,-z
loop_
_atom_site_type_symbol
_atom_site_label
_atom_site_fract_x
_atom_site_fract_y
_atom_site_fract_z
Si Si1 0.349557 0.118670 0.273662
Si Si2 0.273223 0.436377 0.895701
Si Si3 0.830886 0.147150 0.382352
Si Si4 0.499901 0.020128 0.655825
Si Si5 0.016575 0.064074 0.809331
Si Si6 0.721569 0.320293 0.040920
Si Si7 0.758515 0.372072 0.714732
O O1 0.580219 0.171754 0.328356
O O2 0.343948 0.119103 0.473821
O O3 0.366891 0.980916 0.267691
O O4 0.133136 0.135710 0.027440
O O5 0.428840 0.514935 0.111119
O O6 0.450876 0.339226 0.937758
O O7 0.185973 0.519178 0.699782
O O8 0.035225 0.393735 0.848754
O O9 0.011627 0.140543 0.638995
O O10 0.847926 0.232141 0.237029
O O11 0.750859 0.031205 0.706558
O O12 0.367917 0.899485 0.534631
O O13 0.144334 0.942076 0.856750
O O14 0.726679 0.283401 0.847136
#
# Coordination Sequence:
#
# PCOD9114716 Si02
#       7
#     2   2   2   2   2   2   2
#     4   8  17  39  61  86 130 162 209 265 321 367
#     4  12  21  41  70  94 130 172 217 275 337 377
#     4  11  24  40  67 102 128 179 219 271 332 392
#     4   9  17  36  69  88 124 173 208 262 338 368
#     4  10  18  44  66  88 138 172 207 285 316 374
#     4  11  23  45  63 100 135 169 232 260 332 400
#     4   9  20  41  64  90 131 173 206 278 322 382
#
# _framework density 26.381346000000001
#
# number of rings (size 3 to 8) (size 9 to 14) (size 15 to 20)
#    0.857    1.143    5.714    0.000    2.000    0.000 
#    7.714    2.857    0.000    0.000    0.000    0.000 
#    0.000    0.000    0.000    0.000    0.000    0.000 
#
# Total GULP energy -78049.720007 kJ/mol
# GULP energy per Si atom -5574.980001 kJ/mol
# Density = 2.632130 g / cm^3
# Si number density = 26.381346 Si / 1000 Ang^3
#
#
#
# Elastic Constant Matrix: (Units=GPa)
#
#
# Indices 1 2 3 4 5 6 
#
# 1 92.1659 19.1687 23.8125 0.0000 17.6914 0.0000
# 2 19.1687 66.5328 17.0836 0.0000 6.7228 0.0000
# 3 23.8125 17.0836 176.6250 0.0000 7.9889 0.0000
# 4 0.0000 0.0000 0.0000 44.7206 0.0000 -3.2912
# 5 17.6914 6.7228 7.9889 0.0000 21.3549 0.0000
# 6 0.0000 0.0000 0.0000 -3.2912 0.0000 22.1002
#
#
#
# Elastic Compliance Matrix: (Units=1/GPa)
#
#
# Indices 1 2 3 4 5 6 
#
# 1 0.013611 -0.002618 -0.001128 0.000000 -0.010030 0.000000
# 2 -0.002618 0.016328 -0.001111 0.000000 -0.002556 0.000000
# 3 -0.001128 -0.001111 0.005964 0.000000 -0.000947 0.000000
# 4 0.000000 0.000000 0.000000 0.022609 0.000000 0.003367
# 5 -0.010030 -0.002556 -0.000947 0.000000 0.056296 0.000000
# 6 0.000000 0.000000 0.000000 0.003367 0.000000 0.045750
#
#
# Mechanical properties :
#
#
# Convention : Reuss Voigt Hill
#
# Bulk Modulus (GPa) = 38.18411 50.60591 44.39501
# Shear Modulus (GPa) = 27.93270 35.98573 31.95921
#
# Velocity S-wave (km/s) = 3.25746 3.69732 3.48434
# Velocity P-wave (km/s) = 5.35288 6.11973 5.74911
#
# Compressibility (1/GPa) = 0.02618891
#
# Stress axis : x y z
#
# Youngs Moduli (GPa) = 73.46831 61.24451 167.67087
#
# Poissons Ratio (x) = 0.16036 0.18916
# Poissons Ratio (y) = 0.19237 0.18623
# Poissons Ratio (z) = 0.08288 0.06802
#
# Static dielectric constant tensor:
#      x y z
#    x 2.061120 0.000000 -0.093930 
#    y 0.000000 2.124420 0.000000 
#    z -0.093930 0.000000 2.290780 
# 
# From -- ./inp_files/6650.got.cif
#   From: 2010.05.17/outbox.cif.g08.bks.cpg/sg4_4_cif.got.tgz:6650.got - 2010.06.03 18:43:04.
