data_PCOD9114253
_publ_section_title
;
Structure prediction by ZEFSAII (Michael W. Deem and Ramdas Pophale) SiO2 
 PCOD9114253
Probable space group: P 2
;
_chemical_formula_sum "Si O2"
_cell_formula_units_Z 12
_cell_length_a 9.507098
_cell_length_b 5.783591
_cell_length_c 22.115121
_cell_angle_alpha 90.000000
_cell_angle_beta 153.979746
_cell_angle_gamma 90.000000
_cell_volume 533.447215
_symmetry_space_group_name_H-M "P 2"
_symmetry_group_IT_number 3
_symmetry_cell_setting 'monoclinic'
loop_
_space_group_symop_operation_xyz
x,y,z
-x,y,-z
loop_
_atom_site_type_symbol
_atom_site_label
_atom_site_fract_x
_atom_site_fract_y
_atom_site_fract_z
Si Si1 0.656695 0.546060 0.884503
Si Si2 0.343014 0.788736 0.666531
Si Si3 0.658773 0.313061 0.497113
Si Si4 0.651630 0.136703 0.218301
Si Si5 0.605367 0.801287 0.645955
Si Si6 0.694024 0.785497 0.136738
O O1 0.450274 0.559654 0.742868
O O2 0.674977 0.276910 0.906128
O O3 0.478311 0.645518 0.875163
O O4 0.000000 0.650446 0.000000
O O5 0.612525 0.840580 0.720713
O O6 0.000000 0.791971 0.500000
O O7 0.338283 0.959921 0.721955
O O8 0.500000 0.352526 0.500000
O O9 0.584704 0.554281 0.433312
O O10 0.035958 0.291705 0.651179
O O11 0.542007 0.050585 0.432741
O O12 0.688947 0.034967 0.165987
O O13 0.934690 0.749702 0.737763
O O14 0.500000 0.763154 0.000000
#
# Coordination Sequence:
#
# PCOD9114253 Si02
#       6
#     2   2   2   2   2   2
#     4  11  26  47  73 102 147 200 246 310 376 449
#     4  11  24  44  71 109 147 190 247 310 374 444
#     4  12  24  44  75 110 148 191 249 306 378 436
#     4  11  25  44  74 104 148 192 249 313 374 447
#     4  12  26  44  76 109 149 195 244 308 375 442
#     4  11  26  49  71 104 146 196 257 310 370 456
#
# _framework density 22.495194999999999
#
# number of rings (size 3 to 8) (size 9 to 14) (size 15 to 20)
#    0.000    0.667    3.333    3.500    4.667    5.333 
#    0.000    0.000    0.000    0.000    0.000    0.000 
#    0.000    0.000    0.000    0.000    0.000    0.000 
#
# Total GULP energy -66809.084093 kJ/mol
# GULP energy per Si atom -5567.423674 kJ/mol
# Density = 2.244400 g / cm^3
# Si number density = 22.495195 Si / 1000 Ang^3
#
#
#
# Elastic Constant Matrix: (Units=GPa)
#
#
# Indices 1 2 3 4 5 6 
#
# 1 159.8791 14.1798 29.8939 0.0000 -1.9255 0.0000
# 2 14.1798 78.0721 31.6562 0.0000 -0.1274 0.0000
# 3 29.8939 31.6562 45.3248 0.0000 -7.6460 0.0000
# 4 0.0000 0.0000 0.0000 14.5045 0.0000 9.5762
# 5 -1.9255 -0.1274 -7.6460 0.0000 46.0552 0.0000
# 6 0.0000 0.0000 0.0000 9.5762 0.0000 21.0153
#
#
#
# Elastic Compliance Matrix: (Units=1/GPa)
#
#
# Indices 1 2 3 4 5 6 
#
# 1 0.007192 0.000918 -0.005487 0.000000 -0.000608 0.000000
# 2 0.000918 0.018182 -0.013672 0.000000 -0.002181 0.000000
# 3 -0.005487 -0.013672 0.036199 0.000000 0.005743 0.000000
# 4 0.000000 0.000000 0.000000 0.098611 0.000000 -0.044935
# 5 -0.000608 -0.002181 0.005743 0.000000 0.022635 0.000000
# 6 0.000000 0.000000 0.000000 -0.044935 0.000000 0.068060
#
#
# Mechanical properties :
#
#
# Convention : Reuss Voigt Hill
#
# Bulk Modulus (GPa) = 39.85501 48.30400 44.07950
# Shear Modulus (GPa) = 16.90753 30.15140 23.52946
#
# Velocity S-wave (km/s) = 2.74452 3.66505 3.23767
# Velocity P-wave (km/s) = 5.27245 6.27931 5.79778
#
# Compressibility (1/GPa) = 0.02509095
#
# Stress axis : x y z
#
# Youngs Moduli (GPa) = 139.04458 54.99904 27.62473
#
# Poissons Ratio (x) = -0.05046 0.15157
# Poissons Ratio (y) = -0.12758 0.37769
# Poissons Ratio (z) = 0.76291 0.75195
#
# Static dielectric constant tensor:
#      x y z
#    x 1.782780 0.000000 0.042660 
#    y 0.000000 2.029920 0.000000 
#    z 0.042660 0.000000 1.951210 
# 
# From -- ./inp_files/9219.got.cif
#   From: 2010.05.17/outbox.cif.g08.bks.cpg/sg3_5_cif.got.tgz:9219.got - 2010.06.03 18:33:08.
