data_PCOD9114325
_publ_section_title
;
Structure prediction by ZEFSAII (Michael W. Deem and Ramdas Pophale) SiO2 
 PCOD9114325
Probable space group: P 2
;
_chemical_formula_sum "Si O2"
_cell_formula_units_Z 10
_cell_length_a 15.642992
_cell_length_b 4.825165
_cell_length_c 8.372065
_cell_angle_alpha 90.000000
_cell_angle_beta 37.884187
_cell_angle_gamma 90.000000
_cell_volume 388.043689
_symmetry_space_group_name_H-M "P 2"
_symmetry_group_IT_number 3
_symmetry_cell_setting 'monoclinic'
loop_
_space_group_symop_operation_xyz
x,y,z
-x,y,-z
loop_
_atom_site_type_symbol
_atom_site_label
_atom_site_fract_x
_atom_site_fract_y
_atom_site_fract_z
Si Si1 0.009747 0.376760 0.292144
Si Si2 0.610427 0.203767 0.951021
Si Si3 0.150777 0.891673 0.594866
Si Si4 0.733642 0.691693 0.244048
Si Si5 0.561642 0.695020 0.215070
O O1 0.890003 0.591476 0.411918
O O2 0.000000 0.353001 0.500000
O O3 0.981328 0.085099 0.248129
O O4 0.149863 0.498719 0.006484
O O5 0.733358 0.049812 0.679002
O O6 0.500000 0.353028 0.000000
O O7 0.651416 0.445628 0.010851
O O8 0.528056 0.949825 0.151326
O O9 0.200350 0.849825 0.703069
O O10 0.658642 0.843872 0.205915
O O11 0.587354 0.556933 0.521266
#
# Coordination Sequence:
#
# PCOD9114325 Si02
#       5
#     2   2   2   2   2
#     4  12  28  51  79 110 155 203 256 312 379 457
#     4  12  24  47  75 109 152 196 257 299 383 446
#     4  12  27  47  78 112 153 202 252 315 374 457
#     4  11  27  50  76 116 154 197 258 308 387 435
#     4  11  27  47  78 111 155 199 245 321 369 462
#
# _framework density 25.770294
#
# number of rings (size 3 to 8) (size 9 to 14) (size 15 to 20)
#    0.000    0.400    2.000    5.400    2.800   11.200 
#    0.000    0.000    0.000    0.000    0.000    0.000 
#    0.000    0.000    0.000    0.000    0.000    0.000 
#
# Total GULP energy -55899.741242 kJ/mol
# GULP energy per Si atom -5589.974124 kJ/mol
# Density = 2.571164 g / cm^3
# Si number density = 25.770294 Si / 1000 Ang^3
#
#
#
# Elastic Constant Matrix: (Units=GPa)
#
#
# Indices 1 2 3 4 5 6 
#
# 1 154.8150 43.7721 60.2080 0.0000 18.0592 0.0000
# 2 43.7721 113.2550 20.6107 0.0000 23.1849 0.0000
# 3 60.2080 20.6107 126.9989 0.0000 11.3008 0.0000
# 4 0.0000 0.0000 0.0000 28.8584 0.0000 -3.8936
# 5 18.0592 23.1849 11.3008 0.0000 25.1294 0.0000
# 6 0.0000 0.0000 0.0000 -3.8936 0.0000 33.1442
#
#
#
# Elastic Compliance Matrix: (Units=1/GPa)
#
#
# Indices 1 2 3 4 5 6 
#
# 1 0.008780 -0.002196 -0.003568 0.000000 -0.002680 0.000000
# 2 -0.002196 0.011536 -0.000026 0.000000 -0.009054 0.000000
# 3 -0.003568 -0.000026 0.009729 0.000000 -0.001787 0.000000
# 4 0.000000 0.000000 0.000000 0.035210 0.000000 0.004136
# 5 -0.002680 -0.009054 -0.001787 0.000000 0.050877 0.000000
# 6 0.000000 0.000000 0.000000 0.004136 0.000000 0.030657
#
#
# Mechanical properties :
#
#
# Convention : Reuss Voigt Hill
#
# Bulk Modulus (GPa) = 54.14993 71.58340 62.86667
# Shear Modulus (GPa) = 30.39078 35.45828 32.92453
#
# Velocity S-wave (km/s) = 3.43781 3.71339 3.57825
# Velocity P-wave (km/s) = 6.06764 6.79878 6.44359
#
# Compressibility (1/GPa) = 0.01846725
#
# Stress axis : x y z
#
# Youngs Moduli (GPa) = 113.89246 86.68186 102.78853
#
# Poissons Ratio (x) = 0.19032 0.36673
# Poissons Ratio (y) = 0.25007 0.00264
# Poissons Ratio (z) = 0.40634 0.00222
#
# Static dielectric constant tensor:
#      x y z
#    x 2.118790 0.000000 0.095130 
#    y 0.000000 1.930840 0.000000 
#    z 0.095130 0.000000 2.194430 
# 
# From -- ./inp_files/8124.got.cif
#   From: 2010.05.17/outbox.cif.g08.bks.cpg/sg3_5_cif.got.tgz:8124.got - 2010.06.03 18:33:08.
