data_PCOD9114020
_publ_section_title
;
Structure prediction by ZEFSAII (Michael W. Deem and Ramdas Pophale) SiO2 
 PCOD9114020
Probable space group: P 2
;
_chemical_formula_sum "Si O2"
_cell_formula_units_Z 13
_cell_length_a 5.424008
_cell_length_b 18.028060
_cell_length_c 4.661867
_cell_angle_alpha 90.000000
_cell_angle_beta 93.180017
_cell_angle_gamma 90.000000
_cell_volume 455.155653
_symmetry_space_group_name_H-M "P 2"
_symmetry_group_IT_number 3
_symmetry_cell_setting 'monoclinic'
loop_
_space_group_symop_operation_xyz
x,y,z
-x,y,-z
loop_
_atom_site_type_symbol
_atom_site_label
_atom_site_fract_x
_atom_site_fract_y
_atom_site_fract_z
Si Si1 0.839684 0.883430 0.735119
Si Si2 0.242053 0.408826 0.309684
Si Si3 0.338565 0.014403 0.705303
Si Si4 0.758227 0.567273 0.691918
Si Si5 0.245077 0.248423 0.313672
Si Si6 0.757029 0.725268 0.687911
Si Si7 0.000000 0.122037 0.000000
O O1 0.728685 0.946628 0.517452
O O2 0.739277 0.805385 0.852999
O O3 0.000000 0.847345 0.500000
O O4 0.000000 0.918150 0.000000
O O5 0.500000 0.408627 0.500000
O O6 0.240539 0.487801 0.147290
O O7 0.241121 0.328771 0.157169
O O8 0.000000 0.407791 0.500000
O O9 0.500000 0.062846 0.500000
O O10 0.500000 0.990672 0.000000
O O11 0.882795 0.065465 0.216012
O O12 0.500000 0.567841 0.500000
O O13 0.756534 0.646443 0.855003
O O14 0.000000 0.564649 0.500000
O O15 0.500000 0.244681 0.500000
O O16 0.000000 0.244775 0.500000
O O17 0.212404 0.177830 0.110544
O O18 0.500000 0.727982 0.500000
O O19 0.000000 0.715012 0.500000
#
# Coordination Sequence:
#
# PCOD9114020 Si02
#       7
#     2   2   2   2   2   2   1
#     4  11  25  48  77 110 155 206 262 327 406 483
#     4   8  14  29  55  92 137 188 244 306 381 464
#     4  12  31  54  84 117 157 215 274 345 419 496
#     4   8  13  24  51  92 133 184 244 303 371 454
#     4  10  24  45  72 106 151 202 258 328 406 482
#     4   9  18  35  63  98 142 193 250 314 382 466
#     4  12  32  50  80 112 162 202 280 342 416 496
#
# _framework density 28.561654000000001
#
# number of rings (size 3 to 8) (size 9 to 14) (size 15 to 20)
#    0.000    2.154    0.000    1.385    7.538    0.000 
#    2.769    2.308    1.692    0.000    0.000    0.000 
#    0.000    0.000    0.000    0.000    0.000    0.000 
#
# Total GULP energy -72516.716661 kJ/mol
# GULP energy per Si atom -5578.208974 kJ/mol
# Density = 2.849665 g / cm^3
# Si number density = 28.561654 Si / 1000 Ang^3
#
#
#
# Elastic Constant Matrix: (Units=GPa)
#
#
# Indices 1 2 3 4 5 6 
#
# 1 212.9297 30.2863 61.3102 0.0000 16.1958 0.0000
# 2 30.2863 325.4200 73.3902 0.0000 30.8170 0.0000
# 3 61.3102 73.3902 133.1092 0.0000 28.2130 0.0000
# 4 0.0000 0.0000 0.0000 -23.9599 0.0000 21.8841
# 5 16.1958 30.8170 28.2130 0.0000 82.6112 0.0000
# 6 0.0000 0.0000 0.0000 21.8841 0.0000 -19.8973
#
#
#
# Elastic Compliance Matrix: (Units=1/GPa)
#
#
# Indices 1 2 3 4 5 6 
#
# 1 0.005420 0.000080 -0.002489 0.000000 -0.000242 0.000000
# 2 0.000080 0.003548 -0.001843 0.000000 -0.000710 0.000000
# 3 -0.002489 -0.001843 0.010162 0.000000 -0.002295 0.000000
# 4 0.000000 0.000000 0.000000 9.153510 0.000000 10.067475
# 5 -0.000242 -0.000710 -0.002295 0.000000 0.013201 0.000000
# 6 0.000000 0.000000 0.000000 10.067475 0.000000 11.022439
#
#
# Mechanical properties :
#
#
# Convention : Reuss Voigt Hill
#
# Bulk Modulus (GPa) = 94.10868 111.27026 102.68947
# Shear Modulus (GPa) = 0.24728 41.51561 20.88144
#
# Velocity S-wave (km/s) = 0.29456 3.81667 2.70682
# Velocity P-wave (km/s) = 5.75643 7.64625 6.76763
#
# Compressibility (1/GPa) = 0.01062601
#
# Stress axis : x y z
#
# Youngs Moduli (GPa) = 184.49520 281.82310 98.41008
#
# Poissons Ratio (x) = -0.02251 0.24497
# Poissons Ratio (y) = -0.01474 0.18134
# Poissons Ratio (z) = 0.45925 0.51931
#
# Static dielectric constant tensor:
#      x y z
#    x 2.648470 0.000000 -0.204070 
#    y 0.000000 2.286680 0.000000 
#    z -0.204070 0.000000 2.315660 
# 
# From -- ./inp_files/559.got.cif
#   From: 2010.05.17/outbox.cif.g08.bks.cpg/sg3_1_cif.got.tgz:559.got - 2010.06.03 18:33:08.
