data_PCOD9114245
_publ_section_title
;
Structure prediction by ZEFSAII (Michael W. Deem and Ramdas Pophale) SiO2 
 PCOD9114245
Probable space group: P 2
;
_chemical_formula_sum "Si O2"
_cell_formula_units_Z 14
_cell_length_a 15.580093
_cell_length_b 5.412991
_cell_length_c 20.740895
_cell_angle_alpha 90.000000
_cell_angle_beta 19.413870
_cell_angle_gamma 90.000000
_cell_volume 581.409443
_symmetry_space_group_name_H-M "P 2"
_symmetry_group_IT_number 3
_symmetry_cell_setting 'monoclinic'
loop_
_space_group_symop_operation_xyz
x,y,z
-x,y,-z
loop_
_atom_site_type_symbol
_atom_site_label
_atom_site_fract_x
_atom_site_fract_y
_atom_site_fract_z
Si Si1 0.203767 0.517920 0.693209
Si Si2 0.831806 0.247012 0.058556
Si Si3 0.558034 0.124818 0.128788
Si Si4 0.721998 0.262802 0.498473
Si Si5 0.023147 0.872102 0.237851
Si Si6 0.769791 0.475482 0.814225
Si Si7 0.709707 0.632871 0.718041
O O1 0.500000 0.556822 0.500000
O O2 0.221787 0.356300 0.614387
O O3 0.030047 0.409513 0.874312
O O4 0.077906 0.769737 0.757904
O O5 0.698004 0.083824 0.097984
O O6 0.563406 0.349947 0.279949
O O7 0.000000 0.148927 0.000000
O O8 0.457058 0.403967 0.192090
O O9 0.360013 0.900065 0.260612
O O10 0.770362 0.083813 0.922617
O O11 0.951574 0.341962 0.384671
O O12 0.778507 0.969336 0.451442
O O13 0.179005 0.655989 0.162113
O O14 0.716414 0.646782 0.790563
O O15 0.500000 0.321772 0.000000
O O16 0.000000 0.558039 0.500000
#
# Coordination Sequence:
#
# PCOD9114245 Si02
#       7
#     2   2   2   2   2   2   2
#     4  11  24  49  76 111 156 210 272 344 416 482
#     4  12  26  48  81 113 156 216 270 344 410 495
#     4  12  26  49  73 114 158 208 267 334 411 482
#     4  11  25  47  75 112 156 203 275 332 404 492
#     4  11  25  44  75 108 157 202 267 337 404 492
#     4  11  24  43  73 111 148 209 255 317 402 489
#     4  12  27  47  75 111 160 209 264 334 403 487
#
# _framework density 24.079415999999998
#
# number of rings (size 3 to 8) (size 9 to 14) (size 15 to 20)
#    0.000    0.571    4.286    3.000    4.000    2.286 
#    2.571    2.857    0.000    0.000    0.000    0.000 
#    0.000    0.000    0.000    0.000    0.000    0.000 
#
# Total GULP energy -78040.105760 kJ/mol
# GULP energy per Si atom -5574.293269 kJ/mol
# Density = 2.402461 g / cm^3
# Si number density = 24.079416 Si / 1000 Ang^3
#
#
#
# Elastic Constant Matrix: (Units=GPa)
#
#
# Indices 1 2 3 4 5 6 
#
# 1 152.4453 29.9532 48.2866 0.0000 -33.9863 0.0000
# 2 29.9532 66.7379 23.9071 0.0000 -8.7659 0.0000
# 3 48.2866 23.9071 156.0848 0.0000 -10.3879 0.0000
# 4 0.0000 0.0000 0.0000 19.4210 0.0000 -12.0976
# 5 -33.9863 -8.7659 -10.3879 0.0000 51.9567 0.0000
# 6 0.0000 0.0000 0.0000 -12.0976 0.0000 19.9264
#
#
#
# Elastic Compliance Matrix: (Units=1/GPa)
#
#
# Indices 1 2 3 4 5 6 
#
# 1 0.008797 -0.002587 -0.001998 0.000000 0.004919 0.000000
# 2 -0.002587 0.016871 -0.001730 0.000000 0.000808 0.000000
# 3 -0.001998 -0.001730 0.007280 0.000000 -0.000143 0.000000
# 4 0.000000 0.000000 0.000000 0.082806 0.000000 0.050273
# 5 0.004919 0.000808 -0.000143 0.000000 0.022572 0.000000
# 6 0.000000 0.000000 0.000000 0.050273 0.000000 0.080706
#
#
# Mechanical properties :
#
#
# Convention : Reuss Voigt Hill
#
# Bulk Modulus (GPa) = 49.21462 64.39577 56.80519
# Shear Modulus (GPa) = 20.97008 36.46889 28.71949
#
# Velocity S-wave (km/s) = 2.95425 3.89591 3.45729
# Velocity P-wave (km/s) = 5.66742 6.85847 6.29120
#
# Compressibility (1/GPa) = 0.02031917
#
# Stress axis : x y z
#
# Youngs Moduli (GPa) = 113.66947 59.27382 137.35612
#
# Poissons Ratio (x) = 0.15332 0.27444
# Poissons Ratio (y) = 0.29402 0.23763
# Poissons Ratio (z) = 0.22712 0.10255
#
# Static dielectric constant tensor:
#      x y z
#    x 1.927240 0.000000 0.097740 
#    y 0.000000 2.040430 0.000000 
#    z 0.097740 0.000000 2.078730 
# 
# From -- ./inp_files/16027.got.cif
#   From: 2010.05.17/outbox.cif.g08.bks.cpg/sg3_9_cif.got.tgz:16027.got - 2010.06.03 18:33:08.
