data_PCOD9114916
_publ_section_title
;
Structure prediction by ZEFSAII (Michael W. Deem and Ramdas Pophale) SiO2 
 PCOD9114916
Probable space group: P 21
;
_chemical_formula_sum "Si O2"
_cell_formula_units_Z 16
_cell_length_a 9.890398
_cell_length_b 11.084404
_cell_length_c 8.937063
_cell_angle_alpha 90.000000
_cell_angle_beta 50.459708
_cell_angle_gamma 90.000000
_cell_volume 755.570599
_symmetry_space_group_name_H-M "P 21"
_symmetry_group_IT_number 4
_symmetry_cell_setting 'monoclinic'
loop_
_space_group_symop_operation_xyz
x,y,z
-x,1/2+y,-z
loop_
_atom_site_type_symbol
_atom_site_label
_atom_site_fract_x
_atom_site_fract_y
_atom_site_fract_z
Si Si1 0.165218 0.685370 0.658622
Si Si2 0.927676 0.521044 0.019511
Si Si3 0.997239 0.837246 0.260969
Si Si4 0.842489 0.084057 0.876699
Si Si5 0.411365 0.745203 0.764553
Si Si6 0.656506 0.549351 0.465007
Si Si7 0.944958 0.414010 0.450204
Si Si8 0.624150 0.952987 0.534295
O O1 0.275062 0.742543 0.719710
O O2 0.084604 0.784733 0.606843
O O3 0.297175 0.587280 0.489472
O O4 0.001753 0.614798 0.847088
O O5 0.901539 0.396843 0.949586
O O6 0.763252 0.561260 0.233879
O O7 0.086516 0.513432 0.027263
O O8 0.798069 0.876809 0.382476
O O9 0.024859 0.695214 0.246462
O O10 0.061922 0.895402 0.369215
O O11 0.671404 0.161421 0.044990
O O12 0.876873 0.986162 0.722483
O O13 0.575162 0.669393 0.586716
O O14 0.496482 0.877006 0.734062
O O15 0.784845 0.489503 0.493882
O O16 0.490114 0.467786 0.535895
#
# Coordination Sequence:
#
# PCOD9114916 Si02
#       8
#     2   2   2   2   2   2   2   2
#     4   9  20  36  62  92 129 170 217 277 327 401
#     4   9  20  38  63  94 120 167 231 264 323 396
#     4  11  24  39  68  95 129 174 224 274 337 409
#     4  10  23  40  67  95 130 176 222 277 327 404
#     4  10  19  40  64  97 126 165 231 281 326 387
#     4  10  20  39  67  91 127 170 215 287 331 390
#     4  11  23  42  64  93 137 173 222 270 348 400
#     4  10  19  36  63  93 122 167 224 266 327 385
#
# _framework density 21.176048999999999
#
# number of rings (size 3 to 8) (size 9 to 14) (size 15 to 20)
#    0.000    2.000    1.250    3.000    8.750    0.000 
#    4.500    2.500    0.000    0.000    0.000    0.000 
#    0.000    0.000    0.000    0.000    0.000    0.000 
#
# Total GULP energy -89179.601999 kJ/mol
# GULP energy per Si atom -5573.725125 kJ/mol
# Density = 2.112785 g / cm^3
# Si number density = 21.176049 Si / 1000 Ang^3
#
#
#
# Elastic Constant Matrix: (Units=GPa)
#
#
# Indices 1 2 3 4 5 6 
#
# 1 63.2646 29.4846 42.8487 0.0000 -7.0202 0.0000
# 2 29.4846 116.6315 53.9993 0.0000 -0.1306 0.0000
# 3 42.8487 53.9993 78.4070 0.0000 -3.7982 0.0000
# 4 0.0000 0.0000 0.0000 32.7675 0.0000 -12.3685
# 5 -7.0202 -0.1306 -3.7982 0.0000 32.9409 0.0000
# 6 0.0000 0.0000 0.0000 -12.3685 0.0000 11.8402
#
#
#
# Elastic Compliance Matrix: (Units=1/GPa)
#
#
# Indices 1 2 3 4 5 6 
#
# 1 0.025575 -0.000113 -0.013712 0.000000 0.003869 0.000000
# 2 -0.000113 0.012618 -0.008676 0.000000 -0.000974 0.000000
# 3 -0.013712 -0.008676 0.026226 0.000000 0.000067 0.000000
# 4 0.000000 0.000000 0.000000 0.050385 0.000000 0.052633
# 5 0.003869 -0.000974 0.000067 0.000000 0.031186 0.000000
# 6 0.000000 0.000000 0.000000 0.052633 0.000000 0.139440
#
#
# Mechanical properties :
#
#
# Convention : Reuss Voigt Hill
#
# Bulk Modulus (GPa) = 51.49664 56.77426 54.13545
# Shear Modulus (GPa) = 14.84105 24.30774 19.57440
#
# Velocity S-wave (km/s) = 2.65021 3.39173 3.04364
# Velocity P-wave (km/s) = 5.80827 6.49671 6.16211
#
# Compressibility (1/GPa) = 0.01941874
#
# Stress axis : x y z
#
# Youngs Moduli (GPa) = 39.10027 79.25013 38.13072
#
# Poissons Ratio (x) = 0.00894 0.52283
# Poissons Ratio (y) = 0.00441 0.33082
# Poissons Ratio (z) = 0.53613 0.68756
#
# Static dielectric constant tensor:
#      x y z
#    x 1.769900 0.000000 -0.042590 
#    y 0.000000 1.844740 0.000000 
#    z -0.042590 0.000000 1.807950 
# 
# From -- ./inp_files/8176.got.cif
#   From: 2010.05.17/outbox.cif.g08.bks.cpg/sg4_5_cif.got.tgz:8176.got - 2010.06.03 18:43:04.
