data_PCOD9114936
_publ_section_title
;
Structure prediction by ZEFSAII (Michael W. Deem and Ramdas Pophale) SiO2 
 PCOD9114936
Probable space group: P 21
;
_chemical_formula_sum "Si O2"
_cell_formula_units_Z 16
_cell_length_a 8.813421
_cell_length_b 8.330308
_cell_length_c 11.655294
_cell_angle_alpha 90.000000
_cell_angle_beta 51.486466
_cell_angle_gamma 90.000000
_cell_volume 669.563171
_symmetry_space_group_name_H-M "P 21"
_symmetry_group_IT_number 4
_symmetry_cell_setting 'monoclinic'
loop_
_space_group_symop_operation_xyz
x,y,z
-x,1/2+y,-z
loop_
_atom_site_type_symbol
_atom_site_label
_atom_site_fract_x
_atom_site_fract_y
_atom_site_fract_z
Si Si1 0.706189 0.572370 0.858669
Si Si2 0.156296 0.209198 0.982038
Si Si3 0.839597 0.731524 0.596404
Si Si4 0.991016 0.623897 0.178114
Si Si5 0.866272 0.926714 0.372298
Si Si6 0.152438 0.917974 0.566498
Si Si7 0.352017 0.549072 0.888033
Si Si8 0.725101 0.211453 0.299664
O O1 0.716415 0.726984 0.769949
O O2 0.910177 0.486319 0.735619
O O3 0.523758 0.487397 0.888432
O O4 0.708617 0.623210 0.988482
O O5 0.126480 0.098712 0.884524
O O6 0.233498 0.386117 0.912758
O O7 0.943902 0.226485 0.142483
O O8 0.813028 0.564258 0.538393
O O9 0.798367 0.874767 0.529059
O O10 0.058856 0.771690 0.538674
O O11 0.002876 0.491124 0.270692
O O12 0.879047 0.767945 0.290393
O O13 0.207719 0.656706 0.033223
O O14 0.733957 0.056157 0.375522
O O15 0.305550 0.852485 0.590848
O O16 0.397538 0.655523 0.753435
#
# Coordination Sequence:
#
# PCOD9114936 Si02
#       8
#     2   2   2   2   2   2   2   2
#     4  11  23  36  58  92 125 154 193 257 311 345
#     4  10  20  38  57  85 123 161 201 238 292 370
#     4  11  20  37  63  88 112 155 202 257 281 362
#     4  10  21  36  63  89 109 168 202 240 285 374
#     4  10  20  37  62  83 113 158 213 238 293 347
#     4  11  19  37  64  87 113 147 218 238 289 342
#     4  11  22  36  57  89 131 151 192 254 310 353
#     4  10  19  37  60  87 114 162 203 240 287 369
#
# _framework density 23.896176000000001
#
# number of rings (size 3 to 8) (size 9 to 14) (size 15 to 20)
#    0.000    1.500    6.250    0.000    1.750    0.000 
#    0.000    1.250    0.000    0.000    0.000    0.000 
#    0.000    0.000    0.000    0.000    0.000    0.000 
#
# Total GULP energy -89154.030154 kJ/mol
# GULP energy per Si atom -5572.126885 kJ/mol
# Density = 2.384179 g / cm^3
# Si number density = 23.896176 Si / 1000 Ang^3
#
#
#
# Elastic Constant Matrix: (Units=GPa)
#
#
# Indices 1 2 3 4 5 6 
#
# 1 105.7357 16.7384 27.8456 0.0000 30.2319 0.0000
# 2 16.7384 69.0982 14.3142 0.0000 13.1275 0.0000
# 3 27.8456 14.3142 66.7164 0.0000 33.5903 0.0000
# 4 0.0000 0.0000 0.0000 35.7925 0.0000 13.7304
# 5 30.2319 13.1275 33.5903 0.0000 35.5065 0.0000
# 6 0.0000 0.0000 0.0000 13.7304 0.0000 28.5517
#
#
#
# Elastic Compliance Matrix: (Units=1/GPa)
#
#
# Indices 1 2 3 4 5 6 
#
# 1 0.012580 -0.001099 0.000331 0.000000 -0.010619 0.000000
# 2 -0.001099 0.015686 -0.000875 0.000000 -0.004037 0.000000
# 3 0.000331 -0.000875 0.028676 0.000000 -0.027087 0.000000
# 4 0.000000 0.000000 0.000000 0.034259 0.000000 -0.016475
# 5 -0.010619 -0.004037 -0.027087 0.000000 0.064323 0.000000
# 6 0.000000 0.000000 0.000000 -0.016475 0.000000 0.042947
#
#
# Mechanical properties :
#
#
# Convention : Reuss Voigt Hill
#
# Bulk Modulus (GPa) = 18.63632 39.92742 29.28187
# Shear Modulus (GPa) = 22.76439 32.14695 27.45567
#
# Velocity S-wave (km/s) = 3.08983 3.67178 3.39330
# Velocity P-wave (km/s) = 4.53268 5.89245 5.25672
#
# Compressibility (1/GPa) = 0.05365866
#
# Stress axis : x y z
#
# Youngs Moduli (GPa) = 79.48936 63.74947 34.87239
#
# Poissons Ratio (x) = 0.07004 -0.01155
# Poissons Ratio (y) = 0.08734 0.03050
# Poissons Ratio (z) = -0.02634 0.05576
#
# Static dielectric constant tensor:
#      x y z
#    x 2.015270 0.000000 -0.012650 
#    y 0.000000 1.973960 0.000000 
#    z -0.012650 0.000000 1.913430 
# 
# From -- ./inp_files/8002.got.cif
#   From: 2010.05.17/outbox.cif.g08.bks.cpg/sg4_5_cif.got.tgz:8002.got - 2010.06.03 18:43:04.
