data_PCOD9114323
_publ_section_title
;
Structure prediction by ZEFSAII (Michael W. Deem and Ramdas Pophale) SiO2 
 PCOD9114323
Probable space group: P 2
;
_chemical_formula_sum "Si O2"
_cell_formula_units_Z 11
_cell_length_a 8.828293
_cell_length_b 5.434250
_cell_length_c 8.832958
_cell_angle_alpha 90.000000
_cell_angle_beta 72.265311
_cell_angle_gamma 90.000000
_cell_volume 403.624130
_symmetry_space_group_name_H-M "P 2"
_symmetry_group_IT_number 3
_symmetry_cell_setting 'monoclinic'
loop_
_space_group_symop_operation_xyz
x,y,z
-x,y,-z
loop_
_atom_site_type_symbol
_atom_site_label
_atom_site_fract_x
_atom_site_fract_y
_atom_site_fract_z
Si Si1 0.500000 0.022880 0.500000
Si Si2 0.798227 0.782923 0.493936
Si Si3 0.301088 0.670228 0.929598
Si Si4 0.387911 0.377262 0.275223
Si Si5 0.500000 0.083724 0.000000
Si Si6 0.000000 0.324612 0.000000
Si Si7 0.898135 0.934943 0.766139
O O1 0.456207 0.199681 0.379650
O O2 0.651729 0.851589 0.431559
O O3 0.742887 0.544046 0.602965
O O4 0.827983 0.987165 0.617974
O O5 0.948740 0.781174 0.340748
O O6 0.455269 0.519385 0.833048
O O7 0.150980 0.503937 0.915520
O O8 0.218844 0.742907 0.115553
O O9 0.401946 0.932735 0.902990
O O10 0.359015 0.230402 0.128074
O O11 0.039160 0.139023 0.131224
#
# Coordination Sequence:
#
# PCOD9114323 Si02
#       7
#     1   2   2   2   1   1   2
#     4  12  26  46  76 116 154 200 258 320 384 464
#     4  11  27  50  77 112 156 204 260 319 386 465
#     4  12  26  47  75 112 153 200 259 316 377 462
#     4  12  26  47  80 115 155 205 256 322 390 454
#     4  12  26  48  80 114 152 208 270 320 378 460
#     4  12  28  48  80 118 158 206 256 324 394 454
#     4  11  26  51  78 111 156 205 258 320 387 465
#
# _framework density 27.253081999999999
#
# number of rings (size 3 to 8) (size 9 to 14) (size 15 to 20)
#    0.000    0.364    0.000    8.182    0.000   11.636 
#    0.000    5.455    0.000    4.364    0.000    0.000 
#    0.000    0.000    0.000    0.000    0.000    0.000 
#
# Total GULP energy -61261.055760 kJ/mol
# GULP energy per Si atom -5569.186887 kJ/mol
# Density = 2.719105 g / cm^3
# Si number density = 27.253082 Si / 1000 Ang^3
#
#
#
# Elastic Constant Matrix: (Units=GPa)
#
#
# Indices 1 2 3 4 5 6 
#
# 1 140.3523 38.6423 49.4334 0.0000 -0.7868 0.0000
# 2 38.6423 109.0281 44.9723 0.0000 22.5399 0.0000
# 3 49.4334 44.9723 112.1905 0.0000 1.4120 0.0000
# 4 0.0000 0.0000 0.0000 44.7850 0.0000 5.6857
# 5 -0.7868 22.5399 1.4120 0.0000 64.9514 0.0000
# 6 0.0000 0.0000 0.0000 5.6857 0.0000 43.5365
#
#
#
# Elastic Compliance Matrix: (Units=1/GPa)
#
#
# Indices 1 2 3 4 5 6 
#
# 1 0.008766 -0.002025 -0.003062 0.000000 0.000875 0.000000
# 2 -0.002025 0.012435 -0.004039 0.000000 -0.004252 0.000000
# 3 -0.003062 -0.004039 0.011867 0.000000 0.001106 0.000000
# 4 0.000000 0.000000 0.000000 0.022705 0.000000 -0.002965
# 5 0.000875 -0.004252 0.001106 0.000000 0.016858 0.000000
# 6 0.000000 0.000000 0.000000 -0.002965 0.000000 0.023356
#
#
# Mechanical properties :
#
#
# Convention : Reuss Voigt Hill
#
# Bulk Modulus (GPa) = 67.48958 69.74078 68.61518
# Shear Modulus (GPa) = 41.95429 45.88944 43.92186
#
# Velocity S-wave (km/s) = 3.92782 4.10790 4.01887
# Velocity P-wave (km/s) = 6.73707 6.93869 6.83862
#
# Compressibility (1/GPa) = 0.01481710
#
# Stress axis : x y z
#
# Youngs Moduli (GPa) = 114.08129 80.42122 84.26388
#
# Poissons Ratio (x) = 0.16284 0.25799
# Poissons Ratio (y) = 0.23100 0.34032
# Poissons Ratio (z) = 0.34928 0.32480
#
# Static dielectric constant tensor:
#      x y z
#    x 2.484760 0.000000 -0.024350 
#    y 0.000000 2.361260 0.000000 
#    z -0.024350 0.000000 2.105460 
# 
# From -- ./inp_files/4885.got.cif
#   From: 2010.05.17/outbox.cif.g08.bks.cpg/sg3_3_cif.got.tgz:4885.got - 2010.06.03 18:33:08.
