data_PCOD9114695
_publ_section_title
;
Structure prediction by ZEFSAII (Michael W. Deem and Ramdas Pophale) SiO2 
 PCOD9114695
Probable space group: P 21
;
_chemical_formula_sum "Si O2"
_cell_formula_units_Z 16
_cell_length_a 7.729246
_cell_length_b 12.932694
_cell_length_c 8.817869
_cell_angle_alpha 90.000000
_cell_angle_beta 130.697075
_cell_angle_gamma 90.000000
_cell_volume 668.274685
_symmetry_space_group_name_H-M "P 21"
_symmetry_group_IT_number 4
_symmetry_cell_setting 'monoclinic'
loop_
_space_group_symop_operation_xyz
x,y,z
-x,1/2+y,-z
loop_
_atom_site_type_symbol
_atom_site_label
_atom_site_fract_x
_atom_site_fract_y
_atom_site_fract_z
Si Si1 0.907586 0.003180 0.604728
Si Si2 0.864589 0.587253 0.818953
Si Si3 0.340756 0.851405 0.843165
Si Si4 0.630018 0.027505 0.971993
Si Si5 0.906082 0.199530 0.799026
Si Si6 0.536571 0.448826 0.812732
Si Si7 0.980654 0.214314 0.511384
Si Si8 0.575977 0.684518 0.388510
O O1 0.873064 0.077747 0.730293
O O2 0.972902 0.090732 0.518745
O O3 0.672418 0.952606 0.421222
O O4 0.118005 0.925662 0.729732
O O5 0.102239 0.548357 0.883555
O O6 0.931061 0.685807 0.964160
O O7 0.753717 0.495835 0.853964
O O8 0.679666 0.621813 0.590189
O O9 0.246373 0.754558 0.699606
O O10 0.542411 0.912998 0.873544
O O11 0.420899 0.845104 0.063655
O O12 0.531936 0.027130 0.087249
O O13 0.507833 0.109040 0.793678
O O14 0.996478 0.250687 0.695933
O O15 0.654244 0.241314 0.689081
O O16 0.202663 0.243503 0.545641
#
# Coordination Sequence:
#
# PCOD9114695 Si02
#       8
#     2   2   2   2   2   2   2   2
#     4  10  18  39  63  80 116 159 193 237 299 348
#     4  11  18  33  64  85 112 152 196 240 294 355
#     4  10  21  39  60  87 120 158 201 243 297 351
#     4   9  21  33  58  87 112 147 199 235 289 351
#     4   9  20  36  58  86 114 157 191 240 299 343
#     4  10  19  37  57  85 115 152 193 238 300 350
#     4  10  20  40  61  81 124 157 197 250 290 354
#     4  11  19  35  61  89 111 154 200 241 296 352
#
# _framework density 23.942247999999999
#
# number of rings (size 3 to 8) (size 9 to 14) (size 15 to 20)
#    1.500    0.500    3.750    1.500    0.000    0.000 
#    2.250    7.500    2.750    0.000    0.000    0.000 
#    0.000    0.000    0.000    0.000    0.000    0.000 
#
# Total GULP energy -89285.052416 kJ/mol
# GULP energy per Si atom -5580.315776 kJ/mol
# Density = 2.388775 g / cm^3
# Si number density = 23.942248 Si / 1000 Ang^3
#
#
#
# Elastic Constant Matrix: (Units=GPa)
#
#
# Indices 1 2 3 4 5 6 
#
# 1 74.2684 6.1917 8.0174 0.0000 -12.2563 0.0000
# 2 6.1917 43.1434 9.6161 0.0000 1.1834 0.0000
# 3 8.0174 9.6161 93.2733 0.0000 7.3904 0.0000
# 4 0.0000 0.0000 0.0000 31.6557 0.0000 5.8773
# 5 -12.2563 1.1834 7.3904 0.0000 36.5270 0.0000
# 6 0.0000 0.0000 0.0000 5.8773 0.0000 12.5565
#
#
#
# Elastic Compliance Matrix: (Units=1/GPa)
#
#
# Indices 1 2 3 4 5 6 
#
# 1 0.014656 -0.001918 -0.001480 0.000000 0.005279 0.000000
# 2 -0.001918 0.023977 -0.002230 0.000000 -0.000969 0.000000
# 3 -0.001480 -0.002230 0.011293 0.000000 -0.002709 0.000000
# 4 0.000000 0.000000 0.000000 0.034596 0.000000 -0.016194
# 5 0.005279 -0.000969 -0.002709 0.000000 0.029728 0.000000
# 6 0.000000 0.000000 0.000000 -0.016194 0.000000 0.087220
#
#
# Mechanical properties :
#
#
# Convention : Reuss Voigt Hill
#
# Bulk Modulus (GPa) = 25.86077 28.70395 27.28236
# Shear Modulus (GPa) = 22.16143 28.60517 25.38330
#
# Velocity S-wave (km/s) = 3.04570 3.46028 3.25959
# Velocity P-wave (km/s) = 4.81593 5.28957 5.05829
#
# Compressibility (1/GPa) = 0.03866861
#
# Stress axis : x y z
#
# Youngs Moduli (GPa) = 68.23334 41.70583 88.55026
#
# Poissons Ratio (x) = 0.08000 0.13108
# Poissons Ratio (y) = 0.13088 0.19749
# Poissons Ratio (z) = 0.10100 0.09302
#
# Static dielectric constant tensor:
#      x y z
#    x 1.901360 0.000000 -0.019400 
#    y 0.000000 1.993090 0.000000 
#    z -0.019400 0.000000 1.944400 
# 
# From -- ./inp_files/6873.got.cif
#   From: 2010.05.17/outbox.cif.g08.bks.cpg/sg4_4_cif.got.tgz:6873.got - 2010.06.03 18:43:04.
