data_PCOD9114669
_publ_section_title
;
Structure prediction by ZEFSAII (Michael W. Deem and Ramdas Pophale) SiO2 
 PCOD9114669
Probable space group: P 21
;
_chemical_formula_sum "Si O2"
_cell_formula_units_Z 14
_cell_length_a 10.252161
_cell_length_b 9.530431
_cell_length_c 7.745075
_cell_angle_alpha 90.000000
_cell_angle_beta 42.333589
_cell_angle_gamma 90.000000
_cell_volume 509.631617
_symmetry_space_group_name_H-M "P 21"
_symmetry_group_IT_number 4
_symmetry_cell_setting 'monoclinic'
loop_
_space_group_symop_operation_xyz
x,y,z
-x,1/2+y,-z
loop_
_atom_site_type_symbol
_atom_site_label
_atom_site_fract_x
_atom_site_fract_y
_atom_site_fract_z
Si Si1 0.903146 0.025620 0.101616
Si Si2 0.229128 0.344850 0.074718
Si Si3 0.692735 0.340406 0.560324
Si Si4 0.158785 0.263776 0.678948
Si Si5 0.694447 0.126991 0.833873
Si Si6 0.231993 0.096589 0.279874
Si Si7 0.378646 0.745006 0.723129
O O1 0.691221 0.099281 0.295641
O O2 0.923708 0.921373 0.240105
O O3 0.049494 0.147104 0.902270
O O4 0.888399 0.904587 0.970067
O O5 0.178080 0.182654 0.160885
O O6 0.459845 0.347706 0.811639
O O7 0.212072 0.475476 0.225673
O O8 0.789717 0.453052 0.593202
O O9 0.708728 0.350914 0.336009
O O10 0.755395 0.198509 0.596264
O O11 0.144537 0.205723 0.501254
O O12 0.390508 0.262906 0.491926
O O13 0.464934 0.103527 0.043265
O O14 0.703044 0.226275 0.000306
#
# Coordination Sequence:
#
# PCOD9114669 Si02
#       7
#     2   2   2   2   2   2   2
#     4  11  25  44  67 102 140 183 235 294 348 423
#     4   9  18  41  60  92 139 174 225 287 342 413
#     4  10  18  37  66 102 133 176 227 287 345 414
#     4  11  25  44  67 101 140 180 239 290 347 426
#     4   8  18  35  62  99 134 169 231 281 332 419
#     4   9  20  37  61  94 134 174 225 285 342 414
#     4  10  22  42  73 100 134 188 230 284 362 415
#
# _framework density 27.470822999999999
#
# number of rings (size 3 to 8) (size 9 to 14) (size 15 to 20)
#    0.000    2.286    1.429    0.857    4.000    0.000 
#    5.143    4.286    0.000    0.000    0.000    0.000 
#    0.000    0.000    0.000    0.000    0.000    0.000 
#
# Total GULP energy -78097.580627 kJ/mol
# GULP energy per Si atom -5578.398616 kJ/mol
# Density = 2.740830 g / cm^3
# Si number density = 27.470823 Si / 1000 Ang^3
#
#
#
# Elastic Constant Matrix: (Units=GPa)
#
#
# Indices 1 2 3 4 5 6 
#
# 1 75.7601 25.6946 46.8674 0.0000 -4.1363 0.0000
# 2 25.6946 104.8939 19.2820 0.0000 2.4176 0.0000
# 3 46.8674 19.2820 83.3718 0.0000 -33.9198 0.0000
# 4 0.0000 0.0000 0.0000 32.3386 0.0000 11.6334
# 5 -4.1363 2.4176 -33.9198 0.0000 57.4170 0.0000
# 6 0.0000 0.0000 0.0000 11.6334 0.0000 51.0326
#
#
#
# Elastic Compliance Matrix: (Units=1/GPa)
#
#
# Indices 1 2 3 4 5 6 
#
# 1 0.023261 -0.002692 -0.015436 0.000000 -0.007330 0.000000
# 2 -0.002692 0.010513 -0.001550 0.000000 -0.001552 0.000000
# 3 -0.015436 -0.001550 0.027124 0.000000 0.014977 0.000000
# 4 0.000000 0.000000 0.000000 0.033685 0.000000 -0.007679
# 5 -0.007330 -0.001552 0.014977 0.000000 0.025802 0.000000
# 6 0.000000 0.000000 0.000000 -0.007679 0.000000 0.021346
#
#
# Mechanical properties :
#
#
# Convention : Reuss Voigt Hill
#
# Bulk Modulus (GPa) = 46.41828 49.74597 48.08213
# Shear Modulus (GPa) = 26.55795 39.63642 33.09719
#
# Velocity S-wave (km/s) = 3.11266 3.80261 3.47481
# Velocity P-wave (km/s) = 5.46372 6.11783 5.80000
#
# Compressibility (1/GPa) = 0.02154324
#
# Stress axis : x y z
#
# Youngs Moduli (GPa) = 42.98957 95.11608 36.86819
#
# Poissons Ratio (x) = 0.25602 0.56910
# Poissons Ratio (y) = 0.11571 0.05714
# Poissons Ratio (z) = 0.66359 0.14743
#
# Static dielectric constant tensor:
#      x y z
#    x 2.164950 0.000000 0.066100 
#    y 0.000000 2.199640 0.000000 
#    z 0.066100 0.000000 2.243000 
# 
# From -- ./inp_files/7931.got.cif
#   From: 2010.05.17/outbox.cif.g08.bks.cpg/sg4_4_cif.got.tgz:7931.got - 2010.06.03 18:43:04.
