data_PCOD9114613
_publ_section_title
;
Structure prediction by ZEFSAII (Michael W. Deem and Ramdas Pophale) SiO2 
 PCOD9114613
Probable space group: P 21
;
_chemical_formula_sum "Si O2"
_cell_formula_units_Z 8
_cell_length_a 19.023282
_cell_length_b 4.928585
_cell_length_c 13.323431
_cell_angle_alpha 90.000000
_cell_angle_beta 159.504264
_cell_angle_gamma 90.000000
_cell_volume 437.383720
_symmetry_space_group_name_H-M "P 21"
_symmetry_group_IT_number 4
_symmetry_cell_setting 'monoclinic'
loop_
_space_group_symop_operation_xyz
x,y,z
-x,1/2+y,-z
loop_
_atom_site_type_symbol
_atom_site_label
_atom_site_fract_x
_atom_site_fract_y
_atom_site_fract_z
Si Si1 0.914362 0.492390 0.332577
Si Si2 0.772619 0.722938 0.953180
Si Si3 0.115399 0.358347 0.121222
Si Si4 0.561468 0.254513 0.754418
O O1 0.947539 0.739163 0.453073
O O2 0.942009 0.618291 0.258083
O O3 0.689143 0.372420 0.018948
O O4 0.857291 0.810525 0.960563
O O5 0.622173 0.465921 0.746455
O O6 0.652100 0.965744 0.845536
O O7 0.325437 0.268198 0.451545
O O8 0.059563 0.666033 0.070787
#
# Coordination Sequence:
#
# PCOD9114613 Si02
#       4
#     2   2   2   2
#     4  10  18  34  60  90 104 140 198 244 266 316
#     4  10  20  36  60  84 114 146 192 233 278 329
#     4  12  24  36  56  88 124 148 180 230 294 344
#     4  10  20  36  60  84 114 146 192 233 278 329
#
# _framework density 18.290576999999999
#
# number of rings (size 3 to 8) (size 9 to 14) (size 15 to 20)
#    1.500    0.000    2.500    4.500    0.000    0.000 
#    0.000    0.000    0.000    6.000    0.000    0.000 
#    0.000    0.000    0.000    0.000    0.000    0.000 
#
# Total GULP energy -44541.371918 kJ/mol
# GULP energy per Si atom -5567.671490 kJ/mol
# Density = 1.824895 g / cm^3
# Si number density = 18.290577 Si / 1000 Ang^3
#
#
#
# Elastic Constant Matrix: (Units=GPa)
#
#
# Indices 1 2 3 4 5 6 
#
# 1 25.2859 0.9258 38.8644 0.0000 -14.7857 0.0000
# 2 0.9258 83.8003 11.8670 0.0000 -11.5382 0.0000
# 3 38.8644 11.8670 81.0460 0.0000 -24.1197 0.0000
# 4 0.0000 0.0000 0.0000 28.0889 0.0000 3.8641
# 5 -14.7857 -11.5382 -24.1197 0.0000 25.6504 0.0000
# 6 0.0000 0.0000 0.0000 3.8641 0.0000 26.2592
#
#
#
# Elastic Compliance Matrix: (Units=1/GPa)
#
#
# Indices 1 2 3 4 5 6 
#
# 1 0.178410 0.013984 -0.076544 0.000000 0.037156 0.000000
# 2 0.013984 0.013820 -0.006221 0.000000 0.008427 0.000000
# 3 -0.076544 -0.006221 0.049977 0.000000 0.000074 0.000000
# 4 0.000000 0.000000 0.000000 0.036337 0.000000 -0.005347
# 5 0.037156 0.008427 0.000074 0.000000 0.064264 0.000000
# 6 0.000000 0.000000 0.000000 -0.005347 0.000000 0.038869
#
#
# Mechanical properties :
#
#
# Convention : Reuss Voigt Hill
#
# Bulk Modulus (GPa) = 9.55614 32.60520 21.08067
# Shear Modulus (GPa) = 9.02333 25.23135 17.12734
#
# Velocity S-wave (km/s) = 2.22352 3.71815 3.06339
# Velocity P-wave (km/s) = 3.43919 6.02477 4.90540
#
# Compressibility (1/GPa) = 0.10464476
#
# Stress axis : x y z
#
# Youngs Moduli (GPa) = 5.60508 72.35900 20.00923
#
# Poissons Ratio (x) = -1.01188 1.53158
# Poissons Ratio (y) = -0.07838 0.12449
# Poissons Ratio (z) = 0.42903 0.45018
#
# Static dielectric constant tensor:
#      x y z
#    x 1.629280 0.000000 -0.046410 
#    y 0.000000 1.657590 0.000000 
#    z -0.046410 0.000000 1.651820 
# 
# From -- ./inp_files/2284.got.cif
#   From: 2010.05.17/outbox.cif.g08.bks.cpg/sg4_2_cif.got.tgz:2284.got - 2010.06.03 18:43:04.
