data_PCOD9114263
_publ_section_title
;
Structure prediction by ZEFSAII (Michael W. Deem and Ramdas Pophale) SiO2 
 PCOD9114263
Probable space group: P 2
;
_chemical_formula_sum "Si O2"
_cell_formula_units_Z 14
_cell_length_a 9.179484
_cell_length_b 15.823672
_cell_length_c 5.204238
_cell_angle_alpha 90.000000
_cell_angle_beta 122.248887
_cell_angle_gamma 90.000000
_cell_volume 639.320501
_symmetry_space_group_name_H-M "P 2"
_symmetry_group_IT_number 3
_symmetry_cell_setting 'monoclinic'
loop_
_space_group_symop_operation_xyz
x,y,z
-x,y,-z
loop_
_atom_site_type_symbol
_atom_site_label
_atom_site_fract_x
_atom_site_fract_y
_atom_site_fract_z
Si Si1 0.000000 0.867050 0.500000
Si Si2 0.671933 0.271693 0.320145
Si Si3 0.168582 0.013399 0.998382
Si Si4 0.119602 0.615367 0.360403
Si Si5 0.344139 0.766780 0.679906
Si Si6 0.500000 0.916663 0.500000
Si Si7 0.385211 0.468791 0.643248
Si Si8 0.817948 0.200649 0.972001
O O1 0.091859 0.934014 0.773757
O O2 0.161755 0.807048 0.594971
O O3 0.661107 0.369723 0.386859
O O4 0.696476 0.221015 0.610427
O O5 0.500000 0.247275 0.000000
O O6 0.806820 0.258812 0.213710
O O7 0.337831 0.975442 0.287687
O O8 0.000000 0.036200 0.000000
O O9 0.214728 0.106431 0.939950
O O10 0.268435 0.686555 0.457384
O O11 0.217700 0.527060 0.482943
O O12 0.000000 0.630247 0.500000
O O13 0.000000 0.616423 0.000000
O O14 0.437117 0.849550 0.651507
O O15 0.500000 0.731525 0.000000
O O16 0.500000 0.483996 0.500000
O O17 0.500000 0.488770 0.000000
O O18 0.000000 0.210622 0.000000
#
# Coordination Sequence:
#
# PCOD9114263 Si02
#       8
#     1   2   2   2   2   1   2   2
#     4  12  24  48  68  96 148 188 246 306 352 432
#     4  11  24  45  72 104 142 186 236 297 358 431
#     4  11  26  43  67 101 145 186 248 304 358 420
#     4  12  29  47  75 110 149 186 236 302 362 434
#     4  12  27  45  72 104 143 194 245 294 370 431
#     4  12  26  42  72 102 134 200 244 294 370 424
#     4  11  24  48  77 106 145 187 238 292 362 435
#     4  11  26  44  69 103 145 190 236 298 363 425
#
# _framework density 21.898249
#
# number of rings (size 3 to 8) (size 9 to 14) (size 15 to 20)
#    0.000    0.571    3.571    3.857   11.000    1.714 
#    0.000    0.000    0.000    0.000    0.000    0.000 
#    0.000    0.000    0.000    0.000    0.000    0.000 
#
# Total GULP energy -78001.270475 kJ/mol
# GULP energy per Si atom -5571.519320 kJ/mol
# Density = 2.184841 g / cm^3
# Si number density = 21.898249 Si / 1000 Ang^3
#
#
#
# Elastic Constant Matrix: (Units=GPa)
#
#
# Indices 1 2 3 4 5 6 
#
# 1 90.3049 33.1673 47.7672 0.0000 -0.1325 0.0000
# 2 33.1673 52.7311 28.3517 0.0000 13.4274 0.0000
# 3 47.7672 28.3517 141.9349 0.0000 23.5739 0.0000
# 4 0.0000 0.0000 0.0000 104.0813 0.0000 22.7223
# 5 -0.1325 13.4274 23.5739 0.0000 40.5079 0.0000
# 6 0.0000 0.0000 0.0000 22.7223 0.0000 60.0164
#
#
#
# Elastic Compliance Matrix: (Units=1/GPa)
#
#
# Indices 1 2 3 4 5 6 
#
# 1 0.017258 -0.009800 -0.004870 0.000000 0.006139 0.000000
# 2 -0.009800 0.027792 -0.000795 0.000000 -0.008782 0.000000
# 3 -0.004870 -0.000795 0.009744 0.000000 -0.005423 0.000000
# 4 0.000000 0.000000 0.000000 0.010474 0.000000 -0.003965
# 5 0.006139 -0.008782 -0.005423 0.000000 0.030774 0.000000
# 6 0.000000 0.000000 0.000000 -0.003965 0.000000 0.018163
#
#
# Mechanical properties :
#
#
# Convention : Reuss Voigt Hill
#
# Bulk Modulus (GPa) = 41.90400 55.94926 48.92663
# Shear Modulus (GPa) = 32.66086 52.63342 42.64714
#
# Velocity S-wave (km/s) = 3.86616 4.90791 4.41785
# Velocity P-wave (km/s) = 6.25355 7.59750 6.95805
#
# Compressibility (1/GPa) = 0.02386407
#
# Stress axis : x y z
#
# Youngs Moduli (GPa) = 57.94420 35.98199 102.62752
#
# Poissons Ratio (x) = 0.35262 0.49981
# Poissons Ratio (y) = 0.56784 0.08157
# Poissons Ratio (z) = 0.28220 0.02860
#
# Static dielectric constant tensor:
#      x y z
#    x 1.794820 0.000000 0.026850 
#    y 0.000000 1.974820 0.000000 
#    z 0.026850 0.000000 1.693200 
# 
# From -- ./inp_files/1537.got.cif
#   From: 2010.05.17/outbox.cif.g08.bks.cpg/sg3_1_cif.got.tgz:1537.got - 2010.06.03 18:33:08.
