data_PCOD9114824
_publ_section_title
;
Structure prediction by ZEFSAII (Michael W. Deem and Ramdas Pophale) SiO2 
 PCOD9114824
Probable space group: P 21
;
_chemical_formula_sum "Si O2"
_cell_formula_units_Z 16
_cell_length_a 8.463395
_cell_length_b 8.761991
_cell_length_c 11.790632
_cell_angle_alpha 90.000000
_cell_angle_beta 126.851498
_cell_angle_gamma 90.000000
_cell_volume 699.647119
_symmetry_space_group_name_H-M "P 21"
_symmetry_group_IT_number 4
_symmetry_cell_setting 'monoclinic'
loop_
_space_group_symop_operation_xyz
x,y,z
-x,1/2+y,-z
loop_
_atom_site_type_symbol
_atom_site_label
_atom_site_fract_x
_atom_site_fract_y
_atom_site_fract_z
Si Si1 0.174676 0.007100 0.996326
Si Si2 0.961086 0.077573 0.573328
Si Si3 0.267113 0.565028 0.948152
Si Si4 0.723156 0.366434 0.173767
Si Si5 0.321663 0.322016 0.138695
Si Si6 0.185587 0.395693 0.685890
Si Si7 0.417621 0.756708 0.206090
Si Si8 0.744102 0.019788 0.696966
O O1 0.219218 0.161252 0.080706
O O2 0.232955 0.866651 0.101537
O O3 0.967154 0.018178 0.843253
O O4 0.321192 0.980157 0.951065
O O5 0.042388 0.248380 0.626870
O O6 0.778560 0.041819 0.579263
O O7 0.129299 0.955533 0.681214
O O8 0.907641 0.037453 0.421809
O O9 0.184471 0.718414 0.850699
O O10 0.256852 0.447839 0.839707
O O11 0.192679 0.452644 0.017370
O O12 0.431350 0.648007 0.099942
O O13 0.528065 0.318442 0.158252
O O14 0.347621 0.371684 0.280302
O O15 0.380373 0.346426 0.701643
O O16 0.374793 0.657545 0.297511
#
# Coordination Sequence:
#
# PCOD9114824 Si02
#       8
#     2   2   2   2   2   2   2   2
#     4  10  20  34  57  92 127 161 209 263 315 367
#     4  11  25  44  63  90 124 166 212 255 304 372
#     4  10  19  34  62  95 119 155 208 264 313 356
#     4  10  19  35  59  88 123 161 210 258 304 369
#     4  11  19  33  60  91 125 164 204 260 320 367
#     4  12  24  43  68  92 125 168 216 259 304 369
#     4  10  22  40  64  94 127 163 207 262 321 372
#     4  10  22  39  57  86 128 164 202 255 315 378
#
# _framework density 22.868672
#
# number of rings (size 3 to 8) (size 9 to 14) (size 15 to 20)
#    0.000    1.500    0.000    7.500    0.000    3.000 
#    0.000    6.250    0.000    0.000    0.000    0.000 
#    0.000    0.000    0.000    0.000    0.000    0.000 
#
# Total GULP energy -89190.894592 kJ/mol
# GULP energy per Si atom -5574.430912 kJ/mol
# Density = 2.281662 g / cm^3
# Si number density = 22.868672 Si / 1000 Ang^3
#
#
#
# Elastic Constant Matrix: (Units=GPa)
#
#
# Indices 1 2 3 4 5 6 
#
# 1 53.6324 5.8068 15.2407 0.0000 -15.7399 0.0000
# 2 5.8068 99.4758 5.7845 0.0000 -4.2354 0.0000
# 3 15.2407 5.7845 68.0212 0.0000 -18.1431 0.0000
# 4 0.0000 0.0000 0.0000 28.0746 0.0000 -2.9369
# 5 -15.7399 -4.2354 -18.1431 0.0000 21.9385 0.0000
# 6 0.0000 0.0000 0.0000 -2.9369 0.0000 20.5200
#
#
#
# Elastic Compliance Matrix: (Units=1/GPa)
#
#
# Indices 1 2 3 4 5 6 
#
# 1 0.023711 -0.000643 -0.000967 0.000000 0.016088 0.000000
# 2 -0.000643 0.010164 -0.000410 0.000000 0.001161 0.000000
# 3 -0.000967 -0.000410 0.018920 0.000000 0.014874 0.000000
# 4 0.000000 0.000000 0.000000 0.036161 0.000000 0.005175
# 5 0.016088 0.001161 0.014874 0.000000 0.069650 0.000000
# 6 0.000000 0.000000 0.000000 0.005175 0.000000 0.049474
#
#
# Mechanical properties :
#
#
# Convention : Reuss Voigt Hill
#
# Bulk Modulus (GPa) = 20.51096 30.53259 25.52178
# Shear Modulus (GPa) = 21.89420 27.05977 24.47699
#
# Velocity S-wave (km/s) = 3.09753 3.44360 3.27514
# Velocity P-wave (km/s) = 4.66705 5.40291 5.04841
#
# Compressibility (1/GPa) = 0.04875442
#
# Stress axis : x y z
#
# Youngs Moduli (GPa) = 42.17400 98.39084 52.85378
#
# Poissons Ratio (x) = 0.06326 0.05110
# Poissons Ratio (y) = 0.02711 0.02169
# Poissons Ratio (z) = 0.04078 0.04039
#
# Static dielectric constant tensor:
#      x y z
#    x 1.957930 0.000000 0.008900 
#    y 0.000000 1.896300 0.000000 
#    z 0.008900 0.000000 1.815320 
# 
# From -- ./inp_files/10903.got.cif
#   From: 2010.05.17/outbox.cif.g08.bks.cpg/sg4_6_cif.got.tgz:10903.got - 2010.06.03 18:43:04.
