data_PCOD9114301
_publ_section_title
;
Structure prediction by ZEFSAII (Michael W. Deem and Ramdas Pophale) SiO2 
 PCOD9114301
Probable space group: P 2
;
_chemical_formula_sum "Si O2"
_cell_formula_units_Z 12
_cell_length_a 8.782339
_cell_length_b 7.427375
_cell_length_c 9.047598
_cell_angle_alpha 90.000000
_cell_angle_beta 68.488399
_cell_angle_gamma 90.000000
_cell_volume 549.062898
_symmetry_space_group_name_H-M "P 2"
_symmetry_group_IT_number 3
_symmetry_cell_setting 'monoclinic'
loop_
_space_group_symop_operation_xyz
x,y,z
-x,y,-z
loop_
_atom_site_type_symbol
_atom_site_label
_atom_site_fract_x
_atom_site_fract_y
_atom_site_fract_z
Si Si1 0.679282 0.395440 0.860138
Si Si2 0.672454 0.207920 0.357514
Si Si3 0.882763 0.885108 0.412947
Si Si4 0.187114 0.489492 0.490634
Si Si5 0.118635 0.722650 0.082110
Si Si6 0.332500 0.064028 0.970779
O O1 0.693726 0.412512 0.679059
O O2 0.775918 0.565219 0.886779
O O3 0.500000 0.399196 0.000000
O O4 0.755183 0.207228 0.889416
O O5 0.500000 0.223825 0.500000
O O6 0.775707 0.384244 0.370643
O O7 0.648283 0.165921 0.192623
O O8 0.765784 0.037092 0.393431
O O9 0.790563 0.704501 0.501709
O O10 0.000000 0.957558 0.500000
O O11 0.003874 0.811751 0.245182
O O12 0.000000 0.463010 0.500000
O O13 0.000000 0.647815 0.000000
O O14 0.232648 0.882539 0.981281
O O15 0.500000 0.018663 0.000000
#
# Coordination Sequence:
#
# PCOD9114301 Si02
#       6
#     2   2   2   2   2   2
#     4  11  25  45  71  99 138 185 223 281 344 404
#     4  12  27  44  70 103 137 180 229 283 340 410
#     4  11  25  46  70 102 136 180 228 281 342 405
#     4  11  25  47  72 103 136 182 227 279 345 404
#     4  12  25  44  69 103 137 178 232 280 341 404
#     4  11  27  45  68  99 137 182 225 281 344 400
#
# _framework density 21.855419999999999
#
# number of rings (size 3 to 8) (size 9 to 14) (size 15 to 20)
#    0.000    0.667    5.000    3.000    9.333    2.667 
#    0.000    0.000    0.000    0.000    0.000    0.000 
#    0.000    0.000    0.000    0.000    0.000    0.000 
#
# Total GULP energy -67122.655495 kJ/mol
# GULP energy per Si atom -5593.554625 kJ/mol
# Density = 2.180568 g / cm^3
# Si number density = 21.855420 Si / 1000 Ang^3
#
#
#
# Elastic Constant Matrix: (Units=GPa)
#
#
# Indices 1 2 3 4 5 6 
#
# 1 85.2615 30.4911 21.4850 0.0000 20.6876 0.0000
# 2 30.4911 90.0365 -9.0819 0.0000 7.8338 0.0000
# 3 21.4850 -9.0819 80.2515 0.0000 22.3374 0.0000
# 4 0.0000 0.0000 0.0000 41.1253 0.0000 3.9859
# 5 20.6876 7.8338 22.3374 0.0000 37.2181 0.0000
# 6 0.0000 0.0000 0.0000 3.9859 0.0000 34.0131
#
#
#
# Elastic Compliance Matrix: (Units=1/GPa)
#
#
# Indices 1 2 3 4 5 6 
#
# 1 0.015782 -0.005167 -0.003207 0.000000 -0.005760 0.000000
# 2 -0.005167 0.013381 0.003460 0.000000 -0.002021 0.000000
# 3 -0.003207 0.003460 0.016108 0.000000 -0.008614 0.000000
# 4 0.000000 0.000000 0.000000 0.024595 0.000000 -0.002882
# 5 -0.005760 -0.002021 -0.008614 0.000000 0.035666 0.000000
# 6 0.000000 0.000000 0.000000 -0.002882 0.000000 0.029738
#
#
# Mechanical properties :
#
#
# Convention : Reuss Voigt Hill
#
# Bulk Modulus (GPa) = 28.21242 37.92644 33.06943
# Shear Modulus (GPa) = 31.86482 36.64832 34.25657
#
# Velocity S-wave (km/s) = 3.82250 4.09938 3.96336
# Velocity P-wave (km/s) = 5.69374 6.30853 6.00900
#
# Compressibility (1/GPa) = 0.03544539
#
# Stress axis : x y z
#
# Youngs Moduli (GPa) = 63.36282 74.73121 62.07910
#
# Poissons Ratio (x) = 0.38613 0.19906
# Poissons Ratio (y) = 0.32739 -0.21481
# Poissons Ratio (z) = 0.20318 -0.25859
#
# Static dielectric constant tensor:
#      x y z
#    x 1.814870 0.000000 0.021740 
#    y 0.000000 1.799680 0.000000 
#    z 0.021740 0.000000 1.831320 
# 
# From -- ./inp_files/5060.got.cif
#   From: 2010.05.17/outbox.cif.g08.bks.cpg/sg3_3_cif.got.tgz:5060.got - 2010.06.03 18:33:08.
