data_PCOD9114483
_publ_section_title
;
Structure prediction by ZEFSAII (Michael W. Deem and Ramdas Pophale) SiO2 
 PCOD9114483
Probable space group: P 21
;
_chemical_formula_sum "Si O2"
_cell_formula_units_Z 16
_cell_length_a 10.477686
_cell_length_b 5.076921
_cell_length_c 21.914744
_cell_angle_alpha 90.000000
_cell_angle_beta 127.238743
_cell_angle_gamma 90.000000
_cell_volume 928.071032
_symmetry_space_group_name_H-M "P 21"
_symmetry_group_IT_number 4
_symmetry_cell_setting 'monoclinic'
loop_
_space_group_symop_operation_xyz
x,y,z
-x,1/2+y,-z
loop_
_atom_site_type_symbol
_atom_site_label
_atom_site_fract_x
_atom_site_fract_y
_atom_site_fract_z
Si Si1 0.832672 0.791760 0.405881
Si Si2 0.419034 0.775633 0.075460
Si Si3 0.701575 0.889544 0.246919
Si Si4 0.891221 0.408285 0.131901
Si Si5 0.058734 0.975805 0.984070
Si Si6 0.665393 0.909713 0.044909
Si Si7 0.084915 0.891903 0.724464
Si Si8 0.038545 0.289984 0.433792
O O1 0.692786 0.861445 0.317931
O O2 0.898868 0.498185 0.412694
O O3 0.821876 0.829287 0.475757
O O4 0.970564 0.997158 0.424299
O O5 0.537703 0.814548 0.166073
O O6 0.246356 0.898974 0.038565
O O7 0.514335 0.908072 0.046370
O O8 0.390428 0.480027 0.040218
O O9 0.831412 0.671421 0.263816
O O10 0.777752 0.169058 0.248511
O O11 0.781677 0.151145 0.094515
O O12 0.968111 0.394308 0.220723
O O13 0.772086 0.656896 0.090879
O O14 0.998071 0.428335 0.102042
O O15 0.029161 0.272228 0.996660
O O16 0.947649 0.839583 0.634249
#
# Coordination Sequence:
#
# PCOD9114483 Si02
#       8
#     2   2   2   2   2   2   2   2
#     4   8  14  25  36  62  90 128 143 168 208 279
#     4  11  21  35  51  69  94 119 159 200 237 284
#     4  10  19  27  47  69  97 115 153 187 233 276
#     4  11  20  36  51  69  96 115 159 200 237 277
#     4  11  25  38  48  62  87 128 162 195 235 281
#     4  11  22  31  51  75  90 117 146 205 251 272
#     4  10  17  29  44  73  93 120 147 189 231 276
#     4   8  14  23  40  57  95 124 147 162 212 279
#
# _framework density 17.240058000000001
#
# number of rings (size 3 to 8) (size 9 to 14) (size 15 to 20)
#    0.000    2.000    2.500    3.000    0.000    4.000 
#    0.000    0.000    0.000    0.000    0.000    0.000 
#    0.000    2.000    0.000    0.000    0.000    4.250 
#
# Total GULP energy -89088.019088 kJ/mol
# GULP energy per Si atom -5568.001193 kJ/mol
# Density = 1.720082 g / cm^3
# Si number density = 17.240058 Si / 1000 Ang^3
#
#
#
# Elastic Constant Matrix: (Units=GPa)
#
#
# Indices 1 2 3 4 5 6 
#
# 1 34.0949 -1.6855 18.4702 0.0000 -9.4141 0.0000
# 2 -1.6855 81.6865 -7.3699 0.0000 -0.0506 0.0000
# 3 18.4702 -7.3699 164.6337 0.0000 -35.2003 0.0000
# 4 0.0000 0.0000 0.0000 18.8569 0.0000 -3.5270
# 5 -9.4141 -0.0506 -35.2003 0.0000 22.0103 0.0000
# 6 0.0000 0.0000 0.0000 -3.5270 0.0000 19.3743
#
#
#
# Elastic Compliance Matrix: (Units=1/GPa)
#
#
# Indices 1 2 3 4 5 6 
#
# 1 0.033407 0.000606 -0.001011 0.000000 0.012673 0.000000
# 2 0.000606 0.012330 0.000829 0.000000 0.001613 0.000000
# 3 -0.001011 0.000829 0.009319 0.000000 0.014473 0.000000
# 4 0.000000 0.000000 0.000000 0.054900 0.000000 0.009994
# 5 0.012673 0.001613 0.014473 0.000000 0.074004 0.000000
# 6 0.000000 0.000000 0.000000 0.009994 0.000000 0.053434
#
#
# Mechanical properties :
#
#
# Convention : Reuss Voigt Hill
#
# Bulk Modulus (GPa) = 17.88806 33.24944 25.56875
# Shear Modulus (GPa) = 19.59391 30.11499 24.85445
#
# Velocity S-wave (km/s) = 3.37491 4.18401 3.80105
# Velocity P-wave (km/s) = 5.05817 6.53217 5.84185
#
# Compressibility (1/GPa) = 0.05590320
#
# Stress axis : x y z
#
# Youngs Moduli (GPa) = 29.93407 81.10168 107.30587
#
# Poissons Ratio (x) = -0.04914 0.10851
# Poissons Ratio (y) = -0.01814 -0.08894
# Poissons Ratio (z) = 0.03027 -0.06722
#
# Static dielectric constant tensor:
#      x y z
#    x 1.560560 0.000000 -0.059110 
#    y 0.000000 1.644680 0.000000 
#    z -0.059110 0.000000 1.682930 
# 
# From -- ./inp_files/15533.got.cif
#   From: 2010.05.17/outbox.cif.g08.bks.cpg/sg4_8_cif.got.tgz:15533.got - 2010.06.03 18:43:04.
