data_PCOD9114893
_publ_section_title
;
Structure prediction by ZEFSAII (Michael W. Deem and Ramdas Pophale) SiO2 
 PCOD9114893
Probable space group: P 21
;
_chemical_formula_sum "Si O2"
_cell_formula_units_Z 14
_cell_length_a 8.010021
_cell_length_b 7.051849
_cell_length_c 10.369959
_cell_angle_alpha 90.000000
_cell_angle_beta 118.120203
_cell_angle_gamma 90.000000
_cell_volume 516.610163
_symmetry_space_group_name_H-M "P 21"
_symmetry_group_IT_number 4
_symmetry_cell_setting 'monoclinic'
loop_
_space_group_symop_operation_xyz
x,y,z
-x,1/2+y,-z
loop_
_atom_site_type_symbol
_atom_site_label
_atom_site_fract_x
_atom_site_fract_y
_atom_site_fract_z
Si Si1 0.174353 0.326670 0.606912
Si Si2 0.805157 0.714829 0.119015
Si Si3 0.201648 0.743271 0.681533
Si Si4 0.751765 0.130562 0.040413
Si Si5 0.546966 0.073826 0.429135
Si Si6 0.239721 0.610041 0.231039
Si Si7 0.805365 0.661184 0.837946
O O1 0.214344 0.173207 0.733537
O O2 0.989082 0.318496 0.450838
O O3 0.347218 0.383256 0.578940
O O4 0.142914 0.520985 0.673331
O O5 0.035901 0.704300 0.189183
O O6 0.695825 0.915577 0.055995
O O7 0.745304 0.612343 0.963182
O O8 0.268759 0.779796 0.850819
O O9 0.368431 0.736260 0.637171
O O10 0.976685 0.112508 0.097916
O O11 0.675889 0.186933 0.872529
O O12 0.625232 0.115886 0.597402
O O13 0.327595 0.066329 0.317194
O O14 0.203113 0.387061 0.189042
#
# Coordination Sequence:
#
# PCOD9114893 Si02
#       7
#     2   2   2   2   2   2   2
#     4   9  17  33  62  81 113 149 196 231 278 347
#     4   9  17  36  61  82 107 154 195 232 275 352
#     4   9  18  34  61  84 113 151 198 229 284 344
#     4   9  19  34  62  84 112 150 194 235 284 350
#     4  10  21  34  60  84 122 144 189 240 295 328
#     4  10  19  36  59  84 112 153 194 231 283 354
#     4  10  21  35  59  85 121 145 188 246 293 333
#
# _framework density 27.099734999999999
#
# number of rings (size 3 to 8) (size 9 to 14) (size 15 to 20)
#    0.857    1.714    1.429    0.857    0.000    1.143 
#    0.000    0.000   28.286    0.000    0.000    0.000 
#    0.000    0.000    0.000    0.000    0.000    0.000 
#
# Total GULP energy -78155.197586 kJ/mol
# GULP energy per Si atom -5582.514113 kJ/mol
# Density = 2.703805 g / cm^3
# Si number density = 27.099735 Si / 1000 Ang^3
#
#
#
# Elastic Constant Matrix: (Units=GPa)
#
#
# Indices 1 2 3 4 5 6 
#
# 1 72.3871 17.0009 67.8513 0.0000 1.7335 0.0000
# 2 17.0009 52.0165 20.2061 0.0000 -7.2907 0.0000
# 3 67.8513 20.2061 241.0263 0.0000 -31.0691 0.0000
# 4 0.0000 0.0000 0.0000 36.7824 0.0000 -4.4258
# 5 1.7335 -7.2907 -31.0691 0.0000 53.1227 0.0000
# 6 0.0000 0.0000 0.0000 -4.4258 0.0000 23.7738
#
#
#
# Elastic Compliance Matrix: (Units=1/GPa)
#
#
# Indices 1 2 3 4 5 6 
#
# 1 0.020829 -0.005142 -0.006068 0.000000 -0.004935 0.000000
# 2 -0.005142 0.021319 0.000064 0.000000 0.003131 0.000000
# 3 -0.006068 0.000064 0.006358 0.000000 0.003925 0.000000
# 4 0.000000 0.000000 0.000000 0.027810 0.000000 0.005177
# 5 -0.004935 0.003131 0.003925 0.000000 0.021711 0.000000
# 6 0.000000 0.000000 0.000000 0.005177 0.000000 0.043027
#
#
# Mechanical properties :
#
#
# Convention : Reuss Voigt Hill
#
# Bulk Modulus (GPa) = 38.14940 63.94961 51.04950
# Shear Modulus (GPa) = 29.05557 40.09387 34.57472
#
# Velocity S-wave (km/s) = 3.27796 3.85059 3.57575
# Velocity P-wave (km/s) = 5.33241 6.58927 5.99388
#
# Compressibility (1/GPa) = 0.02621273
#
# Stress axis : x y z
#
# Youngs Moduli (GPa) = 48.01079 46.90596 157.28480
#
# Poissons Ratio (x) = 0.24118 0.95448
# Poissons Ratio (y) = 0.24686 -0.01004
# Poissons Ratio (z) = 0.29135 -0.00299
#
# Static dielectric constant tensor:
#      x y z
#    x 2.102600 0.000000 -0.124360 
#    y 0.000000 2.234550 0.000000 
#    z -0.124360 0.000000 2.158530 
# 
# From -- ./inp_files/11071.got.cif
#   From: 2010.05.17/outbox.cif.g08.bks.cpg/sg4_6_cif.got.tgz:11071.got - 2010.06.03 18:43:04.
