data_PCOD9114640
_publ_section_title
;
Structure prediction by ZEFSAII (Michael W. Deem and Ramdas Pophale) SiO2 
 PCOD9114640
Probable space group: P 21
;
_chemical_formula_sum "Si O2"
_cell_formula_units_Z 16
_cell_length_a 10.151692
_cell_length_b 15.031861
_cell_length_c 5.109929
_cell_angle_alpha 90.000000
_cell_angle_beta 91.529838
_cell_angle_gamma 90.000000
_cell_volume 779.491208
_symmetry_space_group_name_H-M "P 21"
_symmetry_group_IT_number 4
_symmetry_cell_setting 'monoclinic'
loop_
_space_group_symop_operation_xyz
x,y,z
-x,1/2+y,-z
loop_
_atom_site_type_symbol
_atom_site_label
_atom_site_fract_x
_atom_site_fract_y
_atom_site_fract_z
Si Si1 0.724364 0.399350 0.946983
Si Si2 0.115054 0.714406 0.023463
Si Si3 0.571651 0.867687 0.886482
Si Si4 0.893995 0.954543 0.377459
Si Si5 0.689983 0.795060 0.391269
Si Si6 0.838549 0.475199 0.456691
Si Si7 0.068041 0.175514 0.485756
Si Si8 0.781592 0.029288 0.875430
O O1 0.575847 0.385962 0.032827
O O2 0.732306 0.442232 0.660089
O O3 0.806299 0.307114 0.962787
O O4 0.790754 0.465381 0.160736
O O5 0.221093 0.632593 0.042718
O O6 0.020458 0.704966 0.765565
O O7 0.016157 0.701271 0.262611
O O8 0.630628 0.797139 0.098664
O O9 0.657718 0.960715 0.893617
O O10 0.583763 0.822664 0.603329
O O11 0.791030 0.876220 0.388675
O O12 0.032041 0.916468 0.481073
O O13 0.890551 0.989220 0.081383
O O14 0.834629 0.024258 0.582830
O O15 0.785087 0.716349 0.484558
O O16 0.899463 0.570907 0.524161
#
# Coordination Sequence:
#
# PCOD9114640 Si02
#       8
#     2   2   2   2   2   2   2   2
#     4  12  26  41  64  93 132 176 211 261 316 381
#     4  12  22  41  64  97 127 163 214 270 321 382
#     4  10  23  43  62  87 126 168 221 238 311 385
#     4  10  18  35  62  89 118 156 198 253 323 363
#     4  10  21  39  65  88 117 165 206 264 302 374
#     4  12  23  41  62  94 136 159 201 274 328 380
#     4  12  24  41  65 101 127 154 217 267 333 383
#     4  10  19  37  62  87 121 161 204 257 300 376
#
# _framework density 20.526209999999999
#
# number of rings (size 3 to 8) (size 9 to 14) (size 15 to 20)
#    0.000    1.000    2.500    5.250    0.000    2.000 
#    4.500    0.000    0.000    0.000    0.000    0.000 
#    0.000    0.000    0.000    0.000    0.000    0.000 
#
# Total GULP energy -89292.191911 kJ/mol
# GULP energy per Si atom -5580.761994 kJ/mol
# Density = 2.047949 g / cm^3
# Si number density = 20.526210 Si / 1000 Ang^3
#
#
#
# Elastic Constant Matrix: (Units=GPa)
#
#
# Indices 1 2 3 4 5 6 
#
# 1 88.5590 18.6525 1.7269 0.0000 -19.4831 0.0000
# 2 18.6525 71.1002 14.4976 0.0000 -3.7451 0.0000
# 3 1.7269 14.4976 80.2680 0.0000 -14.2781 0.0000
# 4 0.0000 0.0000 0.0000 18.6326 0.0000 2.4208
# 5 -19.4831 -3.7451 -14.2781 0.0000 29.7713 0.0000
# 6 0.0000 0.0000 0.0000 2.4208 0.0000 20.2290
#
#
#
# Elastic Compliance Matrix: (Units=1/GPa)
#
#
# Indices 1 2 3 4 5 6 
#
# 1 0.014178 -0.003630 0.002099 0.000000 0.009828 0.000000
# 2 -0.003630 0.015542 -0.003065 0.000000 -0.001890 0.000000
# 3 0.002099 -0.003065 0.014368 0.000000 0.007879 0.000000
# 4 0.000000 0.000000 0.000000 0.054517 0.000000 -0.006524
# 5 0.009828 -0.001890 0.007879 0.000000 0.043562 0.000000
# 6 0.000000 0.000000 0.000000 -0.006524 0.000000 0.050215
#
#
# Mechanical properties :
#
#
# Convention : Reuss Voigt Hill
#
# Bulk Modulus (GPa) = 28.65665 34.40902 31.53283
# Shear Modulus (GPa) = 23.45144 27.39658 25.42401
#
# Velocity S-wave (km/s) = 3.38377 3.65733 3.52321
# Velocity P-wave (km/s) = 5.40905 5.88512 5.65210
#
# Compressibility (1/GPa) = 0.03489592
#
# Stress axis : x y z
#
# Youngs Moduli (GPa) = 70.53331 64.34039 69.59792
#
# Poissons Ratio (x) = 0.23353 -0.14607
# Poissons Ratio (y) = 0.25601 0.21334
# Poissons Ratio (z) = -0.14804 0.19722
#
# Static dielectric constant tensor:
#      x y z
#    x 1.833750 0.000000 0.065770 
#    y 0.000000 1.866940 0.000000 
#    z 0.065770 0.000000 1.793480 
# 
# From -- ./inp_files/1791.got.cif
#   From: 2010.05.17/outbox.cif.g08.bks.cpg/sg4_1_cif.got.tgz:1791.got - 2010.06.03 18:43:04.
