data_PCOD9114320
_publ_section_title
;
Structure prediction by ZEFSAII (Michael W. Deem and Ramdas Pophale) SiO2 
 PCOD9114320
Probable space group: P 2
;
_chemical_formula_sum "Si O2"
_cell_formula_units_Z 13
_cell_length_a 9.526392
_cell_length_b 5.345615
_cell_length_c 13.615635
_cell_angle_alpha 90.000000
_cell_angle_beta 130.248783
_cell_angle_gamma 90.000000
_cell_volume 529.210769
_symmetry_space_group_name_H-M "P 2"
_symmetry_group_IT_number 3
_symmetry_cell_setting 'monoclinic'
loop_
_space_group_symop_operation_xyz
x,y,z
-x,y,-z
loop_
_atom_site_type_symbol
_atom_site_label
_atom_site_fract_x
_atom_site_fract_y
_atom_site_fract_z
Si Si1 0.306311 0.937710 0.090369
Si Si2 0.185790 0.523423 0.712222
Si Si3 0.621627 0.212921 0.347197
Si Si4 0.500000 0.647058 0.000000
Si Si5 0.891042 0.391206 0.707003
Si Si6 0.500000 0.372835 0.500000
Si Si7 0.000000 0.914973 0.500000
Si Si8 0.923433 0.885568 0.830707
O O1 0.224976 0.809313 0.152519
O O2 0.460775 0.123073 0.201475
O O3 0.405833 0.798122 0.046309
O O4 0.110647 0.017310 0.956478
O O5 0.300899 0.466842 0.666026
O O6 0.334889 0.515200 0.866821
O O7 0.060284 0.756266 0.623734
O O8 0.026778 0.338130 0.677649
O O9 0.538824 0.228142 0.417096
O O10 0.807244 0.052302 0.432414
O O11 0.692366 0.515003 0.596773
O O12 0.980685 0.619992 0.809126
O O13 0.850851 0.119569 0.734845
#
# Coordination Sequence:
#
# PCOD9114320 Si02
#       8
#     2   2   2   1   2   1   1   2
#     4  11  26  49  80 114 160 203 274 333 410 481
#     4  12  29  48  80 118 160 214 268 344 406 497
#     4  12  28  50  79 114 159 212 278 340 405 490
#     4  12  26  48  82 120 154 214 266 340 412 494
#     4  12  28  50  81 115 159 213 268 325 414 475
#     4  12  28  50  80 114 156 222 274 336 408 494
#     4  12  26  52  78 108 170 202 276 336 416 470
#     4  11  28  51  78 116 160 210 262 343 395 486
#
# _framework density 24.564881
#
# number of rings (size 3 to 8) (size 9 to 14) (size 15 to 20)
#    0.000    0.308    4.615    2.308   10.769    4.308 
#    0.000    0.000    0.000    0.000    0.000    0.000 
#    0.000    0.000    0.000    0.000    0.000    0.000 
#
# Total GULP energy -72445.391396 kJ/mol
# GULP energy per Si atom -5572.722415 kJ/mol
# Density = 2.450897 g / cm^3
# Si number density = 24.564881 Si / 1000 Ang^3
#
#
#
# Elastic Constant Matrix: (Units=GPa)
#
#
# Indices 1 2 3 4 5 6 
#
# 1 199.8573 24.4361 35.1645 0.0000 11.8913 0.0000
# 2 24.4361 61.4608 18.4206 0.0000 -10.2821 0.0000
# 3 35.1645 18.4206 100.6597 0.0000 11.2413 0.0000
# 4 0.0000 0.0000 0.0000 72.7605 0.0000 8.6332
# 5 11.8913 -10.2821 11.2413 0.0000 47.1730 0.0000
# 6 0.0000 0.0000 0.0000 8.6332 0.0000 17.7014
#
#
#
# Elastic Compliance Matrix: (Units=1/GPa)
#
#
# Indices 1 2 3 4 5 6 
#
# 1 0.005593 -0.002057 -0.001408 0.000000 -0.001523 0.000000
# 2 -0.002057 0.019013 -0.003371 0.000000 0.005466 0.000000
# 3 -0.001408 -0.003371 0.011389 0.000000 -0.003094 0.000000
# 4 0.000000 0.000000 0.000000 0.014588 0.000000 -0.007115
# 5 -0.001523 0.005466 -0.003094 0.000000 0.023511 0.000000
# 6 0.000000 0.000000 0.000000 -0.007115 0.000000 0.059963
#
#
# Mechanical properties :
#
#
# Convention : Reuss Voigt Hill
#
# Bulk Modulus (GPa) = 44.79497 57.55779 51.17638
# Shear Modulus (GPa) = 32.22291 46.45743 39.34017
#
# Velocity S-wave (km/s) = 3.62573 4.35353 4.00619
# Velocity P-wave (km/s) = 5.98355 6.98231 6.50214
#
# Compressibility (1/GPa) = 0.02232393
#
# Stress axis : x y z
#
# Youngs Moduli (GPa) = 178.78527 52.59527 87.80694
#
# Poissons Ratio (x) = 0.10817 0.12359
# Poissons Ratio (y) = 0.36771 0.29602
# Poissons Ratio (z) = 0.25164 0.17731
#
# Static dielectric constant tensor:
#      x y z
#    x 1.976000 0.000000 -0.027710 
#    y 0.000000 1.974630 0.000000 
#    z -0.027710 0.000000 1.734630 
# 
# From -- ./inp_files/13334.got.cif
#   From: 2010.05.17/outbox.cif.g08.bks.cpg/sg3_7_cif.got.tgz:13334.got - 2010.06.03 18:33:08.
