data_PCOD9114803
_publ_section_title
;
Structure prediction by ZEFSAII (Michael W. Deem and Ramdas Pophale) SiO2 
 PCOD9114803
Probable space group: P 21
;
_chemical_formula_sum "Si O2"
_cell_formula_units_Z 16
_cell_length_a 20.051059
_cell_length_b 5.327779
_cell_length_c 9.719884
_cell_angle_alpha 90.000000
_cell_angle_beta 136.788114
_cell_angle_gamma 90.000000
_cell_volume 710.957857
_symmetry_space_group_name_H-M "P 21"
_symmetry_group_IT_number 4
_symmetry_cell_setting 'monoclinic'
loop_
_space_group_symop_operation_xyz
x,y,z
-x,1/2+y,-z
loop_
_atom_site_type_symbol
_atom_site_label
_atom_site_fract_x
_atom_site_fract_y
_atom_site_fract_z
Si Si1 0.312045 0.594950 0.607568
Si Si2 0.137744 0.094474 0.764988
Si Si3 0.397508 0.594338 0.206473
Si Si4 0.600210 0.594946 0.353560
Si Si5 0.954041 0.594809 0.104469
Si Si6 0.202628 0.594447 0.729076
Si Si7 0.332997 0.094363 0.247063
Si Si8 0.872803 0.094809 0.845612
O O1 0.376290 0.344773 0.696174
O O2 0.242927 0.594738 0.635915
O O3 0.238335 0.594888 0.367368
O O4 0.376203 0.845276 0.696148
O O5 0.146425 0.342061 0.686334
O O6 0.146374 0.846650 0.686454
O O7 0.047529 0.094736 0.733684
O O8 0.230929 0.094497 0.010910
O O9 0.492230 0.594771 0.253395
O O10 0.390031 0.343461 0.285692
O O11 0.389850 0.844795 0.285753
O O12 0.300960 0.594375 0.968419
O O13 0.670203 0.594840 0.593449
O O14 0.900607 0.342832 0.972050
O O15 0.900595 0.846785 0.972046
O O16 0.057956 0.594810 0.185115
#
# Coordination Sequence:
#
# PCOD9114803 Si02
#       8
#     2   2   2   2   2   2   2   2
#     4  12  24  38  54  80 114 148 185 222 270 321
#     4  10  19  36  58  79 105 145 186 222 272 324
#     4  10  21  37  55  79 110 144 184 230 272 317
#     4  12  23  35  58  81 108 148 184 227 278 327
#     4  10  20  37  63  88 110 139 177 220 279 335
#     4  10  23  38  54  77 112 150 187 228 260 312
#     4  10  19  34  56  82 109 133 178 238 281 318
#     4  10  21  37  58  88 118 137 169 229 278 324
#
# _framework density 22.504849
#
# number of rings (size 3 to 8) (size 9 to 14) (size 15 to 20)
#    0.000    1.500    0.000    6.000    0.000    3.000 
#    0.000    1.250    0.000    0.000    0.000    0.000 
#    0.000    0.000    0.000    0.000    0.000    0.000 
#
# Total GULP energy -89588.229106 kJ/mol
# GULP energy per Si atom -5599.264319 kJ/mol
# Density = 2.245363 g / cm^3
# Si number density = 22.504849 Si / 1000 Ang^3
#
#
#
# Elastic Constant Matrix: (Units=GPa)
#
#
# Indices 1 2 3 4 5 6 
#
# 1 137.9797 93.7501 8.4469 0.0000 -32.1392 0.0000
# 2 93.7501 239.2515 23.1952 0.0000 -20.7544 0.0000
# 3 8.4469 23.1952 34.5677 0.0000 -1.3524 0.0000
# 4 0.0000 0.0000 0.0000 16.6606 0.0000 -3.8583
# 5 -32.1392 -20.7544 -1.3524 0.0000 38.7053 0.0000
# 6 0.0000 0.0000 0.0000 -3.8583 0.0000 24.9276
#
#
#
# Elastic Compliance Matrix: (Units=1/GPa)
#
#
# Indices 1 2 3 4 5 6 
#
# 1 0.011679 -0.003925 0.000077 0.000000 0.007596 0.000000
# 2 -0.003925 0.006003 -0.003075 0.000000 -0.000148 0.000000
# 3 0.000077 -0.003075 0.030953 0.000000 -0.000503 0.000000
# 4 0.000000 0.000000 0.000000 0.062253 0.000000 0.009636
# 5 0.007596 -0.000148 -0.000503 0.000000 0.032047 0.000000
# 6 0.000000 0.000000 0.000000 0.009636 0.000000 0.041608
#
#
# Mechanical properties :
#
#
# Convention : Reuss Voigt Hill
#
# Bulk Modulus (GPa) = 28.74401 73.62037 51.18219
# Shear Modulus (GPa) = 23.81130 35.15247 29.48189
#
# Velocity S-wave (km/s) = 3.25630 3.95650 3.62335
# Velocity P-wave (km/s) = 5.19019 7.32502 6.34799
#
# Compressibility (1/GPa) = 0.03478986
#
# Stress axis : x y z
#
# Youngs Moduli (GPa) = 85.62624 166.58559 32.30663
#
# Poissons Ratio (x) = 0.65382 -0.00249
# Poissons Ratio (y) = 0.33607 0.09933
# Poissons Ratio (z) = -0.00659 0.51220
#
# Static dielectric constant tensor:
#      x y z
#    x 1.803910 0.000000 0.019090 
#    y 0.000000 1.782610 0.000000 
#    z 0.019090 0.000000 1.831470 
# 
# From -- ./inp_files/9422.got.cif
#   From: 2010.05.17/outbox.cif.g08.bks.cpg/sg4_5_cif.got.tgz:9422.got - 2010.06.03 18:43:04.
