data_PCOD9114849
_publ_section_title
;
Structure prediction by ZEFSAII (Michael W. Deem and Ramdas Pophale) SiO2 
 PCOD9114849
Probable space group: P 21
;
_chemical_formula_sum "Si O2"
_cell_formula_units_Z 16
_cell_length_a 13.365989
_cell_length_b 6.677407
_cell_length_c 21.112244
_cell_angle_alpha 90.000000
_cell_angle_beta 159.297696
_cell_angle_gamma 90.000000
_cell_volume 666.113245
_symmetry_space_group_name_H-M "P 21"
_symmetry_group_IT_number 4
_symmetry_cell_setting 'monoclinic'
loop_
_space_group_symop_operation_xyz
x,y,z
-x,1/2+y,-z
loop_
_atom_site_type_symbol
_atom_site_label
_atom_site_fract_x
_atom_site_fract_y
_atom_site_fract_z
Si Si1 0.765102 0.967910 0.995837
Si Si2 0.653332 0.774364 0.533100
Si Si3 0.760729 0.037436 0.788435
Si Si4 0.363807 0.810935 0.166357
Si Si5 0.414217 0.577217 0.793652
Si Si6 0.473192 0.200383 0.924056
Si Si7 0.348413 0.154486 0.326027
Si Si8 0.157040 0.816034 0.742239
O O1 0.668086 0.740849 0.939474
O O2 0.577363 0.113839 0.841251
O O3 0.714504 0.060418 0.034819
O O4 0.071965 0.018928 0.149576
O O5 0.372468 0.644635 0.352102
O O6 0.720252 0.750330 0.646261
O O7 0.896479 0.726038 0.626993
O O8 0.599369 0.004670 0.485412
O O9 0.593519 0.825027 0.690734
O O10 0.695016 0.204429 0.802019
O O11 0.075337 0.938518 0.978787
O O12 0.599880 0.969982 0.283255
O O13 0.460181 0.398468 0.872248
O O14 0.173530 0.712036 0.683551
O O15 0.198234 0.056208 0.760719
O O16 0.574199 0.257090 0.053906
#
# Coordination Sequence:
#
# PCOD9114849 Si02
#       8
#     2   2   2   2   2   2   2   2
#     4   9  20  38  63  96 133 175 228 286 344 410
#     4  12  25  42  66 105 147 184 225 283 372 432
#     4  11  26  44  69 106 135 188 232 288 354 423
#     4  10  24  42  71  98 132 177 244 287 339 415
#     4  10  21  39  66  96 131 179 235 300 336 391
#     4  10  19  35  60  97 129 177 235 282 345 411
#     4  11  23  41  64 103 149 185 217 283 367 435
#     4  11  22  37  63  97 136 185 236 285 349 427
#
# _framework density 24.019940999999999
#
# number of rings (size 3 to 8) (size 9 to 14) (size 15 to 20)
#    0.000    1.500    3.750    0.750    5.250    2.000 
#    0.000    0.000    8.250    0.000    0.000    0.000 
#    0.000    0.000    0.000    0.000    0.000    0.000 
#
# Total GULP energy -89069.113865 kJ/mol
# GULP energy per Si atom -5566.819617 kJ/mol
# Density = 2.396527 g / cm^3
# Si number density = 24.019941 Si / 1000 Ang^3
#
#
#
# Elastic Constant Matrix: (Units=GPa)
#
#
# Indices 1 2 3 4 5 6 
#
# 1 85.1396 58.9582 12.9206 0.0000 4.1059 0.0000
# 2 58.9582 138.9323 23.4772 0.0000 0.0422 0.0000
# 3 12.9206 23.4772 28.1744 0.0000 0.7822 0.0000
# 4 0.0000 0.0000 0.0000 25.4064 0.0000 -3.9386
# 5 4.1059 0.0422 0.7822 0.0000 9.1364 0.0000
# 6 0.0000 0.0000 0.0000 -3.9386 0.0000 63.5626
#
#
#
# Elastic Compliance Matrix: (Units=1/GPa)
#
#
# Indices 1 2 3 4 5 6 
#
# 1 0.017239 -0.006998 -0.001864 0.000000 -0.007555 0.000000
# 2 -0.006998 0.011221 -0.006242 0.000000 0.003628 0.000000
# 3 -0.001864 -0.006242 0.041624 0.000000 -0.002697 0.000000
# 4 0.000000 0.000000 0.000000 0.039742 0.000000 0.002463
# 5 -0.007555 0.003628 -0.002697 0.000000 0.113062 0.000000
# 6 0.000000 0.000000 0.000000 0.002463 0.000000 0.015885
#
#
# Mechanical properties :
#
#
# Convention : Reuss Voigt Hill
#
# Bulk Modulus (GPa) = 25.07803 49.21757 37.14780
# Shear Modulus (GPa) = 17.71328 30.08044 23.89686
#
# Velocity S-wave (km/s) = 2.71853 3.54264 3.15759
# Velocity P-wave (km/s) = 4.50744 6.10479 5.36589
#
# Compressibility (1/GPa) = 0.03987554
#
# Stress axis : x y z
#
# Youngs Moduli (GPa) = 58.00829 89.11670 24.02444
#
# Poissons Ratio (x) = 0.62366 0.04479
# Poissons Ratio (y) = 0.40596 0.14996
# Poissons Ratio (z) = 0.10815 0.55625
#
# Static dielectric constant tensor:
#      x y z
#    x 1.977220 0.000000 0.005210 
#    y 0.000000 1.958000 0.000000 
#    z 0.005210 0.000000 1.969700 
# 
# From -- ./inp_files/16145.got.cif
#   From: 2010.05.17/outbox.cif.g08.bks.cpg/sg4_9_cif.got.tgz:16145.got - 2010.06.03 18:43:04.
