data_PCOD9114383
_publ_section_title
;
Structure prediction by ZEFSAII (Michael W. Deem and Ramdas Pophale) SiO2 
 PCOD9114383
Probable space group: P 2
;
_chemical_formula_sum "Si O2"
_cell_formula_units_Z 7
_cell_length_a 11.391423
_cell_length_b 4.985803
_cell_length_c 5.520437
_cell_angle_alpha 90.000000
_cell_angle_beta 123.565332
_cell_angle_gamma 90.000000
_cell_volume 261.255213
_symmetry_space_group_name_H-M "P 2"
_symmetry_group_IT_number 3
_symmetry_cell_setting 'monoclinic'
loop_
_space_group_symop_operation_xyz
x,y,z
-x,y,-z
loop_
_atom_site_type_symbol
_atom_site_label
_atom_site_fract_x
_atom_site_fract_y
_atom_site_fract_z
Si Si1 0.000000 0.694150 0.000000
Si Si2 0.859215 0.096277 0.227780
Si Si3 0.627512 0.942629 0.325206
Si Si4 0.283385 0.451252 0.309625
O O1 0.874489 0.501439 0.767914
O O2 0.079467 0.886443 0.899556
O O3 0.769161 0.940297 0.325155
O O4 0.000000 0.220595 0.500000
O O5 0.754318 0.313756 0.988548
O O6 0.643067 0.734192 0.562620
O O7 0.626817 0.237927 0.437355
O O8 0.500000 0.885936 0.000000
#
# Coordination Sequence:
#
# PCOD9114383 Si02
#       4
#     1   2   2   2
#     4  12  24  48  76 120 154 196 268 320 386 462
#     4  12  25  50  82 115 158 204 255 331 393 451
#     4  12  29  53  77 113 159 208 258 319 393 462
#     4  12  26  51  73 119 153 198 269 312 382 477
#
# _framework density 26.793725999999999
#
# number of rings (size 3 to 8) (size 9 to 14) (size 15 to 20)
#    0.000    0.000    5.714    3.429    4.000    2.286 
#   10.286    0.000    0.000    0.000    0.000    0.000 
#    0.000    0.000    0.000    0.000    0.000    0.000 
#
# Total GULP energy -39237.427880 kJ/mol
# GULP energy per Si atom -5605.346840 kJ/mol
# Density = 2.673274 g / cm^3
# Si number density = 26.793726 Si / 1000 Ang^3
#
#
#
# Elastic Constant Matrix: (Units=GPa)
#
#
# Indices 1 2 3 4 5 6 
#
# 1 120.8123 0.0880 8.2876 0.0000 -0.7018 0.0000
# 2 0.0880 114.1421 15.5246 0.0000 -1.8026 0.0000
# 3 8.2876 15.5246 135.9933 0.0000 39.0226 0.0000
# 4 0.0000 0.0000 0.0000 51.3901 0.0000 2.3922
# 5 -0.7018 -1.8026 39.0226 0.0000 58.2081 0.0000
# 6 0.0000 0.0000 0.0000 2.3922 0.0000 4.9887
#
#
#
# Elastic Compliance Matrix: (Units=1/GPa)
#
#
# Indices 1 2 3 4 5 6 
#
# 1 0.008327 0.000095 -0.000678 0.000000 0.000558 0.000000
# 2 0.000095 0.008967 -0.001374 0.000000 0.001200 0.000000
# 3 -0.000678 -0.001374 0.009368 0.000000 -0.006331 0.000000
# 4 0.000000 0.000000 0.000000 0.019903 0.000000 -0.009544
# 5 0.000558 0.001200 -0.006331 0.000000 0.021468 0.000000
# 6 0.000000 0.000000 0.000000 -0.009544 0.000000 0.205031
#
#
# Mechanical properties :
#
#
# Convention : Reuss Voigt Hill
#
# Bulk Modulus (GPa) = 43.96165 46.52755 45.24460
# Shear Modulus (GPa) = 17.57089 46.05390 31.81239
#
# Velocity S-wave (km/s) = 2.56361 4.15038 3.44947
# Velocity P-wave (km/s) = 5.02054 6.35376 5.72609
#
# Compressibility (1/GPa) = 0.02274710
#
# Stress axis : x y z
#
# Youngs Moduli (GPa) = 120.09109 111.52363 106.74485
#
# Poissons Ratio (x) = -0.01056 0.07242
# Poissons Ratio (y) = -0.01137 0.14663
# Poissons Ratio (z) = 0.08147 0.15319
#
# Static dielectric constant tensor:
#      x y z
#    x 2.057390 0.000000 -0.007720 
#    y 0.000000 2.068300 0.000000 
#    z -0.007720 0.000000 2.108960 
# 
# From -- ./inp_files/1881.got.cif
#   From: 2010.05.17/outbox.cif.g08.bks.cpg/sg3_1_cif.got.tgz:1881.got - 2010.06.03 18:33:08.
