data_PCOD9114709
_publ_section_title
;
Structure prediction by ZEFSAII (Michael W. Deem and Ramdas Pophale) SiO2 
 PCOD9114709
Probable space group: P 21
;
_chemical_formula_sum "Si O2"
_cell_formula_units_Z 14
_cell_length_a 6.348170
_cell_length_b 9.567056
_cell_length_c 8.919692
_cell_angle_alpha 90.000000
_cell_angle_beta 91.505760
_cell_angle_gamma 90.000000
_cell_volume 541.535248
_symmetry_space_group_name_H-M "P 21"
_symmetry_group_IT_number 4
_symmetry_cell_setting 'monoclinic'
loop_
_space_group_symop_operation_xyz
x,y,z
-x,1/2+y,-z
loop_
_atom_site_type_symbol
_atom_site_label
_atom_site_fract_x
_atom_site_fract_y
_atom_site_fract_z
Si Si1 0.731998 0.236580 0.382639
Si Si2 0.370090 0.598760 0.923688
Si Si3 0.640947 0.762436 0.428055
Si Si4 0.983174 0.876311 0.994198
Si Si5 0.248816 0.126779 0.877839
Si Si6 0.710754 0.421044 0.759427
Si Si7 0.003320 0.483573 0.505001
O O1 0.727508 0.203500 0.203240
O O2 0.492707 0.201713 0.435251
O O3 0.825492 0.392729 0.410858
O O4 0.881054 0.135100 0.488061
O O5 0.562218 0.525854 0.841714
O O6 0.194977 0.483471 0.952301
O O7 0.501537 0.630166 0.077709
O O8 0.758548 0.678106 0.296632
O O9 0.446235 0.833356 0.341795
O O10 0.800195 0.877868 0.491586
O O11 0.118185 0.982350 0.891166
O O12 0.850658 0.731676 0.996735
O O13 0.159220 0.833646 0.118198
O O14 0.887524 0.491657 0.662516
#
# Coordination Sequence:
#
# PCOD9114709 Si02
#       7
#     2   2   2   2   2   2   2
#     4  11  25  43  75 102 136 190 233 289 349 415
#     4  11  23  43  74  99 140 182 235 280 353 419
#     4  11  23  43  74  99 140 182 235 280 353 419
#     4  11  23  43  74  99 140 182 235 280 353 419
#     4  11  25  43  75 102 136 190 233 289 349 415
#     4  10  18  40  74  90 126 190 228 264 340 432
#     4  11  23  43  74  99 140 182 235 280 353 419
#
# _framework density 25.852423999999999
#
# number of rings (size 3 to 8) (size 9 to 14) (size 15 to 20)
#    0.000    1.143    5.714    0.000    4.000    0.000 
#    0.000    8.571    0.000    0.000    0.000    0.000 
#    0.000    0.000    0.000    0.000    0.000    0.000 
#
# Total GULP energy -77981.059610 kJ/mol
# GULP energy per Si atom -5570.075686 kJ/mol
# Density = 2.579358 g / cm^3
# Si number density = 25.852424 Si / 1000 Ang^3
#
#
#
# Elastic Constant Matrix: (Units=GPa)
#
#
# Indices 1 2 3 4 5 6 
#
# 1 84.6455 31.6218 22.6915 0.0000 -28.2550 0.0000
# 2 31.6218 111.6574 23.0921 0.0000 -16.0398 0.0000
# 3 22.6915 23.0921 49.5348 0.0000 -14.5016 0.0000
# 4 0.0000 0.0000 0.0000 34.7557 0.0000 -0.9893
# 5 -28.2550 -16.0398 -14.5016 0.0000 37.9507 0.0000
# 6 0.0000 0.0000 0.0000 -0.9893 0.0000 60.9708
#
#
#
# Elastic Compliance Matrix: (Units=1/GPa)
#
#
# Indices 1 2 3 4 5 6 
#
# 1 0.017219 -0.002643 -0.003637 0.000000 0.010313 0.000000
# 2 -0.002643 0.010575 -0.003363 0.000000 0.001217 0.000000
# 3 -0.003637 -0.003363 0.025010 0.000000 0.005428 0.000000
# 4 0.000000 0.000000 0.000000 0.028786 0.000000 0.000467
# 5 0.010313 0.001217 0.005428 0.000000 0.036617 0.000000
# 6 0.000000 0.000000 0.000000 0.000467 0.000000 0.016409
#
#
# Mechanical properties :
#
#
# Convention : Reuss Voigt Hill
#
# Bulk Modulus (GPa) = 29.83333 44.51649 37.17491
# Shear Modulus (GPa) = 30.28971 37.96425 34.12698
#
# Velocity S-wave (km/s) = 3.42663 3.83626 3.63722
# Velocity P-wave (km/s) = 5.21734 6.07284 5.66127
#
# Compressibility (1/GPa) = 0.03351956
#
# Stress axis : x y z
#
# Youngs Moduli (GPa) = 58.07641 94.56546 39.98321
#
# Poissons Ratio (x) = 0.24992 0.14540
# Poissons Ratio (y) = 0.15349 0.13446
# Poissons Ratio (z) = 0.21120 0.31801
#
# Static dielectric constant tensor:
#      x y z
#    x 1.982270 0.000000 0.051930 
#    y 0.000000 2.073990 0.000000 
#    z 0.051930 0.000000 2.340760 
# 
# From -- ./inp_files/2474.got.cif
#   From: 2010.05.17/outbox.cif.g08.bks.cpg/sg4_2_cif.got.tgz:2474.got - 2010.06.03 18:43:04.
