data_PCOD9114556
_publ_section_title
;
Structure prediction by ZEFSAII (Michael W. Deem and Ramdas Pophale) SiO2 
 PCOD9114556
Probable space group: P 21
;
_chemical_formula_sum "Si O2"
_cell_formula_units_Z 16
_cell_length_a 15.231562
_cell_length_b 5.500005
_cell_length_c 12.021514
_cell_angle_alpha 90.000000
_cell_angle_beta 64.319472
_cell_angle_gamma 90.000000
_cell_volume 907.610706
_symmetry_space_group_name_H-M "P 21"
_symmetry_group_IT_number 4
_symmetry_cell_setting 'monoclinic'
loop_
_space_group_symop_operation_xyz
x,y,z
-x,1/2+y,-z
loop_
_atom_site_type_symbol
_atom_site_label
_atom_site_fract_x
_atom_site_fract_y
_atom_site_fract_z
Si Si1 0.862856 0.431640 0.558841
Si Si2 0.872034 0.379042 0.043181
Si Si3 0.512196 0.690901 0.423195
Si Si4 0.987462 0.656446 0.664244
Si Si5 0.936578 0.883554 0.906422
Si Si6 0.693377 0.210801 0.535136
Si Si7 0.845271 0.822304 0.374957
Si Si8 0.723601 0.521033 0.291211
O O1 0.894771 0.531488 0.659581
O O2 0.754511 0.328943 0.601541
O O3 0.871031 0.632810 0.457240
O O4 0.942714 0.234091 0.476270
O O5 0.771324 0.369870 0.166778
O O6 0.961822 0.378636 0.081524
O O7 0.881210 0.633760 0.971305
O O8 0.884341 0.134678 0.965311
O O9 0.490151 0.454912 0.514642
O O10 0.421717 0.687186 0.387656
O O11 0.620863 0.643779 0.319781
O O12 0.957581 0.868424 0.763592
O O13 0.059969 0.485736 0.694992
O O14 0.707556 0.369519 0.414170
O O15 0.751977 0.967317 0.473691
O O16 0.807478 0.709741 0.281528
#
# Coordination Sequence:
#
# PCOD9114556 Si02
#       8
#     2   2   2   2   2   2   2   2
#     4  10  20  32  51  74 110 142 187 222 273 335
#     4  10  22  36  50  77 102 153 184 226 263 316
#     4  10  19  33  52  80 111 147 178 219 276 336
#     4  11  21  33  51  78 105 153 184 225 274 320
#     4  10  23  35  53  70 111 144 192 222 264 316
#     4   9  19  32  49  78 110 145 176 223 277 329
#     4  10  18  31  51  74 106 145 179 223 264 337
#     4  10  20  32  55  75 111 145 184 218 279 327
#
# _framework density 17.628703000000002
#
# number of rings (size 3 to 8) (size 9 to 14) (size 15 to 20)
#    0.000    2.000    2.500    2.250    8.750    0.000 
#    0.000    0.000    0.000    0.000    0.000    0.000 
#    3.750    0.000    0.000    0.000    0.000    0.000 
#
# Total GULP energy -89207.188531 kJ/mol
# GULP energy per Si atom -5575.449283 kJ/mol
# Density = 1.758858 g / cm^3
# Si number density = 17.628703 Si / 1000 Ang^3
#
#
#
# Elastic Constant Matrix: (Units=GPa)
#
#
# Indices 1 2 3 4 5 6 
#
# 1 108.2248 28.4518 29.7295 0.0000 -5.8338 0.0000
# 2 28.4518 73.4093 16.6455 0.0000 -3.2093 0.0000
# 3 29.7295 16.6455 48.7387 0.0000 -5.6210 0.0000
# 4 0.0000 0.0000 0.0000 22.2233 0.0000 -0.9686
# 5 -5.8338 -3.2093 -5.6210 0.0000 12.4423 0.0000
# 6 0.0000 0.0000 0.0000 -0.9686 0.0000 24.4048
#
#
#
# Elastic Compliance Matrix: (Units=1/GPa)
#
#
# Indices 1 2 3 4 5 6 
#
# 1 0.011794 -0.003147 -0.005882 0.000000 0.002061 0.000000
# 2 -0.003147 0.015636 -0.003297 0.000000 0.001068 0.000000
# 3 -0.005882 -0.003297 0.026179 0.000000 0.008219 0.000000
# 4 0.000000 0.000000 0.000000 0.045076 0.000000 0.001789
# 5 0.002061 0.001068 0.008219 0.000000 0.085326 0.000000
# 6 0.000000 0.000000 0.000000 0.001789 0.000000 0.041047
#
#
# Mechanical properties :
#
#
# Convention : Reuss Voigt Hill
#
# Bulk Modulus (GPa) = 34.53358 42.22517 38.37938
# Shear Modulus (GPa) = 19.27799 22.18380 20.73090
#
# Velocity S-wave (km/s) = 3.31048 3.55123 3.43297
# Velocity P-wave (km/s) = 5.85187 6.38901 6.12633
#
# Compressibility (1/GPa) = 0.02895732
#
# Stress axis : x y z
#
# Youngs Moduli (GPa) = 84.78710 63.95314 38.19832
#
# Poissons Ratio (x) = 0.20129 0.22467
# Poissons Ratio (y) = 0.26686 0.12595
# Poissons Ratio (z) = 0.49868 0.21087
#
# Static dielectric constant tensor:
#      x y z
#    x 1.607210 0.000000 -0.003660 
#    y 0.000000 1.710170 0.000000 
#    z -0.003660 0.000000 1.583110 
# 
# From -- ./inp_files/11716.got.cif
#   From: 2010.05.17/outbox.cif.g08.bks.cpg/sg4_6_cif.got.tgz:11716.got - 2010.06.03 18:43:04.
