data_PCOD9114871
_publ_section_title
;
Structure prediction by ZEFSAII (Michael W. Deem and Ramdas Pophale) SiO2 
 PCOD9114871
Probable space group: P 21
;
_chemical_formula_sum "Si O2"
_cell_formula_units_Z 16
_cell_length_a 16.739855
_cell_length_b 8.352844
_cell_length_c 12.318416
_cell_angle_alpha 90.000000
_cell_angle_beta 21.881099
_cell_angle_gamma 90.000000
_cell_volume 641.917147
_symmetry_space_group_name_H-M "P 21"
_symmetry_group_IT_number 4
_symmetry_cell_setting 'monoclinic'
loop_
_space_group_symop_operation_xyz
x,y,z
-x,1/2+y,-z
loop_
_atom_site_type_symbol
_atom_site_label
_atom_site_fract_x
_atom_site_fract_y
_atom_site_fract_z
Si Si1 0.410983 0.513210 0.035834
Si Si2 0.478938 0.555582 0.191658
Si Si3 0.098291 0.265125 0.366047
Si Si4 0.715681 0.083693 0.170181
Si Si5 0.845308 0.761925 0.940500
Si Si6 0.734005 0.453147 0.214782
Si Si7 0.668132 0.251994 0.017807
Si Si8 0.372269 0.844801 0.429131
O O1 0.193945 0.442403 0.257650
O O2 0.420802 0.694840 0.985859
O O3 0.397704 0.493155 0.179365
O O4 0.589765 0.431125 0.734409
O O5 0.698104 0.648527 0.877715
O O6 0.561910 0.421531 0.169274
O O7 0.309415 0.668814 0.465449
O O8 0.920872 0.257619 0.681455
O O9 0.021562 0.243880 0.338838
O O10 0.777258 0.266827 0.125463
O O11 0.515859 0.006639 0.486081
O O12 0.882611 0.935941 0.949602
O O13 0.621559 0.125406 0.169052
O O14 0.847099 0.601656 0.010839
O O15 0.600167 0.792725 0.201734
O O16 0.761858 0.435761 0.310400
#
# Coordination Sequence:
#
# PCOD9114871 Si02
#       8
#     2   2   2   2   2   2   2   2
#     4  10  19  36  51  81 118 150 192 230 285 358
#     4  10  21  33  55  79 117 155 189 236 287 348
#     4  10  21  37  52  84 122 144 190 241 292 358
#     4  11  19  29  53  79 112 152 185 233 303 344
#     4   9  18  34  49  76 122 143 181 245 291 344
#     4  11  18  31  51  79 117 145 185 244 298 334
#     4  12  20  33  58  83 117 155 183 238 306 345
#     4   9  18  33  47  77 115 138 187 233 280 345
#
# _framework density 24.925332999999998
#
# number of rings (size 3 to 8) (size 9 to 14) (size 15 to 20)
#    0.000    2.000    6.250    3.750    0.000    0.000 
#    0.000    0.000    0.000    0.000    0.000    5.250 
#    7.500    0.000    0.000    0.000    0.000    0.000 
#
# Total GULP energy -89099.447948 kJ/mol
# GULP energy per Si atom -5568.715497 kJ/mol
# Density = 2.486860 g / cm^3
# Si number density = 24.925333 Si / 1000 Ang^3
#
#
#
# Elastic Constant Matrix: (Units=GPa)
#
#
# Indices 1 2 3 4 5 6 
#
# 1 76.2157 26.6874 28.8441 0.0000 28.2636 0.0000
# 2 26.6874 141.2722 30.5240 0.0000 23.3794 0.0000
# 3 28.8441 30.5240 65.1940 0.0000 22.1592 0.0000
# 4 0.0000 0.0000 0.0000 28.7925 0.0000 22.4240
# 5 28.2636 23.3794 22.1592 0.0000 35.0604 0.0000
# 6 0.0000 0.0000 0.0000 22.4240 0.0000 26.6988
#
#
#
# Elastic Compliance Matrix: (Units=1/GPa)
#
#
# Indices 1 2 3 4 5 6 
#
# 1 0.019642 -0.000725 -0.003990 0.000000 -0.012829 0.000000
# 2 -0.000725 0.008302 -0.002399 0.000000 -0.003436 0.000000
# 3 -0.003990 -0.002399 0.021129 0.000000 -0.008538 0.000000
# 4 0.000000 0.000000 0.000000 0.100412 0.000000 -0.084335
# 5 -0.012829 -0.003436 -0.008538 0.000000 0.046551 0.000000
# 6 0.000000 0.000000 0.000000 -0.084335 0.000000 0.108287
#
#
# Mechanical properties :
#
#
# Convention : Reuss Voigt Hill
#
# Bulk Modulus (GPa) = 28.69816 50.53255 39.61536
# Shear Modulus (GPa) = 15.14382 31.21877 23.18129
#
# Velocity S-wave (km/s) = 2.46756 3.54290 3.05295
# Velocity P-wave (km/s) = 4.43364 6.08718 5.32498
#
# Compressibility (1/GPa) = 0.03484544
#
# Stress axis : x y z
#
# Youngs Moduli (GPa) = 50.91101 120.44771 47.32740
#
# Poissons Ratio (x) = 0.08737 0.18885
# Poissons Ratio (y) = 0.03693 0.11352
# Poissons Ratio (z) = 0.20315 0.28890
#
# Static dielectric constant tensor:
#      x y z
#    x 2.066420 0.000000 0.019670 
#    y 0.000000 2.154880 0.000000 
#    z 0.019670 0.000000 1.991010 
# 
# From -- ./inp_files/12941.got.cif
#   From: 2010.05.17/outbox.cif.g08.bks.cpg/sg4_7_cif.got.tgz:12941.got - 2010.06.03 18:43:04.
