data_PCOD9114162
_publ_section_title
;
Structure prediction by ZEFSAII (Michael W. Deem and Ramdas Pophale) SiO2 
 PCOD9114162
Probable space group: P 2
;
_chemical_formula_sum "Si O2"
_cell_formula_units_Z 14
_cell_length_a 9.025247
_cell_length_b 5.407084
_cell_length_c 20.446220
_cell_angle_alpha 90.000000
_cell_angle_beta 143.624294
_cell_angle_gamma 90.000000
_cell_volume 591.761528
_symmetry_space_group_name_H-M "P 2"
_symmetry_group_IT_number 3
_symmetry_cell_setting 'monoclinic'
loop_
_space_group_symop_operation_xyz
x,y,z
-x,y,-z
loop_
_atom_site_type_symbol
_atom_site_label
_atom_site_fract_x
_atom_site_fract_y
_atom_site_fract_z
Si Si1 0.946745 0.405220 0.202344
Si Si2 0.650705 0.902179 0.119771
Si Si3 0.976680 0.912103 0.419546
Si Si4 0.417983 0.853410 0.178092
Si Si5 0.734728 0.489248 0.443746
Si Si6 0.236242 0.168867 0.415761
Si Si7 0.739409 0.366505 0.813562
O O1 0.850694 0.675826 0.188230
O O2 0.175098 0.335255 0.331880
O O3 0.037764 0.385658 0.159768
O O4 0.754380 0.181976 0.148173
O O5 0.479649 0.877832 0.123500
O O6 0.500000 0.852654 0.000000
O O7 0.000000 0.037361 0.500000
O O8 0.239204 0.760915 0.515648
O O9 0.687742 0.824970 0.311710
O O10 0.997741 0.013510 0.352861
O O11 0.288297 0.102996 0.159906
O O12 0.267127 0.603885 0.141165
O O13 0.748269 0.321139 0.511793
O O14 0.511488 0.402147 0.319485
O O15 0.000000 0.509946 0.500000
O O16 0.500000 0.040788 0.500000
#
# Coordination Sequence:
#
# PCOD9114162 Si02
#       7
#     2   2   2   2   2   2   2
#     4  12  27  48  74 110 152 184 244 312 373 432
#     4  12  28  54  81 105 137 190 253 319 376 435
#     4  11  22  37  63  95 140 194 241 283 334 431
#     4  12  24  46  72 103 141 190 248 294 359 437
#     4  11  22  37  59  93 142 194 240 271 328 428
#     4  12  24  37  60 101 148 193 232 285 355 431
#     4  12  25  44  70 108 150 191 233 301 359 436
#
# _framework density 23.658176000000001
#
# number of rings (size 3 to 8) (size 9 to 14) (size 15 to 20)
#    0.000    0.286    5.714    5.143    0.000    1.714 
#    0.000    4.286    0.000    0.000    0.000    0.000 
#    0.000    0.000    0.000    0.000    0.000    0.000 
#
# Total GULP energy -78010.704161 kJ/mol
# GULP energy per Si atom -5572.193154 kJ/mol
# Density = 2.360433 g / cm^3
# Si number density = 23.658176 Si / 1000 Ang^3
#
#
#
# Elastic Constant Matrix: (Units=GPa)
#
#
# Indices 1 2 3 4 5 6 
#
# 1 185.4457 54.7472 10.7725 0.0000 -33.4337 0.0000
# 2 54.7472 123.3462 0.1988 0.0000 -5.9032 0.0000
# 3 10.7725 0.1988 39.8816 0.0000 -24.2097 0.0000
# 4 0.0000 0.0000 0.0000 -32.0291 0.0000 41.5067
# 5 -33.4337 -5.9032 -24.2097 0.0000 29.3995 0.0000
# 6 0.0000 0.0000 0.0000 41.5067 0.0000 -6.0568
#
#
#
# Elastic Compliance Matrix: (Units=1/GPa)
#
#
# Indices 1 2 3 4 5 6 
#
# 1 0.008528 -0.003107 0.006439 0.000000 0.014376 0.000000
# 2 -0.003107 0.009392 -0.000416 0.000000 -0.001990 0.000000
# 3 0.006439 -0.000416 0.055449 0.000000 0.052900 0.000000
# 4 0.000000 0.000000 0.000000 0.003962 0.000000 0.027150
# 5 0.014376 -0.001990 0.052900 0.000000 0.093525 0.000000
# 6 0.000000 0.000000 0.000000 0.027150 0.000000 0.020950
#
#
# Mechanical properties :
#
#
# Convention : Reuss Voigt Hill
#
# Bulk Modulus (GPa) = 12.62615 53.34560 32.98587
# Shear Modulus (GPa) = 23.54341 17.12640 20.33490
#
# Velocity S-wave (km/s) = 3.15802 2.69348 2.93495
# Velocity P-wave (km/s) = 4.31810 5.68072 5.04562
#
# Compressibility (1/GPa) = 0.07920073
#
# Stress axis : x y z
#
# Youngs Moduli (GPa) = 117.26716 106.47512 18.03451
#
# Poissons Ratio (x) = 0.33085 -0.11612
# Poissons Ratio (y) = 0.36438 0.00749
# Poissons Ratio (z) = -0.75507 0.04424
#
# Static dielectric constant tensor:
#      x y z
#    x 1.984570 0.000000 -0.175110 
#    y 0.000000 2.227170 0.000000 
#    z -0.175110 0.000000 1.868050 
# 
# From -- ./inp_files/15734.got.cif
#   From: 2010.05.17/outbox.cif.g08.bks.cpg/sg3_8_cif.got.tgz:15734.got - 2010.06.03 18:33:08.
