data_PCOD9114896
_publ_section_title
;
Structure prediction by ZEFSAII (Michael W. Deem and Ramdas Pophale) SiO2 
 PCOD9114896
Probable space group: P 21
;
_chemical_formula_sum "Si O2"
_cell_formula_units_Z 14
_cell_length_a 5.804349
_cell_length_b 5.125276
_cell_length_c 17.084132
_cell_angle_alpha 90.000000
_cell_angle_beta 90.219790
_cell_angle_gamma 90.000000
_cell_volume 508.230235
_symmetry_space_group_name_H-M "P 21"
_symmetry_group_IT_number 4
_symmetry_cell_setting 'monoclinic'
loop_
_space_group_symop_operation_xyz
x,y,z
-x,1/2+y,-z
loop_
_atom_site_type_symbol
_atom_site_label
_atom_site_fract_x
_atom_site_fract_y
_atom_site_fract_z
Si Si1 0.888930 0.676610 0.205489
Si Si2 0.878244 0.716328 0.467643
Si Si3 0.156717 0.642695 0.005178
Si Si4 0.687050 0.191906 0.265858
Si Si5 0.531219 0.416172 0.115978
Si Si6 0.829706 0.319601 0.669693
Si Si7 0.594893 0.820837 0.602007
O O1 0.892582 0.384391 0.241138
O O2 0.748692 0.616379 0.126115
O O3 0.128854 0.792058 0.237685
O O4 0.722284 0.896036 0.242751
O O5 0.934267 0.754313 0.377389
O O6 0.952108 0.425967 0.491005
O O7 0.638685 0.784967 0.509918
O O8 0.355077 0.699266 0.940454
O O9 0.301847 0.535961 0.079344
O O10 0.025862 0.918165 0.018981
O O11 0.499116 0.305934 0.203788
O O12 0.639666 0.242124 0.356377
O O13 0.758485 0.605572 0.643094
O O14 0.657907 0.106250 0.633421
#
# Coordination Sequence:
#
# PCOD9114896 Si02
#       7
#     2   2   2   2   2   2   2
#     4  10  23  41  60  87 131 173 197 266 358 365
#     4   8  16  30  54  82 122 160 210 282 326 362
#     4  12  28  48  80 108 134 190 236 270 372 434
#     4  10  23  41  60  87 131 173 197 266 358 365
#     4  10  28  50  70 100 156 164 220 318 318 412
#     4  10  19  36  59  90 120 167 226 270 321 405
#     4  10  19  36  59  90 120 167 226 270 321 405
#
# _framework density 27.546567
#
# number of rings (size 3 to 8) (size 9 to 14) (size 15 to 20)
#    0.857    1.143    0.000    2.571    6.000    1.143 
#    0.000    1.429    0.000    0.000    0.000    0.000 
#    0.000    0.000    0.000    0.000    0.000    0.000 
#
# Total GULP energy -78154.846821 kJ/mol
# GULP energy per Si atom -5582.489059 kJ/mol
# Density = 2.748387 g / cm^3
# Si number density = 27.546567 Si / 1000 Ang^3
#
#
#
# Elastic Constant Matrix: (Units=GPa)
#
#
# Indices 1 2 3 4 5 6 
#
# 1 54.3509 43.8226 29.5151 0.0000 22.3077 0.0000
# 2 43.8226 137.9749 35.4666 0.0000 16.9919 0.0000
# 3 29.5151 35.4666 79.4097 0.0000 11.1452 0.0000
# 4 0.0000 0.0000 0.0000 35.6443 0.0000 -2.1583
# 5 22.3077 16.9919 11.1452 0.0000 54.3726 0.0000
# 6 0.0000 0.0000 0.0000 -2.1583 0.0000 62.8085
#
#
#
# Elastic Compliance Matrix: (Units=1/GPa)
#
#
# Indices 1 2 3 4 5 6 
#
# 1 0.032003 -0.007105 -0.007403 0.000000 -0.009392 0.000000
# 2 -0.007105 0.009952 -0.001830 0.000000 0.000180 0.000000
# 3 -0.007403 -0.001830 0.016119 0.000000 0.000305 0.000000
# 4 0.000000 0.000000 0.000000 0.028113 0.000000 0.000966
# 5 -0.009392 0.000180 0.000305 0.000000 0.022126 0.000000
# 6 0.000000 0.000000 0.000000 0.000966 0.000000 0.015955
#
#
# Mechanical properties :
#
#
# Convention : Reuss Voigt Hill
#
# Bulk Modulus (GPa) = 39.37227 54.37156 46.87192
# Shear Modulus (GPa) = 30.22792 41.42718 35.82755
#
# Velocity S-wave (km/s) = 3.31620 3.88222 3.61032
# Velocity P-wave (km/s) = 5.38395 6.31478 5.86785
#
# Compressibility (1/GPa) = 0.02539858
#
# Stress axis : x y z
#
# Youngs Moduli (GPa) = 31.24736 100.47813 62.03885
#
# Poissons Ratio (x) = 0.71387 0.45930
# Poissons Ratio (y) = 0.22200 0.11350
# Poissons Ratio (z) = 0.23134 0.18383
#
# Static dielectric constant tensor:
#      x y z
#    x 2.247490 0.000000 -0.076270 
#    y 0.000000 2.096670 0.000000 
#    z -0.076270 0.000000 2.263530 
# 
# From -- ./inp_files/15492.got.cif
#   From: 2010.05.17/outbox.cif.g08.bks.cpg/sg4_8_cif.got.tgz:15492.got - 2010.06.03 18:43:04.
