data_PCOD9114163
_publ_section_title
;
Structure prediction by ZEFSAII (Michael W. Deem and Ramdas Pophale) SiO2 
 PCOD9114163
Probable space group: P 2
;
_chemical_formula_sum "Si O2"
_cell_formula_units_Z 11
_cell_length_a 7.897613
_cell_length_b 5.532054
_cell_length_c 13.433592
_cell_angle_alpha 90.000000
_cell_angle_beta 43.805691
_cell_angle_gamma 90.000000
_cell_volume 406.270540
_symmetry_space_group_name_H-M "P 2"
_symmetry_group_IT_number 3
_symmetry_cell_setting 'monoclinic'
loop_
_space_group_symop_operation_xyz
x,y,z
-x,y,-z
loop_
_atom_site_type_symbol
_atom_site_label
_atom_site_fract_x
_atom_site_fract_y
_atom_site_fract_z
Si Si1 0.865544 0.243090 0.422048
Si Si2 0.459862 0.926995 0.700625
Si Si3 0.500000 0.630478 0.500000
Si Si4 0.813713 0.626968 0.666195
Si Si5 0.996613 0.178988 0.864164
Si Si6 0.218871 0.685353 0.093717
O O1 0.683684 0.470187 0.486424
O O2 0.126915 0.338584 0.352908
O O3 0.915500 0.180181 0.287648
O O4 0.695925 0.059828 0.553219
O O5 0.366218 0.776299 0.644280
O O6 0.556871 0.740603 0.742236
O O7 0.243753 0.113112 0.820173
O O8 0.875688 0.709352 0.751243
O O9 0.000000 0.703010 0.500000
O O10 0.888604 0.450376 0.918546
O O11 0.823196 0.942576 0.941492
O O12 0.500000 0.630197 0.000000
#
# Coordination Sequence:
#
# PCOD9114163 Si02
#       6
#     2   2   1   2   2   2
#     4  11  22  37  62 100 147 183 226 288 357 422
#     4  12  22  37  64 101 142 185 232 289 353 423
#     4  12  18  38  58  94 148 190 224 280 352 434
#     4  11  24  40  62 104 142 173 225 296 350 399
#     4  11  22  42  73  96 130 191 241 280 344 430
#     4  11  26  48  71  98 138 188 238 286 356 427
#
# _framework density 27.075551000000001
#
# number of rings (size 3 to 8) (size 9 to 14) (size 15 to 20)
#    0.000    0.727    5.455    3.818    0.000    3.636 
#    0.000    0.909    0.000    4.364    0.000    0.000 
#    0.000    0.000    0.000    0.000    0.000    0.000 
#
# Total GULP energy -61460.276083 kJ/mol
# GULP energy per Si atom -5587.297826 kJ/mol
# Density = 2.701393 g / cm^3
# Si number density = 27.075551 Si / 1000 Ang^3
#
#
#
# Elastic Constant Matrix: (Units=GPa)
#
#
# Indices 1 2 3 4 5 6 
#
# 1 146.0658 69.8661 25.3689 0.0000 -8.4201 0.0000
# 2 69.8661 142.1448 18.2253 0.0000 -13.0635 0.0000
# 3 25.3689 18.2253 58.0593 0.0000 -4.0771 0.0000
# 4 0.0000 0.0000 0.0000 28.7971 0.0000 -10.0215
# 5 -8.4201 -13.0635 -4.0771 0.0000 43.3966 0.0000
# 6 0.0000 0.0000 0.0000 -10.0215 0.0000 69.1870
#
#
#
# Elastic Compliance Matrix: (Units=1/GPa)
#
#
# Indices 1 2 3 4 5 6 
#
# 1 0.009359 -0.004222 -0.002744 0.000000 0.000287 0.000000
# 2 -0.004222 0.009412 -0.000975 0.000000 0.001922 0.000000
# 3 -0.002744 -0.000975 0.018795 0.000000 0.000940 0.000000
# 4 0.000000 0.000000 0.000000 0.036569 0.000000 0.005297
# 5 0.000287 0.001922 0.000940 0.000000 0.023766 0.000000
# 6 0.000000 0.000000 0.000000 0.005297 0.000000 0.015221
#
#
# Mechanical properties :
#
#
# Convention : Reuss Voigt Hill
#
# Bulk Modulus (GPa) = 46.11592 63.68782 54.90187
# Shear Modulus (GPa) = 36.70270 43.79680 40.24975
#
# Velocity S-wave (km/s) = 3.68580 4.02627 3.85979
# Velocity P-wave (km/s) = 5.93150 6.72219 6.33919
#
# Compressibility (1/GPa) = 0.02168448
#
# Stress axis : x y z
#
# Youngs Moduli (GPa) = 106.85290 106.25001 53.20651
#
# Poissons Ratio (x) = 0.44856 0.14599
# Poissons Ratio (y) = 0.45110 0.05186
# Poissons Ratio (z) = 0.29319 0.10357
#
# Static dielectric constant tensor:
#      x y z
#    x 2.133790 0.000000 -0.034950 
#    y 0.000000 2.189660 0.000000 
#    z -0.034950 0.000000 2.247980 
# 
# From -- ./inp_files/9512.got.cif
#   From: 2010.05.17/outbox.cif.g08.bks.cpg/sg3_5_cif.got.tgz:9512.got - 2010.06.03 18:33:08.
