data_PCOD9114372
_publ_section_title
;
Structure prediction by ZEFSAII (Michael W. Deem and Ramdas Pophale) SiO2 
 PCOD9114372
Probable space group: P 2
;
_chemical_formula_sum "Si O2"
_cell_formula_units_Z 14
_cell_length_a 13.560765
_cell_length_b 4.849677
_cell_length_c 8.786683
_cell_angle_alpha 90.000000
_cell_angle_beta 101.234411
_cell_angle_gamma 90.000000
_cell_volume 566.786359
_symmetry_space_group_name_H-M "P 2"
_symmetry_group_IT_number 3
_symmetry_cell_setting 'monoclinic'
loop_
_space_group_symop_operation_xyz
x,y,z
-x,y,-z
loop_
_atom_site_type_symbol
_atom_site_label
_atom_site_fract_x
_atom_site_fract_y
_atom_site_fract_z
Si Si1 0.389184 0.754640 0.527778
Si Si2 0.894501 0.429141 0.881623
Si Si3 0.746968 0.214804 0.586231
Si Si4 0.866834 0.168669 0.328623
Si Si5 0.013004 0.696311 0.678016
Si Si6 0.275555 0.498358 0.917480
Si Si7 0.400190 0.992426 0.881075
O O1 0.500000 0.678563 0.500000
O O2 0.312632 0.494114 0.485011
O O3 0.400446 0.898386 0.700980
O O4 0.339544 0.992698 0.409125
O O5 0.069419 0.682736 0.215878
O O6 0.808786 0.480319 0.979340
O O7 0.827377 0.255649 0.743093
O O8 0.000000 0.344583 0.000000
O O9 0.817204 0.094025 0.473254
O O10 0.960235 0.376422 0.340053
O O11 0.781963 0.369440 0.241216
O O12 0.898223 0.899518 0.245409
O O13 0.000000 0.800807 0.500000
O O14 0.311120 0.807379 0.918997
O O15 0.374102 0.301391 0.932169
O O16 0.500000 0.910641 0.000000
#
# Coordination Sequence:
#
# PCOD9114372 Si02
#       7
#     2   2   2   2   2   2   2
#     4  12  27  50  81 115 150 195 260 326 391 460
#     4  12  30  49  72 115 158 209 256 315 373 457
#     4  12  27  49  77 110 154 205 259 314 382 461
#     4  12  23  48  74 100 142 203 254 305 370 447
#     4  12  26  45  71 102 144 196 254 309 366 436
#     4  12  27  49  75 108 158 200 250 312 384 465
#     4  12  27  50  81 113 152 196 252 323 400 454
#
# _framework density 24.700662999999999
#
# number of rings (size 3 to 8) (size 9 to 14) (size 15 to 20)
#    0.000    0.000    5.714    3.000    4.000    1.143 
#    0.000    0.000    0.000    0.000    0.000    0.000 
#    0.000    0.000    0.000    0.000    0.000    0.000 
#
# Total GULP energy -78051.066466 kJ/mol
# GULP energy per Si atom -5575.076176 kJ/mol
# Density = 2.464444 g / cm^3
# Si number density = 24.700663 Si / 1000 Ang^3
#
#
#
# Elastic Constant Matrix: (Units=GPa)
#
#
# Indices 1 2 3 4 5 6 
#
# 1 140.9994 22.5820 53.4911 0.0000 -0.2327 0.0000
# 2 22.5820 105.9742 -0.3896 0.0000 6.9870 0.0000
# 3 53.4911 -0.3896 89.0732 0.0000 9.5995 0.0000
# 4 0.0000 0.0000 0.0000 36.0148 0.0000 19.0754
# 5 -0.2327 6.9870 9.5995 0.0000 44.7627 0.0000
# 6 0.0000 0.0000 0.0000 19.0754 0.0000 52.2354
#
#
#
# Elastic Compliance Matrix: (Units=1/GPa)
#
#
# Indices 1 2 3 4 5 6 
#
# 1 0.009741 -0.002209 -0.006042 0.000000 0.001691 0.000000
# 2 -0.002209 0.010039 0.001577 0.000000 -0.001917 0.000000
# 3 -0.006042 0.001577 0.015244 0.000000 -0.003547 0.000000
# 4 0.000000 0.000000 0.000000 0.034425 0.000000 -0.012571
# 5 0.001691 -0.001917 -0.003547 0.000000 0.023409 0.000000
# 6 0.000000 0.000000 0.000000 -0.012571 0.000000 0.023735
#
#
# Mechanical properties :
#
#
# Convention : Reuss Voigt Hill
#
# Bulk Modulus (GPa) = 46.13245 54.15710 50.14478
# Shear Modulus (GPa) = 36.45230 43.96011 40.20621
#
# Velocity S-wave (km/s) = 3.84573 4.22324 4.03890
# Velocity P-wave (km/s) = 6.19973 6.76417 6.48809
#
# Compressibility (1/GPa) = 0.02167671
#
# Stress axis : x y z
#
# Youngs Moduli (GPa) = 102.66010 99.60919 65.59946
#
# Poissons Ratio (x) = 0.22008 0.39633
# Poissons Ratio (y) = 0.22682 -0.10347
# Poissons Ratio (z) = 0.62023 -0.15711
#
# Static dielectric constant tensor:
#      x y z
#    x 1.563520 0.000000 0.258240 
#    y 0.000000 2.024440 0.000000 
#    z 0.258240 0.000000 2.052630 
# 
# From -- ./inp_files/8326.got.cif
#   From: 2010.05.17/outbox.cif.g08.bks.cpg/sg3_5_cif.got.tgz:8326.got - 2010.06.03 18:33:08.
