data_PCOD9114869
_publ_section_title
;
Structure prediction by ZEFSAII (Michael W. Deem and Ramdas Pophale) SiO2 
 PCOD9114869
Probable space group: P 21
;
_chemical_formula_sum "Si O2"
_cell_formula_units_Z 16
_cell_length_a 11.505566
_cell_length_b 8.420366
_cell_length_c 9.610153
_cell_angle_alpha 90.000000
_cell_angle_beta 44.730497
_cell_angle_gamma 90.000000
_cell_volume 655.242147
_symmetry_space_group_name_H-M "P 21"
_symmetry_group_IT_number 4
_symmetry_cell_setting 'monoclinic'
loop_
_space_group_symop_operation_xyz
x,y,z
-x,1/2+y,-z
loop_
_atom_site_type_symbol
_atom_site_label
_atom_site_fract_x
_atom_site_fract_y
_atom_site_fract_z
Si Si1 0.270755 0.500000 0.950622
Si Si2 0.407059 0.169704 0.251520
Si Si3 0.806175 0.415345 0.257771
Si Si4 0.111173 0.289757 0.848729
Si Si5 0.184314 0.908194 0.433193
Si Si6 0.417965 0.945533 0.781251
Si Si7 0.903671 0.310636 0.786198
Si Si8 0.466044 0.241244 0.897401
O O1 0.451057 0.581237 0.777752
O O2 0.210821 0.412637 0.861261
O O3 0.310154 0.357928 0.023777
O O4 0.151417 0.629623 0.124841
O O5 0.432389 0.347370 0.280779
O O6 0.226768 0.095267 0.407026
O O7 0.464040 0.151002 0.044170
O O8 0.835785 0.605087 0.204286
O O9 0.847715 0.369894 0.379839
O O10 0.628457 0.394762 0.335645
O O11 0.928768 0.301289 0.070234
O O12 0.068772 0.351168 0.730687
O O13 0.080794 0.851908 0.389642
O O14 0.363713 0.833761 0.250294
O O15 0.455257 0.128325 0.773823
O O16 0.254169 0.909255 0.016140
#
# Coordination Sequence:
#
# PCOD9114869 Si02
#       8
#     2   2   2   2   2   2   2   2
#     4  10  19  35  67  94 122 177 220 257 320 410
#     4  10  20  37  64  96 137 169 208 263 340 406
#     4  11  25  42  68  94 131 179 225 287 320 391
#     4  11  22  44  68  89 127 183 233 259 340 386
#     4  11  23  40  63 101 140 162 221 282 328 390
#     4  10  19  36  63  96 126 181 213 252 339 404
#     4  10  20  39  64  93 131 171 222 269 320 401
#     4  11  18  35  67 101 130 174 206 263 341 398
#
# _framework density 24.418454000000001
#
# number of rings (size 3 to 8) (size 9 to 14) (size 15 to 20)
#    0.000    1.500    6.250    0.750    0.000    1.000 
#    0.000    5.000    0.000    0.000    0.000    0.000 
#    0.000    0.000    0.000    0.000    0.000    0.000 
#
# Total GULP energy -89283.684717 kJ/mol
# GULP energy per Si atom -5580.230295 kJ/mol
# Density = 2.436288 g / cm^3
# Si number density = 24.418454 Si / 1000 Ang^3
#
#
#
# Elastic Constant Matrix: (Units=GPa)
#
#
# Indices 1 2 3 4 5 6 
#
# 1 133.9512 36.6820 29.4059 0.0000 48.5194 0.0000
# 2 36.6820 76.0191 7.2517 0.0000 14.9241 0.0000
# 3 29.4059 7.2517 76.1551 0.0000 35.8243 0.0000
# 4 0.0000 0.0000 0.0000 25.4130 0.0000 5.5369
# 5 48.5194 14.9241 35.8243 0.0000 38.7170 0.0000
# 6 0.0000 0.0000 0.0000 5.5369 0.0000 44.0736
#
#
#
# Elastic Compliance Matrix: (Units=1/GPa)
#
#
# Indices 1 2 3 4 5 6 
#
# 1 0.015613 -0.003520 0.005086 0.000000 -0.022915 0.000000
# 2 -0.003520 0.015231 0.001054 0.000000 -0.002435 0.000000
# 3 0.005086 0.001054 0.025244 0.000000 -0.030139 0.000000
# 4 0.000000 0.000000 0.000000 0.040457 0.000000 -0.005083
# 5 -0.022915 -0.002435 -0.030139 0.000000 0.083371 0.000000
# 6 0.000000 0.000000 0.000000 -0.005083 0.000000 0.023328
#
#
# Mechanical properties :
#
#
# Convention : Reuss Voigt Hill
#
# Bulk Modulus (GPa) = 16.30559 48.08938 32.19749
# Shear Modulus (GPa) = 22.88885 35.82643 29.35764
#
# Velocity S-wave (km/s) = 3.06495 3.83454 3.47114
# Velocity P-wave (km/s) = 4.38376 6.27229 5.41105
#
# Compressibility (1/GPa) = 0.06132867
#
# Stress axis : x y z
#
# Youngs Moduli (GPa) = 64.04822 65.65670 39.61288
#
# Poissons Ratio (x) = 0.23114 -0.20148
# Poissons Ratio (y) = 0.22547 -0.04177
# Poissons Ratio (z) = -0.32576 -0.06923
#
# Static dielectric constant tensor:
#      x y z
#    x 2.008400 0.000000 0.018590 
#    y 0.000000 2.048690 0.000000 
#    z 0.018590 0.000000 1.989740 
# 
# From -- ./inp_files/7825.got.cif
#   From: 2010.05.17/outbox.cif.g08.bks.cpg/sg4_4_cif.got.tgz:7825.got - 2010.06.03 18:43:04.
