data_PCOD9114015
_publ_section_title
;
Structure prediction by ZEFSAII (Michael W. Deem and Ramdas Pophale) SiO2 
 PCOD9114015
Probable space group: P 2
;
_chemical_formula_sum "Si O2"
_cell_formula_units_Z 16
_cell_length_a 15.228868
_cell_length_b 4.936049
_cell_length_c 8.524166
_cell_angle_alpha 90.000000
_cell_angle_beta 111.867733
_cell_angle_gamma 90.000000
_cell_volume 594.659774
_symmetry_space_group_name_H-M "P 2"
_symmetry_group_IT_number 3
_symmetry_cell_setting 'monoclinic'
loop_
_space_group_symop_operation_xyz
x,y,z
-x,y,-z
loop_
_atom_site_type_symbol
_atom_site_label
_atom_site_fract_x
_atom_site_fract_y
_atom_site_fract_z
Si Si1 0.852953 0.301630 0.538342
Si Si2 0.030622 0.770023 0.346262
Si Si3 0.396893 0.141905 0.956368
Si Si4 0.609871 0.465880 0.566714
Si Si5 0.793131 0.475589 0.165750
Si Si6 0.902479 0.051448 0.025734
Si Si7 0.710838 0.834070 0.876692
Si Si8 0.339164 0.961654 0.584353
O O1 0.893537 0.551144 0.668498
O O2 0.833189 0.456513 0.363634
O O3 0.761542 0.108901 0.487935
O O4 0.932232 0.072793 0.600374
O O5 0.000000 0.678189 0.500000
O O6 0.946152 0.816957 0.167697
O O7 0.310451 0.343769 0.895090
O O8 0.384193 0.973673 0.786585
O O9 0.500000 0.268638 0.000000
O O10 0.379358 0.996569 0.113576
O O11 0.500000 0.544694 0.500000
O O12 0.669835 0.575374 0.756095
O O13 0.611708 0.152188 0.516246
O O14 0.658013 0.651449 0.465214
O O15 0.859757 0.295959 0.098907
O O16 0.763447 0.759965 0.074171
O O17 0.806069 0.968245 0.862289
O O18 0.000000 0.128879 0.000000
#
# Coordination Sequence:
#
# PCOD9114015 Si02
#       8
#     2   2   2   2   2   2   2   2
#     4  11  25  43  74 104 140 183 246 306 359 430
#     4  12  24  44  71 102 138 187 240 296 365 430
#     4  10  24  45  77 107 145 191 252 312 378 449
#     4  12  28  49  76 108 154 198 246 305 386 453
#     4  10  24  45  70 103 144 189 241 311 368 438
#     4  11  27  45  68 102 145 191 245 294 372 446
#     4  11  27  46  73 103 153 195 247 312 377 447
#     4  11  27  46  74 109 147 190 254 307 371 451
#
# _framework density 26.906141999999999
#
# number of rings (size 3 to 8) (size 9 to 14) (size 15 to 20)
#    0.000    1.000    1.250    3.000   17.500    1.000 
#    0.000    0.000    0.000    0.000    0.000    0.000 
#    0.000    0.000    0.000    0.000    0.000    0.000 
#
# Total GULP energy -89341.645199 kJ/mol
# GULP energy per Si atom -5583.852825 kJ/mol
# Density = 2.684490 g / cm^3
# Si number density = 26.906142 Si / 1000 Ang^3
#
#
#
# Elastic Constant Matrix: (Units=GPa)
#
#
# Indices 1 2 3 4 5 6 
#
# 1 171.9587 15.4212 30.3999 0.0000 18.0192 0.0000
# 2 15.4212 69.1234 -14.0802 0.0000 6.9010 0.0000
# 3 30.3999 -14.0802 79.0912 0.0000 5.5940 0.0000
# 4 0.0000 0.0000 0.0000 25.4700 0.0000 0.0978
# 5 18.0192 6.9010 5.5940 0.0000 30.9055 0.0000
# 6 0.0000 0.0000 0.0000 0.0978 0.0000 24.2540
#
#
#
# Elastic Compliance Matrix: (Units=1/GPa)
#
#
# Indices 1 2 3 4 5 6 
#
# 1 0.006771 -0.001754 -0.002698 0.000000 -0.003068 0.000000
# 2 -0.001754 0.015941 0.003739 0.000000 -0.003214 0.000000
# 3 -0.002698 0.003739 0.014479 0.000000 -0.001883 0.000000
# 4 0.000000 0.000000 0.000000 0.039263 0.000000 -0.000158
# 5 -0.003068 -0.003214 -0.001883 0.000000 0.035204 0.000000
# 6 0.000000 0.000000 0.000000 -0.000158 0.000000 0.041231
#
#
# Mechanical properties :
#
#
# Convention : Reuss Voigt Hill
#
# Bulk Modulus (GPa) = 27.95924 42.62835 35.29379
# Shear Modulus (GPa) = 30.07785 35.35472 32.71629
#
# Velocity S-wave (km/s) = 3.34710 3.62885 3.49082
# Velocity P-wave (km/s) = 5.03502 5.78237 5.42159
#
# Compressibility (1/GPa) = 0.03576635
#
# Stress axis : x y z
#
# Youngs Moduli (GPa) = 147.68777 62.73261 69.06357
#
# Poissons Ratio (x) = 0.11002 0.18632
# Poissons Ratio (y) = 0.25902 -0.25825
# Poissons Ratio (z) = 0.39843 -0.23457
#
# Static dielectric constant tensor:
#      x y z
#    x 2.394190 0.000000 0.002040 
#    y 0.000000 2.086890 0.000000 
#    z 0.002040 0.000000 2.243350 
# 
# From -- ./inp_files/8334.got.cif
#   From: 2010.05.17/outbox.cif.g08.bks.cpg/sg3_5_cif.got.tgz:8334.got - 2010.06.03 18:33:08.
