data_PCOD9114484
_publ_section_title
;
Structure prediction by ZEFSAII (Michael W. Deem and Ramdas Pophale) SiO2 
 PCOD9114484
Probable space group: P 21
;
_chemical_formula_sum "Si O2"
_cell_formula_units_Z 16
_cell_length_a 14.966030
_cell_length_b 5.466954
_cell_length_c 21.927141
_cell_angle_alpha 90.000000
_cell_angle_beta 20.735149
_cell_angle_gamma 90.000000
_cell_volume 635.180228
_symmetry_space_group_name_H-M "P 21"
_symmetry_group_IT_number 4
_symmetry_cell_setting 'monoclinic'
loop_
_space_group_symop_operation_xyz
x,y,z
-x,1/2+y,-z
loop_
_atom_site_type_symbol
_atom_site_label
_atom_site_fract_x
_atom_site_fract_y
_atom_site_fract_z
Si Si1 0.569482 0.723160 0.485705
Si Si2 0.984814 0.324209 0.364874
Si Si3 0.307099 0.036928 0.843760
Si Si4 0.569894 0.717887 0.106705
Si Si5 0.299617 0.540859 0.779344
Si Si6 0.083542 0.830208 0.344313
Si Si7 0.946671 0.979874 0.809709
Si Si8 0.587779 0.335806 0.989266
O O1 0.513320 0.500053 0.474134
O O2 0.440022 0.615342 0.628117
O O3 0.870591 0.708245 0.298071
O O4 0.925716 0.579099 0.436859
O O5 0.932533 0.336796 0.325275
O O6 0.920523 0.076951 0.441731
O O7 0.290939 0.328989 0.171322
O O8 0.433744 0.071850 0.828518
O O9 0.375135 0.274540 0.758148
O O10 0.362465 0.767257 0.783354
O O11 0.000266 0.040307 0.041815
O O12 0.287369 0.817864 0.269538
O O13 0.633874 0.550578 0.007227
O O14 0.844485 0.858014 0.936246
O O15 0.246805 0.843201 0.176960
O O16 0.677654 0.086142 0.961741
#
# Coordination Sequence:
#
# PCOD9114484 Si02
#       8
#     2   2   2   2   2   2   2   2
#     4  12  28  45  66  93 128 169 210 270 323 396
#     4  10  17  31  47  80 126 160 184 240 315 376
#     4  10  23  39  69  82 117 173 211 274 306 366
#     4  11  20  31  58  95 125 160 211 249 322 388
#     4  10  23  47  59  88 122 161 221 264 323 360
#     4  10  17  29  47  79 134 151 180 256 305 369
#     4  11  22  33  60  89 132 169 198 254 335 383
#     4  10  18  31  50  88 136 151 197 255 317 378
#
# _framework density 25.189699000000001
#
# number of rings (size 3 to 8) (size 9 to 14) (size 15 to 20)
#    0.000    1.500    3.750    2.250    5.250    1.000 
#    0.000    0.000    0.000    0.000    0.000   21.000 
#    0.000    0.000    0.000    0.000    0.000    0.000 
#
# Total GULP energy -89288.277413 kJ/mol
# GULP energy per Si atom -5580.517338 kJ/mol
# Density = 2.513237 g / cm^3
# Si number density = 25.189699 Si / 1000 Ang^3
#
#
#
# Elastic Constant Matrix: (Units=GPa)
#
#
# Indices 1 2 3 4 5 6 
#
# 1 56.9410 13.4272 13.3189 0.0000 -5.9986 0.0000
# 2 13.4272 132.8998 10.4673 0.0000 -16.6610 0.0000
# 3 13.3189 10.4673 64.3244 0.0000 -0.6684 0.0000
# 4 0.0000 0.0000 0.0000 22.4787 0.0000 -0.6719
# 5 -5.9986 -16.6610 -0.6684 0.0000 8.9228 0.0000
# 6 0.0000 0.0000 0.0000 -0.6719 0.0000 13.5165
#
#
#
# Elastic Compliance Matrix: (Units=1/GPa)
#
#
# Indices 1 2 3 4 5 6 
#
# 1 0.019869 -0.000075 -0.003968 0.000000 0.012920 0.000000
# 2 -0.000075 0.009954 -0.001413 0.000000 0.018430 0.000000
# 3 -0.003968 -0.001413 0.016555 0.000000 -0.004065 0.000000
# 4 0.000000 0.000000 0.000000 0.044553 0.000000 0.002215
# 5 0.012920 0.018430 -0.004065 0.000000 0.154866 0.000000
# 6 0.000000 0.000000 0.000000 0.002215 0.000000 0.074094
#
#
# Mechanical properties :
#
#
# Convention : Reuss Voigt Hill
#
# Bulk Modulus (GPa) = 28.19506 36.51020 32.35263
# Shear Modulus (GPa) = 14.59325 23.44704 19.02015
#
# Velocity S-wave (km/s) = 2.40955 3.05424 2.75085
# Velocity P-wave (km/s) = 4.35415 5.19263 4.79177
#
# Compressibility (1/GPa) = 0.03546721
#
# Stress axis : x y z
#
# Youngs Moduli (GPa) = 50.32996 100.46430 60.40341
#
# Poissons Ratio (x) = 0.00756 0.23965
# Poissons Ratio (y) = 0.00379 0.08533
# Poissons Ratio (z) = 0.19969 0.14192
#
# Static dielectric constant tensor:
#      x y z
#    x 2.073480 0.000000 -0.018810 
#    y 0.000000 2.345930 0.000000 
#    z -0.018810 0.000000 1.991400 
# 
# From -- ./inp_files/15758.got.cif
#   From: 2010.05.17/outbox.cif.g08.bks.cpg/sg4_8_cif.got.tgz:15758.got - 2010.06.03 18:43:04.
