data_PCOD9114330
_publ_section_title
;
Structure prediction by ZEFSAII (Michael W. Deem and Ramdas Pophale) SiO2 
 PCOD9114330
Probable space group: P 2
;
_chemical_formula_sum "Si O2"
_cell_formula_units_Z 9
_cell_length_a 5.789815
_cell_length_b 4.604214
_cell_length_c 13.958806
_cell_angle_alpha 90.000000
_cell_angle_beta 119.016720
_cell_angle_gamma 90.000000
_cell_volume 325.399921
_symmetry_space_group_name_H-M "P 2"
_symmetry_group_IT_number 3
_symmetry_cell_setting 'monoclinic'
loop_
_space_group_symop_operation_xyz
x,y,z
-x,y,-z
loop_
_atom_site_type_symbol
_atom_site_label
_atom_site_fract_x
_atom_site_fract_y
_atom_site_fract_z
Si Si1 0.500000 0.018610 0.500000
Si Si2 0.381978 0.206328 0.679268
Si Si3 0.893290 0.693843 0.125279
Si Si4 0.982361 0.673959 0.356614
Si Si5 0.371792 0.629546 0.111195
O O1 0.519811 0.192249 0.603832
O O2 0.240981 0.818488 0.450153
O O3 0.530442 0.378898 0.795690
O O4 0.110159 0.381368 0.614924
O O5 0.270246 0.887667 0.679991
O O6 0.616069 0.809218 0.113586
O O7 0.016460 0.598492 0.250861
O O8 0.151267 0.819790 0.123338
O O9 0.774750 0.502361 0.014013
#
# Coordination Sequence:
#
# PCOD9114330 Si02
#       5
#     1   2   2   2   2
#     4  12  30  50  84 114 168 226 274 352 402 506
#     4  11  28  51  77 116 160 212 277 338 414 494
#     4   9  20  44  78 109 155 199 262 329 407 482
#     4  11  28  51  77 116 160 212 277 338 414 494
#     4   9  20  44  78 109 155 199 262 329 407 482
#
# _framework density 27.658276000000001
#
# number of rings (size 3 to 8) (size 9 to 14) (size 15 to 20)
#    0.000    1.778    0.000    0.667   12.444    5.333 
#    0.000   17.778    0.000    0.000    0.000    0.000 
#    0.000    0.000    0.000    0.000    0.000    0.000 
#
# Total GULP energy -50136.266772 kJ/mol
# GULP energy per Si atom -5570.696308 kJ/mol
# Density = 2.759532 g / cm^3
# Si number density = 27.658276 Si / 1000 Ang^3
#
#
#
# Elastic Constant Matrix: (Units=GPa)
#
#
# Indices 1 2 3 4 5 6 
#
# 1 229.2087 32.0033 20.3743 0.0000 -11.2975 0.0000
# 2 32.0033 79.0616 21.1916 0.0000 -9.2532 0.0000
# 3 20.3743 21.1916 213.8117 0.0000 -30.2309 0.0000
# 4 0.0000 0.0000 0.0000 27.5237 0.0000 3.9172
# 5 -11.2975 -9.2532 -30.2309 0.0000 60.2731 0.0000
# 6 0.0000 0.0000 0.0000 3.9172 0.0000 29.4804
#
#
#
# Elastic Compliance Matrix: (Units=1/GPa)
#
#
# Indices 1 2 3 4 5 6 
#
# 1 0.004652 -0.001772 -0.000197 0.000000 0.000501 0.000000
# 2 -0.001772 0.013787 -0.001018 0.000000 0.001274 0.000000
# 3 -0.000197 -0.001018 0.005133 0.000000 0.002382 0.000000
# 4 0.000000 0.000000 0.000000 0.037033 0.000000 -0.004921
# 5 0.000501 0.001274 0.002382 0.000000 0.018075 0.000000
# 6 0.000000 0.000000 0.000000 -0.004921 0.000000 0.034575
#
#
# Mechanical properties :
#
#
# Convention : Reuss Voigt Hill
#
# Bulk Modulus (GPa) = 56.81544 74.35784 65.58664
# Shear Modulus (GPa) = 39.96956 53.35630 46.66293
#
# Velocity S-wave (km/s) = 3.80560 4.39695 4.11192
# Velocity P-wave (km/s) = 6.31638 7.26088 6.80503
#
# Compressibility (1/GPa) = 0.01760085
#
# Stress axis : x y z
#
# Youngs Moduli (GPa) = 214.94125 72.52977 194.80429
#
# Poissons Ratio (x) = 0.12851 0.03835
# Poissons Ratio (y) = 0.38084 0.19822
# Poissons Ratio (z) = 0.04231 0.07380
#
# Static dielectric constant tensor:
#      x y z
#    x 2.194280 0.000000 0.028480 
#    y 0.000000 2.065180 0.000000 
#    z 0.028480 0.000000 2.243760 
# 
# From -- ./inp_files/1841.got.cif
#   From: 2010.05.17/outbox.cif.g08.bks.cpg/sg3_1_cif.got.tgz:1841.got - 2010.06.03 18:33:08.
