data_PCOD9114527
_publ_section_title
;
Structure prediction by ZEFSAII (Michael W. Deem and Ramdas Pophale) SiO2 
 PCOD9114527
Probable space group: P 21
;
_chemical_formula_sum "Si O2"
_cell_formula_units_Z 14
_cell_length_a 9.341547
_cell_length_b 13.667048
_cell_length_c 6.460034
_cell_angle_alpha 90.000000
_cell_angle_beta 132.224049
_cell_angle_gamma 90.000000
_cell_volume 610.754445
_symmetry_space_group_name_H-M "P 21"
_symmetry_group_IT_number 4
_symmetry_cell_setting 'monoclinic'
loop_
_space_group_symop_operation_xyz
x,y,z
-x,1/2+y,-z
loop_
_atom_site_type_symbol
_atom_site_label
_atom_site_fract_x
_atom_site_fract_y
_atom_site_fract_z
Si Si1 0.569347 0.718050 0.048543
Si Si2 0.181545 0.769083 0.435030
Si Si3 0.621065 0.929364 0.130265
Si Si4 0.569630 0.543570 0.722461
Si Si5 0.327782 0.667001 0.194294
Si Si6 0.252631 0.980815 0.506055
Si Si7 0.058493 0.597222 0.576442
O O1 0.363451 0.758187 0.765134
O O2 0.691914 0.817900 0.176433
O O3 0.609288 0.633054 0.919947
O O4 0.513467 0.684505 0.226405
O O5 0.262280 0.752582 0.283090
O O6 0.125321 0.881792 0.392450
O O7 0.051636 0.678970 0.389740
O O8 0.470870 0.957848 0.799848
O O9 0.489446 0.948150 0.205381
O O10 0.791050 0.008896 0.320720
O O11 0.387917 0.581486 0.410520
O O12 0.732740 0.519687 0.713521
O O13 0.151793 0.643831 0.872880
O O14 0.145552 0.055122 0.553345
#
# Coordination Sequence:
#
# PCOD9114527 Si02
#       7
#     2   2   2   2   2   2   2
#     4   9  19  34  65  91 122 162 210 257 315 368
#     4   9  20  40  63  90 128 166 204 264 320 363
#     4  11  21  42  65  88 127 164 209 262 318 372
#     4  11  19  39  65  92 121 168 204 256 315 370
#     4  10  17  39  64  87 124 163 201 260 314 366
#     4  11  24  40  65  95 124 165 217 255 315 379
#     4  11  22  42  63  91 128 164 209 264 313 372
#
# _framework density 22.922469
#
# number of rings (size 3 to 8) (size 9 to 14) (size 15 to 20)
#    0.000    1.714    5.714    0.857    0.000    1.143 
#    7.714    0.000    0.000    0.000    0.000    0.000 
#    0.000    0.000    0.000    0.000    0.000    0.000 
#
# Total GULP energy -78089.625865 kJ/mol
# GULP energy per Si atom -5577.830419 kJ/mol
# Density = 2.287030 g / cm^3
# Si number density = 22.922469 Si / 1000 Ang^3
#
#
#
# Elastic Constant Matrix: (Units=GPa)
#
#
# Indices 1 2 3 4 5 6 
#
# 1 111.3297 60.3198 27.1642 0.0000 -26.9503 0.0000
# 2 60.3198 116.0374 32.0867 0.0000 -24.4781 0.0000
# 3 27.1642 32.0867 57.5603 0.0000 -23.9153 0.0000
# 4 0.0000 0.0000 0.0000 18.7600 0.0000 -2.9795
# 5 -26.9503 -24.4781 -23.9153 0.0000 39.0391 0.0000
# 6 0.0000 0.0000 0.0000 -2.9795 0.0000 36.8264
#
#
#
# Elastic Compliance Matrix: (Units=1/GPa)
#
#
# Indices 1 2 3 4 5 6 
#
# 1 0.013563 -0.005660 -0.001113 0.000000 0.005132 0.000000
# 2 -0.005660 0.013014 -0.003778 0.000000 0.001938 0.000000
# 3 -0.001113 -0.003778 0.025086 0.000000 0.012230 0.000000
# 4 0.000000 0.000000 0.000000 0.053999 0.000000 0.004369
# 5 0.005132 0.001938 0.012230 0.000000 0.037866 0.000000
# 6 0.000000 0.000000 0.000000 0.004369 0.000000 0.027508
#
#
# Mechanical properties :
#
#
# Convention : Reuss Voigt Hill
#
# Bulk Modulus (GPa) = 32.72261 58.22986 45.47623
# Shear Modulus (GPa) = 24.71281 29.94888 27.33085
#
# Velocity S-wave (km/s) = 3.28701 3.61852 3.45674
# Velocity P-wave (km/s) = 5.35838 6.55105 5.98450
#
# Compressibility (1/GPa) = 0.03055991
#
# Stress axis : x y z
#
# Youngs Moduli (GPa) = 73.72994 76.84215 39.86295
#
# Poissons Ratio (x) = 0.43493 0.04438
# Poissons Ratio (y) = 0.41731 0.15061
# Poissons Ratio (z) = 0.08208 0.29032
#
# Static dielectric constant tensor:
#      x y z
#    x 1.908380 0.000000 0.018190 
#    y 0.000000 1.960570 0.000000 
#    z 0.018190 0.000000 1.833170 
# 
# From -- ./inp_files/1717.got.cif
#   From: 2010.05.17/outbox.cif.g08.bks.cpg/sg4_1_cif.got.tgz:1717.got - 2010.06.03 18:43:04.
