data_PCOD9114031
_publ_section_title
;
Structure prediction by ZEFSAII (Michael W. Deem and Ramdas Pophale) SiO2 
 PCOD9114031
Probable space group: P 2
;
_chemical_formula_sum "Si O2"
_cell_formula_units_Z 11
_cell_length_a 15.007201
_cell_length_b 5.265436
_cell_length_c 6.881747
_cell_angle_alpha 90.000000
_cell_angle_beta 58.452185
_cell_angle_gamma 90.000000
_cell_volume 463.421544
_symmetry_space_group_name_H-M "P 2"
_symmetry_group_IT_number 3
_symmetry_cell_setting 'monoclinic'
loop_
_space_group_symop_operation_xyz
x,y,z
-x,y,-z
loop_
_atom_site_type_symbol
_atom_site_label
_atom_site_fract_x
_atom_site_fract_y
_atom_site_fract_z
Si Si1 0.089267 0.534490 0.752381
Si Si2 0.365201 0.174413 0.827962
Si Si3 0.283399 0.851223 0.581331
Si Si4 0.494647 0.658989 0.775407
Si Si5 0.198558 0.149524 0.334378
Si Si6 0.000000 0.859854 0.500000
O O1 0.179062 0.697966 0.759398
O O2 0.151603 0.332044 0.552086
O O3 0.031033 0.701803 0.654534
O O4 0.000000 0.436203 0.000000
O O5 0.440310 0.414187 0.745858
O O6 0.308432 0.085644 0.695269
O O7 0.430768 0.921078 0.812249
O O8 0.278234 0.250609 0.086022
O O9 0.389398 0.692756 0.442253
O O10 0.259477 0.940268 0.389901
O O11 0.500000 0.617421 0.000000
O O12 0.099779 0.030715 0.338900
#
# Coordination Sequence:
#
# PCOD9114031 Si02
#       6
#     2   2   2   2   2   1
#     4  11  25  46  79 108 156 198 260 319 384 462
#     4  12  28  47  80 109 159 201 257 317 384 454
#     4  11  27  47  74 113 152 202 259 313 387 458
#     4  12  26  50  77 111 156 206 255 320 382 456
#     4  11  25  47  76 111 152 203 257 318 385 463
#     4  10  24  46  72 110 150 196 260 314 390 448
#
# _framework density 23.736485999999999
#
# number of rings (size 3 to 8) (size 9 to 14) (size 15 to 20)
#    0.000    0.727    1.818    3.818    7.636    7.273 
#    0.000    0.000    0.000    0.000    0.000    0.000 
#    0.000    0.000    0.000    0.000    0.000    0.000 
#
# Total GULP energy -61610.211323 kJ/mol
# GULP energy per Si atom -5600.928302 kJ/mol
# Density = 2.368246 g / cm^3
# Si number density = 23.736486 Si / 1000 Ang^3
#
#
#
# Elastic Constant Matrix: (Units=GPa)
#
#
# Indices 1 2 3 4 5 6 
#
# 1 161.2509 74.7250 65.6257 0.0000 -16.8544 0.0000
# 2 74.7250 125.6650 35.9892 0.0000 -12.0251 0.0000
# 3 65.6257 35.9892 140.4086 0.0000 -29.9211 0.0000
# 4 0.0000 0.0000 0.0000 29.8100 0.0000 -5.7052
# 5 -16.8544 -12.0251 -29.9211 0.0000 36.2661 0.0000
# 6 0.0000 0.0000 0.0000 -5.7052 0.0000 42.8552
#
#
#
# Elastic Compliance Matrix: (Units=1/GPa)
#
#
# Indices 1 2 3 4 5 6 
#
# 1 0.009826 -0.004878 -0.003293 0.000000 0.000233 0.000000
# 2 -0.004878 0.011057 -0.000311 0.000000 0.001143 0.000000
# 3 -0.003293 -0.000311 0.010183 0.000000 0.006768 0.000000
# 4 0.000000 0.000000 0.000000 0.034423 0.000000 0.004583
# 5 0.000233 0.001143 0.006768 0.000000 0.033645 0.000000
# 6 0.000000 0.000000 0.000000 0.004583 0.000000 0.023944
#
#
# Mechanical properties :
#
#
# Convention : Reuss Voigt Hill
#
# Bulk Modulus (GPa) = 70.90533 86.66715 78.78624
# Shear Modulus (GPa) = 34.54421 38.51857 36.53139
#
# Velocity S-wave (km/s) = 3.81901 4.03272 3.92732
# Velocity P-wave (km/s) = 7.02731 7.63382 7.33684
#
# Compressibility (1/GPa) = 0.01410331
#
# Stress axis : x y z
#
# Youngs Moduli (GPa) = 101.76659 90.44438 98.20236
#
# Poissons Ratio (x) = 0.44117 0.32337
# Poissons Ratio (y) = 0.49640 0.03050
# Poissons Ratio (z) = 0.33511 0.02809
#
# Static dielectric constant tensor:
#      x y z
#    x 1.958030 0.000000 -0.053750 
#    y 0.000000 1.943690 0.000000 
#    z -0.053750 0.000000 1.919230 
# 
# From -- ./inp_files/2648.got.cif
#   From: 2010.05.17/outbox.cif.g08.bks.cpg/sg3_2_cif.got.tgz:2648.got - 2010.06.03 18:33:08.
