data_PCOD9114029
_publ_section_title
;
Structure prediction by ZEFSAII (Michael W. Deem and Ramdas Pophale) SiO2 
 PCOD9114029
Probable space group: P 2
;
_chemical_formula_sum "Si O2"
_cell_formula_units_Z 13
_cell_length_a 11.309963
_cell_length_b 4.905340
_cell_length_c 16.844434
_cell_angle_alpha 90.000000
_cell_angle_beta 34.540898
_cell_angle_gamma 90.000000
_cell_volume 529.865275
_symmetry_space_group_name_H-M "P 2"
_symmetry_group_IT_number 3
_symmetry_cell_setting 'monoclinic'
loop_
_space_group_symop_operation_xyz
x,y,z
-x,y,-z
loop_
_atom_site_type_symbol
_atom_site_label
_atom_site_fract_x
_atom_site_fract_y
_atom_site_fract_z
Si Si1 0.940913 0.388980 0.268849
Si Si2 0.296420 0.595445 0.388195
Si Si3 0.500000 0.131973 0.500000
Si Si4 0.450967 0.083588 0.700145
Si Si5 0.863835 0.901481 0.909018
Si Si6 0.000000 0.959790 0.000000
Si Si7 0.500000 0.773098 0.000000
Si Si8 0.138116 0.506797 0.305467
O O1 0.993725 0.703279 0.224017
O O2 0.035978 0.290628 0.301146
O O3 0.702760 0.318404 0.394259
O O4 0.059895 0.210458 0.138168
O O5 0.431760 0.370196 0.358568
O O6 0.238267 0.459820 0.335746
O O7 0.076215 0.665801 0.552609
O O8 0.433010 0.867253 0.307554
O O9 0.475597 0.974115 0.596372
O O10 0.208788 0.112648 0.855596
O O11 0.908079 0.803239 0.973909
O O12 0.637063 0.910201 0.993789
O O13 0.325973 0.616545 0.147490
#
# Coordination Sequence:
#
# PCOD9114029 Si02
#       8
#     2   2   1   2   2   1   1   2
#     4  11  26  45  75 104 142 194 246 299 363 447
#     4  11  27  48  71 108 145 190 240 307 371 437
#     4  12  26  50  74 112 144 204 246 304 366 464
#     4  12  29  46  75 106 149 192 244 303 373 440
#     4  11  27  46  71 108 148 190 245 306 369 441
#     4  12  28  48  74 112 150 192 244 316 374 436
#     4  10  24  46  72 104 138 194 242 300 364 438
#     4  10  24  47  75 104 144 188 246 303 365 439
#
# _framework density 24.53454
#
# number of rings (size 3 to 8) (size 9 to 14) (size 15 to 20)
#    0.000    0.923    3.077    0.923    6.462   14.769 
#    0.000    0.000    0.000    0.000    0.000    0.000 
#    0.000    0.000    0.000    0.000    0.000    0.000 
#
# Total GULP energy -72545.247648 kJ/mol
# GULP energy per Si atom -5580.403665 kJ/mol
# Density = 2.447870 g / cm^3
# Si number density = 24.534540 Si / 1000 Ang^3
#
#
#
# Elastic Constant Matrix: (Units=GPa)
#
#
# Indices 1 2 3 4 5 6 
#
# 1 190.0392 18.4894 56.3448 0.0000 -8.3182 0.0000
# 2 18.4894 56.4322 6.3492 0.0000 -11.8275 0.0000
# 3 56.3448 6.3492 151.9580 0.0000 -21.9103 0.0000
# 4 0.0000 0.0000 0.0000 -0.1375 0.0000 18.8323
# 5 -8.3182 -11.8275 -21.9103 0.0000 58.2644 0.0000
# 6 0.0000 0.0000 0.0000 18.8323 0.0000 -6.3108
#
#
#
# Elastic Compliance Matrix: (Units=1/GPa)
#
#
# Indices 1 2 3 4 5 6 
#
# 1 0.006085 -0.001814 -0.002229 0.000000 -0.000338 0.000000
# 2 -0.001814 0.019057 0.000419 0.000000 0.003767 0.000000
# 3 -0.002229 0.000419 0.007778 0.000000 0.002692 0.000000
# 4 0.000000 0.000000 0.000000 0.017838 0.000000 0.053231
# 5 -0.000338 0.003767 0.002692 0.000000 0.018892 0.000000
# 6 0.000000 0.000000 0.000000 0.053231 0.000000 0.000389
#
#
# Mechanical properties :
#
#
# Convention : Reuss Voigt Hill
#
# Bulk Modulus (GPa) = 38.95133 62.31068 50.63100
# Shear Modulus (GPa) = 58.24658 31.51297 44.87978
#
# Velocity S-wave (km/s) = 4.87772 3.58779 4.28161
# Velocity P-wave (km/s) = 6.90170 6.52803 6.71747
#
# Compressibility (1/GPa) = 0.02567307
#
# Stress axis : x y z
#
# Youngs Moduli (GPa) = 164.34868 52.47424 128.56991
#
# Poissons Ratio (x) = 0.09516 0.28659
# Poissons Ratio (y) = 0.29805 -0.05392
# Poissons Ratio (z) = 0.36634 -0.02201
#
# Static dielectric constant tensor:
#      x y z
#    x 2.063360 0.000000 0.010180 
#    y 0.000000 1.872550 0.000000 
#    z 0.010180 0.000000 2.009290 
# 
# From -- ./inp_files/12394.got.cif
#   From: 2010.05.17/outbox.cif.g08.bks.cpg/sg3_7_cif.got.tgz:12394.got - 2010.06.03 18:33:08.
