data_PCOD9114522
_publ_section_title
;
Structure prediction by ZEFSAII (Michael W. Deem and Ramdas Pophale) SiO2 
 PCOD9114522
Probable space group: P 21
;
_chemical_formula_sum "Si O2"
_cell_formula_units_Z 16
_cell_length_a 17.284153
_cell_length_b 5.254716
_cell_length_c 7.887684
_cell_angle_alpha 90.000000
_cell_angle_beta 107.538317
_cell_angle_gamma 90.000000
_cell_volume 683.084883
_symmetry_space_group_name_H-M "P 21"
_symmetry_group_IT_number 4
_symmetry_cell_setting 'monoclinic'
loop_
_space_group_symop_operation_xyz
x,y,z
-x,1/2+y,-z
loop_
_atom_site_type_symbol
_atom_site_label
_atom_site_fract_x
_atom_site_fract_y
_atom_site_fract_z
Si Si1 0.343313 0.795320 0.140237
Si Si2 0.812686 0.059414 0.857459
Si Si3 0.508247 0.919974 0.123048
Si Si4 0.764918 0.654953 0.069582
Si Si5 0.040260 0.880919 0.954811
Si Si6 0.095221 0.992045 0.634359
Si Si7 0.683161 0.032438 0.242738
Si Si8 0.142547 0.512068 0.481670
O O1 0.283867 0.618881 0.211099
O O2 0.438553 0.842040 0.211574
O O3 0.293982 0.056880 0.114639
O O4 0.330844 0.704373 0.935237
O O5 0.868058 0.307914 0.926844
O O6 0.848205 0.948235 0.709078
O O7 0.821245 0.872642 0.024098
O O8 0.594338 0.996683 0.262843
O O9 0.517186 0.671531 0.004545
O O10 0.820960 0.460410 0.205510
O O11 0.706917 0.766387 0.173416
O O12 0.034817 0.948947 0.751667
O O13 0.992680 0.621768 0.964990
O O14 0.092403 0.765582 0.497407
O O15 0.106882 0.270683 0.560746
O O16 0.763430 0.081848 0.404827
#
# Coordination Sequence:
#
# PCOD9114522 Si02
#       8
#     2   2   2   2   2   2   2   2
#     4  10  18  34  62  86 120 168 221 261 298 370
#     4  11  25  40  65  97 129 165 217 260 317 385
#     4  10  19  30  55  91 122 160 218 276 307 352
#     4  10  17  36  63  88 117 168 216 261 288 373
#     4  12  25  44  72  98 122 163 209 262 312 381
#     4  11  22  43  66  96 124 167 210 252 309 382
#     4   9  18  34  56  91 125 164 215 262 318 359
#     4  11  24  39  67  97 131 169 204 262 315 374
#
# _framework density 23.423147
#
# number of rings (size 3 to 8) (size 9 to 14) (size 15 to 20)
#    0.000    1.500    3.750    3.000    1.750    0.000 
#    0.000    2.500    2.750    1.500    0.000    0.000 
#    0.000    0.000    0.000    0.000    0.000    0.000 
#
# Total GULP energy -89200.044991 kJ/mol
# GULP energy per Si atom -5575.002812 kJ/mol
# Density = 2.336984 g / cm^3
# Si number density = 23.423147 Si / 1000 Ang^3
#
#
#
# Elastic Constant Matrix: (Units=GPa)
#
#
# Indices 1 2 3 4 5 6 
#
# 1 152.8414 35.7825 34.5233 0.0000 -11.8779 0.0000
# 2 35.7825 94.3551 12.4268 0.0000 -11.1940 0.0000
# 3 34.5233 12.4268 54.0535 0.0000 -11.4712 0.0000
# 4 0.0000 0.0000 0.0000 21.6199 0.0000 -3.7493
# 5 -11.8779 -11.1940 -11.4712 0.0000 31.9324 0.0000
# 6 0.0000 0.0000 0.0000 -3.7493 0.0000 32.8736
#
#
#
# Elastic Compliance Matrix: (Units=1/GPa)
#
#
# Indices 1 2 3 4 5 6 
#
# 1 0.008184 -0.002439 -0.004549 0.000000 0.000555 0.000000
# 2 -0.002439 0.011961 -0.000536 0.000000 0.003093 0.000000
# 3 -0.004549 -0.000536 0.022873 0.000000 0.006337 0.000000
# 4 0.000000 0.000000 0.000000 0.047187 0.000000 0.005382
# 5 0.000555 0.003093 0.006337 0.000000 0.034884 0.000000
# 6 0.000000 0.000000 0.000000 0.005382 0.000000 0.031033
#
#
# Mechanical properties :
#
#
# Convention : Reuss Voigt Hill
#
# Bulk Modulus (GPa) = 35.74991 51.85722 43.80357
# Shear Modulus (GPa) = 27.70197 31.85300 29.77749
#
# Velocity S-wave (km/s) = 3.44274 3.69167 3.56938
# Velocity P-wave (km/s) = 5.57665 6.35285 5.97736
#
# Compressibility (1/GPa) = 0.02797210
#
# Stress axis : x y z
#
# Youngs Moduli (GPa) = 122.18530 83.60744 43.71890
#
# Poissons Ratio (x) = 0.20390 0.19886
# Poissons Ratio (y) = 0.29798 0.02342
# Poissons Ratio (z) = 0.55578 0.04478
#
# Static dielectric constant tensor:
#      x y z
#    x 1.999140 0.000000 0.029150 
#    y 0.000000 1.940930 0.000000 
#    z 0.029150 0.000000 1.867450 
# 
# From -- ./inp_files/9391.got.cif
#   From: 2010.05.17/outbox.cif.g08.bks.cpg/sg4_5_cif.got.tgz:9391.got - 2010.06.03 18:43:04.
