data_PCOD9114769
_publ_section_title
;
Structure prediction by ZEFSAII (Michael W. Deem and Ramdas Pophale) SiO2 
 PCOD9114769
Probable space group: P 21
;
_chemical_formula_sum "Si O2"
_cell_formula_units_Z 14
_cell_length_a 17.203190
_cell_length_b 5.181023
_cell_length_c 11.623229
_cell_angle_alpha 90.000000
_cell_angle_beta 139.114981
_cell_angle_gamma 90.000000
_cell_volume 678.093512
_symmetry_space_group_name_H-M "P 21"
_symmetry_group_IT_number 4
_symmetry_cell_setting 'monoclinic'
loop_
_space_group_symop_operation_xyz
x,y,z
-x,1/2+y,-z
loop_
_atom_site_type_symbol
_atom_site_label
_atom_site_fract_x
_atom_site_fract_y
_atom_site_fract_z
Si Si1 0.861511 0.850610 0.790762
Si Si2 0.369622 0.984299 0.748909
Si Si3 0.840557 0.994299 0.273333
Si Si4 0.603207 0.719889 0.976917
Si Si5 0.175227 0.007801 0.879473
Si Si6 0.213877 0.483159 0.543788
Si Si7 0.859196 0.348635 0.897716
O O1 0.808232 0.570244 0.757580
O O2 0.850303 0.953208 0.649198
O O3 0.807233 0.067726 0.813363
O O4 0.001001 0.818381 0.972588
O O5 0.315023 0.259527 0.651958
O O6 0.481710 0.859169 0.809647
O O7 0.268268 0.766817 0.624699
O O8 0.411163 0.037630 0.927142
O O9 0.859930 0.275018 0.244486
O O10 0.870040 0.938519 0.438957
O O11 0.883589 0.771702 0.234194
O O12 0.697753 0.943054 0.115928
O O13 0.682528 0.560272 0.975425
O O14 0.150464 0.937372 0.982112
#
# Coordination Sequence:
#
# PCOD9114769 Si02
#       7
#     2   2   2   2   2   2   2
#     4  10  22  39  61  80 107 142 201 233 274 327
#     4  11  20  30  55  81 119 147 182 218 269 329
#     4   9  18  31  50  81 114 141 169 224 275 338
#     4   9  20  30  52  82 113 146 185 212 263 331
#     4  10  19  33  55  82 113 136 188 224 277 323
#     4  11  20  35  52  84 116 144 179 232 278 327
#     4  10  21  40  61  82 100 148 196 239 270 329
#
# _framework density 20.646121999999998
#
# number of rings (size 3 to 8) (size 9 to 14) (size 15 to 20)
#    0.857    1.143    1.429    3.429    2.000    0.000 
#    0.000    1.429    0.000    3.429    0.000    0.000 
#    0.000    0.000    0.000    0.000    0.000    0.000 
#
# Total GULP energy -77997.011732 kJ/mol
# GULP energy per Si atom -5571.215124 kJ/mol
# Density = 2.059913 g / cm^3
# Si number density = 20.646122 Si / 1000 Ang^3
#
#
#
# Elastic Constant Matrix: (Units=GPa)
#
#
# Indices 1 2 3 4 5 6 
#
# 1 30.8529 2.3886 -13.2684 0.0000 0.5832 0.0000
# 2 2.3886 93.1302 8.2082 0.0000 12.8753 0.0000
# 3 -13.2684 8.2082 27.4368 0.0000 -0.3302 0.0000
# 4 0.0000 0.0000 0.0000 20.2075 0.0000 -4.7966
# 5 0.5832 12.8753 -0.3302 0.0000 26.8973 0.0000
# 6 0.0000 0.0000 0.0000 -4.7966 0.0000 24.3923
#
#
#
# Elastic Compliance Matrix: (Units=1/GPa)
#
#
# Indices 1 2 3 4 5 6 
#
# 1 0.041700 -0.003040 0.021085 0.000000 0.000810 0.000000
# 2 -0.003040 0.012068 -0.005150 0.000000 -0.005774 0.000000
# 3 0.021085 -0.005150 0.048216 0.000000 0.002600 0.000000
# 4 0.000000 0.000000 0.000000 0.051909 0.000000 0.010208
# 5 0.000810 -0.005774 0.002600 0.000000 0.039957 0.000000
# 6 0.000000 0.000000 0.000000 0.010208 0.000000 0.043004
#
#
# Mechanical properties :
#
#
# Convention : Reuss Voigt Hill
#
# Bulk Modulus (GPa) = 7.82631 16.23076 12.02853
# Shear Modulus (GPa) = 19.71188 24.57218 22.14203
#
# Velocity S-wave (km/s) = 3.09325 3.45361 3.27839
# Velocity P-wave (km/s) = 4.06897 4.87665 4.49101
#
# Compressibility (1/GPa) = 0.12777408
#
# Stress axis : x y z
#
# Youngs Moduli (GPa) = 23.98104 82.86534 20.73998
#
# Poissons Ratio (x) = 0.25190 -0.43730
# Poissons Ratio (y) = 0.07290 0.10681
# Poissons Ratio (z) = -0.50564 0.42674
#
# Static dielectric constant tensor:
#      x y z
#    x 1.733670 0.000000 0.005270 
#    y 0.000000 1.773320 0.000000 
#    z 0.005270 0.000000 1.752560 
# 
# From -- ./inp_files/12815.got.cif
#   From: 2010.05.17/outbox.cif.g08.bks.cpg/sg4_7_cif.got.tgz:12815.got - 2010.06.03 18:43:04.
