data_PCOD9114630
_publ_section_title
;
Structure prediction by ZEFSAII (Michael W. Deem and Ramdas Pophale) SiO2 
 PCOD9114630
Probable space group: P 21
;
_chemical_formula_sum "Si O2"
_cell_formula_units_Z 16
_cell_length_a 6.921285
_cell_length_b 11.111007
_cell_length_c 8.572044
_cell_angle_alpha 90.000000
_cell_angle_beta 58.346429
_cell_angle_gamma 90.000000
_cell_volume 561.144686
_symmetry_space_group_name_H-M "P 21"
_symmetry_group_IT_number 4
_symmetry_cell_setting 'monoclinic'
loop_
_space_group_symop_operation_xyz
x,y,z
-x,1/2+y,-z
loop_
_atom_site_type_symbol
_atom_site_label
_atom_site_fract_x
_atom_site_fract_y
_atom_site_fract_z
Si Si1 0.445137 0.406910 0.840003
Si Si2 0.947909 0.257535 0.326050
Si Si3 0.703996 0.760334 0.541384
Si Si4 0.340028 0.158969 0.926823
Si Si5 0.823626 0.012884 0.442756
Si Si6 0.049793 0.941900 0.037313
Si Si7 0.373248 0.755617 0.962459
Si Si8 0.821143 0.507830 0.446575
O O1 0.631770 0.472032 0.657014
O O2 0.195733 0.464255 0.935380
O O3 0.406930 0.270634 0.789743
O O4 0.528802 0.369719 0.977754
O O5 0.855689 0.389496 0.326305
O O6 0.069385 0.270026 0.443734
O O7 0.145231 0.213757 0.125474
O O8 0.767389 0.149242 0.417793
O O9 0.662943 0.897030 0.501758
O O10 0.507996 0.734254 0.748425
O O11 0.755485 0.641304 0.419948
O O12 0.561410 0.148441 0.946976
O O13 0.240683 0.036742 0.902905
O O14 0.008453 0.975241 0.236025
O O15 0.941866 0.021141 0.559848
O O16 0.128905 0.803098 0.015598
#
# Coordination Sequence:
#
# PCOD9114630 Si02
#       8
#     2   2   2   2   2   2   2   2
#     4  10  22  35  56  86 116 157 197 238 293 356
#     4   8  16  32  59  82 114 155 192 243 296 349
#     4   9  18  33  58  86 115 150 200 240 296 355
#     4   8  19  38  56  86 118 153 199 247 294 353
#     4   9  17  35  60  85 112 152 198 248 293 350
#     4  11  20  39  61  84 118 156 199 245 297 358
#     4   9  20  37  57  83 115 155 194 240 298 349
#     4  10  18  35  57  86 116 156 195 241 301 348
#
# _framework density 28.513148000000001
#
# number of rings (size 3 to 8) (size 9 to 14) (size 15 to 20)
#    0.750    2.000    1.250    0.750    0.000    2.000 
#    0.000   10.000    0.000    0.000    0.000    0.000 
#    0.000    0.000    0.000    0.000    0.000    0.000 
#
# Total GULP energy -89397.487521 kJ/mol
# GULP energy per Si atom -5587.342970 kJ/mol
# Density = 2.844825 g / cm^3
# Si number density = 28.513148 Si / 1000 Ang^3
#
#
#
# Elastic Constant Matrix: (Units=GPa)
#
#
# Indices 1 2 3 4 5 6 
#
# 1 138.5426 25.6318 14.1154 0.0000 3.2276 0.0000
# 2 25.6318 158.4963 60.7196 0.0000 -0.3912 0.0000
# 3 14.1154 60.7196 61.2079 0.0000 -5.4832 0.0000
# 4 0.0000 0.0000 0.0000 52.6232 0.0000 -1.1758
# 5 3.2276 -0.3912 -5.4832 0.0000 27.2337 0.0000
# 6 0.0000 0.0000 0.0000 -1.1758 0.0000 36.5825
#
#
#
# Elastic Compliance Matrix: (Units=1/GPa)
#
#
# Indices 1 2 3 4 5 6 
#
# 1 0.007500 -0.000831 -0.001004 0.000000 -0.001103 0.000000
# 2 -0.000831 0.010369 -0.010257 0.000000 -0.001818 0.000000
# 3 -0.001004 -0.010257 0.027233 0.000000 0.005455 0.000000
# 4 0.000000 0.000000 0.000000 0.019017 0.000000 0.000611
# 5 -0.001103 -0.001818 0.005455 0.000000 0.037922 0.000000
# 6 0.000000 0.000000 0.000000 0.000611 0.000000 0.027355
#
#
# Mechanical properties :
#
#
# Convention : Reuss Voigt Hill
#
# Bulk Modulus (GPa) = 47.80709 62.13118 54.96913
# Shear Modulus (GPa) = 31.14249 40.47321 35.80785
#
# Velocity S-wave (km/s) = 3.30845 3.77166 3.54762
# Velocity P-wave (km/s) = 5.60335 6.38787 6.00843
#
# Compressibility (1/GPa) = 0.02091740
#
# Stress axis : x y z
#
# Youngs Moduli (GPa) = 133.33843 96.44418 36.71976
#
# Poissons Ratio (x) = 0.08014 0.03687
# Poissons Ratio (y) = 0.11079 0.37664
# Poissons Ratio (z) = 0.13388 0.98925
#
# Static dielectric constant tensor:
#      x y z
#    x 2.223920 0.000000 0.013760 
#    y 0.000000 2.291240 0.000000 
#    z 0.013760 0.000000 2.169800 
# 
# From -- ./inp_files/11358.got.cif
#   From: 2010.05.17/outbox.cif.g08.bks.cpg/sg4_6_cif.got.tgz:11358.got - 2010.06.03 18:43:04.
