data_PCOD9114648
_publ_section_title
;
Structure prediction by ZEFSAII (Michael W. Deem and Ramdas Pophale) SiO2 
 PCOD9114648
Probable space group: P 21
;
_chemical_formula_sum "Si O2"
_cell_formula_units_Z 14
_cell_length_a 7.729342
_cell_length_b 9.383799
_cell_length_c 10.563593
_cell_angle_alpha 90.000000
_cell_angle_beta 56.846490
_cell_angle_gamma 90.000000
_cell_volume 641.455337
_symmetry_space_group_name_H-M "P 21"
_symmetry_group_IT_number 4
_symmetry_cell_setting 'monoclinic'
loop_
_space_group_symop_operation_xyz
x,y,z
-x,1/2+y,-z
loop_
_atom_site_type_symbol
_atom_site_label
_atom_site_fract_x
_atom_site_fract_y
_atom_site_fract_z
Si Si1 0.751701 0.625000 0.066451
Si Si2 0.605479 0.907399 0.738524
Si Si3 0.085566 0.658461 0.422858
Si Si4 0.480142 0.846328 0.502841
Si Si5 0.791382 0.630544 0.775449
Si Si6 0.452740 0.877810 0.245180
Si Si7 0.230209 0.100107 0.660426
O O1 0.597721 0.490054 0.134755
O O2 0.612192 0.768144 0.119592
O O3 0.854915 0.621290 0.163624
O O4 0.870373 0.619212 0.887252
O O5 0.578460 0.866429 0.601815
O O6 0.664834 0.774145 0.799006
O O7 0.788554 0.020256 0.668359
O O8 0.246308 0.787647 0.362855
O O9 0.974345 0.631719 0.600190
O O10 0.914314 0.675152 0.383307
O O11 0.546693 0.923235 0.344124
O O12 0.546447 0.683353 0.438554
O O13 0.265864 0.933562 0.613854
O O14 0.629885 0.505085 0.806596
#
# Coordination Sequence:
#
# PCOD9114648 Si02
#       7
#     2   2   2   2   2   2   2
#     4   9  22  38  57  80 122 146 187 230 296 333
#     4  10  21  37  61  84 113 151 190 238 277 341
#     4  11  22  37  60  85 117 143 194 237 286 321
#     4  10  18  36  58  84 106 150 194 228 268 336
#     4  12  20  35  60  88 109 151 190 236 280 345
#     4  10  21  37  61  84 113 151 190 238 277 341
#     4  10  20  36  57  81 116 150 187 235 280 335
#
# _framework density 21.825371000000001
#
# number of rings (size 3 to 8) (size 9 to 14) (size 15 to 20)
#    0.000    1.714    2.857    2.571    0.000    0.000 
#    0.000    1.429   12.571    0.000    0.000    0.000 
#    0.000    0.000    0.000    0.000    0.000    0.000 
#
# Total GULP energy -78033.287251 kJ/mol
# GULP energy per Si atom -5573.806232 kJ/mol
# Density = 2.177570 g / cm^3
# Si number density = 21.825371 Si / 1000 Ang^3
#
#
#
# Elastic Constant Matrix: (Units=GPa)
#
#
# Indices 1 2 3 4 5 6 
#
# 1 38.5235 -1.8688 33.0266 0.0000 13.6408 0.0000
# 2 -1.8688 70.5290 19.1769 0.0000 12.6315 0.0000
# 3 33.0266 19.1769 125.0091 0.0000 42.3967 0.0000
# 4 0.0000 0.0000 0.0000 1.5762 0.0000 20.6764
# 5 13.6408 12.6315 42.3967 0.0000 24.8585 0.0000
# 6 0.0000 0.0000 0.0000 20.6764 0.0000 11.2553
#
#
#
# Elastic Compliance Matrix: (Units=1/GPa)
#
#
# Indices 1 2 3 4 5 6 
#
# 1 0.035540 0.004643 -0.006375 0.000000 -0.010989 0.000000
# 2 0.004643 0.016231 -0.000131 0.000000 -0.010571 0.000000
# 3 -0.006375 -0.000131 0.020150 0.000000 -0.030802 0.000000
# 4 0.000000 0.000000 0.000000 -0.027467 0.000000 0.050458
# 5 -0.010989 -0.010571 -0.030802 0.000000 0.104162 0.000000
# 6 0.000000 0.000000 0.000000 0.050458 0.000000 -0.003846
#
#
# Mechanical properties :
#
#
# Convention : Reuss Voigt Hill
#
# Bulk Modulus (GPa) = 14.66388 37.19232 25.92810
# Shear Modulus (GPa) = 29.20115 19.78647 24.49381
#
# Velocity S-wave (km/s) = 3.66176 3.01421 3.35365
# Velocity P-wave (km/s) = 4.96098 5.40295 5.18667
#
# Compressibility (1/GPa) = 0.06819477
#
# Stress axis : x y z
#
# Youngs Moduli (GPa) = 28.13753 61.61213 49.62780
#
# Poissons Ratio (x) = -0.28607 0.31636
# Poissons Ratio (y) = -0.13065 0.00651
# Poissons Ratio (z) = 0.17937 0.00809
#
# Static dielectric constant tensor:
#      x y z
#    x 1.815160 0.000000 0.020260 
#    y 0.000000 1.813320 0.000000 
#    z 0.020260 0.000000 1.803770 
# 
# From -- ./inp_files/5353.got.cif
#   From: 2010.05.17/outbox.cif.g08.bks.cpg/sg4_3_cif.got.tgz:5353.got - 2010.06.03 18:43:04.
