data_PCOD9114597
_publ_section_title
;
Structure prediction by ZEFSAII (Michael W. Deem and Ramdas Pophale) SiO2 
 PCOD9114597
Probable space group: P 21
;
_chemical_formula_sum "Si O2"
_cell_formula_units_Z 16
_cell_length_a 5.213737
_cell_length_b 8.045563
_cell_length_c 18.030146
_cell_angle_alpha 90.000000
_cell_angle_beta 62.944521
_cell_angle_gamma 90.000000
_cell_volume 673.552052
_symmetry_space_group_name_H-M "P 21"
_symmetry_group_IT_number 4
_symmetry_cell_setting 'monoclinic'
loop_
_space_group_symop_operation_xyz
x,y,z
-x,1/2+y,-z
loop_
_atom_site_type_symbol
_atom_site_label
_atom_site_fract_x
_atom_site_fract_y
_atom_site_fract_z
Si Si1 0.742751 0.035580 0.824646
Si Si2 0.684592 0.326631 0.222514
Si Si3 0.361154 0.433910 0.391745
Si Si4 0.207549 0.759252 0.313178
Si Si5 0.345824 0.457574 0.997240
Si Si6 0.061830 0.105230 0.076503
Si Si7 0.629205 0.671773 0.449900
Si Si8 0.230064 0.942538 0.446428
O O1 0.733349 0.207168 0.778725
O O2 0.683975 0.049371 0.919330
O O3 0.499526 0.915145 0.819475
O O4 0.060295 0.950135 0.781584
O O5 0.463262 0.300075 0.318966
O O6 0.849911 0.166802 0.169548
O O7 0.292281 0.590894 0.346498
O O8 0.624084 0.497997 0.406589
O O9 0.103812 0.430765 0.484974
O O10 0.316789 0.911119 0.349433
O O11 0.871264 0.773829 0.375127
O O12 0.225713 0.273480 0.028955
O O13 0.683319 0.479688 0.933902
O O14 0.138132 0.535853 0.962768
O O15 0.352069 0.780494 0.472521
O O16 0.662298 0.611116 0.529424
#
# Coordination Sequence:
#
# PCOD9114597 Si02
#       8
#     2   2   2   2   2   2   2   2
#     4  10  19  35  60  93 119 152 208 256 295 353
#     4  10  19  35  60  93 119 152 208 256 295 353
#     4   9  18  32  53  84 114 149 201 253 292 344
#     4   9  18  32  53  84 114 149 201 253 292 344
#     4  11  22  39  64  99 129 163 205 257 314 375
#     4  11  22  39  64  99 129 163 205 257 314 375
#     4  10  18  34  54  82 112 152 192 250 302 352
#     4  10  20  32  54  86 116 150 194 250 308 354
#
# _framework density 23.754662
#
# number of rings (size 3 to 8) (size 9 to 14) (size 15 to 20)
#    0.000    2.000    1.250    4.500    0.000    0.000 
#    0.000    0.000    0.000    7.500   16.250    0.000 
#    0.000    0.000    0.000    0.000    0.000    0.000 
#
# Total GULP energy -89186.601652 kJ/mol
# GULP energy per Si atom -5574.162603 kJ/mol
# Density = 2.370060 g / cm^3
# Si number density = 23.754662 Si / 1000 Ang^3
#
#
#
# Elastic Constant Matrix: (Units=GPa)
#
#
# Indices 1 2 3 4 5 6 
#
# 1 110.0932 9.5897 10.4706 0.0000 5.3761 0.0000
# 2 9.5897 43.3421 0.1544 0.0000 6.2566 0.0000
# 3 10.4706 0.1544 50.3710 0.0000 -1.8132 0.0000
# 4 0.0000 0.0000 0.0000 36.1716 0.0000 5.5868
# 5 5.3761 6.2566 -1.8132 0.0000 24.1815 0.0000
# 6 0.0000 0.0000 0.0000 5.5868 0.0000 36.1910
#
#
#
# Elastic Compliance Matrix: (Units=1/GPa)
#
#
# Indices 1 2 3 4 5 6 
#
# 1 0.009525 -0.001841 -0.002039 0.000000 -0.001794 0.000000
# 2 -0.001841 0.024328 0.000097 0.000000 -0.005878 0.000000
# 3 -0.002039 0.000097 0.020347 0.000000 0.001954 0.000000
# 4 0.000000 0.000000 0.000000 0.028321 0.000000 -0.004372
# 5 -0.001794 -0.005878 0.001954 0.000000 0.043420 0.000000
# 6 0.000000 0.000000 0.000000 -0.004372 0.000000 0.028306
#
#
# Mechanical properties :
#
#
# Convention : Reuss Voigt Hill
#
# Bulk Modulus (GPa) = 21.44436 27.13729 24.29083
# Shear Modulus (GPa) = 28.19154 31.54827 29.86990
#
# Velocity S-wave (km/s) = 3.44870 3.64825 3.54988
# Velocity P-wave (km/s) = 4.99050 5.40325 5.20097
#
# Compressibility (1/GPa) = 0.04663231
#
# Stress axis : x y z
#
# Youngs Moduli (GPa) = 104.98555 41.10524 49.14831
#
# Poissons Ratio (x) = 0.07568 0.10021
# Poissons Ratio (y) = 0.19330 -0.00475
# Poissons Ratio (z) = 0.21406 -0.00397
#
# Static dielectric constant tensor:
#      x y z
#    x 1.986140 0.000000 0.019060 
#    y 0.000000 1.951190 0.000000 
#    z 0.019060 0.000000 1.942160 
# 
# From -- ./inp_files/4045.got.cif
#   From: 2010.05.17/outbox.cif.g08.bks.cpg/sg4_3_cif.got.tgz:4045.got - 2010.06.03 18:43:04.
