data_PCOD9114038
_publ_section_title
;
Structure prediction by ZEFSAII (Michael W. Deem and Ramdas Pophale) SiO2 
 PCOD9114038
Probable space group: P 2
;
_chemical_formula_sum "Si O2"
_cell_formula_units_Z 13
_cell_length_a 13.699414
_cell_length_b 5.035407
_cell_length_c 19.651643
_cell_angle_alpha 90.000000
_cell_angle_beta 158.894635
_cell_angle_gamma 90.000000
_cell_volume 488.134451
_symmetry_space_group_name_H-M "P 2"
_symmetry_group_IT_number 3
_symmetry_cell_setting 'monoclinic'
loop_
_space_group_symop_operation_xyz
x,y,z
-x,y,-z
loop_
_atom_site_type_symbol
_atom_site_label
_atom_site_fract_x
_atom_site_fract_y
_atom_site_fract_z
Si Si1 0.052487 0.449340 0.104383
Si Si2 0.301403 0.074692 0.061992
Si Si3 0.241730 0.839453 0.551804
Si Si4 0.192290 0.238201 0.685488
Si Si5 0.669712 0.348770 0.480043
Si Si6 0.500000 0.525188 0.000000
Si Si7 0.077536 0.686005 0.834623
O O1 0.365747 0.378457 0.310113
O O2 0.941697 0.583480 0.100094
O O3 0.000000 0.600989 0.000000
O O4 0.859177 0.193454 0.979310
O O5 0.525430 0.881668 0.241097
O O6 0.513789 0.248504 0.157901
O O7 0.082508 0.992423 0.861844
O O8 0.286968 0.046690 0.517705
O O9 0.955378 0.954107 0.394109
O O10 0.279395 0.538520 0.552591
O O11 0.000000 0.355090 0.500000
O O12 0.270477 0.360659 0.809693
O O13 0.855096 0.507927 0.653727
O O14 0.665920 0.681359 0.049879
#
# Coordination Sequence:
#
# PCOD9114038 Si02
#       7
#     2   2   2   2   2   1   2
#     4  12  26  51  79 111 158 219 279 336 406 510
#     4  11  26  47  80 118 156 221 282 342 416 510
#     4  11  26  51  79 118 164 213 273 346 417 496
#     4  10  24  46  79 120 162 217 277 349 422 507
#     4  12  28  49  78 116 164 212 271 346 417 499
#     4  12  24  48  82 116 172 214 288 348 434 508
#     4  12  29  47  79 118 161 219 278 350 430 496
#
# _framework density 26.632003999999998
#
# number of rings (size 3 to 8) (size 9 to 14) (size 15 to 20)
#    0.000    0.615    4.615    1.385    8.615    0.615 
#    0.000    2.308    0.000    0.000    0.000    0.000 
#    0.000    0.000    0.000    0.000    0.000    0.000 
#
# Total GULP energy -72531.995851 kJ/mol
# GULP energy per Si atom -5579.384296 kJ/mol
# Density = 2.657139 g / cm^3
# Si number density = 26.632004 Si / 1000 Ang^3
#
#
#
# Elastic Constant Matrix: (Units=GPa)
#
#
# Indices 1 2 3 4 5 6 
#
# 1 169.7337 18.1494 47.8278 0.0000 9.2843 0.0000
# 2 18.1494 64.1119 19.8367 0.0000 4.0808 0.0000
# 3 47.8278 19.8367 101.0955 0.0000 19.6882 0.0000
# 4 0.0000 0.0000 0.0000 32.0514 0.0000 -8.6038
# 5 9.2843 4.0808 19.6882 0.0000 71.7016 0.0000
# 6 0.0000 0.0000 0.0000 -8.6038 0.0000 25.4621
#
#
#
# Elastic Compliance Matrix: (Units=1/GPa)
#
#
# Indices 1 2 3 4 5 6 
#
# 1 0.006857 -0.000998 -0.003050 0.000000 0.000006 0.000000
# 2 -0.000998 0.016751 -0.002804 0.000000 -0.000054 0.000000
# 3 -0.003050 -0.002804 0.012442 0.000000 -0.002862 0.000000
# 4 0.000000 0.000000 0.000000 0.034312 0.000000 0.011594
# 5 0.000006 -0.000054 -0.002862 0.000000 0.014735 0.000000
# 6 0.000000 0.000000 0.000000 0.011594 0.000000 0.043192
#
#
# Mechanical properties :
#
#
# Convention : Reuss Voigt Hill
#
# Bulk Modulus (GPa) = 44.74871 56.28542 50.51707
# Shear Modulus (GPa) = 33.45776 42.45148 37.95462
#
# Velocity S-wave (km/s) = 3.54828 3.99683 3.77921
# Velocity P-wave (km/s) = 5.79880 6.51766 6.16871
#
# Compressibility (1/GPa) = 0.02234701
#
# Stress axis : x y z
#
# Youngs Moduli (GPa) = 145.83085 59.69664 80.37336
#
# Poissons Ratio (x) = 0.05958 0.24510
# Poissons Ratio (y) = 0.14555 0.22538
# Poissons Ratio (z) = 0.44471 0.16740
#
# Static dielectric constant tensor:
#      x y z
#    x 2.064950 0.000000 -0.053430 
#    y 0.000000 2.453040 0.000000 
#    z -0.053430 0.000000 2.087970 
# 
# From -- ./inp_files/16039.got.cif
#   From: 2010.05.17/outbox.cif.g08.bks.cpg/sg3_9_cif.got.tgz:16039.got - 2010.06.03 18:33:08.
