data_PCOD9114687
_publ_section_title
;
Structure prediction by ZEFSAII (Michael W. Deem and Ramdas Pophale) SiO2 
 PCOD9114687
Probable space group: P 21
;
_chemical_formula_sum "Si O2"
_cell_formula_units_Z 16
_cell_length_a 5.325764
_cell_length_b 23.078446
_cell_length_c 5.043307
_cell_angle_alpha 90.000000
_cell_angle_beta 95.964196
_cell_angle_gamma 90.000000
_cell_volume 616.519295
_symmetry_space_group_name_H-M "P 21"
_symmetry_group_IT_number 4
_symmetry_cell_setting 'monoclinic'
loop_
_space_group_symop_operation_xyz
x,y,z
-x,1/2+y,-z
loop_
_atom_site_type_symbol
_atom_site_label
_atom_site_fract_x
_atom_site_fract_y
_atom_site_fract_z
Si Si1 0.084982 0.542510 0.840173
Si Si2 0.782749 0.825297 0.044106
Si Si3 0.319433 0.083233 0.564272
Si Si4 0.599514 0.358012 0.391984
Si Si5 0.276893 0.767610 0.957475
Si Si6 0.040621 0.934511 0.930550
Si Si7 0.592562 0.967692 0.473158
Si Si8 0.556055 0.136265 0.062001
O O1 0.959682 0.572345 0.573548
O O2 0.300945 0.498357 0.773968
O O3 0.217698 0.594039 0.007390
O O4 0.889331 0.497192 0.943158
O O5 0.679124 0.837571 0.733626
O O6 0.517667 0.800173 0.129709
O O7 0.010452 0.779892 0.066565
O O8 0.914614 0.887025 0.119559
O O9 0.465117 0.116998 0.343102
O O10 0.435777 0.018773 0.596363
O O11 0.338268 0.120450 0.830420
O O12 0.744997 0.298675 0.336575
O O13 0.735622 0.399913 0.187476
O O14 0.557027 0.408198 0.601600
O O15 0.354973 0.701818 0.937694
O O16 0.829351 0.951944 0.687841
#
# Coordination Sequence:
#
# PCOD9114687 Si02
#       8
#     2   2   2   2   2   2   2   2
#     4  11  25  38  69 103 144 188 239 304 373 440
#     4   8  18  36  67  99 131 185 234 299 364 429
#     4  11  26  43  70 105 140 193 239 301 368 436
#     4   8  18  34  68  95 137 180 232 293 367 425
#     4   9  19  40  68  97 139 188 245 301 359 436
#     4  10  18  38  66  97 141 179 230 301 367 442
#     4  10  20  39  58  99 137 178 233 292 363 437
#     4  11  26  46  68 103 143 191 250 299 363 439
#
# _framework density 25.952148999999999
#
# number of rings (size 3 to 8) (size 9 to 14) (size 15 to 20)
#    0.750    1.500    1.250    0.750    5.250    1.000 
#    0.000    1.250   16.500    0.000    0.000    0.000 
#    0.000    0.000    0.000    0.000    0.000    0.000 
#
# Total GULP energy -89285.992767 kJ/mol
# GULP energy per Si atom -5580.374548 kJ/mol
# Density = 2.589308 g / cm^3
# Si number density = 25.952149 Si / 1000 Ang^3
#
#
#
# Elastic Constant Matrix: (Units=GPa)
#
#
# Indices 1 2 3 4 5 6 
#
# 1 117.6509 4.8670 13.0488 0.0000 -2.3658 0.0000
# 2 4.8670 151.7083 13.7400 0.0000 -2.3077 0.0000
# 3 13.0488 13.7400 61.8749 0.0000 7.2177 0.0000
# 4 0.0000 0.0000 0.0000 27.1130 0.0000 0.0999
# 5 -2.3658 -2.3077 7.2177 0.0000 29.2286 0.0000
# 6 0.0000 0.0000 0.0000 0.0999 0.0000 21.3069
#
#
#
# Elastic Compliance Matrix: (Units=1/GPa)
#
#
# Indices 1 2 3 4 5 6 
#
# 1 0.008745 -0.000085 -0.001964 0.000000 0.001186 0.000000
# 2 -0.000085 0.006752 -0.001589 0.000000 0.000919 0.000000
# 3 -0.001964 -0.001589 0.017465 0.000000 -0.004597 0.000000
# 4 0.000000 0.000000 0.000000 0.036883 0.000000 -0.000173
# 5 0.001186 0.000919 -0.004597 0.000000 0.035517 0.000000
# 6 0.000000 0.000000 0.000000 -0.000173 0.000000 0.046934
#
#
# Mechanical properties :
#
#
# Convention : Reuss Voigt Hill
#
# Bulk Modulus (GPa) = 38.92921 43.83841 41.38381
# Shear Modulus (GPa) = 29.73840 35.50158 32.61999
#
# Velocity S-wave (km/s) = 3.38878 3.70261 3.54916
# Velocity P-wave (km/s) = 5.50860 5.93362 5.72505
#
# Compressibility (1/GPa) = 0.02568765
#
# Stress axis : x y z
#
# Youngs Moduli (GPa) = 114.35267 148.10051 57.25797
#
# Poissons Ratio (x) = 0.01254 0.11244
# Poissons Ratio (y) = 0.00968 0.09097
# Poissons Ratio (z) = 0.22456 0.23529
#
# Static dielectric constant tensor:
#      x y z
#    x 2.114660 0.000000 -0.036160 
#    y 0.000000 2.000060 0.000000 
#    z -0.036160 0.000000 2.187000 
# 
# From -- ./inp_files/771.got.cif
#   From: 2010.05.17/outbox.cif.g08.bks.cpg/sg4_1_cif.got.tgz:771.got - 2010.06.03 18:43:04.
