data_PCOD9114545
_publ_section_title
;
Structure prediction by ZEFSAII (Michael W. Deem and Ramdas Pophale) SiO2 
 PCOD9114545
Probable space group: P 21
;
_chemical_formula_sum "Si O2"
_cell_formula_units_Z 16
_cell_length_a 16.032213
_cell_length_b 5.478829
_cell_length_c 10.259515
_cell_angle_alpha 90.000000
_cell_angle_beta 44.316946
_cell_angle_gamma 90.000000
_cell_volume 629.583552
_symmetry_space_group_name_H-M "P 21"
_symmetry_group_IT_number 4
_symmetry_cell_setting 'monoclinic'
loop_
_space_group_symop_operation_xyz
x,y,z
-x,1/2+y,-z
loop_
_atom_site_type_symbol
_atom_site_label
_atom_site_fract_x
_atom_site_fract_y
_atom_site_fract_z
Si Si1 0.418037 0.290960 0.437994
Si Si2 0.207206 0.290961 0.179084
Si Si3 0.935477 0.790961 0.043001
Si Si4 0.038183 0.790961 0.640115
Si Si5 0.430298 0.290959 0.115826
Si Si6 0.650635 0.290960 0.347616
Si Si7 0.894903 0.790961 0.368737
Si Si8 0.816494 0.290961 0.940525
O O1 0.411415 0.290959 0.291351
O O2 0.554943 0.290960 0.337013
O O3 0.368372 0.544131 0.551938
O O4 0.368371 0.037790 0.551939
O O5 0.229549 0.545024 0.076821
O O6 0.229549 0.036899 0.076820
O O7 0.061888 0.290961 0.361516
O O8 0.302593 0.290960 0.187188
O O9 0.849736 0.790962 0.268766
O O10 0.948964 0.790961 0.869023
O O11 1.000000 0.540961 0.000000
O O12 0.124473 0.557324 0.549270
O O13 0.124472 0.024598 0.549271
O O14 0.500000 0.540959 1.000000
O O15 0.776627 0.290960 0.134987
O O16 0.040714 0.790962 0.219208
#
# Coordination Sequence:
#
# PCOD9114545 Si02
#       8
#     2   2   2   2   2   2   2   2
#     4  10  21  33  47  65  82 110 143 177 217 255
#     4  10  19  30  45  66  90 115 146 177 214 264
#     4   8  12  20  33  52  80 111 136 162 198 244
#     4   8  14  23  36  55  82 113 138 165 203 249
#     4  12  23  35  50  67  89 114 144 182 220 258
#     4  10  19  33  48  62  85 109 142 180 213 256
#     4   8  14  22  36  58  83 109 139 167 201 251
#     4  10  18  30  47  67  89 117 144 176 218 253
#
# _framework density 25.413623999999999
#
# number of rings (size 3 to 8) (size 9 to 14) (size 15 to 20)
#    0.000    2.500    0.000    3.750    0.000    2.000 
#    0.000    0.000    0.000    0.000    0.000    0.000 
#    0.000    2.000    0.000    0.000    0.000    8.000 
#
# Total GULP energy -89364.753015 kJ/mol
# GULP energy per Si atom -5585.297063 kJ/mol
# Density = 2.535578 g / cm^3
# Si number density = 25.413624 Si / 1000 Ang^3
#
#
#
# Elastic Constant Matrix: (Units=GPa)
#
#
# Indices 1 2 3 4 5 6 
#
# 1 137.3553 63.4685 35.4322 0.0000 28.4424 0.0000
# 2 63.4685 252.4417 51.0345 0.0000 8.6856 0.0000
# 3 35.4322 51.0345 98.9033 0.0000 20.3640 0.0000
# 4 0.0000 0.0000 0.0000 35.8597 0.0000 -0.1433
# 5 28.4424 8.6856 20.3640 0.0000 41.8953 0.0000
# 6 0.0000 0.0000 0.0000 -0.1433 0.0000 17.0017
#
#
#
# Elastic Compliance Matrix: (Units=1/GPa)
#
#
# Indices 1 2 3 4 5 6 
#
# 1 0.009675 -0.001978 -0.001308 0.000000 -0.005523 0.000000
# 2 -0.001978 0.004829 -0.002060 0.000000 0.001343 0.000000
# 3 -0.001308 -0.002060 0.012636 0.000000 -0.004827 0.000000
# 4 0.000000 0.000000 0.000000 0.027887 0.000000 0.000235
# 5 -0.005523 0.001343 -0.004827 0.000000 0.029686 0.000000
# 6 0.000000 0.000000 0.000000 0.000235 0.000000 0.058820
#
#
# Mechanical properties :
#
#
# Convention : Reuss Voigt Hill
#
# Bulk Modulus (GPa) = 60.79646 87.61895 74.20771
# Shear Modulus (GPa) = 31.30703 41.53567 36.42135
#
# Velocity S-wave (km/s) = 3.51365 4.04714 3.78979
# Velocity P-wave (km/s) = 6.35891 7.50940 6.95797
#
# Compressibility (1/GPa) = 0.01644833
#
# Stress axis : x y z
#
# Youngs Moduli (GPa) = 103.35388 207.09128 79.13766
#
# Poissons Ratio (x) = 0.40964 0.10355
# Poissons Ratio (y) = 0.20444 0.16299
# Poissons Ratio (z) = 0.13524 0.42651
#
# Static dielectric constant tensor:
#      x y z
#    x 2.041030 0.000000 0.026710 
#    y 0.000000 1.808330 0.000000 
#    z 0.026710 0.000000 2.144490 
# 
# From -- ./inp_files/8608.got.cif
#   From: 2010.05.17/outbox.cif.g08.bks.cpg/sg4_5_cif.got.tgz:8608.got - 2010.06.03 18:43:04.
