data_PCOD9114671
_publ_section_title
;
Structure prediction by ZEFSAII (Michael W. Deem and Ramdas Pophale) SiO2 
 PCOD9114671
Probable space group: P 21
;
_chemical_formula_sum "Si O2"
_cell_formula_units_Z 16
_cell_length_a 14.765541
_cell_length_b 6.939176
_cell_length_c 12.666880
_cell_angle_alpha 90.000000
_cell_angle_beta 31.196152
_cell_angle_gamma 90.000000
_cell_volume 672.250544
_symmetry_space_group_name_H-M "P 21"
_symmetry_group_IT_number 4
_symmetry_cell_setting 'monoclinic'
loop_
_space_group_symop_operation_xyz
x,y,z
-x,1/2+y,-z
loop_
_atom_site_type_symbol
_atom_site_label
_atom_site_fract_x
_atom_site_fract_y
_atom_site_fract_z
Si Si1 0.402974 0.304970 0.733727
Si Si2 0.046181 0.290913 0.152773
Si Si3 0.447045 0.137101 0.265866
Si Si4 0.792175 0.246589 0.811242
Si Si5 0.718618 0.776937 0.373107
Si Si6 0.900458 0.252902 0.929976
Si Si7 0.105843 0.949875 0.501370
Si Si8 0.744353 0.314918 0.300397
O O1 0.460585 0.462242 0.762668
O O2 0.336510 0.369285 0.682943
O O3 0.585100 0.210692 0.518258
O O4 0.235843 0.199200 0.949004
O O5 0.081686 0.521980 0.104375
O O6 0.948465 0.281307 0.361835
O O7 0.919950 0.245986 0.181984
O O8 0.400943 0.290843 0.403434
O O9 0.260277 0.071414 0.404473
O O10 0.589619 0.196539 0.036630
O O11 0.857631 0.331594 0.857532
O O12 0.817212 0.377447 0.684910
O O13 0.927131 0.068412 0.659271
O O14 0.721881 0.544182 0.344665
O O15 0.914980 0.826329 0.210907
O O16 0.759840 0.285701 0.161173
#
# Coordination Sequence:
#
# PCOD9114671 Si02
#       8
#     2   2   2   2   2   2   2   2
#     4  11  19  33  62  89 120 160 197 248 321 383
#     4  10  19  37  59  82 114 166 201 247 311 370
#     4  11  21  42  65  95 127 170 213 269 329 387
#     4  11  24  43  71  87 128 179 222 275 323 375
#     4  10  20  35  62  93 122 160 202 250 316 400
#     4  10  18  38  59  83 122 159 200 250 308 376
#     4  11  23  45  67  95 121 178 230 267 328 381
#     4  10  20  33  57  90 122 152 195 246 312 386
#
# _framework density 23.800650999999998
#
# number of rings (size 3 to 8) (size 9 to 14) (size 15 to 20)
#    0.000    1.500    8.750    0.750    1.750    1.000 
#    2.250    0.000    5.500    0.000    0.000    0.000 
#    0.000    0.000    0.000    0.000    0.000    0.000 
#
# Total GULP energy -89417.813951 kJ/mol
# GULP energy per Si atom -5588.613372 kJ/mol
# Density = 2.374648 g / cm^3
# Si number density = 23.800651 Si / 1000 Ang^3
#
#
#
# Elastic Constant Matrix: (Units=GPa)
#
#
# Indices 1 2 3 4 5 6 
#
# 1 85.5930 6.8779 42.9212 0.0000 13.9869 0.0000
# 2 6.8779 65.0948 21.6521 0.0000 20.2745 0.0000
# 3 42.9212 21.6521 212.9700 0.0000 18.6832 0.0000
# 4 0.0000 0.0000 0.0000 32.8280 0.0000 19.9775
# 5 13.9869 20.2745 18.6832 0.0000 60.9449 0.0000
# 6 0.0000 0.0000 0.0000 19.9775 0.0000 15.8700
#
#
#
# Elastic Compliance Matrix: (Units=1/GPa)
#
#
# Indices 1 2 3 4 5 6 
#
# 1 0.013303 0.000152 -0.002491 0.000000 -0.002340 0.000000
# 2 0.000152 0.017484 -0.001331 0.000000 -0.005443 0.000000
# 3 -0.002491 -0.001331 0.005389 0.000000 -0.000638 0.000000
# 4 0.000000 0.000000 0.000000 0.130210 0.000000 -0.163911
# 5 -0.002340 -0.005443 -0.000638 0.000000 0.018952 0.000000
# 6 0.000000 0.000000 0.000000 -0.163911 0.000000 0.269347
#
#
# Mechanical properties :
#
#
# Convention : Reuss Voigt Hill
#
# Bulk Modulus (GPa) = 34.67935 56.28446 45.48190
# Shear Modulus (GPa) = 10.60140 41.40903 26.00522
#
# Velocity S-wave (km/s) = 2.11280 4.17565 3.30908
# Velocity P-wave (km/s) = 4.53368 6.85184 5.80956
#
# Compressibility (1/GPa) = 0.02883561
#
# Stress axis : x y z
#
# Youngs Moduli (GPa) = 75.17365 57.19457 185.57131
#
# Poissons Ratio (x) = -0.00868 0.46228
# Poissons Ratio (y) = -0.01141 0.24693
# Poissons Ratio (z) = 0.18727 0.07610
#
# Static dielectric constant tensor:
#      x y z
#    x 1.861810 0.000000 -0.029250 
#    y 0.000000 2.023300 0.000000 
#    z -0.029250 0.000000 1.940180 
# 
# From -- ./inp_files/12631.got.cif
#   From: 2010.05.17/outbox.cif.g08.bks.cpg/sg4_7_cif.got.tgz:12631.got - 2010.06.03 18:43:04.
