data_PCOD9114174
_publ_section_title
;
Structure prediction by ZEFSAII (Michael W. Deem and Ramdas Pophale) SiO2 
 PCOD9114174
Probable space group: P 2
;
_chemical_formula_sum "Si O2"
_cell_formula_units_Z 12
_cell_length_a 20.890067
_cell_length_b 4.548869
_cell_length_c 8.395161
_cell_angle_alpha 90.000000
_cell_angle_beta 32.741321
_cell_angle_gamma 90.000000
_cell_volume 431.466191
_symmetry_space_group_name_H-M "P 2"
_symmetry_group_IT_number 3
_symmetry_cell_setting 'monoclinic'
loop_
_space_group_symop_operation_xyz
x,y,z
-x,y,-z
loop_
_atom_site_type_symbol
_atom_site_label
_atom_site_fract_x
_atom_site_fract_y
_atom_site_fract_z
Si Si1 0.582180 0.192690 0.467014
Si Si2 0.915588 0.667020 0.047301
Si Si3 0.247152 0.280391 0.382320
Si Si4 0.084412 0.315199 0.452698
Si Si5 0.582178 0.789534 0.967019
Si Si6 0.752850 0.701834 0.117676
O O1 0.500000 0.316474 0.500000
O O2 0.500002 0.991112 0.749997
O O3 0.659123 0.457732 0.376593
O O4 0.678174 0.963320 0.198930
O O5 0.836534 0.444371 0.317139
O O6 0.828921 0.827755 0.105687
O O7 0.000000 0.827214 0.000000
O O8 1.000000 0.491109 0.749999
O O9 0.171080 0.154470 0.394309
O O10 0.321829 0.018907 0.301063
O O11 0.340878 0.524495 0.123404
O O12 0.000000 0.155003 0.500000
O O13 0.163465 0.537849 0.182863
O O14 0.500000 0.665745 0.000000
#
# Coordination Sequence:
#
# PCOD9114174 Si02
#       6
#     2   2   2   2   2   2
#     4  12  24  40  62  90 122 160 200 244 296 354
#     4   9  20  41  64  90 120 157 200 247 300 354
#     4  11  22  41  62  90 122 157 198 247 296 354
#     4   9  20  41  64  90 120 157 200 247 300 354
#     4  12  24  40  62  90 122 160 200 244 296 354
#     4  11  22  41  62  90 122 157 198 247 296 354
#
# _framework density 27.812147
#
# number of rings (size 3 to 8) (size 9 to 14) (size 15 to 20)
#    0.000    1.333    0.000    6.000    0.000    0.000 
#    0.000   33.333    0.000    0.000    0.000    0.000 
#    0.000    0.000    0.000    0.000    0.000    0.000 
#
# Total GULP energy -67309.684567 kJ/mol
# GULP energy per Si atom -5609.140381 kJ/mol
# Density = 2.774885 g / cm^3
# Si number density = 27.812147 Si / 1000 Ang^3
#
#
#
# Elastic Constant Matrix: (Units=GPa)
#
#
# Indices 1 2 3 4 5 6 
#
# 1 172.1429 7.3409 51.0373 0.0000 -31.3499 0.0000
# 2 7.3409 93.1351 46.1535 0.0000 -9.0378 0.0000
# 3 51.0373 46.1535 165.5444 0.0000 20.0691 0.0000
# 4 0.0000 0.0000 0.0000 38.3916 0.0000 31.1666
# 5 -31.3499 -9.0378 20.0691 0.0000 50.1746 0.0000
# 6 0.0000 0.0000 0.0000 31.1666 0.0000 -2.7506
#
#
#
# Elastic Compliance Matrix: (Units=1/GPa)
#
#
# Indices 1 2 3 4 5 6 
#
# 1 0.008168 0.001982 -0.003923 0.000000 0.007030 0.000000
# 2 0.001982 0.013677 -0.005121 0.000000 0.005751 0.000000
# 3 -0.003923 -0.005121 0.009550 0.000000 -0.007194 0.000000
# 4 0.000000 0.000000 0.000000 0.002554 0.000000 0.028939
# 5 0.007030 0.005751 -0.007194 0.000000 0.028236 0.000000
# 6 0.000000 0.000000 0.000000 0.028939 0.000000 -0.035648
#
#
# Mechanical properties :
#
#
# Convention : Reuss Voigt Hill
#
# Bulk Modulus (GPa) = 57.90137 71.09842 64.49990
# Shear Modulus (GPa) = 107.71722 38.91584 73.31653
#
# Velocity S-wave (km/s) = 6.23012 3.74470 5.13990
# Velocity P-wave (km/s) = 8.52153 6.65705 7.64633
#
# Compressibility (1/GPa) = 0.01727075
#
# Stress axis : x y z
#
# Youngs Moduli (GPa) = 122.42981 73.11623 104.71071
#
# Poissons Ratio (x) = -0.14495 0.41079
# Poissons Ratio (y) = -0.24272 0.53627
# Poissons Ratio (z) = 0.48031 0.37446
#
# Static dielectric constant tensor:
#      x y z
#    x 2.085120 0.000000 -0.035310 
#    y 0.000000 2.079520 0.000000 
#    z -0.035310 0.000000 2.184100 
# 
# From -- ./inp_files/6535.got.cif
#   From: 2010.05.17/outbox.cif.g08.bks.cpg/sg3_4_cif.got.tgz:6535.got - 2010.06.03 18:33:08.
