data_PCOD9114145
_publ_section_title
;
Structure prediction by ZEFSAII (Michael W. Deem and Ramdas Pophale) SiO2 
 PCOD9114145
Probable space group: P 2
;
_chemical_formula_sum "Si O2"
_cell_formula_units_Z 15
_cell_length_a 9.370567
_cell_length_b 16.770624
_cell_length_c 5.125646
_cell_angle_alpha 90.000000
_cell_angle_beta 113.871605
_cell_angle_gamma 90.000000
_cell_volume 736.590074
_symmetry_space_group_name_H-M "P 2"
_symmetry_group_IT_number 3
_symmetry_cell_setting 'monoclinic'
loop_
_space_group_symop_operation_xyz
x,y,z
-x,y,-z
loop_
_atom_site_type_symbol
_atom_site_label
_atom_site_fract_x
_atom_site_fract_y
_atom_site_fract_z
Si Si1 0.605464 0.073570 0.819950
Si Si2 0.843524 0.962625 0.776474
Si Si3 0.684561 0.804890 0.621568
Si Si4 0.832113 0.205588 0.026956
Si Si5 0.112838 0.378778 0.833751
Si Si6 0.824237 0.725484 0.243933
Si Si7 0.000000 0.087406 0.500000
Si Si8 0.888126 0.550858 0.167624
O O1 0.500000 0.048159 0.500000
O O2 0.741794 0.006702 0.923448
O O3 0.500000 0.078727 0.000000
O O4 0.688455 0.157125 0.801001
O O5 0.746571 0.891820 0.580786
O O6 0.911511 0.031552 0.640712
O O7 0.000000 0.923270 0.000000
O O8 0.500000 0.809765 0.500000
O O9 0.721387 0.743743 0.418880
O O10 0.771004 0.779340 0.956651
O O11 0.794188 0.296288 0.071075
O O12 0.870666 0.148268 0.297221
O O13 0.000000 0.205274 0.000000
O O14 0.197218 0.464791 0.895519
O O15 0.000000 0.370700 0.500000
O O16 0.000000 0.382043 0.000000
O O17 0.801897 0.634474 0.131841
O O18 0.000000 0.735763 0.500000
O O19 0.000000 0.546260 0.500000
O O20 0.000000 0.556660 0.000000
#
# Coordination Sequence:
#
# PCOD9114145 Si02
#       8
#     2   2   2   2   2   2   1   2
#     4  12  26  41  61  88 127 169 208 259 319 369
#     4  12  26  43  65  92 120 165 220 266 313 376
#     4  12  28  44  63  94 131 166 207 264 325 378
#     4  11  21  38  62  90 123 165 213 254 304 377
#     4   9  18  30  57  92 125 153 195 262 312 352
#     4  11  22  43  69  94 123 166 213 260 310 382
#     4  12  20  40  66  90 122 156 218 256 310 358
#     4   9  17  33  58  96 126 151 197 263 315 355
#
# _framework density 20.36411
#
# number of rings (size 3 to 8) (size 9 to 14) (size 15 to 20)
#    0.000    1.067    3.333    4.400    2.800    1.067 
#    0.000    0.000    0.000    2.400    0.000    0.000 
#    0.000    0.000    0.000    0.000    0.000    0.000 
#
# Total GULP energy -83637.031660 kJ/mol
# GULP energy per Si atom -5575.802111 kJ/mol
# Density = 2.031776 g / cm^3
# Si number density = 20.364110 Si / 1000 Ang^3
#
#
#
# Elastic Constant Matrix: (Units=GPa)
#
#
# Indices 1 2 3 4 5 6 
#
# 1 103.4748 46.9850 25.8488 0.0000 -6.3433 0.0000
# 2 46.9850 130.0211 19.3973 0.0000 10.9212 0.0000
# 3 25.8488 19.3973 82.1307 0.0000 -16.7436 0.0000
# 4 0.0000 0.0000 0.0000 23.4556 0.0000 -5.0783
# 5 -6.3433 10.9212 -16.7436 0.0000 28.9397 0.0000
# 6 0.0000 0.0000 0.0000 -5.0783 0.0000 5.7614
#
#
#
# Elastic Compliance Matrix: (Units=1/GPa)
#
#
# Indices 1 2 3 4 5 6 
#
# 1 0.012416 -0.004413 -0.002235 0.000000 0.003094 0.000000
# 2 -0.004413 0.010132 -0.002246 0.000000 -0.006090 0.000000
# 3 -0.002235 -0.002246 0.015285 0.000000 0.009201 0.000000
# 4 0.000000 0.000000 0.000000 0.052689 0.000000 0.046441
# 5 0.003094 -0.006090 0.009201 0.000000 0.042855 0.000000
# 6 0.000000 0.000000 0.000000 0.046441 0.000000 0.214502
#
#
# Mechanical properties :
#
#
# Convention : Reuss Voigt Hill
#
# Bulk Modulus (GPa) = 49.88373 55.56544 52.72459
# Shear Modulus (GPa) = 13.42828 26.52438 19.97633
#
# Velocity S-wave (km/s) = 2.57068 3.61294 3.13542
# Velocity P-wave (km/s) = 5.77584 6.68952 6.24940
#
# Compressibility (1/GPa) = 0.02004661
#
# Stress axis : x y z
#
# Youngs Moduli (GPa) = 80.54117 98.69308 65.42277
#
# Poissons Ratio (x) = 0.43555 0.14619
# Poissons Ratio (y) = 0.35545 0.14692
# Poissons Ratio (z) = 0.17998 0.22163
#
# Static dielectric constant tensor:
#      x y z
#    x 1.771410 0.000000 0.048290 
#    y 0.000000 1.777540 0.000000 
#    z 0.048290 0.000000 1.808790 
# 
# From -- ./inp_files/1608.got.cif
#   From: 2010.05.17/outbox.cif.g08.bks.cpg/sg3_1_cif.got.tgz:1608.got - 2010.06.03 18:33:08.
