data_PCOD9114254
_publ_section_title
;
Structure prediction by ZEFSAII (Michael W. Deem and Ramdas Pophale) SiO2 
 PCOD9114254
Probable space group: P 2
;
_chemical_formula_sum "Si O2"
_cell_formula_units_Z 14
_cell_length_a 10.352925
_cell_length_b 4.936012
_cell_length_c 11.840301
_cell_angle_alpha 90.000000
_cell_angle_beta 71.100101
_cell_angle_gamma 90.000000
_cell_volume 572.443464
_symmetry_space_group_name_H-M "P 2"
_symmetry_group_IT_number 3
_symmetry_cell_setting 'monoclinic'
loop_
_space_group_symop_operation_xyz
x,y,z
-x,y,-z
loop_
_atom_site_type_symbol
_atom_site_label
_atom_site_fract_x
_atom_site_fract_y
_atom_site_fract_z
Si Si1 0.866247 0.029790 0.486028
Si Si2 0.174272 0.692361 0.168062
Si Si3 0.355373 0.753637 0.578298
Si Si4 0.739347 0.448344 0.091822
Si Si5 0.573805 0.965730 0.210459
Si Si6 0.107976 0.402271 0.731725
Si Si7 0.274279 0.206553 0.262082
O O1 0.903146 0.160665 0.355031
O O2 0.000000 0.887670 0.500000
O O3 0.729114 0.864592 0.503119
O O4 0.816922 0.230443 0.598829
O O5 0.199680 0.001961 0.194901
O O6 0.022839 0.593381 0.243521
O O7 0.279426 0.503672 0.208038
O O8 0.198131 0.598510 0.033347
O O9 0.500000 0.638380 0.500000
O O10 0.384811 0.975712 0.667942
O O11 0.248035 0.545115 0.656926
O O12 0.622395 0.661729 0.166870
O O13 0.860817 0.367257 0.144763
O O14 0.660068 0.165171 0.105357
O O15 0.419980 0.068707 0.242445
#
# Coordination Sequence:
#
# PCOD9114254 Si02
#       7
#     2   2   2   2   2   2   2
#     4  12  24  44  71 105 145 189 235 303 365 439
#     4  12  27  48  70 107 145 195 242 302 365 429
#     4  11  24  44  72 104 147 193 240 297 369 441
#     4  11  25  46  75 100 144 192 249 303 352 431
#     4  11  24  46  71 109 139 191 248 299 360 432
#     4  11  26  44  72 105 143 193 245 300 362 438
#     4  12  27  44  74 105 148 191 239 300 373 434
#
# _framework density 24.456565999999999
#
# number of rings (size 3 to 8) (size 9 to 14) (size 15 to 20)
#    0.000    0.571    4.286    3.000    2.000    6.857 
#    0.000    2.857    0.000    0.000    0.000    0.000 
#    0.000    0.000    0.000    0.000    0.000    0.000 
#
# Total GULP energy -78232.351593 kJ/mol
# GULP energy per Si atom -5588.025114 kJ/mol
# Density = 2.440090 g / cm^3
# Si number density = 24.456566 Si / 1000 Ang^3
#
#
#
# Elastic Constant Matrix: (Units=GPa)
#
#
# Indices 1 2 3 4 5 6 
#
# 1 165.0701 9.8477 24.5508 0.0000 -9.8481 0.0000
# 2 9.8477 64.6739 12.2035 0.0000 -5.1226 0.0000
# 3 24.5508 12.2035 105.2796 0.0000 4.2711 0.0000
# 4 0.0000 0.0000 0.0000 23.3642 0.0000 1.2836
# 5 -9.8481 -5.1226 4.2711 0.0000 31.0293 0.0000
# 6 0.0000 0.0000 0.0000 1.2836 0.0000 21.3368
#
#
#
# Elastic Compliance Matrix: (Units=1/GPa)
#
#
# Indices 1 2 3 4 5 6 
#
# 1 0.006446 -0.000521 -0.001531 0.000000 0.002171 0.000000
# 2 -0.000521 0.016110 -0.001857 0.000000 0.002750 0.000000
# 3 -0.001531 -0.001857 0.010160 0.000000 -0.002191 0.000000
# 4 0.000000 0.000000 0.000000 0.042942 0.000000 -0.002583
# 5 0.002171 0.002750 -0.002191 0.000000 0.033672 0.000000
# 6 0.000000 0.000000 0.000000 -0.002583 0.000000 0.047023
#
#
# Mechanical properties :
#
#
# Convention : Reuss Voigt Hill
#
# Bulk Modulus (GPa) = 40.16479 47.58084 43.87282
# Shear Modulus (GPa) = 28.99044 34.37418 31.68231
#
# Velocity S-wave (km/s) = 3.44668 3.75309 3.60314
# Velocity P-wave (km/s) = 5.68313 6.18696 5.94039
#
# Compressibility (1/GPa) = 0.02489743
#
# Stress axis : x y z
#
# Youngs Moduli (GPa) = 155.12767 62.07409 98.42789
#
# Poissons Ratio (x) = 0.03232 0.15069
# Poissons Ratio (y) = 0.08078 0.18283
# Poissons Ratio (z) = 0.23749 0.11530
#
# Static dielectric constant tensor:
#      x y z
#    x 1.949040 0.000000 0.067360 
#    y 0.000000 1.920390 0.000000 
#    z 0.067360 0.000000 2.099280 
# 
# From -- ./inp_files/8375.got.cif
#   From: 2010.05.17/outbox.cif.g08.bks.cpg/sg3_5_cif.got.tgz:8375.got - 2010.06.03 18:33:08.
