data_PCOD9114135
_publ_section_title
;
Structure prediction by ZEFSAII (Michael W. Deem and Ramdas Pophale) SiO2 
 PCOD9114135
Probable space group: P 2
;
_chemical_formula_sum "Si O2"
_cell_formula_units_Z 14
_cell_length_a 17.100934
_cell_length_b 7.414254
_cell_length_c 8.313485
_cell_angle_alpha 90.000000
_cell_angle_beta 146.623301
_cell_angle_gamma 90.000000
_cell_volume 579.888589
_symmetry_space_group_name_H-M "P 2"
_symmetry_group_IT_number 3
_symmetry_cell_setting 'monoclinic'
loop_
_space_group_symop_operation_xyz
x,y,z
-x,y,-z
loop_
_atom_site_type_symbol
_atom_site_label
_atom_site_fract_x
_atom_site_fract_y
_atom_site_fract_z
Si Si1 0.643937 0.576790 0.828767
Si Si2 0.336717 0.010068 0.206591
Si Si3 0.796095 0.055849 0.358000
Si Si4 0.061560 0.581627 0.770077
Si Si5 0.862685 0.387767 0.648843
Si Si6 0.658907 0.674012 0.216281
Si Si7 0.077503 0.952863 0.961983
O O1 0.500000 0.511567 0.500000
O O2 0.658233 0.792114 0.814306
O O3 0.786454 0.493749 0.000224
O O4 0.645054 0.569460 0.022710
O O5 0.500000 0.069105 0.500000
O O6 0.270315 0.090446 0.929770
O O7 0.232296 0.030163 0.181262
O O8 0.736242 0.863877 0.317774
O O9 0.965785 0.035452 0.644283
O O10 0.773606 0.210847 0.452144
O O11 0.078081 0.739761 0.927751
O O12 0.000000 0.665414 0.500000
O O13 0.941920 0.446757 0.621784
O O14 0.753538 0.550143 0.496727
O O15 0.000000 0.367234 0.000000
O O16 0.500000 0.708528 0.000000
O O17 0.000000 0.979983 0.000000
#
# Coordination Sequence:
#
# PCOD9114135 Si02
#       7
#     2   2   2   2   2   2   2
#     4   9  19  37  66 102 136 181 239 287 350 448
#     4   9  20  41  66 102 144 190 245 299 361 440
#     4  11  24  45  69 103 145 192 245 298 363 442
#     4  11  20  40  67  97 140 188 240 295 358 428
#     4  12  27  45  70 110 144 185 247 308 361 436
#     4  11  25  46  73 102 147 194 231 302 383 430
#     4  11  21  37  69 106 142 187 243 302 361 429
#
# _framework density 24.142568000000001
#
# number of rings (size 3 to 8) (size 9 to 14) (size 15 to 20)
#    0.000    1.429    2.857    3.000    2.000    5.714 
#    0.000    2.143    0.000    0.000    0.000    0.000 
#    0.000    0.000    0.000    0.000    0.000    0.000 
#
# Total GULP energy -78273.995838 kJ/mol
# GULP energy per Si atom -5590.999703 kJ/mol
# Density = 2.408762 g / cm^3
# Si number density = 24.142568 Si / 1000 Ang^3
#
#
#
# Elastic Constant Matrix: (Units=GPa)
#
#
# Indices 1 2 3 4 5 6 
#
# 1 109.1379 13.2990 67.6657 0.0000 13.5742 0.0000
# 2 13.2990 91.4661 25.3894 0.0000 -6.9943 0.0000
# 3 67.6657 25.3894 172.6995 0.0000 12.0266 0.0000
# 4 0.0000 0.0000 0.0000 8.6814 0.0000 -13.1786
# 5 13.5742 -6.9943 12.0266 0.0000 51.9036 0.0000
# 6 0.0000 0.0000 0.0000 -13.1786 0.0000 3.3041
#
#
#
# Elastic Compliance Matrix: (Units=1/GPa)
#
#
# Indices 1 2 3 4 5 6 
#
# 1 0.012374 -0.000699 -0.004588 0.000000 -0.002267 0.000000
# 2 -0.000699 0.011636 -0.001584 0.000000 0.002118 0.000000
# 3 -0.004588 -0.001584 0.007879 0.000000 -0.000839 0.000000
# 4 0.000000 0.000000 0.000000 -0.022788 0.000000 -0.090892
# 5 -0.002267 0.002118 -0.000839 0.000000 0.020339 0.000000
# 6 0.000000 0.000000 0.000000 -0.090892 0.000000 -0.059875
#
#
# Mechanical properties :
#
#
# Convention : Reuss Voigt Hill
#
# Bulk Modulus (GPa) = 55.10327 65.11241 60.10784
# Shear Modulus (GPa) = -469.83910 30.57444 -219.63233
#
# Velocity S-wave (km/s) = -13.96541 3.56253 -9.54833
# Velocity P-wave (km/s) = 15.40032 6.62953 9.82902
#
# Compressibility (1/GPa) = 0.01814774
#
# Stress axis : x y z
#
# Youngs Moduli (GPa) = 80.81253 85.93724 126.91483
#
# Poissons Ratio (x) = 0.06008 0.58225
# Poissons Ratio (y) = 0.05650 0.20107
# Poissons Ratio (z) = 0.37075 0.13615
#
# Static dielectric constant tensor:
#      x y z
#    x 1.926310 0.000000 -0.038710 
#    y 0.000000 1.993310 0.000000 
#    z -0.038710 0.000000 1.936790 
# 
# From -- ./inp_files/9131.got.cif
#   From: 2010.05.17/outbox.cif.g08.bks.cpg/sg3_5_cif.got.tgz:9131.got - 2010.06.03 18:33:08.
