data_PCOD9114662
_publ_section_title
;
Structure prediction by ZEFSAII (Michael W. Deem and Ramdas Pophale) SiO2 
 PCOD9114662
Probable space group: P 21
;
_chemical_formula_sum "Si O2"
_cell_formula_units_Z 16
_cell_length_a 8.865878
_cell_length_b 10.921493
_cell_length_c 8.133421
_cell_angle_alpha 90.000000
_cell_angle_beta 52.471936
_cell_angle_gamma 90.000000
_cell_volume 624.568907
_symmetry_space_group_name_H-M "P 21"
_symmetry_group_IT_number 4
_symmetry_cell_setting 'monoclinic'
loop_
_space_group_symop_operation_xyz
x,y,z
-x,1/2+y,-z
loop_
_atom_site_type_symbol
_atom_site_label
_atom_site_fract_x
_atom_site_fract_y
_atom_site_fract_z
Si Si1 0.985987 0.364950 0.440226
Si Si2 0.508981 0.963598 0.613365
Si Si3 0.748299 0.180590 0.400524
Si Si4 0.189919 0.075691 0.617366
Si Si5 0.813698 0.818087 0.184686
Si Si6 0.475280 0.719604 0.786762
Si Si7 0.076776 0.981593 0.167312
Si Si8 0.320931 0.204396 0.058777
O O1 0.811511 0.292560 0.471141
O O2 0.974695 0.499245 0.362077
O O3 0.955197 0.394928 0.652441
O O4 0.168780 0.280224 0.278720
O O5 0.656250 0.893391 0.392407
O O6 0.498119 0.865776 0.762537
O O7 0.591246 0.097128 0.592916
O O8 0.313469 0.988682 0.652137
O O9 0.674629 0.199524 0.262319
O O10 0.928739 0.093346 0.270318
O O11 0.129011 0.191788 0.764932
O O12 0.348823 0.132782 0.388483
O O13 0.002586 0.901200 0.062975
O O14 0.714457 0.782493 0.081587
O O15 0.477918 0.698700 0.979831
O O16 0.264158 0.063398 0.058162
#
# Coordination Sequence:
#
# PCOD9114662 Si02
#       8
#     2   2   2   2   2   2   2   2
#     4  11  20  36  62  92 116 163 215 246 304 378
#     4   9  18  37  61  87 118 159 209 253 304 363
#     4   9  19  33  61  84 118 151 203 260 299 348
#     4  10  19  35  63  86 115 163 209 255 297 369
#     4  10  23  39  59  88 132 163 199 265 323 354
#     4  10  18  37  59  89 117 159 206 254 297 372
#     4  10  22  40  59  91 123 166 210 254 301 382
#     4  11  23  37  62  91 129 164 203 257 325 370
#
# _framework density 25.617668999999999
#
# number of rings (size 3 to 8) (size 9 to 14) (size 15 to 20)
#    0.000    2.000    2.500    2.250    3.500    0.000 
#    0.000    3.750    5.500    0.000    0.000    0.000 
#    0.000    0.000    0.000    0.000    0.000    0.000 
#
# Total GULP energy -89351.040511 kJ/mol
# GULP energy per Si atom -5584.440032 kJ/mol
# Density = 2.555936 g / cm^3
# Si number density = 25.617669 Si / 1000 Ang^3
#
#
#
# Elastic Constant Matrix: (Units=GPa)
#
#
# Indices 1 2 3 4 5 6 
#
# 1 117.2253 60.0373 39.7218 0.0000 38.8252 0.0000
# 2 60.0373 122.9279 40.3929 0.0000 12.6632 0.0000
# 3 39.7218 40.3929 61.2339 0.0000 19.9865 0.0000
# 4 0.0000 0.0000 0.0000 30.7760 0.0000 6.3853
# 5 38.8252 12.6632 19.9865 0.0000 48.4151 0.0000
# 6 0.0000 0.0000 0.0000 6.3853 0.0000 51.3257
#
#
#
# Elastic Compliance Matrix: (Units=1/GPa)
#
#
# Indices 1 2 3 4 5 6 
#
# 1 0.015779 -0.005598 -0.003341 0.000000 -0.009810 0.000000
# 2 -0.005598 0.012373 -0.005709 0.000000 0.003609 0.000000
# 3 -0.003341 -0.005709 0.024157 0.000000 -0.005800 0.000000
# 4 0.000000 0.000000 0.000000 0.033354 0.000000 -0.004149
# 5 -0.009810 0.003609 -0.005800 0.000000 0.029972 0.000000
# 6 0.000000 0.000000 0.000000 -0.004149 0.000000 0.020000
#
#
# Mechanical properties :
#
#
# Convention : Reuss Voigt Hill
#
# Bulk Modulus (GPa) = 43.45249 64.63233 54.04241
# Shear Modulus (GPa) = 28.96884 36.85238 32.91061
#
# Velocity S-wave (km/s) = 3.36641 3.79694 3.58814
# Velocity P-wave (km/s) = 5.66648 6.67134 6.18933
#
# Compressibility (1/GPa) = 0.02301364
#
# Stress axis : x y z
#
# Youngs Moduli (GPa) = 63.37662 80.82267 41.39622
#
# Poissons Ratio (x) = 0.45244 0.13830
# Poissons Ratio (y) = 0.35477 0.23631
# Poissons Ratio (z) = 0.21173 0.46138
#
# Static dielectric constant tensor:
#      x y z
#    x 2.090980 0.000000 -0.086010 
#    y 0.000000 2.010030 0.000000 
#    z -0.086010 0.000000 2.197490 
# 
# From -- ./inp_files/5950.got.cif
#   From: 2010.05.17/outbox.cif.g08.bks.cpg/sg4_3_cif.got.tgz:5950.got - 2010.06.03 18:43:04.
