data_PCOD9114439
_publ_section_title
;
Structure prediction by ZEFSAII (Michael W. Deem and Ramdas Pophale) SiO2 
 PCOD9114439
Probable space group: P 21
;
_chemical_formula_sum "Si O2"
_cell_formula_units_Z 16
_cell_length_a 8.521000
_cell_length_b 11.529375
_cell_length_c 8.368556
_cell_angle_alpha 90.000000
_cell_angle_beta 132.253979
_cell_angle_gamma 90.000000
_cell_volume 608.526052
_symmetry_space_group_name_H-M "P 21"
_symmetry_group_IT_number 4
_symmetry_cell_setting 'monoclinic'
loop_
_space_group_symop_operation_xyz
x,y,z
-x,1/2+y,-z
loop_
_atom_site_type_symbol
_atom_site_label
_atom_site_fract_x
_atom_site_fract_y
_atom_site_fract_z
Si Si1 0.109119 0.175050 0.708558
Si Si2 0.825413 0.484872 0.460116
Si Si3 0.281991 0.334880 0.104962
Si Si4 0.659854 0.186252 0.507353
Si Si5 0.266300 0.549311 0.885705
Si Si6 0.693993 0.463186 0.048773
Si Si7 0.695490 0.501759 0.717967
Si Si8 0.067085 0.700143 0.985429
O O1 0.217363 0.121294 0.622821
O O2 0.228397 0.269013 0.898653
O O3 0.118879 0.057798 0.820900
O O4 0.860824 0.198715 0.525626
O O5 0.193200 0.672117 0.908292
O O6 0.077540 0.490139 0.655744
O O7 0.736772 0.453079 0.571000
O O8 0.302881 0.467597 0.067139
O O9 0.083048 0.311191 0.085268
O O10 0.476408 0.272651 0.323114
O O11 0.772509 0.198374 0.756215
O O12 0.529238 0.066561 0.428852
O O13 0.741196 0.409011 0.253925
O O14 0.479322 0.537330 0.931184
O O15 0.687881 0.417124 0.866583
O O16 0.887054 0.596672 0.860586
#
# Coordination Sequence:
#
# PCOD9114439 Si02
#       8
#     2   2   2   2   2   2   2   2
#     4   9  19  36  58  87 117 164 213 255 318 389
#     4   9  20  34  59  88 118 160 211 258 313 381
#     4  10  21  37  64  96 128 171 227 268 326 391
#     4  10  15  33  60  79 119 168 198 262 320 361
#     4  11  22  36  64  95 129 174 221 273 321 391
#     4  10  19  34  56  93 116 158 223 247 316 391
#     4  10  17  32  59  87 115 159 209 249 311 382
#     4   9  19  36  58  89 124 174 212 260 329 388
#
# _framework density 26.293040000000001
#
# number of rings (size 3 to 8) (size 9 to 14) (size 15 to 20)
#    0.750    1.500    3.750    1.500    0.000    2.000 
#    0.000    0.000    5.500   24.000    0.000    0.000 
#    0.000    0.000    0.000    0.000    0.000    0.000 
#
# Total GULP energy -89212.689031 kJ/mol
# GULP energy per Si atom -5575.793064 kJ/mol
# Density = 2.623320 g / cm^3
# Si number density = 26.293040 Si / 1000 Ang^3
#
#
#
# Elastic Constant Matrix: (Units=GPa)
#
#
# Indices 1 2 3 4 5 6 
#
# 1 149.4088 32.8072 77.0352 0.0000 -15.7990 0.0000
# 2 32.8072 56.5246 24.2185 0.0000 -6.3321 0.0000
# 3 77.0352 24.2185 171.9854 0.0000 1.7673 0.0000
# 4 0.0000 0.0000 0.0000 38.2771 0.0000 -1.2258
# 5 -15.7990 -6.3321 1.7673 0.0000 53.9660 0.0000
# 6 0.0000 0.0000 0.0000 -1.2258 0.0000 38.7661
#
#
#
# Elastic Compliance Matrix: (Units=1/GPa)
#
#
# Indices 1 2 3 4 5 6 
#
# 1 0.009784 -0.003729 -0.003884 0.000000 0.002554 0.000000
# 2 -0.003729 0.020537 -0.001236 0.000000 0.001359 0.000000
# 3 -0.003884 -0.001236 0.007744 0.000000 -0.001536 0.000000
# 4 0.000000 0.000000 0.000000 0.026152 0.000000 0.000827
# 5 0.002554 0.001359 -0.001536 0.000000 0.019488 0.000000
# 6 0.000000 0.000000 0.000000 0.000827 0.000000 0.025822
#
#
# Mechanical properties :
#
#
# Convention : Reuss Voigt Hill
#
# Bulk Modulus (GPa) = 49.09447 71.78229 60.43838
# Shear Modulus (GPa) = 37.30983 42.45903 39.88443
#
# Velocity S-wave (km/s) = 3.77105 4.02287 3.89899
# Velocity P-wave (km/s) = 6.13789 6.99557 6.58072
#
# Compressibility (1/GPa) = 0.02036889
#
# Stress axis : x y z
#
# Youngs Moduli (GPa) = 102.20397 48.69197 129.13477
#
# Poissons Ratio (x) = 0.18156 0.50153
# Poissons Ratio (y) = 0.38109 0.15958
# Poissons Ratio (z) = 0.39694 0.06017
#
# Static dielectric constant tensor:
#      x y z
#    x 2.166070 0.000000 -0.064740 
#    y 0.000000 2.107680 0.000000 
#    z -0.064740 0.000000 2.107630 
# 
# From -- ./inp_files/6880.got.cif
#   From: 2010.05.17/outbox.cif.g08.bks.cpg/sg4_4_cif.got.tgz:6880.got - 2010.06.03 18:43:04.
