data_PCOD9114515
_publ_section_title
;
Structure prediction by ZEFSAII (Michael W. Deem and Ramdas Pophale) SiO2 
 PCOD9114515
Probable space group: P 21
;
_chemical_formula_sum "Si O2"
_cell_formula_units_Z 14
_cell_length_a 14.957986
_cell_length_b 7.115802
_cell_length_c 15.457719
_cell_angle_alpha 90.000000
_cell_angle_beta 19.005440
_cell_angle_gamma 90.000000
_cell_volume 535.801640
_symmetry_space_group_name_H-M "P 21"
_symmetry_group_IT_number 4
_symmetry_cell_setting 'monoclinic'
loop_
_space_group_symop_operation_xyz
x,y,z
-x,1/2+y,-z
loop_
_atom_site_type_symbol
_atom_site_label
_atom_site_fract_x
_atom_site_fract_y
_atom_site_fract_z
Si Si1 0.911236 0.601250 0.958218
Si Si2 0.183162 0.177101 0.511153
Si Si3 0.654863 0.216720 0.205963
Si Si4 0.548557 0.635340 0.056882
Si Si5 0.599436 0.191067 0.998351
Si Si6 0.125712 0.633400 0.578631
Si Si7 0.770883 0.765786 0.262506
O O1 0.697921 0.431810 0.131463
O O2 0.777720 0.728503 0.154370
O O3 0.047633 0.685930 0.748186
O O4 0.142974 0.476422 0.793142
O O5 0.422121 0.122462 0.360080
O O6 0.315459 0.119536 0.298399
O O7 0.146710 0.404301 0.556960
O O8 0.868415 0.112841 0.800619
O O9 0.510855 0.230763 0.430993
O O10 0.971131 0.153029 0.928500
O O11 0.576245 0.411528 0.038062
O O12 0.393406 0.705350 0.284420
O O13 0.386919 0.671283 0.116671
O O14 0.861944 0.698905 0.764929
#
# Coordination Sequence:
#
# PCOD9114515 Si02
#       7
#     2   2   2   2   2   2   2
#     4  10  22  38  61  87 119 148 204 235 295 340
#     4  10  17  34  57  85 102 147 193 233 262 340
#     4  10  20  34  58  86 113 148 198 232 286 340
#     4  10  21  35  57  85 111 145 190 232 287 332
#     4  10  20  33  59  83 111 142 189 236 282 336
#     4  10  19  33  60  81 108 151 193 227 270 352
#     4  10  23  33  62  85 120 149 195 247 286 342
#
# _framework density 26.129073999999999
#
# number of rings (size 3 to 8) (size 9 to 14) (size 15 to 20)
#    0.857    1.143    1.429    4.286    2.000    0.000 
#    0.000    0.000    9.429    0.000    3.714    0.000 
#    0.000    0.000    0.000    0.000    0.000    0.000 
#
# Total GULP energy -78164.179787 kJ/mol
# GULP energy per Si atom -5583.155699 kJ/mol
# Density = 2.606960 g / cm^3
# Si number density = 26.129074 Si / 1000 Ang^3
#
#
#
# Elastic Constant Matrix: (Units=GPa)
#
#
# Indices 1 2 3 4 5 6 
#
# 1 92.0019 2.8455 25.9191 0.0000 1.7291 0.0000
# 2 2.8455 58.5489 5.6847 0.0000 -11.4799 0.0000
# 3 25.9191 5.6847 164.6016 0.0000 5.4495 0.0000
# 4 0.0000 0.0000 0.0000 5.0515 0.0000 6.6273
# 5 1.7291 -11.4799 5.4495 0.0000 38.7197 0.0000
# 6 0.0000 0.0000 0.0000 6.6273 0.0000 21.6893
#
#
#
# Elastic Compliance Matrix: (Units=1/GPa)
#
#
# Indices 1 2 3 4 5 6 
#
# 1 0.011388 -0.000460 -0.001764 0.000000 -0.000397 0.000000
# 2 -0.000460 0.018260 -0.000742 0.000000 0.005539 0.000000
# 3 -0.001764 -0.000742 0.006413 0.000000 -0.001044 0.000000
# 4 0.000000 0.000000 0.000000 0.330412 0.000000 -0.100959
# 5 -0.000397 0.005539 -0.001044 0.000000 0.027633 0.000000
# 6 0.000000 0.000000 0.000000 -0.100959 0.000000 0.076955
#
#
# Mechanical properties :
#
#
# Convention : Reuss Voigt Hill
#
# Bulk Modulus (GPa) = 33.18960 42.67234 37.93097
# Shear Modulus (GPa) = 10.26617 31.80564 21.03591
#
# Velocity S-wave (km/s) = 1.98433 3.49270 2.84047
# Velocity P-wave (km/s) = 4.24026 5.71245 5.03050
#
# Compressibility (1/GPa) = 0.03012992
#
# Stress axis : x y z
#
# Youngs Moduli (GPa) = 87.81144 54.76420 155.92736
#
# Poissons Ratio (x) = 0.02519 0.27509
# Poissons Ratio (y) = 0.04039 0.11563
# Poissons Ratio (z) = 0.15492 0.04061
#
# Static dielectric constant tensor:
#      x y z
#    x 2.047680 0.000000 -0.015490 
#    y 0.000000 2.125060 0.000000 
#    z -0.015490 0.000000 1.998970 
# 
# From -- ./inp_files/14148.got.cif
#   From: 2010.05.17/outbox.cif.g08.bks.cpg/sg4_8_cif.got.tgz:14148.got - 2010.06.03 18:43:04.
