data_PCOD9114701
_publ_section_title
;
Structure prediction by ZEFSAII (Michael W. Deem and Ramdas Pophale) SiO2 
 PCOD9114701
Probable space group: P 21
;
_chemical_formula_sum "Si O2"
_cell_formula_units_Z 16
_cell_length_a 11.807519
_cell_length_b 11.377858
_cell_length_c 6.073015
_cell_angle_alpha 90.000000
_cell_angle_beta 58.690880
_cell_angle_gamma 90.000000
_cell_volume 697.063946
_symmetry_space_group_name_H-M "P 21"
_symmetry_group_IT_number 4
_symmetry_cell_setting 'monoclinic'
loop_
_space_group_symop_operation_xyz
x,y,z
-x,1/2+y,-z
loop_
_atom_site_type_symbol
_atom_site_label
_atom_site_fract_x
_atom_site_fract_y
_atom_site_fract_z
Si Si1 0.785953 0.387510 0.429959
Si Si2 0.646052 0.564720 0.853189
Si Si3 0.260116 0.277950 0.511217
Si Si4 0.841016 0.150230 0.311572
Si Si5 0.358019 0.518181 0.196644
Si Si6 0.020724 0.356335 0.508562
Si Si7 0.888847 0.550803 0.944562
Si Si8 0.229251 0.434823 0.933852
O O1 0.671680 0.443913 0.692534
O O2 0.771853 0.270613 0.297867
O O3 0.889269 0.332253 0.502732
O O4 0.844510 0.492623 0.220392
O O5 0.661273 0.667366 0.657593
O O6 0.761876 0.576129 0.919363
O O7 0.502324 0.565993 0.106628
O O8 0.328679 0.394615 0.344066
O O9 0.112055 0.267190 0.554416
O O10 0.251193 0.315098 0.774730
O O11 0.758020 0.106775 0.610114
O O12 0.002106 0.153968 0.153954
O O13 0.816804 0.040723 0.172779
O O14 0.352671 0.485427 0.944785
O O15 0.973031 0.451481 0.732635
O O16 0.119121 0.410621 0.228802
#
# Coordination Sequence:
#
# PCOD9114701 Si02
#       8
#     2   2   2   2   2   2   2   2
#     4  11  25  37  65 105 137 167 220 284 339 392
#     4  11  27  43  64 100 136 173 222 284 335 397
#     4  10  21  41  70  92 126 179 224 273 330 403
#     4  11  22  43  69  97 131 177 220 277 336 405
#     4  10  24  45  67  92 130 180 226 269 339 405
#     4  10  18  40  63  97 129 170 221 269 328 399
#     4  11  22  44  66  98 138 173 222 275 337 396
#     4  10  19  41  68  93 123 177 227 261 330 407
#
# _framework density 22.953417999999999
#
# number of rings (size 3 to 8) (size 9 to 14) (size 15 to 20)
#    0.000    1.500    5.000    0.750    1.750    8.000 
#    2.250    0.000    0.000    0.000    0.000    0.000 
#    0.000    0.000    0.000    0.000    0.000    0.000 
#
# Total GULP energy -89272.084222 kJ/mol
# GULP energy per Si atom -5579.505264 kJ/mol
# Density = 2.290117 g / cm^3
# Si number density = 22.953418 Si / 1000 Ang^3
#
#
#
# Elastic Constant Matrix: (Units=GPa)
#
#
# Indices 1 2 3 4 5 6 
#
# 1 90.3652 14.7079 35.6615 0.0000 -18.4845 0.0000
# 2 14.7079 87.5978 24.2683 0.0000 -12.9265 0.0000
# 3 35.6615 24.2683 87.0710 0.0000 -2.9510 0.0000
# 4 0.0000 0.0000 0.0000 35.6615 0.0000 -4.8849
# 5 -18.4845 -12.9265 -2.9510 0.0000 27.2327 0.0000
# 6 0.0000 0.0000 0.0000 -4.8849 0.0000 9.7862
#
#
#
# Elastic Compliance Matrix: (Units=1/GPa)
#
#
# Indices 1 2 3 4 5 6 
#
# 1 0.015469 0.000603 -0.006161 0.000000 0.010118 0.000000
# 2 0.000603 0.013280 -0.003734 0.000000 0.006308 0.000000
# 3 -0.006161 -0.003734 0.014902 0.000000 -0.004339 0.000000
# 4 0.000000 0.000000 0.000000 0.030100 0.000000 0.015025
# 5 0.010118 0.006308 -0.004339 0.000000 0.046112 0.000000
# 6 0.000000 0.000000 0.000000 0.015025 0.000000 0.109684
#
#
# Mechanical properties :
#
#
# Convention : Reuss Voigt Hill
#
# Bulk Modulus (GPa) = 39.89464 46.03439 42.96451
# Shear Modulus (GPa) = 19.49412 27.22918 23.36165
#
# Velocity S-wave (km/s) = 2.91742 3.44798 3.19374
# Velocity P-wave (km/s) = 5.36348 5.99587 5.68847
#
# Compressibility (1/GPa) = 0.02506603
#
# Stress axis : x y z
#
# Youngs Moduli (GPa) = 64.64496 75.30084 67.10562
#
# Poissons Ratio (x) = -0.04538 0.41342
# Poissons Ratio (y) = -0.03895 0.25060
# Poissons Ratio (z) = 0.39826 0.28121
#
# Static dielectric constant tensor:
#      x y z
#    x 1.940670 0.000000 0.080150 
#    y 0.000000 2.008740 0.000000 
#    z 0.080150 0.000000 1.877350 
# 
# From -- ./inp_files/2770.got.cif
#   From: 2010.05.17/outbox.cif.g08.bks.cpg/sg4_2_cif.got.tgz:2770.got - 2010.06.03 18:43:04.
