data_PCOD9114783
_publ_section_title
;
Structure prediction by ZEFSAII (Michael W. Deem and Ramdas Pophale) SiO2 
 PCOD9114783
Probable space group: P 21
;
_chemical_formula_sum "Si O2"
_cell_formula_units_Z 16
_cell_length_a 15.419508
_cell_length_b 4.946682
_cell_length_c 9.337065
_cell_angle_alpha 90.000000
_cell_angle_beta 103.171185
_cell_angle_gamma 90.000000
_cell_volume 693.453295
_symmetry_space_group_name_H-M "P 21"
_symmetry_group_IT_number 4
_symmetry_cell_setting 'monoclinic'
loop_
_space_group_symop_operation_xyz
x,y,z
-x,1/2+y,-z
loop_
_atom_site_type_symbol
_atom_site_label
_atom_site_fract_x
_atom_site_fract_y
_atom_site_fract_z
Si Si1 0.635875 0.217990 0.994036
Si Si2 0.214035 0.926459 0.598499
Si Si3 0.629424 0.720507 0.182610
Si Si4 0.144000 0.258570 0.294211
Si Si5 0.639307 0.196331 0.512533
Si Si6 0.764966 0.296258 0.796619
Si Si7 0.513688 0.019503 0.696520
Si Si8 0.022157 0.906641 0.599716
O O1 0.724190 0.283319 0.938036
O O2 0.576638 0.045399 0.858439
O O3 0.598760 0.495030 0.051406
O O4 0.650430 0.005599 0.123587
O O5 0.282862 0.091476 0.718219
O O6 0.180450 0.117647 0.454732
O O7 0.271890 0.681248 0.550992
O O8 0.126606 0.846924 0.652959
O O9 0.554769 0.757269 0.277813
O O10 0.199384 0.512218 0.253005
O O11 0.043909 0.344278 0.295122
O O12 0.158383 0.016836 0.188289
O O13 0.681365 0.378389 0.660059
O O14 0.583001 0.996428 0.591276
O O15 0.563770 0.318953 0.382552
O O16 0.992536 0.714110 0.456188
#
# Coordination Sequence:
#
# PCOD9114783 Si02
#       8
#     2   2   2   2   2   2   2   2
#     4  11  24  41  59  82 115 163 206 240 282 341
#     4   9  21  37  59  91 123 152 190 238 295 353
#     4  11  24  40  59  82 118 162 202 240 282 342
#     4  10  19  36  62  93 120 148 186 241 303 352
#     4   9  20  35  54  86 116 149 187 243 297 337
#     4  10  21  38  61  87 120 153 194 242 293 348
#     4  10  22  36  58  85 118 154 201 248 294 343
#     4  10  19  33  58  92 126 151 180 232 300 362
#
# _framework density 23.072932000000002
#
# number of rings (size 3 to 8) (size 9 to 14) (size 15 to 20)
#    0.000    2.000    0.000    3.750    0.000   15.000 
#    0.000    0.000    0.000    3.000    0.000    0.000 
#    0.000    0.000    0.000    0.000    0.000    0.000 
#
# Total GULP energy -89101.305161 kJ/mol
# GULP energy per Si atom -5568.831573 kJ/mol
# Density = 2.302042 g / cm^3
# Si number density = 23.072932 Si / 1000 Ang^3
#
#
#
# Elastic Constant Matrix: (Units=GPa)
#
#
# Indices 1 2 3 4 5 6 
#
# 1 137.6308 21.7288 24.0028 0.0000 -23.0061 0.0000
# 2 21.7288 91.2793 24.4949 0.0000 -28.2880 0.0000
# 3 24.0028 24.4949 66.0773 0.0000 -22.2792 0.0000
# 4 0.0000 0.0000 0.0000 13.2094 0.0000 -26.2390
# 5 -23.0061 -28.2880 -22.2792 0.0000 31.9087 0.0000
# 6 0.0000 0.0000 0.0000 -26.2390 0.0000 3.8507
#
#
#
# Elastic Compliance Matrix: (Units=1/GPa)
#
#
# Indices 1 2 3 4 5 6 
#
# 1 0.008348 -0.000075 -0.001305 0.000000 0.005042 0.000000
# 2 -0.000075 0.015208 -0.001416 0.000000 0.012440 0.000000
# 3 -0.001305 -0.001416 0.020132 0.000000 0.011860 0.000000
# 4 0.000000 0.000000 0.000000 -0.006039 0.000000 -0.041151
# 5 0.005042 0.012440 0.011860 0.000000 0.054284 0.000000
# 6 0.000000 0.000000 0.000000 -0.041151 0.000000 -0.020717
#
#
# Mechanical properties :
#
#
# Convention : Reuss Voigt Hill
#
# Bulk Modulus (GPa) = 26.24916 48.38228 37.31572
# Shear Modulus (GPa) = 55.86203 24.77782 40.31992
#
# Velocity S-wave (km/s) = 4.92581 3.28058 4.18484
# Velocity P-wave (km/s) = 6.61459 5.94680 6.28956
#
# Compressibility (1/GPa) = 0.03809646
#
# Stress axis : x y z
#
# Youngs Moduli (GPa) = 119.79049 65.75274 49.67322
#
# Poissons Ratio (x) = 0.00491 0.06482
# Poissons Ratio (y) = 0.00894 0.07035
# Poissons Ratio (z) = 0.15631 0.09312
#
# Static dielectric constant tensor:
#      x y z
#    x 1.911420 0.000000 -0.017240 
#    y 0.000000 1.918370 0.000000 
#    z -0.017240 0.000000 1.938610 
# 
# From -- ./inp_files/8699.got.cif
#   From: 2010.05.17/outbox.cif.g08.bks.cpg/sg4_5_cif.got.tgz:8699.got - 2010.06.03 18:43:04.
