data_PCOD9114077
_publ_section_title
;
Structure prediction by ZEFSAII (Michael W. Deem and Ramdas Pophale) SiO2 
 PCOD9114077
Probable space group: P 2
;
_chemical_formula_sum "Si O2"
_cell_formula_units_Z 13
_cell_length_a 8.142021
_cell_length_b 9.534656
_cell_length_c 8.579936
_cell_angle_alpha 90.000000
_cell_angle_beta 51.858586
_cell_angle_gamma 90.000000
_cell_volume 523.858321
_symmetry_space_group_name_H-M "P 2"
_symmetry_group_IT_number 3
_symmetry_cell_setting 'monoclinic'
loop_
_space_group_symop_operation_xyz
x,y,z
-x,y,-z
loop_
_atom_site_type_symbol
_atom_site_label
_atom_site_fract_x
_atom_site_fract_y
_atom_site_fract_z
Si Si1 0.031369 0.166530 0.296715
Si Si2 0.816700 0.410449 0.236328
Si Si3 0.003777 0.620065 0.315695
Si Si4 0.153982 0.883388 0.699125
Si Si5 0.593813 0.514356 0.097674
Si Si6 0.500000 0.071221 0.000000
Si Si7 0.527282 0.827909 0.239291
O O1 0.000000 0.148808 0.500000
O O2 0.893105 0.297953 0.318512
O O3 0.281997 0.158018 0.123663
O O4 0.929696 0.038845 0.260757
O O5 0.616444 0.418993 0.238307
O O6 0.807036 0.555676 0.338838
O O7 0.000000 0.396872 0.000000
O O8 0.000000 0.587061 0.500000
O O9 0.020314 0.783882 0.273823
O O10 0.184711 0.553340 0.107957
O O11 0.346598 0.857463 0.469691
O O12 0.245676 0.838090 0.811641
O O13 0.497594 0.669263 0.190983
O O14 0.500000 0.443464 0.000000
O O15 0.493747 0.959891 0.862016
#
# Coordination Sequence:
#
# PCOD9114077 Si02
#       7
#     2   2   2   2   2   1   2
#     4  12  26  50  77 110 154 202 251 311 380 452
#     4  10  25  47  70  99 145 203 249 304 380 442
#     4  11  22  41  70 103 143 195 243 309 379 440
#     4  11  24  42  74 109 152 194 251 310 383 443
#     4  11  22  43  72 106 149 191 255 310 376 451
#     4  12  26  44  80 116 148 196 254 316 380 452
#     4  11  23  42  71 117 146 192 251 318 376 451
#
# _framework density 24.815871999999999
#
# number of rings (size 3 to 8) (size 9 to 14) (size 15 to 20)
#    0.000    0.923    3.846    2.769    2.154    1.231 
#    5.538    0.000   23.692    0.000    0.000    0.000 
#    0.000    0.000    0.000    0.000    0.000    0.000 
#
# Total GULP energy -72603.862781 kJ/mol
# GULP energy per Si atom -5584.912522 kJ/mol
# Density = 2.475939 g / cm^3
# Si number density = 24.815872 Si / 1000 Ang^3
#
#
#
# Elastic Constant Matrix: (Units=GPa)
#
#
# Indices 1 2 3 4 5 6 
#
# 1 111.9883 30.7604 18.0315 0.0000 14.2509 0.0000
# 2 30.7604 98.3650 -8.4950 0.0000 1.1231 0.0000
# 3 18.0315 -8.4950 56.2340 0.0000 -0.0951 0.0000
# 4 0.0000 0.0000 0.0000 18.1450 0.0000 3.0044
# 5 14.2509 1.1231 -0.0951 0.0000 45.5993 0.0000
# 6 0.0000 0.0000 0.0000 3.0044 0.0000 39.7190
#
#
#
# Elastic Compliance Matrix: (Units=1/GPa)
#
#
# Indices 1 2 3 4 5 6 
#
# 1 0.011060 -0.003776 -0.004122 0.000000 -0.003372 0.000000
# 2 -0.003776 0.011593 0.002964 0.000000 0.000901 0.000000
# 3 -0.004122 0.002964 0.019554 0.000000 0.001256 0.000000
# 4 0.000000 0.000000 0.000000 0.055810 0.000000 -0.004222
# 5 -0.003372 0.000901 0.001256 0.000000 0.022964 0.000000
# 6 0.000000 0.000000 0.000000 -0.004222 0.000000 0.025496
#
#
# Mechanical properties :
#
#
# Convention : Reuss Voigt Hill
#
# Bulk Modulus (GPa) = 30.92427 38.57565 34.74996
# Shear Modulus (GPa) = 29.91746 35.77869 32.84807
#
# Velocity S-wave (km/s) = 3.47591 3.80118 3.64218
# Velocity P-wave (km/s) = 5.34769 5.90286 5.63212
#
# Compressibility (1/GPa) = 0.03233706
#
# Stress axis : x y z
#
# Youngs Moduli (GPa) = 90.41974 86.26121 51.13915
#
# Poissons Ratio (x) = 0.32572 0.21081
# Poissons Ratio (y) = 0.34143 -0.15155
# Poissons Ratio (z) = 0.37274 -0.25564
#
# Static dielectric constant tensor:
#      x y z
#    x 2.114710 0.000000 -0.035730 
#    y 0.000000 1.950960 0.000000 
#    z -0.035730 0.000000 1.976460 
# 
# From -- ./inp_files/5515.got.cif
#   From: 2010.05.17/outbox.cif.g08.bks.cpg/sg3_3_cif.got.tgz:5515.got - 2010.06.03 18:33:08.
