data_PCOD9114450
_publ_section_title
;
Structure prediction by ZEFSAII (Michael W. Deem and Ramdas Pophale) SiO2 
 PCOD9114450
Probable space group: P 21
;
_chemical_formula_sum "Si O2"
_cell_formula_units_Z 14
_cell_length_a 16.861586
_cell_length_b 5.029375
_cell_length_c 28.676694
_cell_angle_alpha 90.000000
_cell_angle_beta 14.219690
_cell_angle_gamma 90.000000
_cell_volume 597.367433
_symmetry_space_group_name_H-M "P 21"
_symmetry_group_IT_number 4
_symmetry_cell_setting 'monoclinic'
loop_
_space_group_symop_operation_xyz
x,y,z
-x,1/2+y,-z
loop_
_atom_site_type_symbol
_atom_site_label
_atom_site_fract_x
_atom_site_fract_y
_atom_site_fract_z
Si Si1 0.017674 0.799260 0.459849
Si Si2 0.584151 0.060539 0.247021
Si Si3 0.455688 0.054697 0.134329
Si Si4 0.276893 0.179065 0.139083
Si Si5 0.185942 0.062506 0.836528
Si Si6 0.901085 0.797204 0.215142
Si Si7 0.912397 0.303269 0.261836
O O1 0.292909 0.927851 0.271535
O O2 0.126826 0.552138 0.429801
O O3 0.756021 0.664249 0.575814
O O4 0.710926 0.258311 0.215212
O O5 0.590778 0.759033 0.260380
O O6 0.834465 0.088147 0.061226
O O7 0.220113 0.139211 0.226696
O O8 0.707127 0.848244 0.968073
O O9 0.707012 0.283908 0.005770
O O10 0.955621 0.227830 0.291321
O O11 0.532642 0.421065 0.988749
O O12 0.186897 0.175001 0.784156
O O13 0.777660 0.591234 0.325112
O O14 0.796051 0.084540 0.291567
#
# Coordination Sequence:
#
# PCOD9114450 Si02
#       7
#     2   2   2   2   2   2   2
#     4  12  26  38  55  80 115 149 182 218 269 338
#     4  10  22  37  53  74 102 144 191 217 270 303
#     4   9  22  31  55  78 116 145 173 218 280 327
#     4  10  16  31  49  77 116 140 171 220 270 341
#     4  10  20  36  55  72 101 143 186 237 251 307
#     4  10  18  30  53  79 106 135 173 226 274 309
#     4   9  18  29  50  82 110 132 176 218 278 325
#
# _framework density 23.436163000000001
#
# number of rings (size 3 to 8) (size 9 to 14) (size 15 to 20)
#    0.857    1.143    1.429    2.571    4.000    1.143 
#    0.000    0.000    0.000    0.000    0.000    4.000 
#    0.000    0.000    0.000    0.000    0.000    0.000 
#
# Total GULP energy -78171.448388 kJ/mol
# GULP energy per Si atom -5583.674885 kJ/mol
# Density = 2.338282 g / cm^3
# Si number density = 23.436163 Si / 1000 Ang^3
#
#
#
# Elastic Constant Matrix: (Units=GPa)
#
#
# Indices 1 2 3 4 5 6 
#
# 1 88.1660 -16.2674 -3.0416 0.0000 1.0468 0.0001
# 2 -16.2674 77.4846 -21.0104 0.0001 6.4564 0.0000
# 3 -3.0416 -21.0104 33.6753 0.0009 8.6786 0.0007
# 4 0.0000 0.0001 0.0009 -11.5443 -0.0005 -1.8925
# 5 1.0468 6.4564 8.6786 -0.0005 16.6159 -0.0001
# 6 0.0001 0.0000 0.0007 -1.8925 -0.0001 33.8995
#
#
#
# Elastic Compliance Matrix: (Units=1/GPa)
#
#
# Indices 1 2 3 4 5 6 
#
# 1 0.012412 0.004475 0.005273 0.000001 -0.005275 0.000000
# 2 0.004475 0.019937 0.017231 0.000002 -0.017029 0.000000
# 3 0.005273 0.017231 0.049381 0.000006 -0.032820 -0.000001
# 4 0.000001 0.000002 0.000006 -0.085837 -0.000006 -0.004792
# 5 -0.005275 -0.017029 -0.032820 -0.000006 0.084274 0.000001
# 6 0.000000 0.000000 -0.000001 -0.004792 0.000001 0.029231
#
#
# Mechanical properties :
#
#
# Convention : Reuss Voigt Hill
#
# Bulk Modulus (GPa) = 7.36985 13.18746 10.27865
# Shear Modulus (GPa) = 49.66752 23.77055 36.71903
#
# Velocity S-wave (km/s) = 4.60855 3.18821 3.96254
# Velocity P-wave (km/s) = 5.60979 4.38088 5.03298
#
# Compressibility (1/GPa) = 0.13568801
#
# Stress axis : x y z
#
# Youngs Moduli (GPa) = 80.56418 50.15886 20.25089
#
# Poissons Ratio (x) = -0.22447 -0.10677
# Poissons Ratio (y) = -0.36054 -0.34895
# Poissons Ratio (z) = -0.42478 -0.86431
#
# Static dielectric constant tensor:
#      x y z
#    x 1.917770 0.000000 -0.027420 
#    y 0.000000 1.859450 0.000000 
#    z -0.027420 0.000000 1.932500 
# 
# From -- ./inp_files/16390.got.cif
#   From: 2010.05.17/outbox.cif.g08.bks.cpg/sg4_9_cif.got.tgz:16390.got - 2010.06.03 18:43:04.
