data_PCOD9114508
_publ_section_title
;
Structure prediction by ZEFSAII (Michael W. Deem and Ramdas Pophale) SiO2 
 PCOD9114508
Probable space group: P 21
;
_chemical_formula_sum "Si O2"
_cell_formula_units_Z 16
_cell_length_a 8.400019
_cell_length_b 8.574534
_cell_length_c 11.105606
_cell_angle_alpha 90.000000
_cell_angle_beta 66.580081
_cell_angle_gamma 90.000000
_cell_volume 733.996977
_symmetry_space_group_name_H-M "P 21"
_symmetry_group_IT_number 4
_symmetry_cell_setting 'monoclinic'
loop_
_space_group_symop_operation_xyz
x,y,z
-x,1/2+y,-z
loop_
_atom_site_type_symbol
_atom_site_label
_atom_site_fract_x
_atom_site_fract_y
_atom_site_fract_z
Si Si1 0.923291 0.344240 0.913509
Si Si2 0.811719 0.805538 0.549362
Si Si3 0.242527 0.065595 0.237043
Si Si4 0.081712 0.017196 0.841586
Si Si5 0.955094 0.075200 0.640514
Si Si6 0.471685 0.783006 0.958986
Si Si7 0.393723 0.776497 0.254028
Si Si8 0.474512 0.970752 0.720341
O O1 0.877951 0.464396 0.817327
O O2 0.060027 0.205206 0.855843
O O3 0.972887 0.444342 0.015292
O O4 0.736064 0.260063 0.993655
O O5 0.838335 0.702324 0.661321
O O6 0.884285 0.692136 0.425851
O O7 0.613616 0.867133 0.606214
O O8 0.925549 0.960272 0.537238
O O9 0.332998 0.948298 0.306196
O O10 0.398712 0.145435 0.115679
O O11 0.970953 0.978069 0.757818
O O12 0.272798 0.949973 0.758665
O O13 0.785381 0.180788 0.706248
O O14 0.508388 0.922049 0.851388
O O15 0.488466 0.803224 0.097330
O O16 0.497229 0.655844 0.303759
#
# Coordination Sequence:
#
# PCOD9114508 Si02
#       8
#     2   2   2   2   2   2   2   2
#     4  10  22  35  56  94 133 165 202 247 323 380
#     4  10  23  41  63  88 116 162 223 261 301 356
#     4  10  19  35  60  85 124 159 211 257 299 360
#     4  11  22  40  60  93 135 166 198 252 320 384
#     4  11  22  39  64  87 121 160 212 265 305 359
#     4   9  16  32  53  83 121 159 200 251 297 358
#     4  10  17  33  56  87 114 157 205 252 304 357
#     4   9  21  37  56  87 124 162 201 255 305 376
#
# _framework density 21.798456000000002
#
# number of rings (size 3 to 8) (size 9 to 14) (size 15 to 20)
#    0.000    2.000    2.500    3.000    1.750    1.000 
#    2.250    3.750    0.000    0.000    0.000    0.000 
#    0.000    0.000    0.000    0.000    0.000    0.000 
#
# Total GULP energy -89098.804827 kJ/mol
# GULP energy per Si atom -5568.675302 kJ/mol
# Density = 2.174884 g / cm^3
# Si number density = 21.798456 Si / 1000 Ang^3
#
#
#
# Elastic Constant Matrix: (Units=GPa)
#
#
# Indices 1 2 3 4 5 6 
#
# 1 25.6964 11.3836 4.9464 0.0000 -6.0640 0.0000
# 2 11.3836 96.2094 18.5372 0.0000 -3.6865 0.0000
# 3 4.9464 18.5372 55.5694 0.0000 -7.4111 0.0000
# 4 0.0000 0.0000 0.0000 35.2636 0.0000 -3.2219
# 5 -6.0640 -3.6865 -7.4111 0.0000 24.5662 0.0000
# 6 0.0000 0.0000 0.0000 -3.2219 0.0000 32.1552
#
#
#
# Elastic Compliance Matrix: (Units=1/GPa)
#
#
# Indices 1 2 3 4 5 6 
#
# 1 0.043434 -0.004565 -0.001047 0.000000 0.009721 0.000000
# 2 -0.004565 0.011595 -0.003522 0.000000 -0.000449 0.000000
# 3 -0.001047 -0.003522 0.019962 0.000000 0.005235 0.000000
# 4 0.000000 0.000000 0.000000 0.028620 0.000000 0.002868
# 5 0.009721 -0.000449 0.005235 0.000000 0.044618 0.000000
# 6 0.000000 0.000000 0.000000 0.002868 0.000000 0.031386
#
#
# Mechanical properties :
#
#
# Convention : Reuss Voigt Hill
#
# Bulk Modulus (GPa) = 17.62930 27.46774 22.54852
# Shear Modulus (GPa) = 23.06380 27.90420 25.48400
#
# Velocity S-wave (km/s) = 3.25629 3.58173 3.42288
# Velocity P-wave (km/s) = 4.71624 5.45281 5.09785
#
# Compressibility (1/GPa) = 0.05672374
#
# Stress axis : x y z
#
# Youngs Moduli (GPa) = 23.02358 86.24068 50.09597
#
# Poissons Ratio (x) = 0.39368 0.05245
# Poissons Ratio (y) = 0.10510 0.17642
# Poissons Ratio (z) = 0.02410 0.30371
#
# Static dielectric constant tensor:
#      x y z
#    x 1.814220 0.000000 0.002840 
#    y 0.000000 1.818160 0.000000 
#    z 0.002840 0.000000 1.857230 
# 
# From -- ./inp_files/7681.got.cif
#   From: 2010.05.17/outbox.cif.g08.bks.cpg/sg4_4_cif.got.tgz:7681.got - 2010.06.03 18:43:04.
