data_PCOD9114795
_publ_section_title
;
Structure prediction by ZEFSAII (Michael W. Deem and Ramdas Pophale) SiO2 
 PCOD9114795
Probable space group: P 21
;
_chemical_formula_sum "Si O2"
_cell_formula_units_Z 12
_cell_length_a 7.671875
_cell_length_b 8.370389
_cell_length_c 9.901505
_cell_angle_alpha 90.000000
_cell_angle_beta 62.478291
_cell_angle_gamma 90.000000
_cell_volume 563.886367
_symmetry_space_group_name_H-M "P 21"
_symmetry_group_IT_number 4
_symmetry_cell_setting 'monoclinic'
loop_
_space_group_symop_operation_xyz
x,y,z
-x,1/2+y,-z
loop_
_atom_site_type_symbol
_atom_site_label
_atom_site_fract_x
_atom_site_fract_y
_atom_site_fract_z
Si Si1 0.021623 0.566420 0.051521
Si Si2 0.145649 0.055764 0.384413
Si Si3 0.554634 0.144104 0.165547
Si Si4 0.467152 0.473254 0.100255
Si Si5 0.104828 0.252580 0.137117
Si Si6 0.859129 0.190934 0.705021
O O1 0.966130 0.393756 0.129773
O O2 0.069724 0.676434 0.164574
O O3 0.230484 0.565765 0.893317
O O4 0.867349 0.637205 0.001192
O O5 0.145472 0.870847 0.344463
O O6 0.370805 0.114479 0.330000
O O7 0.056626 0.155769 0.289283
O O8 0.008840 0.090174 0.560714
O O9 0.585655 0.333109 0.129692
O O10 0.466410 0.058989 0.060758
O O11 0.287146 0.362643 0.111989
O O12 0.357078 0.609997 0.224760
#
# Coordination Sequence:
#
# PCOD9114795 Si02
#       6
#     2   2   2   2   2   2
#     4  10  19  34  53  79 104 136 173 213 254 303
#     4  11  19  34  54  76 102 135 172 218 256 305
#     4   9  17  30  51  74 103 130 172 215 252 296
#     4   9  18  32  50  79 102 135 173 211 253 302
#     4   9  19  32  52  75 103 135 172 206 253 306
#     4  10  20  32  54  77 102 135 174 211 258 310
#
# _framework density 21.280882999999999
#
# number of rings (size 3 to 8) (size 9 to 14) (size 15 to 20)
#    0.000    2.667    0.000    6.000    0.000    1.333 
#    0.000    0.000    0.000   32.000    0.000    0.000 
#    0.000    0.000    0.000    0.000    0.000    0.000 
#
# Total GULP energy -66843.600378 kJ/mol
# GULP energy per Si atom -5570.300031 kJ/mol
# Density = 2.123245 g / cm^3
# Si number density = 21.280883 Si / 1000 Ang^3
#
#
#
# Elastic Constant Matrix: (Units=GPa)
#
#
# Indices 1 2 3 4 5 6 
#
# 1 60.5755 1.8158 2.2767 0.0000 4.5817 0.0000
# 2 1.8158 86.3129 -6.0911 0.0000 5.3396 0.0000
# 3 2.2767 -6.0911 80.7224 0.0000 -10.6578 0.0000
# 4 0.0000 0.0000 0.0000 41.5445 0.0000 0.7545
# 5 4.5817 5.3396 -10.6578 0.0000 25.3740 0.0000
# 6 0.0000 0.0000 0.0000 0.7545 0.0000 20.7154
#
#
#
# Elastic Compliance Matrix: (Units=1/GPa)
#
#
# Indices 1 2 3 4 5 6 
#
# 1 0.016806 -0.000210 -0.000937 0.000000 -0.003384 0.000000
# 2 -0.000210 0.011768 0.000606 0.000000 -0.002184 0.000000
# 3 -0.000937 0.000606 0.013198 0.000000 0.005585 0.000000
# 4 0.000000 0.000000 0.000000 0.024087 0.000000 -0.000877
# 5 -0.003384 -0.002184 0.005585 0.000000 0.042827 0.000000
# 6 0.000000 0.000000 0.000000 -0.000877 0.000000 0.048305
#
#
# Mechanical properties :
#
#
# Convention : Reuss Voigt Hill
#
# Bulk Modulus (GPa) = 24.57686 24.84595 24.71141
# Shear Modulus (GPa) = 29.13147 32.83407 30.98277
#
# Velocity S-wave (km/s) = 3.70388 3.93223 3.81976
# Velocity P-wave (km/s) = 5.46494 5.68482 5.57596
#
# Compressibility (1/GPa) = 0.04068868
#
# Stress axis : x y z
#
# Youngs Moduli (GPa) = 59.50340 84.97598 75.77107
#
# Poissons Ratio (x) = 0.01787 0.07097
# Poissons Ratio (y) = 0.01251 -0.04588
# Poissons Ratio (z) = 0.05573 -0.05146
#
# Static dielectric constant tensor:
#      x y z
#    x 1.895130 0.000000 -0.022820 
#    y 0.000000 1.864740 0.000000 
#    z -0.022820 0.000000 1.762650 
# 
# From -- ./inp_files/5275.got.cif
#   From: 2010.05.17/outbox.cif.g08.bks.cpg/sg4_3_cif.got.tgz:5275.got - 2010.06.03 18:43:04.
