data_PCOD9114154
_publ_section_title
;
Structure prediction by ZEFSAII (Michael W. Deem and Ramdas Pophale) SiO2 
 PCOD9114154
Probable space group: P 2
;
_chemical_formula_sum "Si O2"
_cell_formula_units_Z 10
_cell_length_a 8.673127
_cell_length_b 7.819825
_cell_length_c 11.695958
_cell_angle_alpha 90.000000
_cell_angle_beta 142.224385
_cell_angle_gamma 90.000000
_cell_volume 485.919991
_symmetry_space_group_name_H-M "P 2"
_symmetry_group_IT_number 3
_symmetry_cell_setting 'monoclinic'
loop_
_space_group_symop_operation_xyz
x,y,z
-x,y,-z
loop_
_atom_site_type_symbol
_atom_site_label
_atom_site_fract_x
_atom_site_fract_y
_atom_site_fract_z
Si Si1 0.232849 0.248920 0.776486
Si Si2 0.066585 0.698204 0.918825
Si Si3 0.761024 0.432368 0.611495
Si Si4 0.780076 0.865454 0.215843
Si Si5 0.632590 0.568739 0.294015
O O1 0.281697 0.386079 0.705925
O O2 0.994375 0.314840 0.709729
O O3 0.176254 0.053851 0.710260
O O4 0.500000 0.250906 0.000000
O O5 0.061531 0.818112 0.804232
O O6 0.869235 0.549110 0.776178
O O7 0.341508 0.611441 0.094654
O O8 0.000000 0.785264 0.000000
O O9 0.500000 0.347677 0.500000
O O10 0.690420 0.552947 0.461723
O O11 0.776017 0.715452 0.306445
O O12 0.500000 0.868149 0.000000
#
# Coordination Sequence:
#
# PCOD9114154 Si02
#       5
#     2   2   2   2   2
#     4  11  21  42  69  95 128 169 215 266 316 379
#     4  11  21  42  67  91 132 173 209 263 324 378
#     4  12  24  40  65  98 130 171 213 258 328 382
#     4   9  21  40  68  96 122 168 224 262 314 378
#     4  11  21  42  69  93 125 172 218 266 313 376
#
# _framework density 20.579521
#
# number of rings (size 3 to 8) (size 9 to 14) (size 15 to 20)
#    0.000    1.200    6.000    1.200    0.000    0.000 
#    7.200    8.000    0.000    0.000    0.000    0.000 
#    0.000    0.000    0.000    0.000    0.000    0.000 
#
# Total GULP energy -55791.214611 kJ/mol
# GULP energy per Si atom -5579.121461 kJ/mol
# Density = 2.053268 g / cm^3
# Si number density = 20.579521 Si / 1000 Ang^3
#
#
#
# Elastic Constant Matrix: (Units=GPa)
#
#
# Indices 1 2 3 4 5 6 
#
# 1 126.1483 39.2124 39.7900 0.0000 6.6831 0.0000
# 2 39.2124 107.8243 28.9197 0.0000 -10.8468 0.0000
# 3 39.7900 28.9197 118.6705 0.0000 6.3386 0.0000
# 4 0.0000 0.0000 0.0000 -26.9227 0.0000 19.1226
# 5 6.6831 -10.8468 6.3386 0.0000 39.4282 0.0000
# 6 0.0000 0.0000 0.0000 19.1226 0.0000 1.6607
#
#
#
# Elastic Compliance Matrix: (Units=1/GPa)
#
#
# Indices 1 2 3 4 5 6 
#
# 1 0.009768 -0.003123 -0.002400 0.000000 -0.002129 0.000000
# 2 -0.003123 0.011324 -0.001924 0.000000 0.003954 0.000000
# 3 -0.002400 -0.001924 0.009791 0.000000 -0.001696 0.000000
# 4 0.000000 0.000000 0.000000 -0.004047 0.000000 0.046597
# 5 -0.002129 0.003954 -0.001696 0.000000 0.027084 0.000000
# 6 0.000000 0.000000 0.000000 0.046597 0.000000 0.065604
#
#
# Mechanical properties :
#
#
# Convention : Reuss Voigt Hill
#
# Bulk Modulus (GPa) = 62.54344 63.16524 62.85434
# Shear Modulus (GPa) = 35.77919 19.14798 27.46358
#
# Velocity S-wave (km/s) = 4.17415 3.05362 3.65706
# Velocity P-wave (km/s) = 7.32724 6.57211 6.95993
#
# Compressibility (1/GPa) = 0.01598889
#
# Stress axis : x y z
#
# Youngs Moduli (GPa) = 102.37793 88.31097 102.13483
#
# Poissons Ratio (x) = 0.27575 0.24517
# Poissons Ratio (y) = 0.31968 0.19648
# Poissons Ratio (z) = 0.24575 0.16989
#
# Static dielectric constant tensor:
#      x y z
#    x 1.774720 0.000000 0.016610 
#    y 0.000000 1.710480 0.000000 
#    z 0.016610 0.000000 1.747540 
# 
# From -- ./inp_files/6883.got.cif
#   From: 2010.05.17/outbox.cif.g08.bks.cpg/sg3_4_cif.got.tgz:6883.got - 2010.06.03 18:33:08.
