data_PCOD9114505
_publ_section_title
;
Structure prediction by ZEFSAII (Michael W. Deem and Ramdas Pophale) SiO2 
 PCOD9114505
Probable space group: P 21
;
_chemical_formula_sum "Si O2"
_cell_formula_units_Z 16
_cell_length_a 14.529000
_cell_length_b 9.102907
_cell_length_c 8.200989
_cell_angle_alpha 90.000000
_cell_angle_beta 140.703274
_cell_angle_gamma 90.000000
_cell_volume 686.936640
_symmetry_space_group_name_H-M "P 21"
_symmetry_group_IT_number 4
_symmetry_cell_setting 'monoclinic'
loop_
_space_group_symop_operation_xyz
x,y,z
-x,1/2+y,-z
loop_
_atom_site_type_symbol
_atom_site_label
_atom_site_fract_x
_atom_site_fract_y
_atom_site_fract_z
Si Si1 0.727090 0.340460 0.186775
Si Si2 0.305837 0.999058 0.357998
Si Si3 0.520202 0.288862 0.181133
Si Si4 0.256284 0.538688 0.409648
Si Si5 0.133988 0.247508 0.289479
Si Si6 0.731168 0.648091 0.013194
Si Si7 0.974827 0.238569 0.745941
Si Si8 0.165629 0.716203 0.985059
O O1 0.578517 0.314047 0.079809
O O2 0.729508 0.497117 0.107226
O O3 0.856924 0.336251 0.495220
O O4 0.765614 0.222230 0.099690
O O5 0.202469 0.093007 0.333197
O O6 0.427391 0.923064 0.633680
O O7 0.224106 0.862875 0.158252
O O8 0.347498 0.110610 0.268527
O O9 0.606867 0.140225 0.355788
O O10 0.353551 0.262616 0.991816
O O11 0.260019 0.369453 0.465835
O O12 0.218115 0.580776 0.169719
O O13 0.118458 0.598518 0.323828
O O14 0.041600 0.299754 0.003777
O O15 0.010093 0.228473 0.256019
O O16 0.891858 0.696511 0.185252
#
# Coordination Sequence:
#
# PCOD9114505 Si02
#       8
#     2   2   2   2   2   2   2   2
#     4  10  21  38  58  84 121 158 194 237 289 351
#     4   9  20  37  60  87 115 151 198 248 292 340
#     4  10  22  41  59  83 121 157 192 241 293 347
#     4   9  18  34  59  87 115 148 193 244 292 343
#     4  10  17  32  58  90 117 149 196 246 291 340
#     4  10  21  40  61  84 117 156 197 243 291 345
#     4   9  20  35  57  87 117 151 195 245 291 342
#     4   9  17  33  58  86 117 152 193 242 293 346
#
# _framework density 23.291813000000001
#
# number of rings (size 3 to 8) (size 9 to 14) (size 15 to 20)
#    0.000    2.500    0.000    3.750    0.000    4.000 
#    0.000   11.250    0.000    0.000    0.000    0.000 
#    0.000    0.000    0.000    0.000    0.000    0.000 
#
# Total GULP energy -89411.140992 kJ/mol
# GULP energy per Si atom -5588.196312 kJ/mol
# Density = 2.323880 g / cm^3
# Si number density = 23.291813 Si / 1000 Ang^3
#
#
#
# Elastic Constant Matrix: (Units=GPa)
#
#
# Indices 1 2 3 4 5 6 
#
# 1 170.7289 21.7215 32.5023 0.0000 -3.3520 0.0000
# 2 21.7215 33.5106 12.0112 0.0000 -8.9487 0.0000
# 3 32.5023 12.0112 40.8317 0.0000 -2.9385 0.0000
# 4 0.0000 0.0000 0.0000 14.4501 0.0000 -3.4877
# 5 -3.3520 -8.9487 -2.9385 0.0000 23.5445 0.0000
# 6 0.0000 0.0000 0.0000 -3.4877 0.0000 25.1122
#
#
#
# Elastic Compliance Matrix: (Units=1/GPa)
#
#
# Indices 1 2 3 4 5 6 
#
# 1 0.007159 -0.003111 -0.004839 0.000000 -0.000767 0.000000
# 2 -0.003111 0.038149 -0.007804 0.000000 0.013082 0.000000
# 3 -0.004839 -0.007804 0.030650 0.000000 0.000170 0.000000
# 4 0.000000 0.000000 0.000000 0.071604 0.000000 0.009945
# 5 -0.000767 0.013082 0.000170 0.000000 0.047357 0.000000
# 6 0.000000 0.000000 0.000000 0.009945 0.000000 0.041202
#
#
# Mechanical properties :
#
#
# Convention : Reuss Voigt Hill
#
# Bulk Modulus (GPa) = 22.49697 41.94901 32.22299
# Shear Modulus (GPa) = 17.70248 24.54378 21.12313
#
# Velocity S-wave (km/s) = 2.75986 3.24968 3.01473
# Velocity P-wave (km/s) = 4.45370 5.66832 5.09732
#
# Compressibility (1/GPa) = 0.04445043
#
# Stress axis : x y z
#
# Youngs Moduli (GPa) = 139.68113 26.21331 32.62606
#
# Poissons Ratio (x) = 0.08155 0.15787
# Poissons Ratio (y) = 0.43455 0.25461
# Poissons Ratio (z) = 0.67589 0.20457
#
# Static dielectric constant tensor:
#      x y z
#    x 1.887670 0.000000 -0.018490 
#    y 0.000000 1.918760 0.000000 
#    z -0.018490 0.000000 1.921360 
# 
# From -- ./inp_files/9179.got.cif
#   From: 2010.05.17/outbox.cif.g08.bks.cpg/sg4_5_cif.got.tgz:9179.got - 2010.06.03 18:43:04.
