data_PCOD9114122
_publ_section_title
;
Structure prediction by ZEFSAII (Michael W. Deem and Ramdas Pophale) SiO2 
 PCOD9114122
Probable space group: P 2
;
_chemical_formula_sum "Si O2"
_cell_formula_units_Z 10
_cell_length_a 10.131416
_cell_length_b 5.164607
_cell_length_c 8.758838
_cell_angle_alpha 90.000000
_cell_angle_beta 63.614487
_cell_angle_gamma 90.000000
_cell_volume 410.560053
_symmetry_space_group_name_H-M "P 2"
_symmetry_group_IT_number 3
_symmetry_cell_setting 'monoclinic'
loop_
_space_group_symop_operation_xyz
x,y,z
-x,y,-z
loop_
_atom_site_type_symbol
_atom_site_label
_atom_site_fract_x
_atom_site_fract_y
_atom_site_fract_z
Si Si1 0.895606 0.650370 0.724040
Si Si2 0.242412 0.175528 0.345621
Si Si3 0.000000 0.140146 0.000000
Si Si4 0.814726 0.469160 0.328955
Si Si5 0.500000 0.056969 0.000000
Si Si6 0.726705 0.759762 0.090037
O O1 0.873667 0.388643 0.644631
O O2 0.069837 0.685390 0.665025
O O3 0.820532 0.895180 0.675998
O O4 0.800495 0.583986 0.923745
O O5 0.262527 0.273276 0.511309
O O6 0.387688 0.210587 0.166433
O O7 0.931475 0.305910 0.170619
O O8 0.859231 0.967705 0.030175
O O9 0.710415 0.614224 0.259519
O O10 0.413221 0.885048 0.919095
#
# Coordination Sequence:
#
# PCOD9114122 Si02
#       6
#     2   2   1   2   1   2
#     4  11  23  46  74 116 152 201 252 330 389 459
#     4  11  28  45  80 110 162 201 265 311 393 471
#     4  12  22  44  76 116 158 194 262 334 390 448
#     4  12  24  42  78 123 149 204 259 336 388 459
#     4  10  26  54  78 110 158 226 252 314 396 476
#     4  11  24  45  81 106 163 201 262 316 399 463
#
# _framework density 24.356968999999999
#
# number of rings (size 3 to 8) (size 9 to 14) (size 15 to 20)
#    0.000    0.800    4.000    3.000    2.800    6.400 
#    0.000    1.000    4.400    0.000    0.000    0.000 
#    0.000    0.000    0.000    0.000    0.000    0.000 
#
# Total GULP energy -55791.732033 kJ/mol
# GULP energy per Si atom -5579.173203 kJ/mol
# Density = 2.430153 g / cm^3
# Si number density = 24.356969 Si / 1000 Ang^3
#
#
#
# Elastic Constant Matrix: (Units=GPa)
#
#
# Indices 1 2 3 4 5 6 
#
# 1 132.8191 37.7707 47.0947 0.0000 11.4795 0.0000
# 2 37.7707 61.8666 36.2110 0.0000 -2.1929 0.0000
# 3 47.0947 36.2110 199.0497 0.0000 -4.2418 0.0000
# 4 0.0000 0.0000 0.0000 276.9474 0.0000 181.9503
# 5 11.4795 -2.1929 -4.2418 0.0000 31.4168 0.0000
# 6 0.0000 0.0000 0.0000 181.9503 0.0000 164.2203
#
#
#
# Elastic Compliance Matrix: (Units=1/GPa)
#
#
# Indices 1 2 3 4 5 6 
#
# 1 0.009935 -0.005357 -0.001466 0.000000 -0.004202 0.000000
# 2 -0.005357 0.020999 -0.002487 0.000000 0.003087 0.000000
# 3 -0.001466 -0.002487 0.005848 0.000000 0.001152 0.000000
# 4 0.000000 0.000000 0.000000 0.013271 0.000000 -0.014704
# 5 -0.004202 0.003087 0.001152 0.000000 0.033736 0.000000
# 6 0.000000 0.000000 0.000000 -0.014704 0.000000 0.022381
#
#
# Mechanical properties :
#
#
# Convention : Reuss Voigt Hill
#
# Bulk Modulus (GPa) = 55.05608 70.65426 62.85517
# Shear Modulus (GPa) = 38.21365 112.69418 75.45392
#
# Velocity S-wave (km/s) = 3.96523 6.80942 5.57186
# Velocity P-wave (km/s) = 6.60432 9.53389 8.20098
#
# Compressibility (1/GPa) = 0.01816330
#
# Stress axis : x y z
#
# Youngs Moduli (GPa) = 100.65166 47.62072 171.00949
#
# Poissons Ratio (x) = 0.25509 0.25065
# Poissons Ratio (y) = 0.53916 0.42530
# Poissons Ratio (z) = 0.14753 0.11843
#
# Static dielectric constant tensor:
#      x y z
#    x -1.385830 0.000000 -1.358970 
#    y 0.000000 1.985080 0.000000 
#    z -1.358970 0.000000 1.474890 
# 
# From -- ./inp_files/4870.got.cif
#   From: 2010.05.17/outbox.cif.g08.bks.cpg/sg3_3_cif.got.tgz:4870.got - 2010.06.03 18:33:08.
