data_PCOD9114523
_publ_section_title
;
Structure prediction by ZEFSAII (Michael W. Deem and Ramdas Pophale) SiO2 
 PCOD9114523
Probable space group: P 21
;
_chemical_formula_sum "Si O2"
_cell_formula_units_Z 16
_cell_length_a 5.774485
_cell_length_b 14.854890
_cell_length_c 7.668104
_cell_angle_alpha 90.000000
_cell_angle_beta 111.529291
_cell_angle_gamma 90.000000
_cell_volume 611.872693
_symmetry_space_group_name_H-M "P 21"
_symmetry_group_IT_number 4
_symmetry_cell_setting 'monoclinic'
loop_
_space_group_symop_operation_xyz
x,y,z
-x,1/2+y,-z
loop_
_atom_site_type_symbol
_atom_site_label
_atom_site_fract_x
_atom_site_fract_y
_atom_site_fract_z
Si Si1 0.405068 0.169780 0.657400
Si Si2 0.521737 0.527071 0.071728
Si Si3 0.018729 0.622444 0.712176
Si Si4 0.092056 0.297981 0.150863
Si Si5 0.323674 0.537825 0.534547
Si Si6 0.141774 0.918296 0.623736
Si Si7 0.465137 0.843709 0.471740
Si Si8 0.053398 0.967678 0.089484
O O1 0.413253 0.128095 0.850886
O O2 0.135849 0.166731 0.490264
O O3 0.574473 0.106587 0.578869
O O4 0.507839 0.269572 0.668249
O O5 0.600456 0.464472 0.257813
O O6 0.721832 0.492828 0.982199
O O7 0.224524 0.512800 0.996158
O O8 0.988948 0.693785 0.861507
O O9 0.285344 0.593759 0.704063
O O10 0.876756 0.530029 0.723560
O O11 0.368094 0.308631 0.316200
O O12 0.929435 0.345343 0.255338
O O13 0.025424 0.363099 0.969087
O O14 0.439731 0.437937 0.579731
O O15 0.047751 0.500700 0.414244
O O16 0.187092 0.863262 0.460355
#
# Coordination Sequence:
#
# PCOD9114523 Si02
#       8
#     2   2   2   2   2   2   2   2
#     4  11  22  38  67  97 126 173 226 281 327 400
#     4  11  21  43  66  92 129 177 220 271 336 399
#     4  11  24  40  64  97 129 176 224 280 335 394
#     4   9  20  39  62  90 127 180 224 264 331 416
#     4  11  20  37  62  96 134 158 221 287 331 381
#     4  10  17  36  64  93 121 168 219 272 324 396
#     4  10  19  35  62  98 125 168 224 275 335 392
#     4  11  25  44  67  93 137 180 220 274 339 404
#
# _framework density 26.149231
#
# number of rings (size 3 to 8) (size 9 to 14) (size 15 to 20)
#    0.000    1.500    3.750    2.250    1.750    0.000 
#    2.250    1.250    0.000    0.000    0.000    0.000 
#    0.000    0.000    0.000    0.000    0.000    0.000 
#
# Total GULP energy -89177.517922 kJ/mol
# GULP energy per Si atom -5573.594870 kJ/mol
# Density = 2.608971 g / cm^3
# Si number density = 26.149231 Si / 1000 Ang^3
#
#
#
# Elastic Constant Matrix: (Units=GPa)
#
#
# Indices 1 2 3 4 5 6 
#
# 1 84.9691 22.3440 5.4972 0.0000 -0.2927 0.0000
# 2 22.3440 111.9654 5.8892 0.0000 7.8826 0.0000
# 3 5.4972 5.8892 48.4051 0.0000 4.0259 0.0000
# 4 0.0000 0.0000 0.0000 34.6297 0.0000 0.2037
# 5 -0.2927 7.8826 4.0259 0.0000 31.9932 0.0000
# 6 0.0000 0.0000 0.0000 0.2037 0.0000 30.3202
#
#
#
# Elastic Compliance Matrix: (Units=1/GPa)
#
#
# Indices 1 2 3 4 5 6 
#
# 1 0.012505 -0.002495 -0.001190 0.000000 0.000879 0.000000
# 2 -0.002495 0.009628 -0.000696 0.000000 -0.002307 0.000000
# 3 -0.001190 -0.000696 0.021086 0.000000 -0.002493 0.000000
# 4 0.000000 0.000000 0.000000 0.028878 0.000000 -0.000194
# 5 0.000879 -0.002307 -0.002493 0.000000 0.032147 0.000000
# 6 0.000000 0.000000 0.000000 -0.000194 0.000000 0.032983
#
#
# Mechanical properties :
#
#
# Convention : Reuss Voigt Hill
#
# Bulk Modulus (GPa) = 29.02084 34.75560 31.88822
# Shear Modulus (GPa) = 31.75121 33.49592 32.62356
#
# Velocity S-wave (km/s) = 3.48836 3.58292 3.53596
# Velocity P-wave (km/s) = 5.22945 5.51693 5.37511
#
# Compressibility (1/GPa) = 0.03445800
#
# Stress axis : x y z
#
# Youngs Moduli (GPa) = 79.96780 103.86089 47.42456
#
# Poissons Ratio (x) = 0.25911 0.05642
# Poissons Ratio (y) = 0.19950 0.03302
# Poissons Ratio (z) = 0.09514 0.07231
#
# Static dielectric constant tensor:
#      x y z
#    x 2.095400 0.000000 0.034830 
#    y 0.000000 2.075660 0.000000 
#    z 0.034830 0.000000 2.376660 
# 
# From -- ./inp_files/1730.got.cif
#   From: 2010.05.17/outbox.cif.g08.bks.cpg/sg4_1_cif.got.tgz:1730.got - 2010.06.03 18:43:04.
