data_PCOD9114941
_publ_section_title
;
Structure prediction by ZEFSAII (Michael W. Deem and Ramdas Pophale) SiO2 
 PCOD9114941
Probable space group: P 21
;
_chemical_formula_sum "Si O2"
_cell_formula_units_Z 16
_cell_length_a 8.622696
_cell_length_b 8.157053
_cell_length_c 12.105217
_cell_angle_alpha 90.000000
_cell_angle_beta 61.437541
_cell_angle_gamma 90.000000
_cell_volume 747.807914
_symmetry_space_group_name_H-M "P 21"
_symmetry_group_IT_number 4
_symmetry_cell_setting 'monoclinic'
loop_
_space_group_symop_operation_xyz
x,y,z
-x,1/2+y,-z
loop_
_atom_site_type_symbol
_atom_site_label
_atom_site_fract_x
_atom_site_fract_y
_atom_site_fract_z
Si Si1 0.022885 0.238780 0.734951
Si Si2 0.427003 0.063375 0.437606
Si Si3 0.191887 0.850713 0.824807
Si Si4 0.675608 0.874241 0.200970
Si Si5 0.159856 0.352827 0.470779
Si Si6 0.140130 0.580683 0.026906
Si Si7 0.474488 0.568903 0.338630
Si Si8 0.880507 0.374691 0.387865
O O1 0.158988 0.311156 0.780385
O O2 0.042902 0.358089 0.622616
O O3 0.079551 0.063018 0.663698
O O4 0.849008 0.183531 0.862331
O O5 0.582519 0.019216 0.301818
O O6 0.300836 0.903044 0.485914
O O7 0.311493 0.217496 0.438968
O O8 0.487445 0.090705 0.543083
O O9 0.161117 0.713614 0.924862
O O10 0.142814 0.784832 0.719547
O O11 0.386461 0.928167 0.748216
O O12 0.051884 0.994674 0.902061
O O13 0.732345 0.936298 0.060585
O O14 0.537789 0.725213 0.248574
O O15 0.271757 0.513789 0.401498
O O16 0.032143 0.309836 0.414093
#
# Coordination Sequence:
#
# PCOD9114941 Si02
#       8
#     2   2   2   2   2   2   2   2
#     4  10  20  40  59  93 125 164 215 263 317 386
#     4  10  20  38  57  94 127 163 216 272 324 383
#     4  10  19  37  60  92 122 163 219 267 321 380
#     4  12  20  35  63  94 123 161 214 282 313 369
#     4  11  21  39  63  90 134 170 202 268 345 393
#     4  11  20  36  63  93 121 167 217 279 306 376
#     4  11  19  36  61  92 127 164 218 274 324 375
#     4   9  21  39  60  90 137 166 201 267 340 406
#
# _framework density 21.395871
#
# number of rings (size 3 to 8) (size 9 to 14) (size 15 to 20)
#    0.000    1.500    7.500    0.750    0.000    3.000 
#    4.500    0.000    0.000   24.000    0.000    0.000 
#    0.000    0.000    0.000    0.000    0.000    0.000 
#
# Total GULP energy -89235.453694 kJ/mol
# GULP energy per Si atom -5577.215856 kJ/mol
# Density = 2.134717 g / cm^3
# Si number density = 21.395871 Si / 1000 Ang^3
#
#
#
# Elastic Constant Matrix: (Units=GPa)
#
#
# Indices 1 2 3 4 5 6 
#
# 1 37.8931 19.9079 33.6482 0.0000 -3.5172 0.0000
# 2 19.9079 65.4630 38.5274 0.0000 -5.6447 0.0000
# 3 33.6482 38.5274 159.7573 0.0000 -20.2990 0.0000
# 4 0.0000 0.0000 0.0000 42.1541 0.0000 -7.1328
# 5 -3.5172 -5.6447 -20.2990 0.0000 16.1929 0.0000
# 6 0.0000 0.0000 0.0000 -7.1328 0.0000 16.8735
#
#
#
# Elastic Compliance Matrix: (Units=1/GPa)
#
#
# Indices 1 2 3 4 5 6 
#
# 1 0.035375 -0.007459 -0.005954 0.000000 -0.002381 0.000000
# 2 -0.007459 0.019388 -0.002916 0.000000 0.001483 0.000000
# 3 -0.005954 -0.002916 0.009425 0.000000 0.009504 0.000000
# 4 0.000000 0.000000 0.000000 0.025550 0.000000 0.010801
# 5 -0.002381 0.001483 0.009504 0.000000 0.073670 0.000000
# 6 0.000000 0.000000 0.000000 0.010801 0.000000 0.063830
#
#
# Mechanical properties :
#
#
# Convention : Reuss Voigt Hill
#
# Bulk Modulus (GPa) = 31.71703 49.69781 40.70742
# Shear Modulus (GPa) = 18.49065 26.44608 22.46837
#
# Velocity S-wave (km/s) = 2.94294 3.51955 3.24408
# Velocity P-wave (km/s) = 5.13848 6.30828 5.75319
#
# Compressibility (1/GPa) = 0.03152881
#
# Stress axis : x y z
#
# Youngs Moduli (GPa) = 28.26852 51.57746 106.10530
#
# Poissons Ratio (x) = 0.38470 0.63180
# Poissons Ratio (y) = 0.21085 0.30944
# Poissons Ratio (z) = 0.16832 0.15042
#
# Static dielectric constant tensor:
#      x y z
#    x 1.754050 0.000000 -0.042350 
#    y 0.000000 1.891620 0.000000 
#    z -0.042350 0.000000 1.812580 
# 
# From -- ./inp_files/11043.got.cif
#   From: 2010.05.17/outbox.cif.g08.bks.cpg/sg4_6_cif.got.tgz:11043.got - 2010.06.03 18:43:04.
