data_PCOD9114140
_publ_section_title
;
Structure prediction by ZEFSAII (Michael W. Deem and Ramdas Pophale) SiO2 
 PCOD9114140
Probable space group: P 2
;
_chemical_formula_sum "Si O2"
_cell_formula_units_Z 12
_cell_length_a 11.775418
_cell_length_b 10.968172
_cell_length_c 11.902129
_cell_angle_alpha 90.000000
_cell_angle_beta 24.375275
_cell_angle_gamma 90.000000
_cell_volume 634.427069
_symmetry_space_group_name_H-M "P 2"
_symmetry_group_IT_number 3
_symmetry_cell_setting 'monoclinic'
loop_
_space_group_symop_operation_xyz
x,y,z
-x,y,-z
loop_
_atom_site_type_symbol
_atom_site_label
_atom_site_fract_x
_atom_site_fract_y
_atom_site_fract_z
Si Si1 0.474471 0.318920 0.657453
Si Si2 0.710635 0.827879 0.063073
Si Si3 0.720883 0.940808 0.395223
Si Si4 0.697365 0.592551 0.217641
Si Si5 0.009418 0.179294 0.781498
Si Si6 0.791352 0.993598 0.789411
O O1 0.500000 0.303060 0.500000
O O2 0.388004 0.459398 0.749469
O O3 0.769320 0.284136 0.444726
O O4 0.240458 0.233890 0.922131
O O5 0.448024 0.906775 0.340501
O O6 0.669227 0.691195 0.143737
O O7 0.758181 0.869863 0.892610
O O8 0.994622 0.868591 0.867404
O O9 0.500000 0.912375 0.500000
O O10 0.812380 0.080506 0.309819
O O11 0.500000 0.625686 0.500000
O O12 0.000000 0.586973 0.000000
O O13 0.897616 0.099111 0.778394
O O14 0.000000 0.976533 0.500000
O O15 0.500000 0.028732 0.000000
#
# Coordination Sequence:
#
# PCOD9114140 Si02
#       6
#     2   2   2   2   2   2
#     4  11  22  37  57  87 124 159 186 219 274 349
#     4  11  22  37  58  85 114 151 194 235 286 344
#     4  11  21  33  53  85 120 148 180 231 290 350
#     4  11  22  37  58  86 124 162 189 219 270 346
#     4  11  22  37  58  85 115 151 194 235 286 345
#     4  11  23  41  61  84 111 147 196 253 305 334
#
# _framework density 18.914702999999999
#
# number of rings (size 3 to 8) (size 9 to 14) (size 15 to 20)
#    0.000    1.000    0.000   11.000    0.000    2.667 
#    0.000    3.333    0.000    4.000    0.000    2.333 
#    0.000    0.000    0.000    0.000    0.000    0.000 
#
# Total GULP energy -67053.961335 kJ/mol
# GULP energy per Si atom -5587.830111 kJ/mol
# Density = 1.887165 g / cm^3
# Si number density = 18.914703 Si / 1000 Ang^3
#
#
#
# Elastic Constant Matrix: (Units=GPa)
#
#
# Indices 1 2 3 4 5 6 
#
# 1 63.4800 53.0510 37.4432 0.0000 3.8371 0.0000
# 2 53.0510 129.7931 58.9879 0.0000 17.4718 0.0000
# 3 37.4432 58.9879 159.0495 0.0000 9.4636 0.0000
# 4 0.0000 0.0000 0.0000 26.1478 0.0000 -4.0219
# 5 3.8371 17.4718 9.4636 0.0000 42.3672 0.0000
# 6 0.0000 0.0000 0.0000 -4.0219 0.0000 1.4509
#
#
#
# Elastic Compliance Matrix: (Units=1/GPa)
#
#
# Indices 1 2 3 4 5 6 
#
# 1 0.024905 -0.009317 -0.002536 0.000000 0.002153 0.000000
# 2 -0.009317 0.013170 -0.002451 0.000000 -0.004040 0.000000
# 3 -0.002536 -0.002451 0.007823 0.000000 -0.000507 0.000000
# 4 0.000000 0.000000 0.000000 0.066671 0.000000 0.184812
# 5 0.002153 -0.004040 -0.000507 0.000000 0.025188 0.000000
# 6 0.000000 0.000000 0.000000 0.184812 0.000000 1.201517
#
#
# Mechanical properties :
#
#
# Convention : Reuss Voigt Hill
#
# Bulk Modulus (GPa) = 57.83113 72.36519 65.09816
# Shear Modulus (GPa) = 3.63995 27.51588 15.57792
#
# Velocity S-wave (km/s) = 1.38873 3.81824 2.87294
# Velocity P-wave (km/s) = 5.76303 7.60134 6.74510
#
# Compressibility (1/GPa) = 0.01729172
#
# Stress axis : x y z
#
# Youngs Moduli (GPa) = 40.15306 75.92793 127.82072
#
# Poissons Ratio (x) = 0.70741 0.32412
# Poissons Ratio (y) = 0.37410 0.31327
# Poissons Ratio (z) = 0.10182 0.18609
#
# Static dielectric constant tensor:
#      x y z
#    x 1.683040 0.000000 0.004970 
#    y 0.000000 1.688750 0.000000 
#    z 0.004970 0.000000 1.690420 
# 
# From -- ./inp_files/11812.got.cif
#   From: 2010.05.17/outbox.cif.g08.bks.cpg/sg3_6_cif.got.tgz:11812.got - 2010.06.03 18:33:08.
