data_PCOD9114177
_publ_section_title
;
Structure prediction by ZEFSAII (Michael W. Deem and Ramdas Pophale) SiO2 
 PCOD9114177
Probable space group: P 2
;
_chemical_formula_sum "Si O2"
_cell_formula_units_Z 14
_cell_length_a 8.718259
_cell_length_b 10.067379
_cell_length_c 8.596081
_cell_angle_alpha 90.000000
_cell_angle_beta 53.523675
_cell_angle_gamma 90.000000
_cell_volume 606.677849
_symmetry_space_group_name_H-M "P 2"
_symmetry_group_IT_number 3
_symmetry_cell_setting 'monoclinic'
loop_
_space_group_symop_operation_xyz
x,y,z
-x,y,-z
loop_
_atom_site_type_symbol
_atom_site_label
_atom_site_fract_x
_atom_site_fract_y
_atom_site_fract_z
Si Si1 0.540476 0.414180 0.813651
Si Si2 0.937010 0.305461 0.697474
Si Si3 0.000000 0.805502 0.500000
Si Si4 0.658673 0.640022 0.199497
Si Si5 0.000000 0.170508 0.000000
Si Si6 0.569564 0.894632 0.780016
Si Si7 0.415393 0.153520 0.722007
Si Si8 0.979481 0.593044 0.247624
O O1 0.725188 0.340243 0.769098
O O2 0.509383 0.531121 0.710412
O O3 0.421150 0.292968 0.810859
O O4 0.500000 0.490661 0.000000
O O5 0.967576 0.242935 0.850164
O O6 0.037008 0.449612 0.659819
O O7 0.000000 0.231288 0.500000
O O8 0.203885 0.876868 0.377771
O O9 0.013023 0.709052 0.346490
O O10 0.558225 0.781126 0.228666
O O11 0.784902 0.629063 0.277017
O O12 0.829623 0.595182 0.975637
O O13 0.199148 0.100025 0.849219
O O14 0.529290 0.040621 0.740355
O O15 0.500000 0.887204 0.000000
O O16 0.500000 0.176509 0.500000
#
# Coordination Sequence:
#
# PCOD9114177 Si02
#       8
#     2   2   1   2   1   2   2   2
#     4  12  22  45  74 104 151 194 240 309 376 441
#     4  12  24  42  73 113 155 200 253 309 382 459
#     4  12  26  46  74 104 146 196 254 300 380 450
#     4  11  24  44  77 109 149 196 246 309 383 445
#     4  12  26  50  76 108 156 202 252 320 382 450
#     4  12  28  51  74 105 149 196 249 313 382 451
#     4  12  29  51  75 109 149 199 256 310 382 457
#     4  11  22  41  70 112 152 192 246 308 372 455
#
# _framework density 23.076495999999999
#
# number of rings (size 3 to 8) (size 9 to 14) (size 15 to 20)
#    0.000    0.286    5.000    4.286    2.000    2.286 
#    1.286    0.000    0.000    0.000    0.000    0.000 
#    0.000    0.000    0.000    0.000    0.000    0.000 
#
# Total GULP energy -78053.897482 kJ/mol
# GULP energy per Si atom -5575.278392 kJ/mol
# Density = 2.302397 g / cm^3
# Si number density = 23.076496 Si / 1000 Ang^3
#
#
#
# Elastic Constant Matrix: (Units=GPa)
#
#
# Indices 1 2 3 4 5 6 
#
# 1 93.5390 -2.2696 25.7255 0.0000 -2.9752 0.0000
# 2 -2.2696 70.6257 5.8216 0.0000 5.8783 0.0000
# 3 25.7255 5.8216 83.9905 0.0000 -1.4836 0.0000
# 4 0.0000 0.0000 0.0000 5.5394 0.0000 -3.9690
# 5 -2.9752 5.8783 -1.4836 0.0000 22.5542 0.0000
# 6 0.0000 0.0000 0.0000 -3.9690 0.0000 44.7096
#
#
#
# Elastic Compliance Matrix: (Units=1/GPa)
#
#
# Indices 1 2 3 4 5 6 
#
# 1 0.011736 0.000579 -0.003614 0.000000 0.001160 0.000000
# 2 0.000579 0.014599 -0.001256 0.000000 -0.003811 0.000000
# 3 -0.003614 -0.001256 0.013113 0.000000 0.000713 0.000000
# 4 0.000000 0.000000 0.000000 0.192786 0.000000 0.017114
# 5 0.001160 -0.003811 0.000713 0.000000 0.045531 0.000000
# 6 0.000000 0.000000 0.000000 0.017114 0.000000 0.023886
#
#
# Mechanical properties :
#
#
# Convention : Reuss Voigt Hill
#
# Bulk Modulus (GPa) = 32.40132 34.07891 33.24012
# Shear Modulus (GPa) = 15.59957 29.15248 22.37603
#
# Velocity S-wave (km/s) = 2.60281 3.55815 3.11729
# Velocity P-wave (km/s) = 4.80668 5.62853 5.23376
#
# Compressibility (1/GPa) = 0.03086294
#
# Stress axis : x y z
#
# Youngs Moduli (GPa) = 85.21067 68.50009 76.26155
#
# Poissons Ratio (x) = -0.03963 0.27562
# Poissons Ratio (y) = -0.04930 0.09581
# Poissons Ratio (z) = 0.30796 0.08606
#
# Static dielectric constant tensor:
#      x y z
#    x 1.879640 0.000000 -0.082360 
#    y 0.000000 1.806850 0.000000 
#    z -0.082360 0.000000 1.998350 
# 
# From -- ./inp_files/5530.got.cif
#   From: 2010.05.17/outbox.cif.g08.bks.cpg/sg3_3_cif.got.tgz:5530.got - 2010.06.03 18:33:08.
