data_PCOD9114539
_publ_section_title
;
Structure prediction by ZEFSAII (Michael W. Deem and Ramdas Pophale) SiO2 
 PCOD9114539
Probable space group: P 21
;
_chemical_formula_sum "Si O2"
_cell_formula_units_Z 16
_cell_length_a 18.984992
_cell_length_b 5.305090
_cell_length_c 9.753621
_cell_angle_alpha 90.000000
_cell_angle_beta 141.490844
_cell_angle_gamma 90.000000
_cell_volume 611.654046
_symmetry_space_group_name_H-M "P 21"
_symmetry_group_IT_number 4
_symmetry_cell_setting 'monoclinic'
loop_
_space_group_symop_operation_xyz
x,y,z
-x,1/2+y,-z
loop_
_atom_site_type_symbol
_atom_site_label
_atom_site_fract_x
_atom_site_fract_y
_atom_site_fract_z
Si Si1 0.747062 0.638280 0.707991
Si Si2 0.353693 0.220882 0.781103
Si Si3 0.844504 0.808251 0.366232
Si Si4 0.975356 0.812503 0.129848
Si Si5 0.824652 0.155622 0.725626
Si Si6 0.568593 0.226731 0.944967
Si Si7 0.291752 0.972429 0.068184
Si Si8 0.901721 0.133680 0.241527
O O1 0.733732 0.380118 0.606336
O O2 0.750354 0.906193 0.638966
O O3 0.683226 0.634668 0.757031
O O4 0.883994 0.610033 0.942581
O O5 0.218918 0.259875 0.588532
O O6 0.392867 0.448196 0.946256
O O7 0.379015 0.942923 0.877790
O O8 0.435491 0.241527 0.775103
O O9 0.776313 0.636278 0.150398
O O10 0.978191 0.765494 0.577910
O O11 0.844958 0.086436 0.302710
O O12 0.102417 0.731422 0.297170
O O13 0.937362 0.871984 0.225980
O O14 0.933670 0.068124 0.988153
O O15 0.608464 0.320048 0.855791
O O16 0.201485 0.769909 0.988984
#
# Coordination Sequence:
#
# PCOD9114539 Si02
#       8
#     2   2   2   2   2   2   2   2
#     4  10  18  29  46  68  90 123 162 208 259 297
#     4   9  18  33  48  68  92 136 180 215 252 292
#     4  11  21  32  45  68 108 146 182 209 239 296
#     4  10  19  30  47  66  92 134 173 204 248 305
#     4  10  18  30  47  64  91 126 164 208 254 298
#     4   9  18  30  52  69  91 131 177 220 261 289
#     4  11  19  31  48  70 104 135 177 215 251 305
#     4  12  21  31  47  71 104 149 179 205 246 304
#
# _framework density 26.158581999999999
#
# number of rings (size 3 to 8) (size 9 to 14) (size 15 to 20)
#    0.750    1.000    6.250    0.000    0.000    0.000 
#    0.000    0.000    0.000    0.000    0.000    0.000 
#    0.000    0.000    4.250    2.125    2.250    0.000 
#
# Total GULP energy -89148.279501 kJ/mol
# GULP energy per Si atom -5571.767469 kJ/mol
# Density = 2.609904 g / cm^3
# Si number density = 26.158582 Si / 1000 Ang^3
#
#
#
# Elastic Constant Matrix: (Units=GPa)
#
#
# Indices 1 2 3 4 5 6 
#
# 1 173.8670 34.8532 3.7603 0.0000 9.1094 0.0000
# 2 34.8532 138.6432 12.6435 0.0000 1.5400 0.0000
# 3 3.7603 12.6435 32.7028 0.0000 5.7407 0.0000
# 4 0.0000 0.0000 0.0000 16.2713 0.0000 7.2327
# 5 9.1094 1.5400 5.7407 0.0000 23.7870 0.0000
# 6 0.0000 0.0000 0.0000 7.2327 0.0000 40.1076
#
#
#
# Elastic Compliance Matrix: (Units=1/GPa)
#
#
# Indices 1 2 3 4 5 6 
#
# 1 0.006179 -0.001555 0.000301 0.000000 -0.002338 0.000000
# 2 -0.001555 0.007869 -0.003006 0.000000 0.000811 0.000000
# 3 0.000301 -0.003006 0.033094 0.000000 -0.007908 0.000000
# 4 0.000000 0.000000 0.000000 0.066813 0.000000 -0.012049
# 5 -0.002338 0.000811 -0.007908 0.000000 0.044791 0.000000
# 6 0.000000 0.000000 0.000000 -0.012049 0.000000 0.027106
#
#
# Mechanical properties :
#
#
# Convention : Reuss Voigt Hill
#
# Bulk Modulus (GPa) = 25.89147 49.74744 37.81946
# Shear Modulus (GPa) = 24.12596 35.63027 29.87812
#
# Velocity S-wave (km/s) = 3.04023 3.69465 3.38330
# Velocity P-wave (km/s) = 4.71629 6.10406 5.45449
#
# Compressibility (1/GPa) = 0.03862276
#
# Stress axis : x y z
#
# Youngs Moduli (GPa) = 161.83298 127.08521 30.21693
#
# Poissons Ratio (x) = 0.19760 -0.00910
# Poissons Ratio (y) = 0.25163 0.09083
# Poissons Ratio (z) = -0.04873 0.38200
#
# Static dielectric constant tensor:
#      x y z
#    x 2.144120 0.000000 -0.137860 
#    y 0.000000 2.182040 0.000000 
#    z -0.137860 0.000000 2.188440 
# 
# From -- ./inp_files/12854.got.cif
#   From: 2010.05.17/outbox.cif.g08.bks.cpg/sg4_7_cif.got.tgz:12854.got - 2010.06.03 18:43:04.
