data_PCOD9114126
_publ_section_title
;
Structure prediction by ZEFSAII (Michael W. Deem and Ramdas Pophale) SiO2 
 PCOD9114126
Probable space group: P 2
;
_chemical_formula_sum "Si O2"
_cell_formula_units_Z 14
_cell_length_a 9.232613
_cell_length_b 7.483429
_cell_length_c 9.903835
_cell_angle_alpha 90.000000
_cell_angle_beta 81.987512
_cell_angle_gamma 90.000000
_cell_volume 677.591785
_symmetry_space_group_name_H-M "P 2"
_symmetry_group_IT_number 3
_symmetry_cell_setting 'monoclinic'
loop_
_space_group_symop_operation_xyz
x,y,z
-x,y,-z
loop_
_atom_site_type_symbol
_atom_site_label
_atom_site_fract_x
_atom_site_fract_y
_atom_site_fract_z
Si Si1 0.256742 0.840930 0.339990
Si Si2 0.643461 0.200371 0.567011
Si Si3 0.322553 0.568519 0.548225
Si Si4 0.233065 0.064530 0.889563
Si Si5 0.948615 0.928093 0.869076
Si Si6 0.421213 0.734129 0.799858
Si Si7 0.472956 0.332443 0.852013
O O1 0.316317 0.668202 0.691294
O O2 0.142074 0.832949 0.233451
O O3 0.423915 0.816768 0.266194
O O4 0.255761 0.033054 0.412424
O O5 0.500000 0.138561 0.500000
O O6 0.712738 0.361785 0.472179
O O7 0.585914 0.281057 0.718444
O O8 0.500000 0.572429 0.500000
O O9 0.238619 0.684731 0.449808
O O10 0.338335 0.892214 0.886249
O O11 0.100195 0.017636 0.806115
O O12 0.322466 0.234952 0.833602
O O13 0.155757 0.076483 0.046158
O O14 0.000000 0.821735 0.000000
O O15 0.457649 0.545137 0.862322
O O16 0.500000 0.262682 0.000000
#
# Coordination Sequence:
#
# PCOD9114126 Si02
#       7
#     2   2   2   2   2   2   2
#     4  11  19  34  64  83 108 159 195 235 298 351
#     4  11  19  35  57  89 123 148 182 246 301 350
#     4   9  19  34  51  93 121 141 188 240 297 360
#     4   9  22  40  57  78 123 154 194 246 297 342
#     4   8  22  42  57  79 119 162 199 239 297 362
#     4  11  21  35  62  92 119 145 200 251 300 347
#     4  12  23  32  59  95 118 151 199 250 295 352
#
# _framework density 20.661407000000001
#
# number of rings (size 3 to 8) (size 9 to 14) (size 15 to 20)
#    0.857    0.857    5.714    2.143    2.000    0.000 
#    0.000    5.000    0.000    0.000    0.000    0.000 
#    0.000    0.000    0.000    0.000    0.000    0.000 
#
# Total GULP energy -77958.128242 kJ/mol
# GULP energy per Si atom -5568.437732 kJ/mol
# Density = 2.061438 g / cm^3
# Si number density = 20.661407 Si / 1000 Ang^3
#
#
#
# Elastic Constant Matrix: (Units=GPa)
#
#
# Indices 1 2 3 4 5 6 
#
# 1 35.4722 13.2735 15.7697 0.0000 21.7943 0.0000
# 2 13.2735 89.4892 9.7302 0.0000 12.0788 0.0000
# 3 15.7697 9.7302 82.1982 0.0000 39.5413 0.0000
# 4 0.0000 0.0000 0.0000 22.7800 0.0000 11.0161
# 5 21.7943 12.0788 39.5413 0.0000 40.1059 0.0000
# 6 0.0000 0.0000 0.0000 11.0161 0.0000 3.8698
#
#
#
# Elastic Compliance Matrix: (Units=1/GPa)
#
#
# Indices 1 2 3 4 5 6 
#
# 1 0.044660 -0.003345 0.005741 0.000000 -0.028922 0.000000
# 2 -0.003345 0.011913 0.000158 0.000000 -0.001926 0.000000
# 3 0.005741 0.000158 0.023908 0.000000 -0.026739 0.000000
# 4 0.000000 0.000000 0.000000 -0.116551 0.000000 0.331788
# 5 -0.028922 -0.001926 -0.026739 0.000000 0.067594 0.000000
# 6 0.000000 0.000000 0.000000 0.331788 0.000000 -0.686095
#
#
# Mechanical properties :
#
#
# Convention : Reuss Voigt Hill
#
# Bulk Modulus (GPa) = 11.68358 31.63406 21.65882
# Shear Modulus (GPa) = -7.92208 24.57686 8.32739
#
# Velocity S-wave (km/s) = -1.96025 3.45266 2.00977
# Velocity P-wave (km/s) = 0.73732 5.58914 3.98636
#
# Compressibility (1/GPa) = 0.08559017
#
# Stress axis : x y z
#
# Youngs Moduli (GPa) = 22.39126 83.93877 41.82617
#
# Poissons Ratio (x) = 0.28075 -0.24011
# Poissons Ratio (y) = 0.07489 -0.00661
# Poissons Ratio (z) = -0.12854 -0.01327
#
# Static dielectric constant tensor:
#      x y z
#    x 1.747970 0.000000 0.004560 
#    y 0.000000 1.720090 0.000000 
#    z 0.004560 0.000000 1.833920 
# 
# From -- ./inp_files/10349.got.cif
#   From: 2010.05.17/outbox.cif.g08.bks.cpg/sg3_6_cif.got.tgz:10349.got - 2010.06.03 18:33:08.
