data_PCOD9114794
_publ_section_title
;
Structure prediction by ZEFSAII (Michael W. Deem and Ramdas Pophale) SiO2 
 PCOD9114794
Probable space group: P 21
;
_chemical_formula_sum "Si O2"
_cell_formula_units_Z 16
_cell_length_a 8.837109
_cell_length_b 5.214382
_cell_length_c 19.128956
_cell_angle_alpha 90.000000
_cell_angle_beta 134.643081
_cell_angle_gamma 90.000000
_cell_volume 627.159408
_symmetry_space_group_name_H-M "P 21"
_symmetry_group_IT_number 4
_symmetry_cell_setting 'monoclinic'
loop_
_space_group_symop_operation_xyz
x,y,z
-x,1/2+y,-z
loop_
_atom_site_type_symbol
_atom_site_label
_atom_site_fract_x
_atom_site_fract_y
_atom_site_fract_z
Si Si1 0.447071 0.793280 0.525308
Si Si2 0.010297 0.512731 0.366135
Si Si3 0.915903 0.165701 0.758872
Si Si4 0.709082 0.969381 0.066667
Si Si5 0.984244 0.832217 0.898406
Si Si6 0.382203 0.079120 0.290020
Si Si7 0.626255 0.596533 0.930494
Si Si8 0.737596 0.013611 0.301319
O O1 0.558837 0.578149 0.510582
O O2 0.555755 0.808752 0.637177
O O3 0.220825 0.650530 0.465100
O O4 0.911682 0.244199 0.360478
O O5 0.073114 0.486686 0.304777
O O6 0.837191 0.738769 0.316791
O O7 0.740299 0.385907 0.698168
O O8 0.152505 0.280493 0.841444
O O9 0.884600 0.075924 0.828392
O O10 0.490473 0.006853 0.035373
O O11 0.862618 0.211953 0.110997
O O12 0.693133 0.877858 0.980317
O O13 0.779332 0.649814 0.826561
O O14 0.155186 0.934937 0.009992
O O15 0.599182 0.986624 0.326357
O O16 0.437722 0.589279 0.814297
#
# Coordination Sequence:
#
# PCOD9114794 Si02
#       8
#     2   2   2   2   2   2   2   2
#     4  12  26  48  85 115 143 187 255 314 370 452
#     4  12  26  47  74 114 142 197 247 312 370 460
#     4  10  21  42  72  97 139 185 255 299 366 436
#     4  10  19  33  63  98 130 183 246 312 347 427
#     4  10  22  40  67  98 138 192 251 303 360 443
#     4  11  27  49  71 107 150 198 242 314 388 446
#     4  11  21  37  64 100 141 194 246 305 370 427
#     4  12  30  46  72 107 163 194 242 311 389 451
#
# _framework density 25.511856000000002
#
# number of rings (size 3 to 8) (size 9 to 14) (size 15 to 20)
#    0.000    1.000    3.750    2.250    7.000    1.000 
#    6.750    0.000    0.000    0.000    0.000    0.000 
#    0.000    0.000    0.000    0.000    0.000    0.000 
#
# Total GULP energy -89187.260685 kJ/mol
# GULP energy per Si atom -5574.203793 kJ/mol
# Density = 2.545379 g / cm^3
# Si number density = 25.511856 Si / 1000 Ang^3
#
#
#
# Elastic Constant Matrix: (Units=GPa)
#
#
# Indices 1 2 3 4 5 6 
#
# 1 74.4007 4.0154 17.6660 0.0000 24.0981 0.0000
# 2 4.0154 71.8863 -4.1641 0.0000 4.5091 0.0000
# 3 17.6660 -4.1641 93.7567 0.0000 2.3005 0.0000
# 4 0.0000 0.0000 0.0000 32.1646 0.0000 15.6723
# 5 24.0981 4.5091 2.3005 0.0000 31.0299 0.0000
# 6 0.0000 0.0000 0.0000 15.6723 0.0000 13.1627
#
#
#
# Elastic Compliance Matrix: (Units=1/GPa)
#
#
# Indices 1 2 3 4 5 6 
#
# 1 0.018879 -0.000339 -0.003220 0.000000 -0.014374 0.000000
# 2 -0.000339 0.014088 0.000735 0.000000 -0.001838 0.000000
# 3 -0.003220 0.000735 0.011267 0.000000 0.001558 0.000000
# 4 0.000000 0.000000 0.000000 0.074051 0.000000 -0.088169
# 5 -0.014374 -0.001838 0.001558 0.000000 0.043541 0.000000
# 6 0.000000 0.000000 0.000000 -0.088169 0.000000 0.180952
#
#
# Mechanical properties :
#
#
# Convention : Reuss Voigt Hill
#
# Bulk Modulus (GPa) = 25.91683 30.56427 28.24055
# Shear Modulus (GPa) = 13.83937 30.10655 21.97296
#
# Velocity S-wave (km/s) = 2.33162 3.43899 2.93795
# Velocity P-wave (km/s) = 4.17485 5.27022 4.75419
#
# Compressibility (1/GPa) = 0.03858497
#
# Stress axis : x y z
#
# Youngs Moduli (GPa) = 52.96861 70.98412 88.75508
#
# Poissons Ratio (x) = 0.02410 0.28576
# Poissons Ratio (y) = 0.01798 -0.06521
# Poissons Ratio (z) = 0.17054 -0.05216
#
# Static dielectric constant tensor:
#      x y z
#    x 2.068710 0.000000 -0.048700 
#    y 0.000000 2.157970 0.000000 
#    z -0.048700 0.000000 2.061970 
# 
# From -- ./inp_files/8653.got.cif
#   From: 2010.05.17/outbox.cif.g08.bks.cpg/sg4_5_cif.got.tgz:8653.got - 2010.06.03 18:43:04.
