data_PCOD9114116
_publ_section_title
;
Structure prediction by ZEFSAII (Michael W. Deem and Ramdas Pophale) SiO2 
 PCOD9114116
Probable space group: P 2
;
_chemical_formula_sum "Si O2"
_cell_formula_units_Z 10
_cell_length_a 7.164226
_cell_length_b 5.808469
_cell_length_c 9.917783
_cell_angle_alpha 90.000000
_cell_angle_beta 83.487452
_cell_angle_gamma 90.000000
_cell_volume 410.047330
_symmetry_space_group_name_H-M "P 2"
_symmetry_group_IT_number 3
_symmetry_cell_setting 'monoclinic'
loop_
_space_group_symop_operation_xyz
x,y,z
-x,y,-z
loop_
_atom_site_type_symbol
_atom_site_label
_atom_site_fract_x
_atom_site_fract_y
_atom_site_fract_z
Si Si1 0.807028 0.757510 0.929424
Si Si2 0.000000 0.747149 0.500000
Si Si3 0.000557 0.093717 0.270723
Si Si4 0.301384 0.430985 0.818159
Si Si5 0.500000 0.081343 0.000000
Si Si6 0.717853 0.453363 0.689934
O O1 0.799057 0.550195 0.825025
O O2 0.219881 0.635690 0.921545
O O3 0.623521 0.904077 0.908012
O O4 0.958270 0.947954 0.868060
O O5 0.826321 0.595212 0.567048
O O6 0.930777 0.908225 0.384062
O O7 0.855714 0.300743 0.256181
O O8 0.193565 0.198391 0.317008
O O9 0.372261 0.240525 0.919452
O O10 0.492654 0.478989 0.717992
#
# Coordination Sequence:
#
# PCOD9114116 Si02
#       6
#     2   1   2   2   1   2
#     4  11  22  43  69 111 154 187 236 305 377 444
#     4  10  26  50  72 100 146 208 256 316 356 418
#     4  11  26  46  75 106 149 199 250 304 372 438
#     4  12  24  43  74 113 149 192 241 306 380 459
#     4  12  20  40  68 112 152 184 228 298 386 450
#     4  11  22  47  72 100 150 191 257 306 358 447
#
# _framework density 24.387426999999999
#
# number of rings (size 3 to 8) (size 9 to 14) (size 15 to 20)
#    0.000    0.800    6.000    0.600    0.000    8.000 
#    0.000    6.000    0.000    2.400    0.000    0.000 
#    0.000    0.000    0.000    0.000    0.000    0.000 
#
# Total GULP energy -55841.451477 kJ/mol
# GULP energy per Si atom -5584.145148 kJ/mol
# Density = 2.433192 g / cm^3
# Si number density = 24.387427 Si / 1000 Ang^3
#
#
#
# Elastic Constant Matrix: (Units=GPa)
#
#
# Indices 1 2 3 4 5 6 
#
# 1 112.4119 53.2674 64.2422 0.0000 -28.8532 0.0000
# 2 53.2674 118.9158 67.0798 0.0000 -30.9905 0.0000
# 3 64.2422 67.0798 157.5315 0.0000 -43.8848 0.0000
# 4 0.0000 0.0000 0.0000 55.2225 0.0000 -5.1392
# 5 -28.8532 -30.9905 -43.8848 0.0000 35.8368 0.0000
# 6 0.0000 0.0000 0.0000 -5.1392 0.0000 52.2199
#
#
#
# Elastic Compliance Matrix: (Units=1/GPa)
#
#
# Indices 1 2 3 4 5 6 
#
# 1 0.013112 -0.003156 -0.002766 0.000000 0.004440 0.000000
# 2 -0.003156 0.012673 -0.002678 0.000000 0.005139 0.000000
# 3 -0.002766 -0.002678 0.011157 0.000000 0.009119 0.000000
# 4 0.000000 0.000000 0.000000 0.018276 0.000000 0.001799
# 5 0.004440 0.005139 0.009119 0.000000 0.047091 0.000000
# 6 0.000000 0.000000 0.000000 0.001799 0.000000 0.019327
#
#
# Mechanical properties :
#
#
# Convention : Reuss Voigt Hill
#
# Bulk Modulus (GPa) = 50.65426 84.22643 67.44034
# Shear Modulus (GPa) = 34.38437 42.27382 38.32910
#
# Velocity S-wave (km/s) = 3.75897 4.16796 3.96874
# Velocity P-wave (km/s) = 6.29726 7.60094 6.97961
#
# Compressibility (1/GPa) = 0.01974168
#
# Stress axis : x y z
#
# Youngs Moduli (GPa) = 76.26693 78.91008 89.63164
#
# Poissons Ratio (x) = 0.24902 0.24796
# Poissons Ratio (y) = 0.24068 0.24001
# Poissons Ratio (z) = 0.21099 0.21130
#
# Static dielectric constant tensor:
#      x y z
#    x 2.016950 0.000000 0.011930 
#    y 0.000000 1.888930 0.000000 
#    z 0.011930 0.000000 1.990910 
# 
# From -- ./inp_files/1915.got.cif
#   From: 2010.05.17/outbox.cif.g08.bks.cpg/sg3_1_cif.got.tgz:1915.got - 2010.06.03 18:33:08.
