data_PCOD9114587
_publ_section_title
;
Structure prediction by ZEFSAII (Michael W. Deem and Ramdas Pophale) SiO2 
 PCOD9114587
Probable space group: P 21
;
_chemical_formula_sum "Si O2"
_cell_formula_units_Z 16
_cell_length_a 14.814846
_cell_length_b 5.122746
_cell_length_c 27.199576
_cell_angle_alpha 90.000000
_cell_angle_beta 160.685232
_cell_angle_gamma 90.000000
_cell_volume 682.766166
_symmetry_space_group_name_H-M "P 21"
_symmetry_group_IT_number 4
_symmetry_cell_setting 'monoclinic'
loop_
_space_group_symop_operation_xyz
x,y,z
-x,1/2+y,-z
loop_
_atom_site_type_symbol
_atom_site_label
_atom_site_fract_x
_atom_site_fract_y
_atom_site_fract_z
Si Si1 0.448302 0.010910 0.942787
Si Si2 0.081236 0.718268 0.889154
Si Si3 0.452950 0.313226 0.446804
Si Si4 0.263225 0.449951 0.740924
Si Si5 0.071418 0.582872 0.373604
Si Si6 0.410368 0.056922 0.734137
Si Si7 0.139588 0.303063 0.512131
Si Si8 0.765220 0.731553 0.978222
O O1 0.416913 0.244284 0.966866
O O2 0.653532 0.144872 0.007940
O O3 0.143104 0.918894 0.768896
O O4 0.840886 0.784715 0.728491
O O5 0.047469 0.455821 0.903297
O O6 0.098150 0.959431 0.936333
O O7 0.522613 0.612575 0.494901
O O8 0.672897 0.192235 0.522947
O O9 0.468844 0.689283 0.853036
O O10 0.996016 0.533968 0.574174
O O11 0.420069 0.248193 0.786116
O O12 0.136393 0.319378 0.722379
O O13 0.161275 0.457802 0.471861
O O14 0.645134 0.839952 0.864166
O O15 0.107182 0.933487 0.583646
O O16 0.397115 0.232608 0.678342
#
# Coordination Sequence:
#
# PCOD9114587 Si02
#       8
#     2   2   2   2   2   2   2   2
#     4  12  24  38  63  94 130 171 222 290 351 400
#     4  12  23  43  65  95 130 181 227 278 350 410
#     4  12  28  50  70  98 134 183 241 294 349 416
#     4  10  19  36  62  99 139 168 222 271 345 400
#     4  11  25  41  66 101 138 180 231 289 346 403
#     4  10  18  33  59 104 140 178 212 274 344 403
#     4  10  20  33  61  98 148 177 216 279 341 418
#     4  11  21  38  64  97 133 174 223 275 328 422
#
# _framework density 23.434086000000001
#
# number of rings (size 3 to 8) (size 9 to 14) (size 15 to 20)
#    0.000    1.000    3.750    4.500    3.500    0.000 
#    0.000    0.000    0.000    0.000    6.500    0.000 
#    0.000    0.000    0.000    0.000    0.000    0.000 
#
# Total GULP energy -89213.953033 kJ/mol
# GULP energy per Si atom -5575.872065 kJ/mol
# Density = 2.338075 g / cm^3
# Si number density = 23.434086 Si / 1000 Ang^3
#
#
#
# Elastic Constant Matrix: (Units=GPa)
#
#
# Indices 1 2 3 4 5 6 
#
# 1 34.5666 -5.3803 15.6121 0.0000 -10.8543 0.0000
# 2 -5.3803 119.0834 24.3548 0.0000 -18.5027 0.0000
# 3 15.6121 24.3548 87.6039 0.0000 -13.3726 0.0000
# 4 0.0000 0.0000 0.0000 30.6896 0.0000 -27.7647
# 5 -10.8543 -18.5027 -13.3726 0.0000 22.4903 0.0000
# 6 0.0000 0.0000 0.0000 -27.7647 0.0000 6.9042
#
#
#
# Elastic Compliance Matrix: (Units=1/GPa)
#
#
# Indices 1 2 3 4 5 6 
#
# 1 0.038753 0.006043 -0.005469 0.000000 0.020423 0.000000
# 2 0.006043 0.010783 -0.002502 0.000000 0.010299 0.000000
# 3 -0.005469 -0.002502 0.013603 0.000000 0.003390 0.000000
# 4 0.000000 0.000000 0.000000 -0.012351 0.000000 -0.049669
# 5 0.020423 0.010299 0.003390 0.000000 0.064809 0.000000
# 6 0.000000 0.000000 0.000000 -0.049669 0.000000 -0.054902
#
#
# Mechanical properties :
#
#
# Convention : Reuss Voigt Hill
#
# Bulk Modulus (GPa) = 16.86869 34.49189 25.68029
# Shear Modulus (GPa) = 59.30372 25.79463 42.54918
#
# Velocity S-wave (km/s) = 5.03602 3.32133 4.26572
# Velocity P-wave (km/s) = 6.40542 5.42761 5.93668
#
# Compressibility (1/GPa) = 0.05928143
#
# Stress axis : x y z
#
# Youngs Moduli (GPa) = 25.80437 92.74284 73.51439
#
# Poissons Ratio (x) = -0.56040 0.40203
# Poissons Ratio (y) = -0.15592 0.18396
# Poissons Ratio (z) = 0.14112 0.23208
#
# Static dielectric constant tensor:
#      x y z
#    x 1.965250 0.000000 -0.080850 
#    y 0.000000 1.987280 0.000000 
#    z -0.080850 0.000000 2.027560 
# 
# From -- ./inp_files/16416.got.cif
#   From: 2010.05.17/outbox.cif.g08.bks.cpg/sg4_9_cif.got.tgz:16416.got - 2010.06.03 18:43:04.
