data_PCOD9114623
_publ_section_title
;
Structure prediction by ZEFSAII (Michael W. Deem and Ramdas Pophale) SiO2 
 PCOD9114623
Probable space group: P 21
;
_chemical_formula_sum "Si O2"
_cell_formula_units_Z 16
_cell_length_a 19.281044
_cell_length_b 5.090132
_cell_length_c 8.198320
_cell_angle_alpha 90.000000
_cell_angle_beta 63.995456
_cell_angle_gamma 90.000000
_cell_volume 723.149088
_symmetry_space_group_name_H-M "P 21"
_symmetry_group_IT_number 4
_symmetry_cell_setting 'monoclinic'
loop_
_space_group_symop_operation_xyz
x,y,z
-x,1/2+y,-z
loop_
_atom_site_type_symbol
_atom_site_label
_atom_site_fract_x
_atom_site_fract_y
_atom_site_fract_z
Si Si1 0.375456 0.091040 0.053319
Si Si2 0.836048 0.942243 0.049839
Si Si3 0.524386 0.041455 0.744837
Si Si4 0.588782 0.744602 0.419069
Si Si5 0.327730 0.895868 0.436145
Si Si6 0.000445 0.826556 0.888008
Si Si7 0.325988 0.580798 0.912296
Si Si8 0.836078 0.436354 0.276787
O O1 0.336776 0.075522 0.267724
O O2 0.365461 0.384141 0.999147
O O3 0.338373 0.874606 0.967057
O O4 0.467006 0.027523 0.954970
O O5 0.761307 0.976826 0.014917
O O6 0.842868 0.227977 0.123540
O O7 0.918311 0.868092 0.885412
O O8 0.824857 0.722182 0.204469
O O9 0.472086 0.172836 0.656451
O O10 0.607213 0.177949 0.669934
O O11 0.541989 0.769952 0.636321
O O12 0.651310 0.534505 0.413352
O O13 0.633129 0.998898 0.301596
O O14 0.237377 0.838680 0.545547
O O15 0.080707 0.909761 0.721577
O O16 0.003826 0.530430 0.953619
#
# Coordination Sequence:
#
# PCOD9114623 Si02
#       8
#     2   2   2   2   2   2   2   2
#     4  11  29  41  60  85 127 163 199 256 308 375
#     4  10  18  34  64  90 121 158 197 249 303 358
#     4  11  24  39  61  82 116 150 205 251 307 357
#     4  11  22  38  63  86 109 152 204 258 297 354
#     4  12  26  40  61  89 120 165 200 257 316 365
#     4   8  16  30  53  91 126 147 186 250 306 351
#     4  11  23  43  61  88 120 159 209 248 305 364
#     4  10  20  35  59  95 121 152 200 253 304 360
#
# _framework density 22.125451000000002
#
# number of rings (size 3 to 8) (size 9 to 14) (size 15 to 20)
#    0.000    1.500    2.500    2.250    8.750    0.000 
#    0.000    0.000    0.000    1.500    0.000    0.000 
#    0.000    0.000    0.000    0.000    0.000    0.000 
#
# Total GULP energy -89223.987299 kJ/mol
# GULP energy per Si atom -5576.499206 kJ/mol
# Density = 2.207509 g / cm^3
# Si number density = 22.125451 Si / 1000 Ang^3
#
#
#
# Elastic Constant Matrix: (Units=GPa)
#
#
# Indices 1 2 3 4 5 6 
#
# 1 96.0736 3.2330 47.0162 0.0000 -45.4905 0.0000
# 2 3.2330 75.9151 -1.3964 0.0000 6.9527 0.0000
# 3 47.0162 -1.3964 75.1349 0.0000 -27.2641 0.0000
# 4 0.0000 0.0000 0.0000 24.6264 0.0000 -0.2885
# 5 -45.4905 6.9527 -27.2641 0.0000 45.2625 0.0000
# 6 0.0000 0.0000 0.0000 -0.2885 0.0000 34.7999
#
#
#
# Elastic Compliance Matrix: (Units=1/GPa)
#
#
# Indices 1 2 3 4 5 6 
#
# 1 0.023449 -0.002915 -0.007695 0.000000 0.019379 0.000000
# 2 -0.002915 0.013747 0.000320 0.000000 -0.004848 0.000000
# 3 -0.007695 0.000320 0.019588 0.000000 0.004016 0.000000
# 4 0.000000 0.000000 0.000000 0.040611 0.000000 0.000337
# 5 0.019379 -0.004848 0.004016 0.000000 0.044734 0.000000
# 6 0.000000 0.000000 0.000000 0.000337 0.000000 0.028738
#
#
# Mechanical properties :
#
#
# Convention : Reuss Voigt Hill
#
# Bulk Modulus (GPa) = 27.62184 38.31436 32.96810
# Shear Modulus (GPa) = 24.56832 34.15582 29.36207
#
# Velocity S-wave (km/s) = 3.33590 3.93330 3.64685
# Velocity P-wave (km/s) = 5.22962 6.16298 5.71538
#
# Compressibility (1/GPa) = 0.03620324
#
# Stress axis : x y z
#
# Youngs Moduli (GPa) = 42.64631 72.74478 51.05205
#
# Poissons Ratio (x) = 0.21205 0.39286
# Poissons Ratio (y) = 0.12432 -0.01635
# Poissons Ratio (z) = 0.32817 -0.02330
#
# Static dielectric constant tensor:
#      x y z
#    x 1.917760 0.000000 -0.035590 
#    y 0.000000 1.873450 0.000000 
#    z -0.035590 0.000000 1.856480 
# 
# From -- ./inp_files/9857.got.cif
#   From: 2010.05.17/outbox.cif.g08.bks.cpg/sg4_5_cif.got.tgz:9857.got - 2010.06.03 18:43:04.
