data_PCOD9114419
_publ_section_title
;
Structure prediction by ZEFSAII (Michael W. Deem and Ramdas Pophale) SiO2 
 PCOD9114419
Probable space group: P 2
;
_chemical_formula_sum "Si O2"
_cell_formula_units_Z 14
_cell_length_a 18.000000
_cell_length_b 9.000000
_cell_length_c 9.000000
_cell_angle_alpha 90.000000
_cell_angle_beta 30.000000
_cell_angle_gamma 90.000000
_cell_volume 729.000000
_symmetry_space_group_name_H-M "P 2"
_symmetry_group_IT_number 3
_symmetry_cell_setting 'monoclinic'
loop_
_space_group_symop_operation_xyz
x,y,z
-x,y,-z
loop_
_atom_site_type_symbol
_atom_site_label
_atom_site_fract_x
_atom_site_fract_y
_atom_site_fract_z
Si Si1 0.359012 0.521450 0.834436
Si Si2 0.937581 0.848966 0.943109
Si Si3 0.862220 0.290754 0.643940
Si Si4 0.202736 0.971738 0.298152
Si Si5 0.324421 0.846689 0.784541
Si Si6 0.060837 0.525839 0.739141
Si Si7 0.357006 0.684944 0.150706
O O1 0.500000 0.461314 0.500000
O O2 0.310332 0.668604 0.829246
O O3 0.239988 0.394141 0.074283
O O4 0.390368 0.595790 0.940910
O O5 0.041568 0.933035 0.644597
O O6 0.964171 0.672538 0.870289
O O7 0.765126 0.885325 0.210405
O O8 0.000000 0.880449 0.000000
O O9 0.928005 0.400325 0.404654
O O10 0.000000 0.230169 0.500000
O O11 0.776325 0.148655 0.726837
O O12 0.306346 0.853099 0.204447
O O13 0.234947 0.924781 0.072874
O O14 0.500000 0.881455 0.500000
O O15 0.224789 0.597874 0.462396
O O16 0.000000 0.466277 0.000000
O O17 0.500000 0.686224 0.000000
#
# Coordination Sequence:
#
# PCOD9114419 Si02
#       7
#     2   2   2   2   2   2   2
#     4   9  20  35  56  82 108 138 181 229 275 327
#     4  10  20  36  58  83 107 141 188 235 277 324
#     4  11  21  35  54  78 110 147 181 219 270 330
#     4  10  22  36  54  80 113 147 184 223 269 332
#     4  10  20  36  58  83 107 141 188 235 277 324
#     4   9  20  35  56  82 108 138 181 229 275 327
#     4   9  19  37  60  82 108 142 183 232 280 324
#
# _framework density 19.20439
#
# number of rings (size 3 to 8) (size 9 to 14) (size 15 to 20)
#    0.000    2.286    0.000    3.000    0.000   12.571 
#    0.000    2.857    0.000    0.000    0.000    0.000 
#    0.000    0.000    0.000    0.000    0.000    0.000 
#
# Total GULP energy -78009.179622 kJ/mol
# GULP energy per Si atom -5572.084259 kJ/mol
# Density = 1.916068 g / cm^3
# Si number density = 19.204390 Si / 1000 Ang^3
#
#
#
# Elastic Constant Matrix: (Units=GPa)
#
#
# Indices 1 2 3 4 5 6 
#
# 1 112.8742 11.6396 66.0422 0.0000 -33.5171 0.0000
# 2 11.6396 64.9148 26.5468 0.0000 4.8908 0.0000
# 3 66.0422 26.5468 126.8683 0.0000 9.5762 0.0000
# 4 0.0000 0.0000 0.0000 7.0827 0.0000 6.2585
# 5 -33.5171 4.8908 9.5762 0.0000 31.8127 0.0000
# 6 0.0000 0.0000 0.0000 6.2585 0.0000 -3.8685
#
#
#
# Elastic Compliance Matrix: (Units=1/GPa)
#
#
# Indices 1 2 3 4 5 6 
#
# 1 0.032487 -0.000767 -0.019793 0.000000 0.040304 0.000000
# 2 -0.000767 0.016941 -0.002955 0.000000 -0.002523 0.000000
# 3 -0.019793 -0.002955 0.020817 0.000000 -0.026665 0.000000
# 4 0.000000 0.000000 0.000000 0.058114 0.000000 0.094016
# 5 0.040304 -0.002523 -0.026665 0.000000 0.082312 0.000000
# 6 0.000000 0.000000 0.000000 0.094016 0.000000 -0.106398
#
#
# Mechanical properties :
#
#
# Convention : Reuss Voigt Hill
#
# Bulk Modulus (GPa) = 43.07715 57.01272 50.04493
# Shear Modulus (GPa) = 31.43828 20.36729 25.90279
#
# Velocity S-wave (km/s) = 4.05042 3.26015 3.67658
# Velocity P-wave (km/s) = 6.65989 6.62746 6.64369
#
# Compressibility (1/GPa) = 0.02321416
#
# Stress axis : x y z
#
# Youngs Moduli (GPa) = 30.78118 59.02862 48.03836
#
# Poissons Ratio (x) = 0.04530 0.95083
# Poissons Ratio (y) = 0.02362 0.14195
# Poissons Ratio (z) = 0.60926 0.17442
#
# Static dielectric constant tensor:
#      x y z
#    x 1.714230 0.000000 -0.014530 
#    y 0.000000 1.634200 0.000000 
#    z -0.014530 0.000000 1.690770 
# 
# From -- ./inp_files/5264.got.cif
#   From: 2010.05.17/outbox.ucp.g08.bks.cvg/sg3_3_cif.got.tgz:5264.got - 2010.06.11 12:50:29.
