data_PCOD9114646
_publ_section_title
;
Structure prediction by ZEFSAII (Michael W. Deem and Ramdas Pophale) SiO2 
 PCOD9114646
Probable space group: P 21
;
_chemical_formula_sum "Si O2"
_cell_formula_units_Z 16
_cell_length_a 13.008295
_cell_length_b 9.386617
_cell_length_c 8.193388
_cell_angle_alpha 90.000000
_cell_angle_beta 40.323039
_cell_angle_gamma 90.000000
_cell_volume 647.384029
_symmetry_space_group_name_H-M "P 21"
_symmetry_group_IT_number 4
_symmetry_cell_setting 'monoclinic'
loop_
_space_group_symop_operation_xyz
x,y,z
-x,1/2+y,-z
loop_
_atom_site_type_symbol
_atom_site_label
_atom_site_fract_x
_atom_site_fract_y
_atom_site_fract_z
Si Si1 0.172455 0.856350 0.614266
Si Si2 0.814918 0.842767 0.183426
Si Si3 0.610513 0.246065 0.907107
Si Si4 0.305106 0.038533 0.712933
Si Si5 0.238478 0.598724 0.992141
Si Si6 0.967305 0.363074 0.817520
Si Si7 0.379133 0.066702 0.975797
Si Si8 0.056004 0.019570 0.465487
O O1 0.241772 0.743953 0.401783
O O2 0.998448 0.815453 0.896658
O O3 0.312504 0.918309 0.562887
O O4 0.125552 0.991948 0.560514
O O5 0.745133 0.967656 0.152919
O O6 0.708973 0.702739 0.315166
O O7 0.858404 0.872763 0.319442
O O8 0.620547 0.165083 0.070281
O O9 0.473852 0.181730 0.961585
O O10 0.598325 0.412748 0.967312
O O11 0.413676 0.037800 0.742893
O O12 0.128883 0.993393 0.988220
O O13 0.141523 0.724161 0.017829
O O14 0.121259 0.558492 0.281463
O O15 0.955864 0.383106 0.637899
O O16 0.192805 0.111814 0.215466
#
# Coordination Sequence:
#
# PCOD9114646 Si02
#       8
#     2   2   2   2   2   2   2   2
#     4   9  19  38  60  87 131 167 202 264 317 368
#     4  10  21  33  64 100 124 161 208 260 319 390
#     4  11  23  44  64  91 126 172 216 264 320 375
#     4  10  20  38  62  88 128 163 204 262 323 375
#     4  11  21  38  63  97 126 166 211 267 315 377
#     4  10  18  36  56  91 132 161 198 257 329 362
#     4  10  23  42  63  89 122 173 212 265 319 380
#     4   9  19  35  60  89 125 161 207 261 316 365
#
# _framework density 24.714850999999999
#
# number of rings (size 3 to 8) (size 9 to 14) (size 15 to 20)
#    0.000    2.000    3.750    2.250    5.250    0.000 
#    0.000    2.500    2.750    0.000    0.000    0.000 
#    0.000    0.000    0.000    0.000    0.000    0.000 
#
# Total GULP energy -89088.843978 kJ/mol
# GULP energy per Si atom -5568.052749 kJ/mol
# Density = 2.465860 g / cm^3
# Si number density = 24.714851 Si / 1000 Ang^3
#
#
#
# Elastic Constant Matrix: (Units=GPa)
#
#
# Indices 1 2 3 4 5 6 
#
# 1 120.5033 33.6389 12.9804 0.0000 32.0192 0.0000
# 2 33.6389 78.4500 10.3346 0.0000 5.3770 0.0000
# 3 12.9804 10.3346 44.4105 0.0000 -1.7191 0.0000
# 4 0.0000 0.0000 0.0000 15.0061 0.0000 7.2349
# 5 32.0192 5.3770 -1.7191 0.0000 20.2376 0.0000
# 6 0.0000 0.0000 0.0000 7.2349 0.0000 53.6517
#
#
#
# Elastic Compliance Matrix: (Units=1/GPa)
#
#
# Indices 1 2 3 4 5 6 
#
# 1 0.017190 -0.004923 -0.004897 0.000000 -0.026305 0.000000
# 2 -0.004923 0.014852 -0.001875 0.000000 0.003683 0.000000
# 3 -0.004897 -0.001875 0.024785 0.000000 0.010351 0.000000
# 4 0.000000 0.000000 0.000000 0.071273 0.000000 -0.009611
# 5 -0.026305 0.003683 0.010351 0.000000 0.090933 0.000000
# 6 0.000000 0.000000 0.000000 -0.009611 0.000000 0.019935
#
#
# Mechanical properties :
#
#
# Convention : Reuss Voigt Hill
#
# Bulk Modulus (GPa) = 29.90570 39.69685 34.80127
# Shear Modulus (GPa) = 18.28126 30.20640 24.24383
#
# Velocity S-wave (km/s) = 2.72267 3.49979 3.13540
# Velocity P-wave (km/s) = 4.69153 5.69457 5.21721
#
# Compressibility (1/GPa) = 0.03343844
#
# Stress axis : x y z
#
# Youngs Moduli (GPa) = 58.17384 67.32926 40.34624
#
# Poissons Ratio (x) = 0.33145 0.19757
# Poissons Ratio (y) = 0.28638 0.07564
# Poissons Ratio (z) = 0.28488 0.12623
#
# Static dielectric constant tensor:
#      x y z
#    x 2.020760 0.000000 0.034050 
#    y 0.000000 1.969240 0.000000 
#    z 0.034050 0.000000 2.105580 
# 
# From -- ./inp_files/8001.got.cif
#   From: 2010.05.17/outbox.cif.g08.bks.cpg/sg4_5_cif.got.tgz:8001.got - 2010.06.03 18:43:04.
