data_PCOD9114213
_publ_section_title
;
Structure prediction by ZEFSAII (Michael W. Deem and Ramdas Pophale) SiO2 
 PCOD9114213
Probable space group: P 2
;
_chemical_formula_sum "Si O2"
_cell_formula_units_Z 14
_cell_length_a 5.569528
_cell_length_b 6.938606
_cell_length_c 17.196568
_cell_angle_alpha 90.000000
_cell_angle_beta 80.571827
_cell_angle_gamma 90.000000
_cell_volume 655.580233
_symmetry_space_group_name_H-M "P 2"
_symmetry_group_IT_number 3
_symmetry_cell_setting 'monoclinic'
loop_
_space_group_symop_operation_xyz
x,y,z
-x,y,-z
loop_
_atom_site_type_symbol
_atom_site_label
_atom_site_fract_x
_atom_site_fract_y
_atom_site_fract_z
Si Si1 0.500000 0.778841 0.000000
Si Si2 0.559007 0.043390 0.846416
Si Si3 0.935464 0.278599 0.154664
Si Si4 0.000000 0.542753 0.000000
Si Si5 0.899827 0.142837 0.415884
Si Si6 0.131527 0.510491 0.685944
Si Si7 0.533138 0.793886 0.418126
Si Si8 0.796194 0.862830 0.691254
O O1 0.447083 0.908235 0.078155
O O2 0.747835 0.660916 0.004225
O O3 0.296054 0.144182 0.853600
O O4 0.803283 0.175322 0.842711
O O5 0.600102 0.924478 0.764739
O O6 0.849797 0.397603 0.234841
O O7 0.975916 0.414588 0.078442
O O8 0.870949 0.360079 0.385610
O O9 0.000000 0.150017 0.500000
O O10 0.674393 0.992471 0.427966
O O11 0.035936 0.048330 0.332785
O O12 0.339886 0.662255 0.652576
O O13 0.906217 0.657222 0.706981
O O14 0.500000 0.684643 0.500000
O O15 0.278821 0.840377 0.394330
#
# Coordination Sequence:
#
# PCOD9114213 Si02
#       8
#     1   2   2   1   2   2   2   2
#     4  12  26  46  76 110 146 190 232 296 356 424
#     4  12  26  47  75 103 148 190 239 286 365 423
#     4  12  26  48  73 107 144 190 240 292 354 432
#     4  12  26  46  76 110 148 180 244 292 352 428
#     4  11  23  44  64  96 136 183 236 297 360 423
#     4  11  27  41  70 100 138 184 242 295 359 422
#     4  11  25  42  65  97 137 184 238 299 360 424
#     4  11  25  44  68  96 141 182 238 294 355 428
#
# _framework density 21.355128000000001
#
# number of rings (size 3 to 8) (size 9 to 14) (size 15 to 20)
#    0.000    0.571    2.857    4.286    8.000    1.714 
#    0.000    0.000    0.000    0.000    0.000    0.000 
#    0.000    0.000    0.000    0.000    0.000    0.000 
#
# Total GULP energy -78041.378507 kJ/mol
# GULP energy per Si atom -5574.384179 kJ/mol
# Density = 2.130652 g / cm^3
# Si number density = 21.355128 Si / 1000 Ang^3
#
#
#
# Elastic Constant Matrix: (Units=GPa)
#
#
# Indices 1 2 3 4 5 6 
#
# 1 73.1197 28.2137 8.1458 0.0000 0.2990 0.0000
# 2 28.2137 99.0617 35.8604 0.0000 3.1284 0.0000
# 3 8.1458 35.8604 138.7246 0.0000 -3.4135 0.0000
# 4 0.0000 0.0000 0.0000 26.6150 0.0000 30.6299
# 5 0.2990 3.1284 -3.4135 0.0000 37.6743 0.0000
# 6 0.0000 0.0000 0.0000 30.6299 0.0000 24.2841
#
#
#
# Elastic Compliance Matrix: (Units=1/GPa)
#
#
# Indices 1 2 3 4 5 6 
#
# 1 0.015376 -0.004483 0.000263 0.000000 0.000274 0.000000
# 2 -0.004483 0.012497 -0.002999 0.000000 -0.001274 0.000000
# 3 0.000263 -0.002999 0.007992 0.000000 0.000971 0.000000
# 4 0.000000 0.000000 0.000000 -0.083201 0.000000 0.104943
# 5 0.000274 -0.001274 0.000971 0.000000 0.026735 0.000000
# 6 0.000000 0.000000 0.000000 0.104943 0.000000 -0.091187
#
#
# Mechanical properties :
#
#
# Convention : Reuss Voigt Hill
#
# Bulk Modulus (GPa) = 46.66934 50.59396 48.63165
# Shear Modulus (GPa) = -55.42691 33.62709 -10.89991
#
# Velocity S-wave (km/s) = -5.10012 3.97250 -2.26168
# Velocity P-wave (km/s) = 3.57494 6.69210 4.00025
#
# Compressibility (1/GPa) = 0.02142734
#
# Stress axis : x y z
#
# Youngs Moduli (GPa) = 65.03836 80.01778 125.12282
#
# Poissons Ratio (x) = 0.35871 -0.03287
# Poissons Ratio (y) = 0.29156 0.37520
# Poissons Ratio (z) = -0.01709 0.23995
#
# Static dielectric constant tensor:
#      x y z
#    x 1.855720 0.000000 0.069160 
#    y 0.000000 1.816740 0.000000 
#    z 0.069160 0.000000 1.737000 
# 
# From -- ./inp_files/3465.got.cif
#   From: 2010.05.17/outbox.cif.g08.bks.cpg/sg3_2_cif.got.tgz:3465.got - 2010.06.03 18:33:08.
