data_PCOD9114179
_publ_section_title
;
Structure prediction by ZEFSAII (Michael W. Deem and Ramdas Pophale) SiO2 
 PCOD9114179
Probable space group: P 2
;
_chemical_formula_sum "Si O2"
_cell_formula_units_Z 16
_cell_length_a 15.639555
_cell_length_b 5.093173
_cell_length_c 10.624197
_cell_angle_alpha 90.000000
_cell_angle_beta 120.360699
_cell_angle_gamma 90.000000
_cell_volume 730.212997
_symmetry_space_group_name_H-M "P 2"
_symmetry_group_IT_number 3
_symmetry_cell_setting 'monoclinic'
loop_
_space_group_symop_operation_xyz
x,y,z
-x,y,-z
loop_
_atom_site_type_symbol
_atom_site_label
_atom_site_fract_x
_atom_site_fract_y
_atom_site_fract_z
Si Si1 0.990883 0.535430 0.346234
Si Si2 0.105018 0.056215 0.354166
Si Si3 0.228526 0.738455 0.807461
Si Si4 0.575145 0.306086 0.635238
Si Si5 0.372617 0.687009 0.147330
Si Si6 0.263189 0.237224 0.675932
Si Si7 0.716867 0.923526 0.658445
Si Si8 0.425196 0.929035 0.658542
O O1 0.024785 0.289435 0.286069
O O2 0.000000 0.451250 0.500000
O O3 0.879516 0.629976 0.237450
O O4 0.058624 0.794356 0.379897
O O5 0.187452 0.191519 0.505102
O O6 0.167271 0.953162 0.280325
O O7 0.265484 0.533416 0.727578
O O8 0.224205 0.034019 0.752569
O O9 0.303934 0.732493 0.978894
O O10 0.500000 0.495538 0.500000
O O11 0.617271 0.388665 0.801470
O O12 0.670901 0.216428 0.631093
O O13 0.493290 0.094114 0.613977
O O14 0.322381 0.803120 0.239465
O O15 0.487952 0.762900 0.212374
O O16 0.368415 0.122527 0.710300
O O17 0.660895 0.801980 0.494028
#
# Coordination Sequence:
#
# PCOD9114179 Si02
#       8
#     2   2   2   2   2   2   2   2
#     4  12  22  43  68  99 126 168 215 276 332 390
#     4  11  22  41  75  98 124 157 225 283 328 369
#     4  12  27  41  66  90 137 177 213 260 335 395
#     4   9  18  37  63  88 123 165 213 261 317 376
#     4  11  23  40  61  90 134 178 209 258 330 402
#     4  11  23  43  63 101 127 168 218 271 318 389
#     4   9  21  39  66  97 123 164 217 278 319 385
#     4   9  21  39  63  95 126 165 222 269 315 376
#
# _framework density 21.911414000000001
#
# number of rings (size 3 to 8) (size 9 to 14) (size 15 to 20)
#    0.000    1.500    2.500    3.000    7.000    0.500 
#    0.000    0.625    0.000    0.000    0.000    0.000 
#    0.000    0.000    0.000    0.000    0.000    0.000 
#
# Total GULP energy -89168.599412 kJ/mol
# GULP energy per Si atom -5573.037463 kJ/mol
# Density = 2.186154 g / cm^3
# Si number density = 21.911414 Si / 1000 Ang^3
#
#
#
# Elastic Constant Matrix: (Units=GPa)
#
#
# Indices 1 2 3 4 5 6 
#
# 1 107.7584 10.7547 -5.5362 0.0000 19.3458 0.0000
# 2 10.7547 50.6808 -12.9593 0.0000 1.8377 0.0000
# 3 -5.5362 -12.9593 46.9586 0.0000 6.3362 0.0000
# 4 0.0000 0.0000 0.0000 6.8454 0.0000 -5.8264
# 5 19.3458 1.8377 6.3362 0.0000 20.1310 0.0000
# 6 0.0000 0.0000 0.0000 -5.8264 0.0000 20.4912
#
#
#
# Elastic Compliance Matrix: (Units=1/GPa)
#
#
# Indices 1 2 3 4 5 6 
#
# 1 0.011694 -0.001382 0.002607 0.000000 -0.011933 0.000000
# 2 -0.001382 0.021698 0.006175 0.000000 -0.002596 0.000000
# 3 0.002607 0.006175 0.024773 0.000000 -0.010867 0.000000
# 4 0.000000 0.000000 0.000000 0.192726 0.000000 0.054799
# 5 -0.011933 -0.002596 -0.010867 0.000000 0.064799 0.000000
# 6 0.000000 0.000000 0.000000 0.054799 0.000000 0.064383
#
#
# Mechanical properties :
#
#
# Convention : Reuss Voigt Hill
#
# Bulk Modulus (GPa) = 13.70499 21.10182 17.40340
# Shear Modulus (GPa) = 12.83386 23.70274 18.26830
#
# Velocity S-wave (km/s) = 2.42278 3.29257 2.89058
# Velocity P-wave (km/s) = 3.75430 4.90980 4.37041
#
# Compressibility (1/GPa) = 0.07296615
#
# Stress axis : x y z
#
# Youngs Moduli (GPa) = 85.51283 46.08752 40.36618
#
# Poissons Ratio (x) = 0.06370 -0.10525
# Poissons Ratio (y) = 0.11819 -0.24928
# Poissons Ratio (z) = -0.22296 -0.28461
#
# Static dielectric constant tensor:
#      x y z
#    x 1.834260 0.000000 -0.015330 
#    y 0.000000 1.996390 0.000000 
#    z -0.015330 0.000000 1.884060 
# 
# From -- ./inp_files/12083.got.cif
#   From: 2010.05.17/outbox.cif.g08.bks.cpg/sg3_7_cif.got.tgz:12083.got - 2010.06.03 18:33:08.
