data_PCOD9114969
_publ_section_title
;
Structure prediction by ZEFSAII (Michael W. Deem and Ramdas Pophale) SiO2 
 PCOD9114969
Probable space group: P 21
;
_chemical_formula_sum "Si O2"
_cell_formula_units_Z 14
_cell_length_a 8.308780
_cell_length_b 8.699932
_cell_length_c 15.359931
_cell_angle_alpha 90.000000
_cell_angle_beta 34.253544
_cell_angle_gamma 90.000000
_cell_volume 624.942017
_symmetry_space_group_name_H-M "P 21"
_symmetry_group_IT_number 4
_symmetry_cell_setting 'monoclinic'
loop_
_space_group_symop_operation_xyz
x,y,z
-x,1/2+y,-z
loop_
_atom_site_type_symbol
_atom_site_label
_atom_site_fract_x
_atom_site_fract_y
_atom_site_fract_z
Si Si1 0.541269 0.412970 0.725461
Si Si2 0.759770 0.486778 0.448318
Si Si3 0.658884 0.107327 0.771043
Si Si4 0.752016 0.598896 0.779572
Si Si5 0.735714 0.202407 0.348104
Si Si6 0.024102 0.996078 0.076548
Si Si7 0.338449 0.806510 0.063515
O O1 0.569858 0.411045 0.609191
O O2 0.661633 0.255651 0.708769
O O3 0.697796 0.553670 0.704561
O O4 0.204117 0.443463 0.892497
O O5 0.763063 0.379991 0.361894
O O6 0.591003 0.645509 0.506884
O O7 0.064374 0.502486 0.359702
O O8 0.700965 0.171873 0.850120
O O9 0.343367 0.036819 0.903384
O O10 0.619705 0.456769 0.894701
O O11 0.082053 0.615789 0.657976
O O12 0.593227 0.749714 0.887178
O O13 0.894485 0.141167 0.189327
O O14 0.077317 0.855065 0.119304
#
# Coordination Sequence:
#
# PCOD9114969 Si02
#       7
#     2   2   2   2   2   2   2
#     4  10  26  41  61  96 140 167 213 271 334 391
#     4  11  26  44  67  97 133 177 216 266 332 396
#     4  11  23  42  68  95 128 174 217 272 331 382
#     4  10  21  40  67  92 128 166 212 277 318 387
#     4  10  23  43  69  92 129 170 224 268 316 392
#     4  10  22  43  65  98 125 167 223 276 318 392
#     4  10  19  37  69  90 123 157 223 264 321 376
#
# _framework density 22.402077999999999
#
# number of rings (size 3 to 8) (size 9 to 14) (size 15 to 20)
#    0.000    1.714    2.857    0.857   12.000    0.000 
#    0.000    1.429    0.000    0.000    0.000    0.000 
#    0.000    0.000    0.000    0.000    0.000    0.000 
#
# Total GULP energy -78071.646952 kJ/mol
# GULP energy per Si atom -5576.546211 kJ/mol
# Density = 2.235109 g / cm^3
# Si number density = 22.402078 Si / 1000 Ang^3
#
#
#
# Elastic Constant Matrix: (Units=GPa)
#
#
# Indices 1 2 3 4 5 6 
#
# 1 45.6582 -10.2616 0.8643 0.0000 -15.7821 0.0000
# 2 -10.2616 34.1870 13.3502 0.0000 -6.5492 0.0000
# 3 0.8643 13.3502 73.2330 0.0000 -25.6430 0.0000
# 4 0.0000 0.0000 0.0000 24.3188 0.0000 -6.9198
# 5 -15.7821 -6.5492 -25.6430 0.0000 33.0723 0.0000
# 6 0.0000 0.0000 0.0000 -6.9198 0.0000 34.6223
#
#
#
# Elastic Compliance Matrix: (Units=1/GPa)
#
#
# Indices 1 2 3 4 5 6 
#
# 1 0.031818 0.011701 0.004968 0.000000 0.021353 0.000000
# 2 0.011701 0.035941 -0.003079 0.000000 0.010314 0.000000
# 3 0.004968 -0.003079 0.020280 0.000000 0.017486 0.000000
# 4 0.000000 0.000000 0.000000 0.043600 0.000000 0.008714
# 5 0.021353 0.010314 0.017486 0.000000 0.056027 0.000000
# 6 0.000000 0.000000 0.000000 0.008714 0.000000 0.030625
#
#
# Mechanical properties :
#
#
# Convention : Reuss Voigt Hill
#
# Bulk Modulus (GPa) = 8.67893 17.88713 13.28303
# Shear Modulus (GPa) = 21.78485 28.34435 25.06460
#
# Velocity S-wave (km/s) = 3.12179 3.56090 3.34855
# Velocity P-wave (km/s) = 4.10812 4.99085 4.57085
#
# Compressibility (1/GPa) = 0.11522161
#
# Stress axis : x y z
#
# Youngs Moduli (GPa) = 31.42832 27.82334 49.30856
#
# Poissons Ratio (x) = -0.32556 -0.24498
# Poissons Ratio (y) = -0.36774 0.15180
# Poissons Ratio (z) = -0.15615 0.08566
#
# Static dielectric constant tensor:
#      x y z
#    x 1.813820 0.000000 0.010270 
#    y 0.000000 1.866140 0.000000 
#    z 0.010270 0.000000 1.907620 
# 
# From -- ./inp_files/5256.got.cif
#   From: 2010.05.17/outbox.cif.g08.bks.cpg/sg4_3_cif.got.tgz:5256.got - 2010.06.03 18:43:04.
