data_PCOD9114938
_publ_section_title
;
Structure prediction by ZEFSAII (Michael W. Deem and Ramdas Pophale) SiO2 
 PCOD9114938
Probable space group: P 21
;
_chemical_formula_sum "Si O2"
_cell_formula_units_Z 16
_cell_length_a 11.744043
_cell_length_b 8.694171
_cell_length_c 9.518174
_cell_angle_alpha 90.000000
_cell_angle_beta 123.314607
_cell_angle_gamma 90.000000
_cell_volume 812.143725
_symmetry_space_group_name_H-M "P 21"
_symmetry_group_IT_number 4
_symmetry_cell_setting 'monoclinic'
loop_
_space_group_symop_operation_xyz
x,y,z
-x,1/2+y,-z
loop_
_atom_site_type_symbol
_atom_site_label
_atom_site_fract_x
_atom_site_fract_y
_atom_site_fract_z
Si Si1 0.500205 0.251600 0.821793
Si Si2 0.799182 0.805909 0.395737
Si Si3 0.204990 0.281142 0.936098
Si Si4 0.226040 0.610912 0.070879
Si Si5 0.477633 0.114375 0.117819
Si Si6 0.055543 0.626649 0.226010
Si Si7 0.769656 0.176734 0.395948
Si Si8 0.063134 0.810055 0.740449
O O1 0.348149 0.244922 0.655707
O O2 0.521985 0.431351 0.869155
O O3 0.625724 0.188315 0.817676
O O4 0.498381 0.162950 0.969476
O O5 0.816716 0.758454 0.245673
O O6 0.921721 0.749902 0.576631
O O7 0.797863 0.993274 0.390262
O O8 0.241181 0.455929 0.992148
O O9 0.062796 0.237392 0.910436
O O10 0.332849 0.179292 0.067645
O O11 0.125765 0.720334 0.913999
O O12 0.156848 0.575755 0.172254
O O13 0.606310 0.185049 0.288163
O O14 0.146986 0.709166 0.406359
O O15 0.974288 0.482056 0.237233
O O16 0.827683 0.282699 0.310362
#
# Coordination Sequence:
#
# PCOD9114938 Si02
#       8
#     2   2   2   2   2   2   2   2
#     4  10  19  37  60  89 122 156 197 257 305 358
#     4   9  19  35  61  94 113 146 204 257 293 348
#     4  11  21  37  58  91 123 154 206 255 294 361
#     4  12  23  41  58  87 130 166 195 248 314 368
#     4  10  20  35  63  92 116 154 210 254 299 353
#     4  11  25  39  60  91 124 161 202 251 312 368
#     4  10  19  39  61  90 115 152 203 253 295 355
#     4  11  20  39  65  88 117 163 203 251 304 355
#
# _framework density 19.700945999999998
#
# number of rings (size 3 to 8) (size 9 to 14) (size 15 to 20)
#    0.000    1.500    3.750    3.000    0.000    0.000 
#    0.000    5.000    0.000    0.000    0.000    0.000 
#    0.000    0.000    0.000    0.000    0.000    0.000 
#
# Total GULP energy -89312.298104 kJ/mol
# GULP energy per Si atom -5582.018632 kJ/mol
# Density = 1.965611 g / cm^3
# Si number density = 19.700946 Si / 1000 Ang^3
#
#
#
# Elastic Constant Matrix: (Units=GPa)
#
#
# Indices 1 2 3 4 5 6 
#
# 1 104.0467 22.9825 27.5708 0.0000 19.6570 0.0000
# 2 22.9825 39.0905 1.2189 0.0000 6.3844 0.0000
# 3 27.5708 1.2189 39.8187 0.0000 9.4773 0.0000
# 4 0.0000 0.0000 0.0000 15.1585 0.0000 7.7419
# 5 19.6570 6.3844 9.4773 0.0000 32.6347 0.0000
# 6 0.0000 0.0000 0.0000 7.7419 0.0000 24.6270
#
#
#
# Elastic Compliance Matrix: (Units=1/GPa)
#
#
# Indices 1 2 3 4 5 6 
#
# 1 0.014441 -0.007448 -0.008645 0.000000 -0.004731 0.000000
# 2 -0.007448 0.030275 0.004912 0.000000 -0.002863 0.000000
# 3 -0.008645 0.004912 0.032162 0.000000 -0.005094 0.000000
# 4 0.000000 0.000000 0.000000 0.078587 0.000000 -0.024705
# 5 -0.004731 -0.002863 -0.005094 0.000000 0.035531 0.000000
# 6 0.000000 0.000000 0.000000 -0.024705 0.000000 0.048372
#
#
# Mechanical properties :
#
#
# Convention : Reuss Voigt Hill
#
# Bulk Modulus (GPa) = 18.34358 31.83338 25.08848
# Shear Modulus (GPa) = 17.86343 23.22964 20.54653
#
# Velocity S-wave (km/s) = 3.01446 3.43755 3.23293
# Velocity P-wave (km/s) = 4.63111 5.65235 5.16702
#
# Compressibility (1/GPa) = 0.05451498
#
# Stress axis : x y z
#
# Youngs Moduli (GPa) = 69.24857 33.03053 31.09290
#
# Poissons Ratio (x) = 0.24601 0.26880
# Poissons Ratio (y) = 0.51576 -0.15272
# Poissons Ratio (z) = 0.59865 -0.16224
#
# Static dielectric constant tensor:
#      x y z
#    x 1.701030 0.000000 0.022830 
#    y 0.000000 1.691180 0.000000 
#    z 0.022830 0.000000 1.688100 
# 
# From -- ./inp_files/7890.got.cif
#   From: 2010.05.17/outbox.cif.g08.bks.cpg/sg4_4_cif.got.tgz:7890.got - 2010.06.03 18:43:04.
