data_PCOD9114718
_publ_section_title
;
Structure prediction by ZEFSAII (Michael W. Deem and Ramdas Pophale) SiO2 
 PCOD9114718
Probable space group: P 21
;
_chemical_formula_sum "Si O2"
_cell_formula_units_Z 12
_cell_length_a 15.010688
_cell_length_b 5.180366
_cell_length_c 15.645528
_cell_angle_alpha 90.000000
_cell_angle_beta 160.100713
_cell_angle_gamma 90.000000
_cell_volume 414.094819
_symmetry_space_group_name_H-M "P 21"
_symmetry_group_IT_number 4
_symmetry_cell_setting 'monoclinic'
loop_
_space_group_symop_operation_xyz
x,y,z
-x,1/2+y,-z
loop_
_atom_site_type_symbol
_atom_site_label
_atom_site_fract_x
_atom_site_fract_y
_atom_site_fract_z
Si Si1 0.939203 0.676480 0.892055
Si Si2 0.352293 0.486467 0.490727
Si Si3 0.567941 0.637415 0.964074
Si Si4 0.703272 0.780468 0.387457
Si Si5 0.056164 0.778377 0.464487
Si Si6 0.200052 0.303421 0.008504
O O1 0.582636 0.680959 0.730173
O O2 0.674650 0.814871 0.619651
O O3 0.104430 0.578697 0.958721
O O4 0.075689 0.906117 0.069342
O O5 0.367736 0.269777 0.578845
O O6 0.071387 0.638126 0.237480
O O7 0.530700 0.355837 0.888429
O O8 0.279458 0.724512 0.734229
O O9 0.759257 0.720053 0.211258
O O10 0.664469 0.792598 0.963882
O O11 0.876543 0.546914 0.514932
O O12 0.871806 0.043243 0.533616
#
# Coordination Sequence:
#
# PCOD9114718 Si02
#       6
#     2   2   2   2   2   2
#     4  12  27  51  62  80  94 112 126 144 158 176
#     4  11  24  42  65  77  90 107 121 138 152 170
#     4   9  19  32  51  72  83 101 109 133 138 165
#     4   9  21  31  52  71  86  96 114 128 143 160
#     4  10  19  29  48  68  94  98 116 124 148 154
#     4  11  22  45  62  78  91 106 122 137 153 169
#
# _framework density 28.978871000000002
#
# number of rings (size 3 to 8) (size 9 to 14) (size 15 to 20)
#    1.000    0.667    3.333    1.000    2.333    4.000 
#    6.000    0.000    0.000    0.000    0.000    0.000 
#    0.000    0.000    0.000    0.000    0.000    0.000 
#
# Total GULP energy -67041.618280 kJ/mol
# GULP energy per Si atom -5586.801523 kJ/mol
# Density = 2.891291 g / cm^3
# Si number density = 28.978871 Si / 1000 Ang^3
#
#
#
# Elastic Constant Matrix: (Units=GPa)
#
#
# Indices 1 2 3 4 5 6 
#
# 1 77.5065 48.7121 31.4922 0.0000 -34.9082 0.0000
# 2 48.7121 205.7143 83.1270 0.0000 -31.3922 0.0000
# 3 31.4922 83.1270 352.3061 0.0000 -129.4709 0.0000
# 4 0.0000 0.0000 0.0000 36.3120 0.0000 11.0124
# 5 -34.9082 -31.3922 -129.4709 0.0000 263.5732 0.0000
# 6 0.0000 0.0000 0.0000 11.0124 0.0000 67.8715
#
#
#
# Elastic Compliance Matrix: (Units=1/GPa)
#
#
# Indices 1 2 3 4 5 6 
#
# 1 0.015860 -0.003510 0.000035 0.000000 0.001700 0.000000
# 2 -0.003510 0.006151 -0.001268 0.000000 -0.000355 0.000000
# 3 0.000035 -0.001268 0.003759 0.000000 0.001700 0.000000
# 4 0.000000 0.000000 0.000000 0.028964 0.000000 -0.004700
# 5 0.001700 -0.000355 0.001700 0.000000 0.004812 0.000000
# 6 0.000000 0.000000 0.000000 -0.004700 0.000000 0.015496
#
#
# Mechanical properties :
#
#
# Convention : Reuss Voigt Hill
#
# Bulk Modulus (GPa) = 61.41285 106.90994 84.16139
# Shear Modulus (GPa) = 55.58277 105.03102 80.30690
#
# Velocity S-wave (km/s) = 4.38430 6.02683 5.26995
# Velocity P-wave (km/s) = 6.84600 9.24136 8.13236
#
# Compressibility (1/GPa) = 0.01628324
#
# Stress axis : x y z
#
# Youngs Moduli (GPa) = 63.05342 162.58822 266.00581
#
# Poissons Ratio (x) = 0.57074 -0.00937
# Poissons Ratio (y) = 0.22134 0.33729
# Poissons Ratio (z) = -0.00222 0.20616
#
# Static dielectric constant tensor:
#      x y z
#    x 2.324900 0.000000 0.128750 
#    y 0.000000 2.226020 0.000000 
#    z 0.128750 0.000000 2.648820 
# 
# From -- ./inp_files/15296.got.cif
#   From: 2010.05.17/outbox.cif.g08.bks.cpg/sg4_8_cif.got.tgz:15296.got - 2010.06.03 18:43:04.
