data_PCOD9114403
_publ_section_title
;
Structure prediction by ZEFSAII (Michael W. Deem and Ramdas Pophale) SiO2 
 PCOD9114403
Probable space group: P 2
;
_chemical_formula_sum "Si O2"
_cell_formula_units_Z 14
_cell_length_a 9.473624
_cell_length_b 5.023929
_cell_length_c 12.031576
_cell_angle_alpha 90.000000
_cell_angle_beta 96.201746
_cell_angle_gamma 90.000000
_cell_volume 569.289346
_symmetry_space_group_name_H-M "P 2"
_symmetry_group_IT_number 3
_symmetry_cell_setting 'monoclinic'
loop_
_space_group_symop_operation_xyz
x,y,z
-x,y,-z
loop_
_atom_site_type_symbol
_atom_site_label
_atom_site_fract_x
_atom_site_fract_y
_atom_site_fract_z
Si Si1 0.335244 0.905460 0.816262
Si Si2 0.583429 0.656927 0.410646
Si Si3 0.866389 0.539499 0.566693
Si Si4 0.433153 0.299453 0.239000
Si Si5 0.347586 0.470140 0.005640
Si Si6 0.159973 0.044492 0.288648
Si Si7 0.076861 0.119847 0.899324
O O1 0.371044 0.761401 0.705627
O O2 0.364891 0.731631 0.929994
O O3 0.423044 0.174394 0.799600
O O4 0.169854 0.952450 0.820957
O O5 0.500000 0.818365 0.500000
O O6 0.728098 0.578205 0.480526
O O7 0.474080 0.431535 0.359154
O O8 0.860820 0.238740 0.609169
O O9 0.000000 0.588658 0.500000
O O10 0.866846 0.747171 0.669944
O O11 0.318828 0.071279 0.254277
O O12 0.357285 0.490086 0.140617
O O13 0.199766 0.323892 0.956522
O O14 0.500000 0.323292 0.000000
O O15 0.058078 0.180757 0.187874
O O16 0.000000 0.990029 0.000000
#
# Coordination Sequence:
#
# PCOD9114403 Si02
#       7
#     2   2   2   2   2   2   2
#     4  12  28  46  81 112 156 204 271 329 407 482
#     4  12  26  48  77 117 152 211 264 336 394 479
#     4  12  29  51  80 114 162 217 272 338 408 479
#     4  12  27  49  79 114 158 208 270 333 414 479
#     4  12  26  48  74 115 152 206 258 335 399 485
#     4  12  29  53  78 116 164 212 275 336 408 487
#     4  12  28  48  77 114 156 210 264 329 410 495
#
# _framework density 24.592064000000001
#
# number of rings (size 3 to 8) (size 9 to 14) (size 15 to 20)
#    0.000    0.000    5.714    2.143   10.000    2.286 
#    0.000    0.000    0.000    0.000    0.000    0.000 
#    0.000    0.000    0.000    0.000    0.000    0.000 
#
# Total GULP energy -78060.511297 kJ/mol
# GULP energy per Si atom -5575.750807 kJ/mol
# Density = 2.453609 g / cm^3
# Si number density = 24.592064 Si / 1000 Ang^3
#
#
#
# Elastic Constant Matrix: (Units=GPa)
#
#
# Indices 1 2 3 4 5 6 
#
# 1 128.1352 -1.8706 45.5859 0.0000 -11.1196 0.0000
# 2 -1.8706 56.9116 21.1165 0.0000 -5.5819 0.0000
# 3 45.5859 21.1165 115.7414 0.0000 6.9614 0.0000
# 4 0.0000 0.0000 0.0000 20.7718 0.0000 -10.3541
# 5 -11.1196 -5.5819 6.9614 0.0000 67.1162 0.0000
# 6 0.0000 0.0000 0.0000 -10.3541 0.0000 17.6428
#
#
#
# Elastic Compliance Matrix: (Units=1/GPa)
#
#
# Indices 1 2 3 4 5 6 
#
# 1 0.009549 0.002118 -0.004280 0.000000 0.002202 0.000000
# 2 0.002118 0.019570 -0.004552 0.000000 0.002451 0.000000
# 3 -0.004280 -0.004552 0.011292 0.000000 -0.002259 0.000000
# 4 0.000000 0.000000 0.000000 0.068049 0.000000 0.039936
# 5 0.002202 0.002451 -0.002259 0.000000 0.015702 0.000000
# 6 0.000000 0.000000 0.000000 0.039936 0.000000 0.080118
#
#
# Mechanical properties :
#
#
# Convention : Reuss Voigt Hill
#
# Bulk Modulus (GPa) = 37.06043 47.82798 42.44421
# Shear Modulus (GPa) = 22.05534 36.83660 29.44597
#
# Velocity S-wave (km/s) = 2.99799 3.87448 3.46407
# Velocity P-wave (km/s) = 5.20449 6.28540 5.77031
#
# Compressibility (1/GPa) = 0.02698296
#
# Stress axis : x y z
#
# Youngs Moduli (GPa) = 104.72474 51.09852 88.55893
#
# Poissons Ratio (x) = -0.10822 0.37901
# Poissons Ratio (y) = -0.22178 0.40312
# Poissons Ratio (z) = 0.44819 0.23260
#
# Static dielectric constant tensor:
#      x y z
#    x 1.947940 0.000000 0.009330 
#    y 0.000000 2.033060 0.000000 
#    z 0.009330 0.000000 2.148950 
# 
# From -- ./inp_files/10270.got.cif
#   From: 2010.05.17/outbox.cif.g08.bks.cpg/sg3_6_cif.got.tgz:10270.got - 2010.06.03 18:33:08.
