data_PCOD9114513
_publ_section_title
;
Structure prediction by ZEFSAII (Michael W. Deem and Ramdas Pophale) SiO2 
 PCOD9114513
Probable space group: P 21
;
_chemical_formula_sum "Si O2"
_cell_formula_units_Z 16
_cell_length_a 13.051015
_cell_length_b 8.072288
_cell_length_c 8.995921
_cell_angle_alpha 90.000000
_cell_angle_beta 38.506071
_cell_angle_gamma 90.000000
_cell_volume 590.057021
_symmetry_space_group_name_H-M "P 21"
_symmetry_group_IT_number 4
_symmetry_cell_setting 'monoclinic'
loop_
_space_group_symop_operation_xyz
x,y,z
-x,1/2+y,-z
loop_
_atom_site_type_symbol
_atom_site_label
_atom_site_fract_x
_atom_site_fract_y
_atom_site_fract_z
Si Si1 0.706425 0.941370 0.241165
Si Si2 0.891165 0.083924 0.537448
Si Si3 0.138912 0.974690 0.037451
Si Si4 0.567418 0.093725 0.017071
Si Si5 0.405058 0.781156 0.600912
Si Si6 0.372823 0.416833 0.322074
Si Si7 0.730108 0.384371 0.547632
Si Si8 0.029256 0.123295 0.858265
O O1 0.588101 0.796016 0.328214
O O2 0.679081 0.930833 0.449726
O O3 0.609505 0.106800 0.303172
O O4 0.891276 0.980616 0.997641
O O5 0.838175 0.261880 0.526816
O O6 0.801344 0.923895 0.565831
O O7 0.766442 0.088262 0.822242
O O8 0.076266 0.046191 0.268120
O O9 0.048273 0.798960 0.098149
O O10 0.329144 0.921386 0.796360
O O11 0.088204 0.103979 0.963486
O O12 0.485775 0.261567 0.162633
O O13 0.451056 0.943516 0.199030
O O14 0.553144 0.074308 0.851424
O O15 0.287348 0.794493 0.591581
O O16 0.824540 0.557249 0.410382
#
# Coordination Sequence:
#
# PCOD9114513 Si02
#       8
#     2   2   2   2   2   2   2   2
#     4  11  22  38  53  84 119 153 183 228 281 344
#     4  10  17  34  54  80 113 136 185 239 275 320
#     4  10  18  35  52  80 109 147 185 237 276 329
#     4  10  19  33  55  87 105 145 186 239 279 320
#     4  10  23  35  53  82 119 149 184 222 283 349
#     4  10  19  34  57  81 112 144 184 237 275 326
#     4  11  20  34  54  85 112 144 187 235 279 336
#     4  10  20  31  54  79 113 144 188 233 280 330
#
# _framework density 27.116025
#
# number of rings (size 3 to 8) (size 9 to 14) (size 15 to 20)
#    0.750    1.000    3.750    2.250    1.750    2.000 
#    0.000    0.000    0.000    1.500    3.250    0.000 
#    0.000    0.000    0.000    0.000    0.000    0.000 
#
# Total GULP energy -89160.834252 kJ/mol
# GULP energy per Si atom -5572.552141 kJ/mol
# Density = 2.705431 g / cm^3
# Si number density = 27.116025 Si / 1000 Ang^3
#
#
#
# Elastic Constant Matrix: (Units=GPa)
#
#
# Indices 1 2 3 4 5 6 
#
# 1 30.5193 -3.6404 3.5376 0.0000 7.1150 0.0000
# 2 -3.6404 109.7296 13.7794 0.0000 9.8440 0.0000
# 3 3.5376 13.7794 160.5678 0.0000 -0.4258 0.0000
# 4 0.0000 0.0000 0.0000 55.7832 0.0000 -3.2811
# 5 7.1150 9.8440 -0.4258 0.0000 37.2467 0.0000
# 6 0.0000 0.0000 0.0000 -3.2811 0.0000 19.4558
#
#
#
# Elastic Compliance Matrix: (Units=1/GPa)
#
#
# Indices 1 2 3 4 5 6 
#
# 1 0.034774 0.001915 -0.000949 0.000000 -0.007160 0.000000
# 2 0.001915 0.009546 -0.000869 0.000000 -0.002899 0.000000
# 3 -0.000949 -0.000869 0.006325 0.000000 0.000483 0.000000
# 4 0.000000 0.000000 0.000000 0.018106 0.000000 0.003053
# 5 -0.007160 -0.002899 0.000483 0.000000 0.028987 0.000000
# 6 0.000000 0.000000 0.000000 0.003053 0.000000 0.051914
#
#
# Mechanical properties :
#
#
# Convention : Reuss Voigt Hill
#
# Bulk Modulus (GPa) = 19.67038 36.46330 28.06684
# Shear Modulus (GPa) = 30.04730 41.63979 35.84355
#
# Velocity S-wave (km/s) = 3.33243 3.92294 3.63968
# Velocity P-wave (km/s) = 4.69858 5.83058 5.29492
#
# Compressibility (1/GPa) = 0.05083786
#
# Stress axis : x y z
#
# Youngs Moduli (GPa) = 28.75724 104.75547 158.11070
#
# Poissons Ratio (x) = -0.20063 0.15012
# Poissons Ratio (y) = -0.05508 0.13741
# Poissons Ratio (z) = 0.02730 0.09104
#
# Static dielectric constant tensor:
#      x y z
#    x 2.178780 0.000000 0.000370 
#    y 0.000000 2.174340 0.000000 
#    z 0.000370 0.000000 2.231860 
# 
# From -- ./inp_files/12940.got.cif
#   From: 2010.05.17/outbox.cif.g08.bks.cpg/sg4_7_cif.got.tgz:12940.got - 2010.06.03 18:43:04.
