data_PCOD9114046
_publ_section_title
;
Structure prediction by ZEFSAII (Michael W. Deem and Ramdas Pophale) SiO2 
 PCOD9114046
Probable space group: P 2
;
_chemical_formula_sum "Si O2"
_cell_formula_units_Z 16
_cell_length_a 5.047312
_cell_length_b 9.794881
_cell_length_c 12.581188
_cell_angle_alpha 90.000000
_cell_angle_beta 91.054148
_cell_angle_gamma 90.000000
_cell_volume 621.881245
_symmetry_space_group_name_H-M "P 2"
_symmetry_group_IT_number 3
_symmetry_cell_setting 'monoclinic'
loop_
_space_group_symop_operation_xyz
x,y,z
-x,y,-z
loop_
_atom_site_type_symbol
_atom_site_label
_atom_site_fract_x
_atom_site_fract_y
_atom_site_fract_z
Si Si1 0.363739 0.065440 0.265648
Si Si2 0.817806 0.563494 0.895936
Si Si3 0.826914 0.271370 0.895143
Si Si4 0.810607 0.692345 0.265177
Si Si5 0.498114 0.463454 0.619272
Si Si6 0.009935 0.288629 0.676461
Si Si7 0.461029 0.845941 0.112595
Si Si8 0.246966 0.925103 0.573316
O O1 0.141895 0.142287 0.333604
O O2 0.723149 0.342203 0.375036
O O3 0.301641 0.924831 0.203680
O O4 0.617644 0.029986 0.339879
O O5 0.677573 0.416912 0.895229
O O6 0.666121 0.701890 0.913961
O O7 0.974616 0.597574 0.789135
O O8 0.000000 0.546542 0.000000
O O9 0.627457 0.164391 0.838191
O O10 0.045092 0.293457 0.803785
O O11 0.000000 0.234606 0.000000
O O12 0.585802 0.584685 0.301835
O O13 0.727493 0.799328 0.172853
O O14 0.856885 0.790192 0.365663
O O15 0.500000 0.519541 0.500000
O O16 0.778375 0.393171 0.641639
O O17 0.500000 0.919501 0.000000
O O18 0.500000 0.892234 0.500000
O O19 0.000000 0.969884 0.500000
#
# Coordination Sequence:
#
# PCOD9114046 Si02
#       8
#     2   2   2   2   2   2   2   2
#     4   9  24  49  73 111 156 208 265 327 396 484
#     4  11  21  41  72 111 160 206 255 323 403 478
#     4   9  20  46  74 116 156 208 258 317 404 485
#     4  11  24  43  71 110 156 202 265 328 398 474
#     4  12  25  46  78 113 156 207 269 335 400 467
#     4  10  24  48  71 114 153 202 260 324 389 471
#     4  11  23  43  68 112 156 206 257 321 394 480
#     4  11  27  48  76 111 153 209 272 340 403 464
#
# _framework density 25.728383999999998
#
# number of rings (size 3 to 8) (size 9 to 14) (size 15 to 20)
#    0.750    0.750    2.500    1.500    3.500    3.000 
#    4.500    1.250    0.000    0.000    0.000    0.000 
#    0.000    0.000    0.000    0.000    0.000    0.000 
#
# Total GULP energy -89280.358269 kJ/mol
# GULP energy per Si atom -5580.022392 kJ/mol
# Density = 2.566983 g / cm^3
# Si number density = 25.728384 Si / 1000 Ang^3
#
#
#
# Elastic Constant Matrix: (Units=GPa)
#
#
# Indices 1 2 3 4 5 6 
#
# 1 77.2940 17.2334 39.4441 0.0000 1.4037 0.0000
# 2 17.2334 122.9902 43.4019 0.0000 16.6695 0.0000
# 3 39.4441 43.4019 154.0362 0.0000 6.6378 0.0000
# 4 0.0000 0.0000 0.0000 56.8758 0.0000 -22.8107
# 5 1.4037 16.6695 6.6378 0.0000 34.7691 0.0000
# 6 0.0000 0.0000 0.0000 -22.8107 0.0000 69.4485
#
#
#
# Elastic Compliance Matrix: (Units=1/GPa)
#
#
# Indices 1 2 3 4 5 6 
#
# 1 0.014966 -0.000895 -0.003602 0.000000 0.000513 0.000000
# 2 -0.000895 0.009631 -0.002306 0.000000 -0.004141 0.000000
# 3 -0.003602 -0.002306 0.008077 0.000000 -0.000291 0.000000
# 4 0.000000 0.000000 0.000000 0.020250 0.000000 0.006651
# 5 0.000513 -0.004141 -0.000291 0.000000 0.030781 0.000000
# 6 0.000000 0.000000 0.000000 0.006651 0.000000 0.016584
#
#
# Mechanical properties :
#
#
# Convention : Reuss Voigt Hill
#
# Bulk Modulus (GPa) = 52.44686 61.60879 57.02782
# Shear Modulus (GPa) = 41.57944 49.16808 45.37376
#
# Velocity S-wave (km/s) = 4.02443 4.37629 4.20404
# Velocity P-wave (km/s) = 6.48257 7.03802 6.76600
#
# Compressibility (1/GPa) = 0.01906692
#
# Stress axis : x y z
#
# Youngs Moduli (GPa) = 66.81733 103.82895 123.81321
#
# Poissons Ratio (x) = 0.09297 0.44600
# Poissons Ratio (y) = 0.05983 0.28551
# Poissons Ratio (z) = 0.24069 0.23943
#
# Static dielectric constant tensor:
#      x y z
#    x 2.027200 0.000000 0.004930 
#    y 0.000000 2.067980 0.000000 
#    z 0.004930 0.000000 2.072510 
# 
# From -- ./inp_files/10009.got.cif
#   From: 2010.05.17/outbox.cif.g08.bks.cpg/sg3_6_cif.got.tgz:10009.got - 2010.06.03 18:33:08.
