data_PCOD9114316
_publ_section_title
;
Structure prediction by ZEFSAII (Michael W. Deem and Ramdas Pophale) SiO2 
 PCOD9114316
Probable space group: P 2
;
_chemical_formula_sum "Si O2"
_cell_formula_units_Z 16
_cell_length_a 8.149084
_cell_length_b 9.738163
_cell_length_c 11.645625
_cell_angle_alpha 90.000000
_cell_angle_beta 49.370093
_cell_angle_gamma 90.000000
_cell_volume 701.376521
_symmetry_space_group_name_H-M "P 2"
_symmetry_group_IT_number 3
_symmetry_cell_setting 'monoclinic'
loop_
_space_group_symop_operation_xyz
x,y,z
-x,y,-z
loop_
_atom_site_type_symbol
_atom_site_label
_atom_site_fract_x
_atom_site_fract_y
_atom_site_fract_z
Si Si1 0.839170 0.167740 0.865847
Si Si2 0.259392 0.666597 0.064633
Si Si3 0.006929 0.421697 0.862971
Si Si4 0.468795 0.489147 0.645595
Si Si5 0.432516 0.770189 0.753144
Si Si6 0.089982 0.885067 0.731208
Si Si7 0.462171 0.234102 0.216337
Si Si8 0.751090 0.987287 0.578413
O O1 0.030761 0.278235 0.788447
O O2 0.712348 0.208143 0.806908
O O3 0.682312 0.198037 0.046538
O O4 0.934934 0.016034 0.826493
O O5 0.193978 0.506751 0.093492
O O6 0.074954 0.757640 0.207783
O O7 0.500000 0.684122 0.000000
O O8 0.282598 0.715080 0.923349
O O9 0.212942 0.516386 0.758910
O O10 0.000000 0.393049 0.000000
O O11 0.500000 0.442789 0.500000
O O12 0.554248 0.639944 0.639242
O O13 0.523302 0.378610 0.721019
O O14 0.267810 0.849788 0.745455
O O15 0.616972 0.875097 0.712212
O O16 0.226236 0.924136 0.557318
O O17 0.388473 0.124305 0.345028
O O18 0.000000 0.011381 0.500000
#
# Coordination Sequence:
#
# PCOD9114316 Si02
#       8
#     2   2   2   2   2   2   2   2
#     4  11  26  45  76 108 141 193 249 300 371 425
#     4  12  26  45  77 108 146 190 246 310 372 432
#     4  12  24  47  72 110 143 189 249 300 364 448
#     4  12  27  48  73 110 151 193 246 303 372 443
#     4  12  26  48  73 108 143 195 246 303 369 443
#     4  12  25  46  73 105 147 190 245 305 362 448
#     4  11  26  48  73 105 150 192 245 309 358 447
#     4  12  26  47  68 105 151 188 243 299 379 440
#
# _framework density 22.812283000000001
#
# number of rings (size 3 to 8) (size 9 to 14) (size 15 to 20)
#    0.000    0.250    5.000    3.000    8.750    1.000 
#    0.000    0.625    0.000    0.000    0.000    0.000 
#    0.000    0.000    0.000    0.000    0.000    0.000 
#
# Total GULP energy -89369.954115 kJ/mol
# GULP energy per Si atom -5585.622132 kJ/mol
# Density = 2.276036 g / cm^3
# Si number density = 22.812283 Si / 1000 Ang^3
#
#
#
# Elastic Constant Matrix: (Units=GPa)
#
#
# Indices 1 2 3 4 5 6 
#
# 1 75.5085 39.9011 27.0593 0.0000 -0.3470 0.0000
# 2 39.9011 140.2009 11.3637 0.0000 -3.3981 0.0000
# 3 27.0593 11.3637 66.4478 0.0000 14.0798 0.0000
# 4 0.0000 0.0000 0.0000 28.2094 0.0000 -6.8078
# 5 -0.3470 -3.3981 14.0798 0.0000 30.6670 0.0000
# 6 0.0000 0.0000 0.0000 -6.8078 0.0000 31.6568
#
#
#
# Elastic Compliance Matrix: (Units=1/GPa)
#
#
# Indices 1 2 3 4 5 6 
#
# 1 0.018275 -0.004534 -0.007316 0.000000 0.003063 0.000000
# 2 -0.004534 0.008422 0.000243 0.000000 0.000770 0.000000
# 3 -0.007316 0.000243 0.019939 0.000000 -0.009210 0.000000
# 4 0.000000 0.000000 0.000000 0.037390 0.000000 0.008041
# 5 0.003063 0.000770 -0.009210 0.000000 0.036957 0.000000
# 6 0.000000 0.000000 0.000000 0.008041 0.000000 0.033318
#
#
# Mechanical properties :
#
#
# Convention : Reuss Voigt Hill
#
# Bulk Modulus (GPa) = 42.69520 48.75618 45.72569
# Shear Modulus (GPa) = 26.98016 31.69552 29.33784
#
# Velocity S-wave (km/s) = 3.44278 3.73152 3.59005
# Velocity P-wave (km/s) = 5.87879 6.32335 6.10512
#
# Compressibility (1/GPa) = 0.02342184
#
# Stress axis : x y z
#
# Youngs Moduli (GPa) = 54.71906 118.73726 50.15391
#
# Poissons Ratio (x) = 0.53834 0.36692
# Poissons Ratio (y) = 0.24809 -0.01218
# Poissons Ratio (z) = 0.40032 -0.02883
#
# Static dielectric constant tensor:
#      x y z
#    x 1.851330 0.000000 0.017060 
#    y 0.000000 1.829140 0.000000 
#    z 0.017060 0.000000 1.953460 
# 
# From -- ./inp_files/10720.got.cif
#   From: 2010.05.17/outbox.cif.g08.bks.cpg/sg3_6_cif.got.tgz:10720.got - 2010.06.03 18:33:08.
