data_PCOD9114421
_publ_section_title
;
Structure prediction by ZEFSAII (Michael W. Deem and Ramdas Pophale) SiO2 
 PCOD9114421
Probable space group: P 2
;
_chemical_formula_sum "Si O2"
_cell_formula_units_Z 13
_cell_length_a 9.000000
_cell_length_b 9.000000
_cell_length_c 12.000000
_cell_angle_alpha 90.000000
_cell_angle_beta 40.000000
_cell_angle_gamma 90.000000
_cell_volume 624.789557
_symmetry_space_group_name_H-M "P 2"
_symmetry_group_IT_number 3
_symmetry_cell_setting 'monoclinic'
loop_
_space_group_symop_operation_xyz
x,y,z
-x,y,-z
loop_
_atom_site_type_symbol
_atom_site_label
_atom_site_fract_x
_atom_site_fract_y
_atom_site_fract_z
Si Si1 0.030455 0.636450 0.348645
Si Si2 0.847468 0.303158 0.733969
Si Si3 0.000000 0.039284 0.500000
Si Si4 0.500000 0.775044 0.000000
Si Si5 0.735711 0.719763 0.308927
Si Si6 0.471849 0.934795 0.778519
Si Si7 0.365341 0.269880 0.900089
Si Si8 0.000000 0.490628 0.000000
O O1 0.007336 0.456610 0.346904
O O2 0.000000 0.663209 0.500000
O O3 0.884578 0.735528 0.341302
O O4 0.291634 0.674643 0.163738
O O5 0.970485 0.154284 0.619580
O O6 0.627597 0.322778 0.776416
O O7 0.752369 0.265759 0.910669
O O8 0.755832 0.953094 0.618914
O O9 0.422862 0.865088 0.931279
O O10 0.500000 0.663107 0.500000
O O11 0.644288 0.841791 0.261986
O O12 0.888195 0.600172 0.155497
O O13 0.378849 0.105537 0.836969
O O14 0.208970 0.385969 0.922174
#
# Coordination Sequence:
#
# PCOD9114421 Si02
#       8
#     2   2   1   1   2   2   2   1
#     4  12  26  45  79 110 148 201 252 326 382 450
#     4  10  20  43  76 109 141 185 260 317 370 449
#     4  10  22  44  78 108 148 202 252 314 386 450
#     4  12  26  44  76 110 148 206 256 302 386 460
#     4  12  29  48  69 114 159 200 254 312 383 463
#     4  11  26  48  73 110 158 202 256 311 380 468
#     4  10  23  45  73 108 141 196 252 309 382 450
#     4  12  26  48  74 104 154 200 244 320 388 440
#
# _framework density 20.807006000000001
#
# number of rings (size 3 to 8) (size 9 to 14) (size 15 to 20)
#    0.000    0.923    2.308    4.615    7.538    1.846 
#    5.538    0.000    0.000    0.000    0.000    0.000 
#    0.000    0.000    0.000    0.000    0.000    0.000 
#
# Total GULP energy -72472.825929 kJ/mol
# GULP energy per Si atom -5574.832764 kJ/mol
# Density = 2.075965 g / cm^3
# Si number density = 20.807006 Si / 1000 Ang^3
#
#
#
# Elastic Constant Matrix: (Units=GPa)
#
#
# Indices 1 2 3 4 5 6 
#
# 1 130.9527 42.9179 34.1363 0.0000 16.4973 0.0000
# 2 42.9179 115.2327 33.4903 0.0000 7.2238 0.0000
# 3 34.1363 33.4903 131.8048 0.0000 12.7028 0.0000
# 4 0.0000 0.0000 0.0000 44.3575 0.0000 -4.4423
# 5 16.4973 7.2238 12.7028 0.0000 39.7310 0.0000
# 6 0.0000 0.0000 0.0000 -4.4423 0.0000 40.6567
#
#
#
# Elastic Compliance Matrix: (Units=1/GPa)
#
#
# Indices 1 2 3 4 5 6 
#
# 1 0.009310 -0.002879 -0.001401 0.000000 -0.002894 0.000000
# 2 -0.002879 0.010297 -0.001863 0.000000 -0.000081 0.000000
# 3 -0.001401 -0.001863 0.008599 0.000000 -0.001829 0.000000
# 4 0.000000 0.000000 0.000000 0.022793 0.000000 0.002490
# 5 -0.002894 -0.000081 -0.001829 0.000000 0.026971 0.000000
# 6 0.000000 0.000000 0.000000 0.002490 0.000000 0.024868
#
#
# Mechanical properties :
#
#
# Convention : Reuss Voigt Hill
#
# Bulk Modulus (GPa) = 62.81020 66.56436 64.68728
# Shear Modulus (GPa) = 41.51791 42.77874 42.14833
#
# Velocity S-wave (km/s) = 4.47182 4.53921 4.50564
# Velocity P-wave (km/s) = 7.54423 7.71578 7.63049
#
# Compressibility (1/GPa) = 0.01592098
#
# Stress axis : x y z
#
# Youngs Moduli (GPa) = 107.41628 97.11758 116.28753
#
# Poissons Ratio (x) = 0.27958 0.16288
# Poissons Ratio (y) = 0.30923 0.21663
# Poissons Ratio (z) = 0.15046 0.18092
#
# Static dielectric constant tensor:
#      x y z
#    x 1.800230 0.000000 -0.003980 
#    y 0.000000 1.786210 0.000000 
#    z -0.003980 0.000000 1.773890 
# 
# From -- ./inp_files/10665.got.cif
#   From: 2010.05.17/outbox.ucp.g08.bks.cvg/sg3_6_cif.got.tgz:10665.got - 2010.06.11 12:50:29.
