data_PCOD9114858
_publ_section_title
;
Structure prediction by ZEFSAII (Michael W. Deem and Ramdas Pophale) SiO2 
 PCOD9114858
Probable space group: P 21
;
_chemical_formula_sum "Si O2"
_cell_formula_units_Z 16
_cell_length_a 16.818176
_cell_length_b 11.130903
_cell_length_c 8.277766
_cell_angle_alpha 90.000000
_cell_angle_beta 155.044253
_cell_angle_gamma 90.000000
_cell_volume 653.808607
_symmetry_space_group_name_H-M "P 21"
_symmetry_group_IT_number 4
_symmetry_cell_setting 'monoclinic'
loop_
_space_group_symop_operation_xyz
x,y,z
-x,1/2+y,-z
loop_
_atom_site_type_symbol
_atom_site_label
_atom_site_fract_x
_atom_site_fract_y
_atom_site_fract_z
Si Si1 0.719358 0.544050 0.947574
Si Si2 0.840191 0.651022 0.676053
Si Si3 0.143803 0.924198 0.101132
Si Si4 0.488687 0.953315 0.177968
Si Si5 0.755924 0.784141 0.842620
Si Si6 0.287534 0.503830 0.042898
Si Si7 0.221994 0.660735 0.185395
Si Si8 0.713622 0.874305 0.300296
O O1 0.862597 0.480549 0.090537
O O2 0.709420 0.492544 0.110033
O O3 0.737900 0.685488 0.949614
O O4 0.512257 0.511659 0.493578
O O5 0.776868 0.523702 0.631328
O O6 0.862418 0.726567 0.886297
O O7 0.707480 0.729721 0.313592
O O8 0.031984 0.634201 0.932200
O O9 0.256803 0.800162 0.288563
O O10 0.928741 0.898806 0.757360
O O11 0.558860 0.832086 0.402040
O O12 0.549840 0.923069 0.111587
O O13 0.621223 0.068701 0.462999
O O14 0.821522 0.906487 0.046062
O O15 0.287077 0.446759 0.866404
O O16 0.208389 0.629995 0.967843
#
# Coordination Sequence:
#
# PCOD9114858 Si02
#       8
#     2   2   2   2   2   2   2   2
#     4   9  19  34  60  81 107 152 201 235 279 359
#     4   9  17  35  60  83 110 155 195 237 279 357
#     4  10  19  35  63  85 110 146 208 240 275 351
#     4   9  18  32  58  78 111 154 195 224 293 357
#     4   8  17  34  57  81 107 153 201 228 283 357
#     4  10  22  35  59  84 121 152 190 244 312 335
#     4   9  18  32  58  85 111 153 199 232 290 351
#     4  10  20  39  57  85 119 149 191 248 301 341
#
# _framework density 24.471995
#
# number of rings (size 3 to 8) (size 9 to 14) (size 15 to 20)
#    0.000    3.000    1.250    0.000    8.750    0.000 
#    9.000    3.750    0.000    0.000    0.000    0.000 
#    0.000    0.000    0.000    0.000    0.000    0.000 
#
# Total GULP energy -89127.494732 kJ/mol
# GULP energy per Si atom -5570.468421 kJ/mol
# Density = 2.441630 g / cm^3
# Si number density = 24.471995 Si / 1000 Ang^3
#
#
#
# Elastic Constant Matrix: (Units=GPa)
#
#
# Indices 1 2 3 4 5 6 
#
# 1 173.3435 57.4245 12.1621 0.0000 4.2388 0.0000
# 2 57.4245 141.2772 16.1820 0.0000 -4.9602 0.0000
# 3 12.1621 16.1820 31.5983 0.0000 4.4685 0.0000
# 4 0.0000 0.0000 0.0000 19.6572 0.0000 -4.3027
# 5 4.2388 -4.9602 4.4685 0.0000 18.7252 0.0000
# 6 0.0000 0.0000 0.0000 -4.3027 0.0000 60.1774
#
#
#
# Elastic Compliance Matrix: (Units=1/GPa)
#
#
# Indices 1 2 3 4 5 6 
#
# 1 0.006786 -0.002723 -0.000929 0.000000 -0.002036 0.000000
# 2 -0.002723 0.008780 -0.003999 0.000000 0.003897 0.000000
# 3 -0.000929 -0.003999 0.035367 0.000000 -0.009289 0.000000
# 4 0.000000 0.000000 0.000000 0.051681 0.000000 0.003695
# 5 -0.002036 0.003897 -0.009289 0.000000 0.057114 0.000000
# 6 0.000000 0.000000 0.000000 0.003695 0.000000 0.016882
#
#
# Mechanical properties :
#
#
# Convention : Reuss Voigt Hill
#
# Bulk Modulus (GPa) = 28.06717 57.52847 42.79782
# Shear Modulus (GPa) = 24.53518 37.07534 30.80526
#
# Velocity S-wave (km/s) = 3.16979 3.89654 3.55180
# Velocity P-wave (km/s) = 4.98907 6.61838 5.86062
#
# Compressibility (1/GPa) = 0.03562881
#
# Stress axis : x y z
#
# Youngs Moduli (GPa) = 147.36103 113.89371 28.27523
#
# Poissons Ratio (x) = 0.31017 0.02628
# Poissons Ratio (y) = 0.40131 0.11308
# Poissons Ratio (z) = 0.13696 0.45549
#
# Static dielectric constant tensor:
#      x y z
#    x 2.003220 0.000000 -0.077370 
#    y 0.000000 2.012440 0.000000 
#    z -0.077370 0.000000 2.016350 
# 
# From -- ./inp_files/8189.got.cif
#   From: 2010.05.17/outbox.cif.g08.bks.cpg/sg4_5_cif.got.tgz:8189.got - 2010.06.03 18:43:04.
