data_PCOD9114608
_publ_section_title
;
Structure prediction by ZEFSAII (Michael W. Deem and Ramdas Pophale) SiO2 
 PCOD9114608
Probable space group: P 21
;
_chemical_formula_sum "Si O2"
_cell_formula_units_Z 14
_cell_length_a 16.887027
_cell_length_b 8.405712
_cell_length_c 7.626220
_cell_angle_alpha 90.000000
_cell_angle_beta 148.740215
_cell_angle_gamma 90.000000
_cell_volume 561.741898
_symmetry_space_group_name_H-M "P 21"
_symmetry_group_IT_number 4
_symmetry_cell_setting 'monoclinic'
loop_
_space_group_symop_operation_xyz
x,y,z
-x,1/2+y,-z
loop_
_atom_site_type_symbol
_atom_site_label
_atom_site_fract_x
_atom_site_fract_y
_atom_site_fract_z
Si Si1 0.483922 0.936300 0.583089
Si Si2 0.273409 0.685230 0.093102
Si Si3 0.971143 0.651838 0.670206
Si Si4 0.247835 0.179127 0.306264
Si Si5 0.326157 0.518774 0.520597
Si Si6 0.043884 0.497838 0.173639
Si Si7 0.643427 0.650022 0.091109
O O1 0.372516 0.840682 0.237719
O O2 0.621856 0.043180 0.775396
O O3 0.366807 0.058922 0.448197
O O4 0.563438 0.802193 0.852737
O O5 0.280385 0.671982 0.319532
O O6 0.092140 0.661322 0.738191
O O7 0.799012 0.617897 0.279451
O O8 0.002063 0.522058 0.885540
O O9 0.976732 0.825657 0.777229
O O10 0.275173 0.362607 0.316037
O O11 0.292152 0.182915 0.595019
O O12 0.075713 0.116469 0.962756
O O13 0.225715 0.532568 0.507323
O O14 0.508386 0.523852 0.871234
#
# Coordination Sequence:
#
# PCOD9114608 Si02
#       7
#     2   2   2   2   2   2   2
#     4  11  22  40  62  90 123 167 206 261 305 378
#     4  10  22  39  63  85 123 166 211 246 309 378
#     4  10  20  39  60  91 126 160 207 261 309 377
#     4  11  20  35  60  90 120 158 207 261 313 359
#     4  10  20  36  57  88 122 159 206 258 307 373
#     4  10  18  34  59  89 118 161 203 258 311 363
#     4  10  22  37  59  89 128 157 204 261 318 360
#
# _framework density 24.922478000000002
#
# number of rings (size 3 to 8) (size 9 to 14) (size 15 to 20)
#    0.000    1.714    4.286    1.714    0.000    0.000 
#    0.000    4.286    0.000    0.000    0.000    0.000 
#    0.000    0.000    0.000    0.000    0.000    0.000 
#
# Total GULP energy -78022.873719 kJ/mol
# GULP energy per Si atom -5573.062408 kJ/mol
# Density = 2.486575 g / cm^3
# Si number density = 24.922478 Si / 1000 Ang^3
#
#
#
# Elastic Constant Matrix: (Units=GPa)
#
#
# Indices 1 2 3 4 5 6 
#
# 1 107.7294 49.0364 67.1841 0.0000 62.6866 0.0000
# 2 49.0364 107.2392 67.0507 0.0000 39.1613 0.0000
# 3 67.1841 67.0507 135.0088 0.0000 61.8383 0.0000
# 4 0.0000 0.0000 0.0000 42.4494 0.0000 16.3513
# 5 62.6866 39.1613 61.8383 0.0000 68.3179 0.0000
# 6 0.0000 0.0000 0.0000 16.3513 0.0000 46.8063
#
#
#
# Elastic Compliance Matrix: (Units=1/GPa)
#
#
# Indices 1 2 3 4 5 6 
#
# 1 0.020953 -0.002592 -0.001732 0.000000 -0.016172 0.000000
# 2 -0.002592 0.014180 -0.005328 0.000000 -0.000927 0.000000
# 3 -0.001732 -0.005328 0.015012 0.000000 -0.008945 0.000000
# 4 0.000000 0.000000 0.000000 0.027220 0.000000 -0.009509
# 5 -0.016172 -0.000927 -0.008945 0.000000 0.038105 0.000000
# 6 0.000000 0.000000 0.000000 -0.009509 0.000000 0.024687
#
#
# Mechanical properties :
#
#
# Convention : Reuss Voigt Hill
#
# Bulk Modulus (GPa) = 32.42438 79.61329 56.01883
# Shear Modulus (GPa) = 29.45670 42.62847 36.04259
#
# Velocity S-wave (km/s) = 3.44166 4.14024 3.80700
# Velocity P-wave (km/s) = 5.36951 7.40737 6.46919
#
# Compressibility (1/GPa) = 0.03084099
#
# Stress axis : x y z
#
# Youngs Moduli (GPa) = 47.72558 70.52174 66.61471
#
# Poissons Ratio (x) = 0.18282 0.11537
# Poissons Ratio (y) = 0.12373 0.35490
# Poissons Ratio (z) = 0.08266 0.37571
#
# Static dielectric constant tensor:
#      x y z
#    x 2.099160 0.000000 0.078680 
#    y 0.000000 2.022550 0.000000 
#    z 0.078680 0.000000 2.118800 
# 
# From -- ./inp_files/5374.got.cif
#   From: 2010.05.17/outbox.cif.g08.bks.cpg/sg4_3_cif.got.tgz:5374.got - 2010.06.03 18:43:04.
