data_PCOD9114186
_publ_section_title
;
Structure prediction by ZEFSAII (Michael W. Deem and Ramdas Pophale) SiO2 
 PCOD9114186
Probable space group: P 2
;
_chemical_formula_sum "Si O2"
_cell_formula_units_Z 15
_cell_length_a 22.644445
_cell_length_b 5.419925
_cell_length_c 11.525411
_cell_angle_alpha 90.000000
_cell_angle_beta 151.694419
_cell_angle_gamma 90.000000
_cell_volume 670.732098
_symmetry_space_group_name_H-M "P 2"
_symmetry_group_IT_number 3
_symmetry_cell_setting 'monoclinic'
loop_
_space_group_symop_operation_xyz
x,y,z
-x,y,-z
loop_
_atom_site_type_symbol
_atom_site_label
_atom_site_fract_x
_atom_site_fract_y
_atom_site_fract_z
Si Si1 0.549045 0.520890 0.896267
Si Si2 0.991749 0.921289 0.736098
Si Si3 0.068826 0.418530 0.998131
Si Si4 0.726240 0.839226 0.349573
Si Si5 0.366406 0.381424 0.205947
Si Si6 0.500000 0.187467 0.000000
Si Si7 0.706006 0.728118 0.580935
Si Si8 0.764629 0.885945 0.936047
O O1 0.606099 0.399541 0.882578
O O2 0.444369 0.720504 0.680066
O O3 0.659326 0.608799 0.171758
O O4 0.463423 0.347506 0.826768
O O5 0.016649 0.677797 0.858130
O O6 0.843070 0.922483 0.475696
O O7 0.033713 0.184348 0.860412
O O8 0.085610 0.881374 0.791615
O O9 0.216538 0.473604 0.263444
O O10 0.000000 0.374683 0.000000
O O11 0.753174 0.806392 0.534002
O O12 0.615975 0.033876 0.158712
O O13 0.500000 0.378072 0.500000
O O14 0.295393 0.632310 0.121059
O O15 0.293844 0.131588 0.111606
O O16 0.740007 0.885557 0.753831
#
# Coordination Sequence:
#
# PCOD9114186 Si02
#       8
#     2   2   2   2   2   1   2   2
#     4  12  27  47  69 111 147 199 248 311 385 455
#     4  11  26  44  71 104 148 193 242 304 376 448
#     4  11  23  39  65 106 146 188 231 300 369 448
#     4  12  26  45  70 111 153 201 241 312 385 464
#     4  12  27  47  76 107 143 191 253 317 370 437
#     4  12  26  42  74 106 146 198 252 308 386 460
#     4  11  22  45  68 110 151 182 246 308 380 451
#     4  11  26  47  73 109 141 192 247 313 370 440
#
# _framework density 22.363623
#
# number of rings (size 3 to 8) (size 9 to 14) (size 15 to 20)
#    0.000    0.533    5.333    2.400    9.333    0.000 
#    0.000    0.667    0.000    0.000    0.000    0.000 
#    0.000    0.000    0.000    0.000    0.000    0.000 
#
# Total GULP energy -83770.546406 kJ/mol
# GULP energy per Si atom -5584.703094 kJ/mol
# Density = 2.231272 g / cm^3
# Si number density = 22.363623 Si / 1000 Ang^3
#
#
#
# Elastic Constant Matrix: (Units=GPa)
#
#
# Indices 1 2 3 4 5 6 
#
# 1 135.0119 35.5754 40.7034 0.0000 18.5525 0.0000
# 2 35.5754 93.4958 28.8520 0.0000 8.6635 0.0000
# 3 40.7034 28.8520 89.6755 0.0000 34.0187 0.0000
# 4 0.0000 0.0000 0.0000 -8.9573 0.0000 7.4634
# 5 18.5525 8.6635 34.0187 0.0000 47.5382 0.0000
# 6 0.0000 0.0000 0.0000 7.4634 0.0000 34.4698
#
#
#
# Elastic Compliance Matrix: (Units=1/GPa)
#
#
# Indices 1 2 3 4 5 6 
#
# 1 0.009080 -0.002450 -0.002962 0.000000 -0.000977 0.000000
# 2 -0.002450 0.012557 -0.003325 0.000000 0.001047 0.000000
# 3 -0.002962 -0.003325 0.017703 0.000000 -0.010906 0.000000
# 4 0.000000 0.000000 0.000000 -0.094578 0.000000 0.020478
# 5 -0.000977 0.001047 -0.010906 0.000000 0.029031 0.000000
# 6 0.000000 0.000000 0.000000 0.020478 0.000000 0.024577
#
#
# Mechanical properties :
#
#
# Convention : Reuss Voigt Hill
#
# Bulk Modulus (GPa) = 45.73626 58.71609 52.22618
# Shear Modulus (GPa) = 216.13873 28.81364 122.47618
#
# Velocity S-wave (km/s) = 9.84161 3.59334 7.40842
# Velocity P-wave (km/s) = 12.23269 6.59760 9.82769
#
# Compressibility (1/GPa) = 0.02186449
#
# Stress axis : x y z
#
# Youngs Moduli (GPa) = 110.13572 79.63639 56.48729
#
# Poissons Ratio (x) = 0.19512 0.16733
# Poissons Ratio (y) = 0.26985 0.18784
# Poissons Ratio (z) = 0.32625 0.26481
#
# Static dielectric constant tensor:
#      x y z
#    x 1.824420 0.000000 -0.029590 
#    y 0.000000 1.861270 0.000000 
#    z -0.029590 0.000000 2.360880 
# 
# From -- ./inp_files/12627.got.cif
#   From: 2010.05.17/outbox.cif.g08.bks.cpg/sg3_7_cif.got.tgz:12627.got - 2010.06.03 18:33:08.
