data_PCOD9114047
_publ_section_title
;
Structure prediction by ZEFSAII (Michael W. Deem and Ramdas Pophale) SiO2 
 PCOD9114047
Probable space group: P 2
;
_chemical_formula_sum "Si O2"
_cell_formula_units_Z 11
_cell_length_a 17.355804
_cell_length_b 5.294979
_cell_length_c 18.249581
_cell_angle_alpha 90.000000
_cell_angle_beta 164.306567
_cell_angle_gamma 90.000000
_cell_volume 453.642002
_symmetry_space_group_name_H-M "P 2"
_symmetry_group_IT_number 3
_symmetry_cell_setting 'monoclinic'
loop_
_space_group_symop_operation_xyz
x,y,z
-x,y,-z
loop_
_atom_site_type_symbol
_atom_site_label
_atom_site_fract_x
_atom_site_fract_y
_atom_site_fract_z
Si Si1 0.217849 0.581750 0.133796
Si Si2 0.792344 0.400246 0.629041
Si Si3 0.000208 0.519233 0.579654
Si Si4 0.424576 0.898284 0.634872
Si Si5 0.500000 0.128046 0.000000
Si Si6 0.550097 0.767662 0.911201
O O1 0.067829 0.425096 0.931174
O O2 0.000000 0.617134 0.000000
O O3 0.509477 0.438050 0.420229
O O4 0.321698 0.843590 0.191485
O O5 0.764999 0.648205 0.553485
O O6 0.750186 0.146961 0.544957
O O7 0.216823 0.289583 0.761084
O O8 0.000000 0.650327 0.500000
O O9 0.665129 0.525991 0.290384
O O10 0.155039 0.673949 0.784953
O O11 0.544011 0.892049 0.826107
O O12 0.448839 0.963662 0.880533
#
# Coordination Sequence:
#
# PCOD9114047 Si02
#       6
#     2   2   2   2   1   2
#     4  10  24  48  75 112 146 200 242 304 361 448
#     4  10  25  45  73 105 151 191 246 298 370 434
#     4  12  25  46  67 103 137 183 250 300 358 438
#     4  10  28  48  73 111 152 192 246 305 372 439
#     4  12  26  46  76  96 146 192 248 300 376 426
#     4  12  28  46  72 106 145 191 245 308 366 439
#
# _framework density 24.248194999999999
#
# number of rings (size 3 to 8) (size 9 to 14) (size 15 to 20)
#    1.091    0.000    3.636    0.545   10.182    0.727 
#    3.273    0.000    0.000    0.000    0.000    0.000 
#    0.000    0.000    0.000    0.000    0.000    0.000 
#
# Total GULP energy -61391.954861 kJ/mol
# GULP energy per Si atom -5581.086806 kJ/mol
# Density = 2.419301 g / cm^3
# Si number density = 24.248195 Si / 1000 Ang^3
#
#
#
# Elastic Constant Matrix: (Units=GPa)
#
#
# Indices 1 2 3 4 5 6 
#
# 1 86.1452 30.3049 -1.8617 0.0000 -14.6952 0.0000
# 2 30.3049 134.6513 29.9975 0.0000 -9.9656 0.0000
# 3 -1.8617 29.9975 114.2231 0.0000 -12.3049 0.0000
# 4 0.0000 0.0000 0.0000 9.2839 0.0000 -20.6152
# 5 -14.6952 -9.9656 -12.3049 0.0000 41.6267 0.0000
# 6 0.0000 0.0000 0.0000 -20.6152 0.0000 2.2648
#
#
#
# Elastic Compliance Matrix: (Units=1/GPa)
#
#
# Indices 1 2 3 4 5 6 
#
# 1 0.013471 -0.003035 0.001498 0.000000 0.004472 0.000000
# 2 -0.003035 0.008642 -0.002284 0.000000 0.000322 0.000000
# 3 0.001498 -0.002284 0.009686 0.000000 0.002845 0.000000
# 4 0.000000 0.000000 0.000000 -0.005607 0.000000 -0.051033
# 5 0.004472 0.000322 0.002845 0.000000 0.026520 0.000000
# 6 0.000000 0.000000 0.000000 -0.051033 0.000000 -0.022982
#
#
# Mechanical properties :
#
#
# Convention : Reuss Voigt Hill
#
# Bulk Modulus (GPa) = 41.39488 50.21120 45.80304
# Shear Modulus (GPa) = 110.07320 29.07367 69.57344
#
# Velocity S-wave (km/s) = 6.74485 3.46642 5.36232
# Velocity P-wave (km/s) = 8.81848 6.06412 7.56767
#
# Compressibility (1/GPa) = 0.02415758
#
# Stress axis : x y z
#
# Youngs Moduli (GPa) = 74.23298 115.70924 103.24559
#
# Poissons Ratio (x) = 0.35114 -0.15469
# Poissons Ratio (y) = 0.22527 0.23585
# Poissons Ratio (z) = -0.11122 0.26433
#
# Static dielectric constant tensor:
#      x y z
#    x 1.939730 0.000000 0.063010 
#    y 0.000000 1.971670 0.000000 
#    z 0.063010 0.000000 1.937420 
# 
# From -- ./inp_files/15431.got.cif
#   From: 2010.05.17/outbox.cif.g08.bks.cpg/sg3_8_cif.got.tgz:15431.got - 2010.06.03 18:33:08.
