data_PCOD9114811
_publ_section_title
;
Structure prediction by ZEFSAII (Michael W. Deem and Ramdas Pophale) SiO2 
 PCOD9114811
Probable space group: P 21
;
_chemical_formula_sum "Si O2"
_cell_formula_units_Z 16
_cell_length_a 19.944176
_cell_length_b 8.128702
_cell_length_c 9.947741
_cell_angle_alpha 90.000000
_cell_angle_beta 150.225537
_cell_angle_gamma 90.000000
_cell_volume 800.861180
_symmetry_space_group_name_H-M "P 21"
_symmetry_group_IT_number 4
_symmetry_cell_setting 'monoclinic'
loop_
_space_group_symop_operation_xyz
x,y,z
-x,1/2+y,-z
loop_
_atom_site_type_symbol
_atom_site_label
_atom_site_fract_x
_atom_site_fract_y
_atom_site_fract_z
Si Si1 0.927679 0.507670 0.055174
Si Si2 0.655351 0.051281 0.066904
Si Si3 0.078119 0.634961 0.062005
Si Si4 0.075539 0.008522 0.448326
Si Si5 0.646793 0.186171 0.344756
Si Si6 0.928008 0.146482 0.437977
Si Si7 0.341576 0.181735 0.816496
Si Si8 0.350579 0.060908 0.545632
O O1 0.993102 0.539518 0.312768
O O2 0.006576 0.613372 0.080634
O O3 0.940068 0.318307 0.029243
O O4 0.770637 0.558913 0.770837
O O5 0.501787 0.084669 0.754326
O O6 0.495430 0.121636 0.106060
O O7 0.667788 0.863131 0.138000
O O8 0.677911 0.157370 0.242066
O O9 0.236342 0.605755 0.362942
O O10 0.006979 0.513977 0.833914
O O11 0.071709 0.831127 0.507918
O O12 0.001645 0.127996 0.424996
O O13 0.226050 0.069817 0.678671
O O14 0.649381 0.379758 0.384253
O O15 0.227319 0.588359 0.833857
O O16 0.322929 0.183134 0.622293
#
# Coordination Sequence:
#
# PCOD9114811 Si02
#       8
#     2   2   2   2   2   2   2   2
#     4  11  21  36  59  89 119 151 192 239 285 339
#     4  10  19  34  57  85 116 151 190 235 287 342
#     4  11  21  36  59  89 119 151 192 239 285 339
#     4  12  25  41  59  83 116 155 196 240 291 349
#     4   9  19  34  56  86 118 149 188 236 285 339
#     4  12  25  41  59  83 116 155 196 240 291 349
#     4  10  19  34  57  85 116 151 190 235 287 342
#     4   9  19  34  56  86 118 149 188 236 285 339
#
# _framework density 19.978493
#
# number of rings (size 3 to 8) (size 9 to 14) (size 15 to 20)
#    0.000    1.500    2.500    3.750    0.000    2.000 
#    0.000    1.250    0.000    0.000    0.000    0.000 
#    0.000    0.000    0.000    0.000    0.000    0.000 
#
# Total GULP energy -89436.091919 kJ/mol
# GULP energy per Si atom -5589.755745 kJ/mol
# Density = 1.993302 g / cm^3
# Si number density = 19.978493 Si / 1000 Ang^3
#
#
#
# Elastic Constant Matrix: (Units=GPa)
#
#
# Indices 1 2 3 4 5 6 
#
# 1 84.1101 7.2238 44.9963 0.0000 17.6458 0.0000
# 2 7.2238 42.2212 7.7247 0.0000 10.4381 0.0000
# 3 44.9963 7.7247 72.9469 0.0000 25.8892 0.0000
# 4 0.0000 0.0000 0.0000 18.2982 0.0000 -7.3191
# 5 17.6458 10.4381 25.8892 0.0000 30.6279 0.0000
# 6 0.0000 0.0000 0.0000 -7.3191 0.0000 23.5281
#
#
#
# Elastic Compliance Matrix: (Units=1/GPa)
#
#
# Indices 1 2 3 4 5 6 
#
# 1 0.017814 -0.000856 -0.010513 0.000000 -0.001086 0.000000
# 2 -0.000856 0.025921 0.001062 0.000000 -0.009238 0.000000
# 3 -0.010513 0.001062 0.025799 0.000000 -0.016113 0.000000
# 4 0.000000 0.000000 0.000000 0.062417 0.000000 0.019416
# 5 -0.001086 -0.009238 -0.016113 0.000000 0.050044 0.000000
# 6 0.000000 0.000000 0.000000 0.019416 0.000000 0.048542
#
#
# Mechanical properties :
#
#
# Convention : Reuss Voigt Hill
#
# Bulk Modulus (GPa) = 20.44117 35.46307 27.95212
# Shear Modulus (GPa) = 18.69454 23.77976 21.23715
#
# Velocity S-wave (km/s) = 3.06229 3.45377 3.26391
# Velocity P-wave (km/s) = 4.77046 5.80464 5.31278
#
# Compressibility (1/GPa) = 0.04892089
#
# Stress axis : x y z
#
# Youngs Moduli (GPa) = 56.13444 38.57887 38.76082
#
# Poissons Ratio (x) = 0.03303 0.40748
# Poissons Ratio (y) = 0.04806 -0.04116
# Poissons Ratio (z) = 0.59012 -0.04097
#
# Static dielectric constant tensor:
#      x y z
#    x 1.671630 0.000000 0.032880 
#    y 0.000000 1.736370 0.000000 
#    z 0.032880 0.000000 1.705260 
# 
# From -- ./inp_files/9576.got.cif
#   From: 2010.05.17/outbox.cif.g08.bks.cpg/sg4_5_cif.got.tgz:9576.got - 2010.06.03 18:43:04.
