data_PCOD9114814
_publ_section_title
;
Structure prediction by ZEFSAII (Michael W. Deem and Ramdas Pophale) SiO2 
 PCOD9114814
Probable space group: P 21
;
_chemical_formula_sum "Si O2"
_cell_formula_units_Z 16
_cell_length_a 15.912596
_cell_length_b 5.125863
_cell_length_c 20.913928
_cell_angle_alpha 90.000000
_cell_angle_beta 151.329210
_cell_angle_gamma 90.000000
_cell_volume 818.431604
_symmetry_space_group_name_H-M "P 21"
_symmetry_group_IT_number 4
_symmetry_cell_setting 'monoclinic'
loop_
_space_group_symop_operation_xyz
x,y,z
-x,1/2+y,-z
loop_
_atom_site_type_symbol
_atom_site_label
_atom_site_fract_x
_atom_site_fract_y
_atom_site_fract_z
Si Si1 0.980156 0.986890 0.301740
Si Si2 0.998059 0.548209 0.085355
Si Si3 0.210549 0.548045 0.102280
Si Si4 0.982974 0.490629 0.221327
Si Si5 0.590599 0.882357 0.079208
Si Si6 0.586601 0.413575 0.914262
Si Si7 0.919125 0.491501 0.482056
Si Si8 0.495193 0.915371 0.783045
O O1 0.037810 0.728679 0.302904
O O2 0.770298 0.965089 0.167992
O O3 0.028674 0.230442 0.290184
O O4 0.038389 0.007019 0.414072
O O5 0.863148 0.319028 0.975064
O O6 0.898752 0.821201 0.007103
O O7 0.051517 0.513039 0.194560
O O8 0.155785 0.534369 0.139733
O O9 0.414129 0.498863 0.222931
O O10 0.771586 0.488334 0.069063
O O11 0.570461 0.946076 0.140150
O O12 0.553197 0.575443 0.047742
O O13 0.543159 0.617667 0.829820
O O14 0.592214 0.114415 0.896337
O O15 0.708826 0.462330 0.341430
O O16 0.011875 0.244228 0.510149
#
# Coordination Sequence:
#
# PCOD9114814 Si02
#       8
#     2   2   2   2   2   2   2   2
#     4  12  24  39  57  82 115 157 196 235 301 348
#     4  10  20  33  56  90 127 147 181 240 302 356
#     4  10  19  34  57  89 120 155 188 232 295 357
#     4  12  21  37  58  87 123 147 184 240 304 361
#     4  12  21  32  48  76 109 138 176 229 280 343
#     4  12  22  35  57  90 114 151 189 241 301 341
#     4  12  27  47  62  82 116 163 210 250 277 334
#     4  12  22  39  63  82 116 156 202 241 282 348
#
# _framework density 19.549588
#
# number of rings (size 3 to 8) (size 9 to 14) (size 15 to 20)
#    0.000    0.500    5.000    5.250    0.000    0.000 
#    0.000    0.000    0.000    1.500    0.000    0.000 
#    0.000    0.000    0.000    0.000    0.000    0.000 
#
# Total GULP energy -89371.317786 kJ/mol
# GULP energy per Si atom -5585.707362 kJ/mol
# Density = 1.950509 g / cm^3
# Si number density = 19.549588 Si / 1000 Ang^3
#
#
#
# Elastic Constant Matrix: (Units=GPa)
#
#
# Indices 1 2 3 4 5 6 
#
# 1 133.8338 25.3063 18.8163 0.0000 -11.3297 0.0000
# 2 25.3063 111.0776 10.6188 0.0000 -8.6181 0.0000
# 3 18.8163 10.6188 46.0763 0.0000 -10.2203 0.0000
# 4 0.0000 0.0000 0.0000 14.0170 0.0000 -7.2799
# 5 -11.3297 -8.6181 -10.2203 0.0000 38.6834 0.0000
# 6 0.0000 0.0000 0.0000 -7.2799 0.0000 32.3130
#
#
#
# Elastic Compliance Matrix: (Units=1/GPa)
#
#
# Indices 1 2 3 4 5 6 
#
# 1 0.008256 -0.001515 -0.002720 0.000000 0.001362 0.000000
# 2 -0.001515 0.009576 -0.001289 0.000000 0.001349 0.000000
# 3 -0.002720 -0.001289 0.024294 0.000000 0.005335 0.000000
# 4 0.000000 0.000000 0.000000 0.080796 0.000000 0.018203
# 5 0.001362 0.001349 0.005335 0.000000 0.027960 0.000000
# 6 0.000000 0.000000 0.000000 0.018203 0.000000 0.035048
#
#
# Mechanical properties :
#
#
# Convention : Reuss Voigt Hill
#
# Bulk Modulus (GPa) = 32.17754 44.49672 38.33713
# Shear Modulus (GPa) = 24.11522 32.75245 28.43383
#
# Velocity S-wave (km/s) = 3.51599 4.09755 3.81786
# Velocity P-wave (km/s) = 5.74266 6.72286 6.25200
#
# Compressibility (1/GPa) = 0.03107758
#
# Stress axis : x y z
#
# Youngs Moduli (GPa) = 121.12086 104.42993 41.16174
#
# Poissons Ratio (x) = 0.15824 0.11197
# Poissons Ratio (y) = 0.18353 0.05305
# Poissons Ratio (z) = 0.32949 0.13459
#
# Static dielectric constant tensor:
#      x y z
#    x 1.734780 0.000000 -0.005540 
#    y 0.000000 1.689910 0.000000 
#    z -0.005540 0.000000 1.680870 
# 
# From -- ./inp_files/15209.got.cif
#   From: 2010.05.17/outbox.cif.g08.bks.cpg/sg4_8_cif.got.tgz:15209.got - 2010.06.03 18:43:04.
