data_PCOD9114437
_publ_section_title
;
Structure prediction by ZEFSAII (Michael W. Deem and Ramdas Pophale) SiO2 
 PCOD9114437
Probable space group: P 21
;
_chemical_formula_sum "Si O2"
_cell_formula_units_Z 12
_cell_length_a 14.972677
_cell_length_b 5.070265
_cell_length_c 6.839073
_cell_angle_alpha 90.000000
_cell_angle_beta 64.829880
_cell_angle_gamma 90.000000
_cell_volume 469.893497
_symmetry_space_group_name_H-M "P 21"
_symmetry_group_IT_number 4
_symmetry_cell_setting 'monoclinic'
loop_
_space_group_symop_operation_xyz
x,y,z
-x,1/2+y,-z
loop_
_atom_site_type_symbol
_atom_site_label
_atom_site_fract_x
_atom_site_fract_y
_atom_site_fract_z
Si Si1 0.868610 0.012810 0.000005
Si Si2 0.762530 0.510418 0.178722
Si Si3 0.038345 0.906486 0.581261
Si Si4 0.561180 0.072645 0.977429
Si Si5 0.440433 0.787757 0.595142
Si Si6 0.760845 0.287139 0.766266
O O1 0.814595 0.054751 0.839824
O O2 0.843299 0.283787 0.126977
O O3 0.187225 0.287065 0.830618
O O4 0.980673 0.969415 0.834638
O O5 0.660866 0.428370 0.375462
O O6 0.740666 0.494895 0.962124
O O7 0.156756 0.895964 0.456099
O O8 0.995002 0.628394 0.544973
O O9 0.659653 0.171234 0.778973
O O10 0.471896 0.274310 0.017866
O O11 0.583374 0.130602 0.183913
O O12 0.488686 0.542469 0.432373
#
# Coordination Sequence:
#
# PCOD9114437 Si02
#       6
#     2   2   2   2   2   2
#     4   9  15  26  43  68 102 132 163 206 278 323
#     4   9  17  27  45  67  99 129 163 212 271 305
#     4  10  15  24  41  69  97 138 161 207 266 337
#     4  11  24  37  55  79 113 150 184 219 273 328
#     4  11  22  37  57  77 106 144 190 232 268 311
#     4   8  19  27  47  66 105 139 167 212 264 324
#
# _framework density 25.537704000000002
#
# number of rings (size 3 to 8) (size 9 to 14) (size 15 to 20)
#    1.000    1.333    1.667    2.000    4.667    0.000 
#    0.000    0.000    0.000    0.000    0.000    0.000 
#    0.000   26.667    0.000    0.000    0.000    0.000 
#
# Total GULP energy -67003.513019 kJ/mol
# GULP energy per Si atom -5583.626085 kJ/mol
# Density = 2.547958 g / cm^3
# Si number density = 25.537704 Si / 1000 Ang^3
#
#
#
# Elastic Constant Matrix: (Units=GPa)
#
#
# Indices 1 2 3 4 5 6 
#
# 1 67.6321 0.7857 29.0556 0.0000 -30.1472 0.0000
# 2 0.7857 77.7759 -0.8130 0.0000 -0.1579 0.0000
# 3 29.0556 -0.8130 94.3977 0.0000 -22.9471 0.0000
# 4 0.0000 0.0000 0.0000 25.6711 0.0000 -7.6311
# 5 -30.1472 -0.1579 -22.9471 0.0000 40.7090 0.0000
# 6 0.0000 0.0000 0.0000 -7.6311 0.0000 22.1367
#
#
#
# Elastic Compliance Matrix: (Units=1/GPa)
#
#
# Indices 1 2 3 4 5 6 
#
# 1 0.022982 -0.000237 -0.003406 0.000000 0.015099 0.000000
# 2 -0.000237 0.012862 0.000178 0.000000 -0.000026 0.000000
# 3 -0.003406 0.000178 0.012782 0.000000 0.004684 0.000000
# 4 0.000000 0.000000 0.000000 0.043402 0.000000 0.014962
# 5 0.015099 -0.000026 0.004684 0.000000 0.038386 0.000000
# 6 0.000000 0.000000 0.000000 0.014962 0.000000 0.050332
#
#
# Mechanical properties :
#
#
# Convention : Reuss Voigt Hill
#
# Bulk Modulus (GPa) = 23.98357 33.09582 28.53969
# Shear Modulus (GPa) = 24.80478 31.75516 28.27997
#
# Velocity S-wave (km/s) = 3.11995 3.53010 3.33134
# Velocity P-wave (km/s) = 4.73187 5.44088 5.09872
#
# Compressibility (1/GPa) = 0.04169522
#
# Stress axis : x y z
#
# Youngs Moduli (GPa) = 43.51216 77.75049 78.23640
#
# Poissons Ratio (x) = 0.01844 0.26644
# Poissons Ratio (y) = 0.01032 -0.01389
# Poissons Ratio (z) = 0.14818 -0.01380
#
# Static dielectric constant tensor:
#      x y z
#    x 2.089320 0.000000 0.052000 
#    y 0.000000 1.942640 0.000000 
#    z 0.052000 0.000000 2.095010 
# 
# From -- ./inp_files/8558.got.cif
#   From: 2010.05.17/outbox.cif.g08.bks.cpg/sg4_5_cif.got.tgz:8558.got - 2010.06.03 18:43:04.
