data_PCOD9114249
_publ_section_title
;
Structure prediction by ZEFSAII (Michael W. Deem and Ramdas Pophale) SiO2 
 PCOD9114249
Probable space group: P 2
;
_chemical_formula_sum "Si O2"
_cell_formula_units_Z 14
_cell_length_a 5.745300
_cell_length_b 5.156008
_cell_length_c 20.377192
_cell_angle_alpha 90.000000
_cell_angle_beta 74.361119
_cell_angle_gamma 90.000000
_cell_volume 581.283283
_symmetry_space_group_name_H-M "P 2"
_symmetry_group_IT_number 3
_symmetry_cell_setting 'monoclinic'
loop_
_space_group_symop_operation_xyz
x,y,z
-x,y,-z
loop_
_atom_site_type_symbol
_atom_site_label
_atom_site_fract_x
_atom_site_fract_y
_atom_site_fract_z
Si Si1 0.936849 0.078360 0.930171
Si Si2 0.000000 0.386864 0.500000
Si Si3 0.680443 0.918322 0.207657
Si Si4 0.500000 0.108994 0.500000
Si Si5 0.888091 0.614651 0.650315
Si Si6 0.312262 0.580505 0.070786
Si Si7 0.614537 0.872587 0.349827
Si Si8 0.411677 0.406688 0.211129
O O1 0.911319 0.387905 0.927488
O O2 0.119489 0.979397 0.860937
O O3 0.712362 0.889422 0.932558
O O4 0.000000 0.012509 0.000000
O O5 0.247789 0.247280 0.502007
O O6 0.075084 0.525944 0.427213
O O7 0.463478 0.103004 0.201267
O O8 0.723650 0.023949 0.278490
O O9 0.624528 0.611428 0.215823
O O10 0.561581 0.972647 0.426625
O O11 0.654664 0.804173 0.657355
O O12 0.785458 0.436648 0.716578
O O13 0.157544 0.686183 0.653152
O O14 0.361853 0.508913 0.142077
O O15 0.500000 0.498913 0.000000
#
# Coordination Sequence:
#
# PCOD9114249 Si02
#       8
#     2   1   2   1   2   2   2   2
#     4  12  24  41  65  95 133 179 231 290 353 420
#     4  12  24  40  66 100 138 184 236 294 356 422
#     4  11  24  44  68  99 136 178 230 289 352 420
#     4  12  24  40  66 100 138 184 236 294 356 422
#     4  11  24  44  68  98 138 186 236 291 354 422
#     4  12  24  41  65  95 133 179 231 290 353 420
#     4  11  24  44  68  98 138 186 236 291 354 422
#     4  11  24  44  68  99 136 178 230 289 352 420
#
# _framework density 24.084644000000001
#
# number of rings (size 3 to 8) (size 9 to 14) (size 15 to 20)
#    0.000    0.571    0.000    8.571    0.000    5.714 
#    0.000    0.000    0.000    0.000    0.000    0.000 
#    0.000    0.000    0.000    0.000    0.000    0.000 
#
# Total GULP energy -77980.736590 kJ/mol
# GULP energy per Si atom -5570.052614 kJ/mol
# Density = 2.402983 g / cm^3
# Si number density = 24.084644 Si / 1000 Ang^3
#
#
#
# Elastic Constant Matrix: (Units=GPa)
#
#
# Indices 1 2 3 4 5 6 
#
# 1 71.2259 23.2719 26.9809 0.0000 -15.3357 0.0000
# 2 23.2719 58.6387 17.9995 0.0000 -3.9825 0.0000
# 3 26.9809 17.9995 231.4328 0.0000 -18.5386 0.0000
# 4 0.0000 0.0000 0.0000 55.6380 0.0000 -1.9752
# 5 -15.3357 -3.9825 -18.5386 0.0000 59.4677 0.0000
# 6 0.0000 0.0000 0.0000 -1.9752 0.0000 37.7622
#
#
#
# Elastic Compliance Matrix: (Units=1/GPa)
#
#
# Indices 1 2 3 4 5 6 
#
# 1 0.017343 -0.006253 -0.001242 0.000000 0.003666 0.000000
# 2 -0.006253 0.019759 -0.000852 0.000000 -0.000555 0.000000
# 3 -0.001242 -0.000852 0.004617 0.000000 0.001062 0.000000
# 4 0.000000 0.000000 0.000000 0.018007 0.000000 0.000942
# 5 0.003666 -0.000555 0.001062 0.000000 0.018055 0.000000
# 6 0.000000 0.000000 0.000000 0.000942 0.000000 0.026531
#
#
# Mechanical properties :
#
#
# Convention : Reuss Voigt Hill
#
# Bulk Modulus (GPa) = 39.95956 55.31135 47.63546
# Shear Modulus (GPa) = 38.65585 50.10991 44.38288
#
# Velocity S-wave (km/s) = 4.01059 4.56628 4.29743
# Velocity P-wave (km/s) = 6.17040 7.12857 6.66672
#
# Compressibility (1/GPa) = 0.02502530
#
# Stress axis : x y z
#
# Youngs Moduli (GPa) = 57.66148 50.60997 216.58906
#
# Poissons Ratio (x) = 0.31644 0.26897
# Poissons Ratio (y) = 0.36053 0.18459
# Poissons Ratio (z) = 0.07161 0.04313
#
# Static dielectric constant tensor:
#      x y z
#    x 1.600540 0.000000 1.119380 
#    y 0.000000 2.016780 0.000000 
#    z 1.119380 0.000000 -0.885680 
# 
# From -- ./inp_files/3574.got.cif
#   From: 2010.05.17/outbox.cif.g08.bks.cpg/sg3_2_cif.got.tgz:3574.got - 2010.06.03 18:33:08.
