data_PCOD9114236
_publ_section_title
;
Structure prediction by ZEFSAII (Michael W. Deem and Ramdas Pophale) SiO2 
 PCOD9114236
Probable space group: P 2
;
_chemical_formula_sum "Si O2"
_cell_formula_units_Z 13
_cell_length_a 10.356739
_cell_length_b 5.111856
_cell_length_c 15.022425
_cell_angle_alpha 90.000000
_cell_angle_beta 137.097015
_cell_angle_gamma 90.000000
_cell_volume 541.421004
_symmetry_space_group_name_H-M "P 2"
_symmetry_group_IT_number 3
_symmetry_cell_setting 'monoclinic'
loop_
_space_group_symop_operation_xyz
x,y,z
-x,y,-z
loop_
_atom_site_type_symbol
_atom_site_label
_atom_site_fract_x
_atom_site_fract_y
_atom_site_fract_z
Si Si1 0.698772 0.357220 0.263484
Si Si2 0.319905 0.968449 0.262968
Si Si3 0.952652 0.119696 0.185834
Si Si4 0.029444 0.610208 0.340592
Si Si5 0.500000 0.572914 0.000000
Si Si6 0.392598 0.968728 0.095923
Si Si7 0.444965 0.487141 0.618457
O O1 0.589807 0.487711 0.291536
O O2 0.906832 0.481280 0.360127
O O3 0.609968 0.064914 0.224241
O O4 0.635639 0.410949 0.130667
O O5 0.119863 0.031411 0.204596
O O6 0.306077 0.936455 0.149408
O O7 0.399171 0.691803 0.334445
O O8 0.474575 0.197596 0.361272
O O9 0.959709 0.895265 0.268863
O O10 0.009050 0.398971 0.252495
O O11 0.758346 0.151343 0.031900
O O12 0.247435 0.588904 0.479552
O O13 0.597490 0.744782 0.972864
#
# Coordination Sequence:
#
# PCOD9114236 Si02
#       7
#     2   2   2   2   1   2   2
#     4  11  24  42  68 102 137 171 223 281 350 399
#     4  11  25  46  69  99 138 182 227 282 336 398
#     4  12  26  44  70 101 137 182 230 277 336 407
#     4  12  26  44  70 101 137 182 230 277 336 407
#     4  12  18  40  68  94 132 164 214 276 342 396
#     4  11  24  42  68 102 137 171 223 281 350 399
#     4  11  25  46  69  99 138 182 227 282 336 398
#
# _framework density 24.010888000000001
#
# number of rings (size 3 to 8) (size 9 to 14) (size 15 to 20)
#    0.000    0.615    3.077    5.077    0.000    3.692 
#    0.000    6.154    0.000    0.000    0.000    0.000 
#    0.000    0.000    0.000    0.000    0.000    0.000 
#
# Total GULP energy -72515.508079 kJ/mol
# GULP energy per Si atom -5578.116006 kJ/mol
# Density = 2.395624 g / cm^3
# Si number density = 24.010888 Si / 1000 Ang^3
#
#
#
# Elastic Constant Matrix: (Units=GPa)
#
#
# Indices 1 2 3 4 5 6 
#
# 1 122.7028 -6.7227 -14.3870 0.0000 2.5415 0.0000
# 2 -6.7227 77.7636 -5.7645 0.0000 -1.3595 0.0000
# 3 -14.3870 -5.7645 75.4183 0.0000 1.8318 0.0000
# 4 0.0000 0.0000 0.0000 -109.7063 0.0000 -203.9514
# 5 2.5415 -1.3595 1.8318 0.0000 24.6563 0.0000
# 6 0.0000 0.0000 0.0000 -203.9514 0.0000 -307.2095
#
#
#
# Elastic Compliance Matrix: (Units=1/GPa)
#
#
# Indices 1 2 3 4 5 6 
#
# 1 0.008414 0.000836 0.001692 0.000000 -0.000947 0.000000
# 2 0.000836 0.013026 0.001142 0.000000 0.000547 0.000000
# 3 0.001692 0.001142 0.013697 0.000000 -0.001129 0.000000
# 4 0.000000 0.000000 0.000000 0.038920 0.000000 -0.025838
# 5 -0.000947 0.000547 -0.001129 0.000000 0.040769 0.000000
# 6 0.000000 0.000000 0.000000 -0.025838 0.000000 0.013899
#
#
# Mechanical properties :
#
#
# Convention : Reuss Voigt Hill
#
# Bulk Modulus (GPa) = 23.54250 24.68180 24.11215
# Shear Modulus (GPa) = 36.88869 -58.26797 -10.68964
#
# Velocity S-wave (km/s) = 3.92386 -4.93153 -2.11226
# Velocity P-wave (km/s) = 5.50955 4.70371 2.02857
#
# Compressibility (1/GPa) = 0.04247638
#
# Stress axis : x y z
#
# Youngs Moduli (GPa) = 118.85545 76.76962 73.00959
#
# Poissons Ratio (x) = -0.06420 -0.12353
# Poissons Ratio (y) = -0.09939 -0.08337
# Poissons Ratio (z) = -0.20109 -0.08766
#
# Static dielectric constant tensor:
#      x y z
#    x 4.830280 0.000000 1.422560 
#    y 0.000000 1.974100 0.000000 
#    z 1.422560 0.000000 2.625180 
# 
# From -- ./inp_files/13384.got.cif
#   From: 2010.05.17/outbox.cif.g08.bks.cpg/sg3_7_cif.got.tgz:13384.got - 2010.06.03 18:33:08.
