data_PCOD9114899
_publ_section_title
;
Structure prediction by ZEFSAII (Michael W. Deem and Ramdas Pophale) SiO2 
 PCOD9114899
Probable space group: P 21
;
_chemical_formula_sum "Si O2"
_cell_formula_units_Z 14
_cell_length_a 18.066513
_cell_length_b 4.714180
_cell_length_c 10.969635
_cell_angle_alpha 90.000000
_cell_angle_beta 144.215199
_cell_angle_gamma 90.000000
_cell_volume 546.307720
_symmetry_space_group_name_H-M "P 21"
_symmetry_group_IT_number 4
_symmetry_cell_setting 'monoclinic'
loop_
_space_group_symop_operation_xyz
x,y,z
-x,1/2+y,-z
loop_
_atom_site_type_symbol
_atom_site_label
_atom_site_fract_x
_atom_site_fract_y
_atom_site_fract_z
Si Si1 0.064671 0.375000 0.522796
Si Si2 0.679509 0.294217 0.438900
Si Si3 0.916742 0.481924 0.883880
Si Si4 0.872217 0.294730 0.088644
Si Si5 0.511669 0.098787 0.425737
Si Si6 0.736850 0.793048 0.035169
Si Si7 0.568854 0.802811 0.153914
O O1 0.210831 0.329513 0.757418
O O2 0.031210 0.696172 0.516261
O O3 0.017597 0.265794 0.328773
O O4 0.819103 0.415529 0.647203
O O5 0.631778 0.153532 0.501202
O O6 0.674529 0.042504 0.330928
O O7 0.589773 0.569668 0.290023
O O8 0.861706 0.358814 0.934855
O O9 0.953229 0.805800 0.956645
O O10 0.832398 0.571260 0.106478
O O11 0.773910 0.069091 0.008411
O O12 0.500800 0.291135 0.532280
O O13 0.398935 0.180099 0.182249
O O14 0.541499 0.548847 0.015584
#
# Coordination Sequence:
#
# PCOD9114899 Si02
#       7
#     2   2   2   2   2   2   2
#     4   8  16  31  55  81 110 145 184 229 284 343
#     4  11  22  41  64  92 130 168 210 271 322 377
#     4  12  25  40  60  88 121 166 217 261 308 370
#     4  10  20  38  60  86 120 156 193 249 301 352
#     4  12  24  37  59  95 131 167 202 242 311 395
#     4  10  19  36  60  88 120 154 193 240 301 374
#     4   9  20  41  68  90 116 166 217 264 325 375
#
# _framework density 25.626584000000001
#
# number of rings (size 3 to 8) (size 9 to 14) (size 15 to 20)
#    0.000    1.714    0.000    5.143    0.000    0.000 
#    0.000    8.571    0.000    6.857    0.000    0.000 
#    0.000    0.000    0.000    0.000    0.000    0.000 
#
# Total GULP energy -77959.016288 kJ/mol
# GULP energy per Si atom -5568.501163 kJ/mol
# Density = 2.556826 g / cm^3
# Si number density = 25.626584 Si / 1000 Ang^3
#
#
#
# Elastic Constant Matrix: (Units=GPa)
#
#
# Indices 1 2 3 4 5 6 
#
# 1 49.6620 4.5856 23.8281 0.0000 -10.9145 0.0000
# 2 4.5856 95.5092 -2.9881 0.0000 -11.1560 0.0000
# 3 23.8281 -2.9881 113.2547 0.0000 -18.5779 0.0000
# 4 0.0000 0.0000 0.0000 31.8331 0.0000 -4.1727
# 5 -10.9145 -11.1560 -18.5779 0.0000 18.8363 0.0000
# 6 0.0000 0.0000 0.0000 -4.1727 0.0000 24.4813
#
#
#
# Elastic Compliance Matrix: (Units=1/GPa)
#
#
# Indices 1 2 3 4 5 6 
#
# 1 0.024073 -0.000013 -0.003315 0.000000 0.010672 0.000000
# 2 -0.000013 0.011515 0.001699 0.000000 0.008488 0.000000
# 3 -0.003315 0.001699 0.011240 0.000000 0.010172 0.000000
# 4 0.000000 0.000000 0.000000 0.032132 0.000000 0.005477
# 5 0.010672 0.008488 0.010172 0.000000 0.074332 0.000000
# 6 0.000000 0.000000 0.000000 0.005477 0.000000 0.041781
#
#
# Mechanical properties :
#
#
# Convention : Reuss Voigt Hill
#
# Bulk Modulus (GPa) = 22.95056 34.36411 28.65733
# Shear Modulus (GPa) = 23.49015 30.56350 27.02683
#
# Velocity S-wave (km/s) = 3.03088 3.45722 3.25105
# Velocity P-wave (km/s) = 4.60690 5.41989 5.02984
#
# Compressibility (1/GPa) = 0.04357192
#
# Stress axis : x y z
#
# Youngs Moduli (GPa) = 41.54005 86.83984 88.96498
#
# Poissons Ratio (x) = 0.00112 0.29488
# Poissons Ratio (y) = 0.00054 -0.15115
# Poissons Ratio (z) = 0.13769 -0.14753
#
# Static dielectric constant tensor:
#      x y z
#    x 2.098980 0.000000 0.026010 
#    y 0.000000 1.945290 0.000000 
#    z 0.026010 0.000000 2.170240 
# 
# From -- ./inp_files/11775.got.cif
#   From: 2010.05.17/outbox.cif.g08.bks.cpg/sg4_6_cif.got.tgz:11775.got - 2010.06.03 18:43:04.
