data_PCOD9114233
_publ_section_title
;
Structure prediction by ZEFSAII (Michael W. Deem and Ramdas Pophale) SiO2 
 PCOD9114233
Probable space group: P 2
;
_chemical_formula_sum "Si O2"
_cell_formula_units_Z 13
_cell_length_a 9.013735
_cell_length_b 6.694051
_cell_length_c 13.186833
_cell_angle_alpha 90.000000
_cell_angle_beta 45.723950
_cell_angle_gamma 90.000000
_cell_volume 569.689216
_symmetry_space_group_name_H-M "P 2"
_symmetry_group_IT_number 3
_symmetry_cell_setting 'monoclinic'
loop_
_space_group_symop_operation_xyz
x,y,z
-x,y,-z
loop_
_atom_site_type_symbol
_atom_site_label
_atom_site_fract_x
_atom_site_fract_y
_atom_site_fract_z
Si Si1 0.000000 0.590621 0.000000
Si Si2 0.652640 0.344300 0.811107
Si Si3 0.211493 0.337459 0.485793
Si Si4 0.125436 0.899968 0.785252
Si Si5 0.000000 0.973765 0.500000
Si Si6 0.895164 0.684480 0.710353
Si Si7 0.186517 0.249994 0.055185
Si Si8 0.500000 0.138914 0.500000
O O1 0.150891 0.737572 0.863317
O O2 0.893593 0.446551 0.966627
O O3 0.723990 0.362002 0.661484
O O4 0.797972 0.247925 0.828802
O O5 0.680654 0.572497 0.835545
O O6 0.430539 0.241216 0.914024
O O7 0.067329 0.518388 0.592129
O O8 0.398909 0.292126 0.469105
O O9 0.105789 0.119556 0.529204
O O10 0.999575 0.790512 0.755385
O O11 0.331967 0.001094 0.639556
O O12 0.972013 0.075484 0.895951
O O13 0.143153 0.833255 0.364537
#
# Coordination Sequence:
#
# PCOD9114233 Si02
#       8
#     1   2   2   2   1   2   2   1
#     4  12  28  48  80 100 164 200 246 316 382 438
#     4  11  23  48  74 106 150 205 251 308 385 435
#     4  12  25  44  72 114 153 197 248 329 372 447
#     4  12  28  51  74 115 152 201 254 315 373 465
#     4  12  20  42  72 106 152 194 246 322 368 434
#     4  12  23  45  77 108 151 190 259 316 377 441
#     4  11  27  50  72 108 156 202 252 319 372 452
#     4  12  30  46  80 114 156 202 254 308 394 442
#
# _framework density 22.819458999999998
#
# number of rings (size 3 to 8) (size 9 to 14) (size 15 to 20)
#    0.000    0.308    6.154    2.308    4.308    3.077 
#    5.538    0.000    0.000    0.000    0.000    0.000 
#    0.000    0.000    0.000    0.000    0.000    0.000 
#
# Total GULP energy -72490.785824 kJ/mol
# GULP energy per Si atom -5576.214294 kJ/mol
# Density = 2.276752 g / cm^3
# Si number density = 22.819459 Si / 1000 Ang^3
#
#
#
# Elastic Constant Matrix: (Units=GPa)
#
#
# Indices 1 2 3 4 5 6 
#
# 1 121.8209 46.6182 48.2888 0.0000 11.6364 0.0000
# 2 46.6182 118.6118 59.0477 0.0000 3.2002 0.0000
# 3 48.2888 59.0477 129.8077 0.0000 11.0738 0.0000
# 4 0.0000 0.0000 0.0000 36.7176 0.0000 23.3410
# 5 11.6364 3.2002 11.0738 0.0000 27.2834 0.0000
# 6 0.0000 0.0000 0.0000 23.3410 0.0000 42.0722
#
#
#
# Elastic Compliance Matrix: (Units=1/GPa)
#
#
# Indices 1 2 3 4 5 6 
#
# 1 0.010549 -0.002899 -0.002332 0.000000 -0.003213 0.000000
# 2 -0.002899 0.011711 -0.004389 0.000000 0.001644 0.000000
# 3 -0.002332 -0.004389 0.010813 0.000000 -0.002880 0.000000
# 4 0.000000 0.000000 0.000000 0.042073 0.000000 -0.023341
# 5 -0.003213 0.001644 -0.002880 0.000000 0.038999 0.000000
# 6 0.000000 0.000000 0.000000 -0.023341 0.000000 0.036718
#
#
# Mechanical properties :
#
#
# Convention : Reuss Voigt Hill
#
# Bulk Modulus (GPa) = 72.28334 75.34997 73.81665
# Shear Modulus (GPa) = 28.61840 35.63369 32.12605
#
# Velocity S-wave (km/s) = 3.54520 3.95593 3.75618
# Velocity P-wave (km/s) = 6.96440 7.34558 7.15753
#
# Compressibility (1/GPa) = 0.01383445
#
# Stress axis : x y z
#
# Youngs Moduli (GPa) = 94.79398 85.39171 92.47934
#
# Poissons Ratio (x) = 0.24753 0.21563
# Poissons Ratio (y) = 0.27478 0.40589
# Poissons Ratio (z) = 0.22103 0.37478
#
# Static dielectric constant tensor:
#      x y z
#    x 1.901840 0.000000 -0.020940 
#    y 0.000000 1.897680 0.000000 
#    z -0.020940 0.000000 1.940060 
# 
# From -- ./inp_files/13342.got.cif
#   From: 2010.05.17/outbox.cif.g08.bks.cpg/sg3_7_cif.got.tgz:13342.got - 2010.06.03 18:33:08.
