data_PCOD9114819
_publ_section_title
;
Structure prediction by ZEFSAII (Michael W. Deem and Ramdas Pophale) SiO2 
 PCOD9114819
Probable space group: P 21
;
_chemical_formula_sum "Si O2"
_cell_formula_units_Z 14
_cell_length_a 5.220131
_cell_length_b 5.125668
_cell_length_c 22.518033
_cell_angle_alpha 90.000000
_cell_angle_beta 120.662332
_cell_angle_gamma 90.000000
_cell_volume 518.269403
_symmetry_space_group_name_H-M "P 21"
_symmetry_group_IT_number 4
_symmetry_cell_setting 'monoclinic'
loop_
_space_group_symop_operation_xyz
x,y,z
-x,1/2+y,-z
loop_
_atom_site_type_symbol
_atom_site_label
_atom_site_fract_x
_atom_site_fract_y
_atom_site_fract_z
Si Si1 0.494236 0.266420 0.089360
Si Si2 0.123332 0.556240 0.437731
Si Si3 0.936220 0.264877 0.817500
Si Si4 0.629630 0.060436 0.216211
Si Si5 0.430379 0.279835 0.681334
Si Si6 0.573633 0.557134 0.584127
Si Si7 0.920701 0.962776 0.054575
O O1 0.621748 0.311927 0.171397
O O2 0.753565 0.162632 0.078339
O O3 0.244257 0.042164 0.069974
O O4 0.294870 0.459305 0.027651
O O5 0.314084 0.620156 0.251863
O O6 0.231754 0.544336 0.518715
O O7 0.269563 0.322227 0.417461
O O8 0.270514 0.822164 0.432210
O O9 0.203006 0.360398 0.808158
O O10 0.221311 0.086099 0.619689
O O11 0.050043 0.208843 0.897719
O O12 0.713960 0.507174 0.807454
O O13 0.754634 0.964673 0.294551
O O14 0.575819 0.480670 0.652800
#
# Coordination Sequence:
#
# PCOD9114819 Si02
#       7
#     2   2   2   2   2   2   2
#     4  10  19  34  59  85 120 163 215 272 337 403
#     4  10  23  42  68 104 142 187 243 300 360 434
#     4   8  17  33  59  87 120 173 219 274 345 419
#     4   8  17  33  59  87 120 173 219 274 345 419
#     4  10  20  38  70  90 136 188 230 296 358 436
#     4  10  23  42  68 104 142 187 243 300 360 434
#     4  10  19  34  59  85 120 163 215 272 337 403
#
# _framework density 27.012976999999999
#
# number of rings (size 3 to 8) (size 9 to 14) (size 15 to 20)
#    0.857    1.714    0.000    1.714    0.000    4.571 
#    0.000    0.000   18.857    0.000    0.000    0.000 
#    0.000    0.000    0.000    0.000    0.000    0.000 
#
# Total GULP energy -78005.621186 kJ/mol
# GULP energy per Si atom -5571.830085 kJ/mol
# Density = 2.695149 g / cm^3
# Si number density = 27.012977 Si / 1000 Ang^3
#
#
#
# Elastic Constant Matrix: (Units=GPa)
#
#
# Indices 1 2 3 4 5 6 
#
# 1 133.6618 40.3103 34.9379 0.0000 14.2002 0.0000
# 2 40.3103 72.1509 31.7585 0.0000 19.5413 0.0000
# 3 34.9379 31.7585 106.4533 0.0000 -12.2073 0.0000
# 4 0.0000 0.0000 0.0000 24.7572 0.0000 9.9034
# 5 14.2002 19.5413 -12.2073 0.0000 50.5146 0.0000
# 6 0.0000 0.0000 0.0000 9.9034 0.0000 16.8664
#
#
#
# Elastic Compliance Matrix: (Units=1/GPa)
#
#
# Indices 1 2 3 4 5 6 
#
# 1 0.009374 -0.003858 -0.002115 0.000000 -0.001654 0.000000
# 2 -0.003858 0.020918 -0.005942 0.000000 -0.008443 0.000000
# 3 -0.002115 -0.005942 0.012540 0.000000 0.005924 0.000000
# 4 0.000000 0.000000 0.000000 0.052792 0.000000 -0.030998
# 5 -0.001654 -0.008443 0.005924 0.000000 0.024959 0.000000
# 6 0.000000 0.000000 0.000000 -0.030998 0.000000 0.077490
#
#
# Mechanical properties :
#
#
# Convention : Reuss Voigt Hill
#
# Bulk Modulus (GPa) = 52.63085 58.47550 55.55317
# Shear Modulus (GPa) = 21.90702 32.11159 27.00931
#
# Velocity S-wave (km/s) = 2.85086 3.45156 3.16549
# Velocity P-wave (km/s) = 5.51021 6.13013 5.82842
#
# Compressibility (1/GPa) = 0.01900026
#
# Stress axis : x y z
#
# Youngs Moduli (GPa) = 106.68179 47.80592 79.74426
#
# Poissons Ratio (x) = 0.18444 0.16866
# Poissons Ratio (y) = 0.41160 0.47388
# Poissons Ratio (z) = 0.22564 0.28409
#
# Static dielectric constant tensor:
#      x y z
#    x 2.076020 0.000000 0.169820 
#    y 0.000000 2.172570 0.000000 
#    z 0.169820 0.000000 2.429240 
# 
# From -- ./inp_files/15504.got.cif
#   From: 2010.05.17/outbox.cif.g08.bks.cpg/sg4_8_cif.got.tgz:15504.got - 2010.06.03 18:43:04.
