data_PCOD9114854
_publ_section_title
;
Structure prediction by ZEFSAII (Michael W. Deem and Ramdas Pophale) SiO2 
 PCOD9114854
Probable space group: P 21
;
_chemical_formula_sum "Si O2"
_cell_formula_units_Z 16
_cell_length_a 8.804159
_cell_length_b 8.094852
_cell_length_c 20.128738
_cell_angle_alpha 90.000000
_cell_angle_beta 149.560890
_cell_angle_gamma 90.000000
_cell_volume 726.771222
_symmetry_space_group_name_H-M "P 21"
_symmetry_group_IT_number 4
_symmetry_cell_setting 'monoclinic'
loop_
_space_group_symop_operation_xyz
x,y,z
-x,1/2+y,-z
loop_
_atom_site_type_symbol
_atom_site_label
_atom_site_fract_x
_atom_site_fract_y
_atom_site_fract_z
Si Si1 0.099451 0.899600 0.167523
Si Si2 0.390133 0.588786 0.815867
Si Si3 0.206291 0.874646 0.845260
Si Si4 0.915305 0.337460 0.986575
Si Si5 0.593380 0.158423 0.965217
Si Si6 0.158053 0.892100 0.330642
Si Si7 0.458309 0.242313 0.408476
Si Si8 0.498889 0.199595 0.278204
O O1 0.026819 0.819061 0.069678
O O2 0.143423 0.804397 0.252683
O O3 0.373065 0.019489 0.251731
O O4 0.832793 0.026951 0.083789
O O5 0.368574 0.743167 0.857605
O O6 0.713342 0.500637 0.925318
O O7 0.296130 0.663365 0.708267
O O8 0.157478 0.454508 0.757412
O O9 0.853765 0.843324 0.710591
O O10 0.289274 0.060104 0.857163
O O11 0.340829 0.821412 0.967360
O O12 0.696078 0.192026 0.929300
O O13 0.219707 0.309458 0.143793
O O14 0.327502 0.796651 0.451952
O O15 0.346975 0.057295 0.383547
O O16 0.600856 0.264566 0.388501
#
# Coordination Sequence:
#
# PCOD9114854 Si02
#       8
#     2   2   2   2   2   2   2   2
#     4   9  18  36  58  82 122 157 197 248 311 370
#     4  10  20  37  60  88 124 160 204 260 314 364
#     4  11  21  36  60  89 129 158 203 262 308 377
#     4  10  19  35  62  91 124 158 199 252 331 382
#     4  11  20  35  59  95 124 158 201 255 329 370
#     4  10  21  40  61  85 115 170 212 253 302 355
#     4  10  21  41  60  84 122 165 211 256 303 363
#     4   9  18  36  58  86 122 156 187 258 324 365
#
# _framework density 22.015183
#
# number of rings (size 3 to 8) (size 9 to 14) (size 15 to 20)
#    0.000    2.000    5.000    1.500    0.000    1.000 
#    0.000   12.500    0.000    1.500    0.000    0.000 
#    0.000    0.000    0.000    0.000    0.000    0.000 
#
# Total GULP energy -89225.461472 kJ/mol
# GULP energy per Si atom -5576.591342 kJ/mol
# Density = 2.196508 g / cm^3
# Si number density = 22.015183 Si / 1000 Ang^3
#
#
#
# Elastic Constant Matrix: (Units=GPa)
#
#
# Indices 1 2 3 4 5 6 
#
# 1 161.7865 17.0940 49.9758 0.0000 -38.9467 0.0000
# 2 17.0940 27.1288 18.2835 0.0000 -4.4308 0.0000
# 3 49.9758 18.2835 58.2657 0.0000 -29.2865 0.0000
# 4 0.0000 0.0000 0.0000 25.7939 0.0000 -2.0838
# 5 -38.9467 -4.4308 -29.2865 0.0000 40.5735 0.0000
# 6 0.0000 0.0000 0.0000 -2.0838 0.0000 39.2518
#
#
#
# Elastic Compliance Matrix: (Units=1/GPa)
#
#
# Indices 1 2 3 4 5 6 
#
# 1 0.009028 -0.001741 -0.004609 0.000000 0.005149 0.000000
# 2 -0.001741 0.049080 -0.018917 0.000000 -0.009966 0.000000
# 3 -0.004609 -0.018917 0.037336 0.000000 0.020459 0.000000
# 4 0.000000 0.000000 0.000000 0.038936 0.000000 0.002067
# 5 0.005149 -0.009966 0.020459 0.000000 0.043269 0.000000
# 6 0.000000 0.000000 0.000000 0.002067 0.000000 0.025586
#
#
# Mechanical properties :
#
#
# Convention : Reuss Voigt Hill
#
# Bulk Modulus (GPa) = 22.26723 46.43198 34.34961
# Shear Modulus (GPa) = 18.60542 31.91236 25.25889
#
# Velocity S-wave (km/s) = 2.91024 3.81144 3.39091
# Velocity P-wave (km/s) = 4.62916 6.36444 5.56486
#
# Compressibility (1/GPa) = 0.04490904
#
# Stress axis : x y z
#
# Youngs Moduli (GPa) = 110.76270 20.37503 26.78400
#
# Poissons Ratio (x) = 0.03548 0.12345
# Poissons Ratio (y) = 0.19289 0.50667
# Poissons Ratio (z) = 0.51052 0.38543
#
# Static dielectric constant tensor:
#      x y z
#    x 1.883800 0.000000 -0.015620 
#    y 0.000000 1.886730 0.000000 
#    z -0.015620 0.000000 1.842700 
# 
# From -- ./inp_files/10859.got.cif
#   From: 2010.05.17/outbox.cif.g08.bks.cpg/sg4_6_cif.got.tgz:10859.got - 2010.06.03 18:43:04.
