data_PCOD9114560
_publ_section_title
;
Structure prediction by ZEFSAII (Michael W. Deem and Ramdas Pophale) SiO2 
 PCOD9114560
Probable space group: P 21
;
_chemical_formula_sum "Si O2"
_cell_formula_units_Z 16
_cell_length_a 5.022913
_cell_length_b 17.564644
_cell_length_c 10.023537
_cell_angle_alpha 90.000000
_cell_angle_beta 82.577705
_cell_angle_gamma 90.000000
_cell_volume 876.923499
_symmetry_space_group_name_H-M "P 21"
_symmetry_group_IT_number 4
_symmetry_cell_setting 'monoclinic'
loop_
_space_group_symop_operation_xyz
x,y,z
-x,1/2+y,-z
loop_
_atom_site_type_symbol
_atom_site_label
_atom_site_fract_x
_atom_site_fract_y
_atom_site_fract_z
Si Si1 0.086924 0.276680 0.823346
Si Si2 0.843723 0.431135 0.866750
Si Si3 0.730391 0.880737 0.979907
Si Si4 0.380818 0.389654 0.323903
Si Si5 0.825462 0.344015 0.477937
Si Si6 0.307436 0.552200 0.455102
Si Si7 0.644111 0.213305 0.684912
Si Si8 0.749130 0.506178 0.612755
O O1 0.348274 0.243212 0.737544
O O2 0.001977 0.362008 0.780944
O O3 0.835138 0.224778 0.801734
O O4 0.162431 0.299475 0.970194
O O5 0.803293 0.499551 0.766757
O O6 0.552804 0.400734 0.930902
O O7 0.039910 0.439456 0.981724
O O8 0.683854 0.881468 0.826860
O O9 0.654104 0.349612 0.352758
O O10 0.389660 0.478866 0.361848
O O11 0.137015 0.354473 0.425099
O O12 0.764903 0.268368 0.563462
O O13 0.723898 0.418250 0.566105
O O14 0.354432 0.628291 0.369607
O O15 0.486532 0.548559 0.577501
O O16 0.000860 0.541564 0.519155
#
# Coordination Sequence:
#
# PCOD9114560 Si02
#       8
#     2   2   2   2   2   2   2   2
#     4  10  19  31  56  80 100 134 180 236 250 309
#     4  10  18  31  57  82  99 131 181 234 252 295
#     4  10  18  33  53  83  97 134 177 234 257 305
#     4  10  21  35  53  80 111 138 182 216 275 311
#     4  10  19  31  55  75 102 141 170 224 255 332
#     4  10  23  33  53  79 117 142 164 230 280 337
#     4  12  20  35  54  83 110 139 182 219 288 313
#     4  10  18  35  51  80 104 135 180 215 275 308
#
# _framework density 18.245605999999999
#
# number of rings (size 3 to 8) (size 9 to 14) (size 15 to 20)
#    0.750    1.000    2.500    3.000    3.500    0.000 
#    0.000    0.000    0.000    9.000    0.000    0.000 
#    0.000    0.000    0.000    0.000    0.000    0.000 
#
# Total GULP energy -89138.424884 kJ/mol
# GULP energy per Si atom -5571.151555 kJ/mol
# Density = 1.820408 g / cm^3
# Si number density = 18.245606 Si / 1000 Ang^3
#
#
#
# Elastic Constant Matrix: (Units=GPa)
#
#
# Indices 1 2 3 4 5 6 
#
# 1 88.8849 15.5796 0.0450 0.0000 12.8151 0.0000
# 2 15.5796 40.5162 1.5697 0.0000 -3.1315 0.0000
# 3 0.0450 1.5697 50.3085 0.0000 19.2293 0.0000
# 4 0.0000 0.0000 0.0000 11.8613 0.0000 -0.3592
# 5 12.8151 -3.1315 19.2293 0.0000 27.3951 0.0000
# 6 0.0000 0.0000 0.0000 -0.3592 0.0000 10.7321
#
#
#
# Elastic Compliance Matrix: (Units=1/GPa)
#
#
# Indices 1 2 3 4 5 6 
#
# 1 0.013773 -0.006220 0.003986 0.000000 -0.009952 0.000000
# 2 -0.006220 0.027952 -0.004373 0.000000 0.009174 0.000000
# 3 0.003986 -0.004373 0.028582 0.000000 -0.022427 0.000000
# 4 0.000000 0.000000 0.000000 0.084394 0.000000 0.002825
# 5 -0.009952 0.009174 -0.022427 0.000000 0.057949 0.000000
# 6 0.000000 0.000000 0.000000 0.002825 0.000000 0.093273
#
#
# Mechanical properties :
#
#
# Convention : Reuss Voigt Hill
#
# Bulk Modulus (GPa) = 17.51546 23.78870 20.65208
# Shear Modulus (GPa) = 14.78552 20.83205 17.80879
#
# Velocity S-wave (km/s) = 2.84977 3.38266 3.12758
# Velocity P-wave (km/s) = 4.52205 5.32192 4.93821
#
# Compressibility (1/GPa) = 0.05709242
#
# Stress axis : x y z
#
# Youngs Moduli (GPa) = 72.60336 35.77603 34.98649
#
# Poissons Ratio (x) = 0.22252 -0.13944
# Poissons Ratio (y) = 0.45158 0.15300
# Poissons Ratio (z) = -0.28936 0.15646
#
# Static dielectric constant tensor:
#      x y z
#    x 1.649900 0.000000 0.044880 
#    y 0.000000 1.604060 0.000000 
#    z 0.044880 0.000000 1.667240 
# 
# From -- ./inp_files/4900.got.cif
#   From: 2010.05.17/outbox.cif.g08.bks.cpg/sg4_3_cif.got.tgz:4900.got - 2010.06.03 18:43:04.
