data_PCOD9114779
_publ_section_title
;
Structure prediction by ZEFSAII (Michael W. Deem and Ramdas Pophale) SiO2 
 PCOD9114779
Probable space group: P 21
;
_chemical_formula_sum "Si O2"
_cell_formula_units_Z 16
_cell_length_a 28.058380
_cell_length_b 5.395870
_cell_length_c 10.960735
_cell_angle_alpha 90.000000
_cell_angle_beta 157.133285
_cell_angle_gamma 90.000000
_cell_volume 644.842953
_symmetry_space_group_name_H-M "P 21"
_symmetry_group_IT_number 4
_symmetry_cell_setting 'monoclinic'
loop_
_space_group_symop_operation_xyz
x,y,z
-x,1/2+y,-z
loop_
_atom_site_type_symbol
_atom_site_label
_atom_site_fract_x
_atom_site_fract_y
_atom_site_fract_z
Si Si1 0.823971 0.527930 0.356748
Si Si2 0.929942 0.527045 0.863738
Si Si3 0.334993 0.185346 0.613794
Si Si4 0.804514 0.666716 0.970298
Si Si5 0.464537 0.023310 0.353649
Si Si6 0.321852 0.663718 0.315091
Si Si7 0.624612 0.182138 0.267510
Si Si8 0.968462 0.022069 0.633927
O O1 0.836790 0.561405 0.532065
O O2 0.896665 0.758544 0.464011
O O3 0.881970 0.261683 0.454196
O O4 0.680182 0.543114 0.995869
O O5 0.002328 0.782699 0.021957
O O6 0.936815 0.492323 0.026997
O O7 0.256386 0.195798 0.307697
O O8 0.318379 0.433925 0.650689
O O9 0.319388 0.932888 0.648750
O O10 0.478078 0.184036 0.908940
O O11 0.733495 0.427982 0.856562
O O12 0.769870 0.939297 0.938360
O O13 0.944455 0.588799 0.275578
O O14 0.495108 0.737138 0.455573
O O15 0.546259 0.100860 0.429919
O O16 0.342984 0.681282 0.511488
#
# Coordination Sequence:
#
# PCOD9114779 Si02
#       8
#     2   2   2   2   2   2   2   2
#     4  10  21  39  62  89 122 161 208 253 293 345
#     4   8  16  31  54  87 124 161 198 235 280 346
#     4   8  14  24  41  70 109 148 180 207 255 337
#     4  10  19  33  57  87 121 154 182 229 298 369
#     4  12  26  45  68  87 111 154 209 267 310 348
#     4  10  21  37  57  83 113 149 193 243 305 356
#     4   8  14  26  43  68 105 145 182 219 263 328
#     4  10  19  35  62  95 129 162 194 233 294 367
#
# _framework density 24.812242999999999
#
# number of rings (size 3 to 8) (size 9 to 14) (size 15 to 20)
#    0.000    2.500    0.000    2.250    0.000    1.000 
#    0.000    0.000    0.000   36.000    0.000    0.000 
#    0.000    0.000    0.000    0.000    0.000    0.000 
#
# Total GULP energy -89296.112921 kJ/mol
# GULP energy per Si atom -5581.007058 kJ/mol
# Density = 2.475577 g / cm^3
# Si number density = 24.812243 Si / 1000 Ang^3
#
#
#
# Elastic Constant Matrix: (Units=GPa)
#
#
# Indices 1 2 3 4 5 6 
#
# 1 -44.2065 -83.2138 16.6374 0.0000 43.2777 0.0000
# 2 -83.2138 109.7242 19.7504 0.0000 42.7218 0.0000
# 3 16.6374 19.7504 113.1837 0.0000 7.4896 0.0000
# 4 0.0000 0.0000 0.0000 -2.9946 0.0000 -20.7022
# 5 43.2777 42.7218 7.4896 0.0000 19.4225 0.0000
# 6 0.0000 0.0000 0.0000 -20.7022 0.0000 11.9927
#
#
#
# Elastic Compliance Matrix: (Units=1/GPa)
#
#
# Indices 1 2 3 4 5 6 
#
# 1 -0.000460 -0.005243 0.000156 0.000000 0.012497 0.000000
# 2 -0.005243 0.004133 -0.000125 0.000000 0.002639 0.000000
# 3 0.000156 -0.000125 0.009070 0.000000 -0.003569 0.000000
# 4 0.000000 0.000000 0.000000 -0.025819 0.000000 -0.044569
# 5 0.012497 0.002639 -0.003569 0.000000 0.019212 0.000000
# 6 0.000000 0.000000 0.000000 -0.044569 0.000000 0.006447
#
#
# Mechanical properties :
#
#
# Convention : Reuss Voigt Hill
#
# Bulk Modulus (GPa) = 431.29611 9.44993 220.37302
# Shear Modulus (GPa) = 210.25765 20.71928 115.48846
#
# Velocity S-wave (km/s) = 9.21539 2.89285 6.82979
# Velocity P-wave (km/s) = 16.95384 3.86974 12.29649
#
# Compressibility (1/GPa) = 0.00231859
#
# Stress axis : x y z
#
# Youngs Moduli (GPa) = -2173.65164 241.97090 110.24950
#
# Poissons Ratio (x) = 1.26854 -0.01715
# Poissons Ratio (y) = -11.39544 0.01380
# Poissons Ratio (z) = 0.33803 0.03029
#
# Static dielectric constant tensor:
#      x y z
#    x 2.214500 0.000000 0.398680 
#    y 0.000000 2.079750 0.000000 
#    z 0.398680 0.000000 2.653250 
# 
# From -- ./inp_files/13148.got.cif
#   From: 2010.05.17/outbox.cif.g08.bks.cpg/sg4_7_cif.got.tgz:13148.got - 2010.06.03 18:43:04.
