data_PCOD9114603
_publ_section_title
;
Structure prediction by ZEFSAII (Michael W. Deem and Ramdas Pophale) SiO2 
 PCOD9114603
Probable space group: P 21
;
_chemical_formula_sum "Si O2"
_cell_formula_units_Z 16
_cell_length_a 17.143643
_cell_length_b 9.279336
_cell_length_c 13.344008
_cell_angle_alpha 90.000000
_cell_angle_beta 20.687902
_cell_angle_gamma 90.000000
_cell_volume 749.932305
_symmetry_space_group_name_H-M "P 21"
_symmetry_group_IT_number 4
_symmetry_cell_setting 'monoclinic'
loop_
_space_group_symop_operation_xyz
x,y,z
-x,1/2+y,-z
loop_
_atom_site_type_symbol
_atom_site_label
_atom_site_fract_x
_atom_site_fract_y
_atom_site_fract_z
Si Si1 0.770401 0.921460 0.297545
Si Si2 0.185467 0.096724 0.708467
Si Si3 0.072047 0.906805 0.675584
Si Si4 0.433107 0.409172 0.670267
Si Si5 0.264836 0.796141 0.239731
Si Si6 0.681972 0.757158 0.854253
Si Si7 0.630761 0.182503 0.584164
Si Si8 0.988732 0.018198 0.508344
O O1 0.842845 0.765833 0.248304
O O2 0.605289 0.898052 0.402278
O O3 0.667523 0.020093 0.507142
O O4 0.979007 0.012322 0.005469
O O5 0.190076 0.038705 0.589435
O O6 0.406798 0.041135 0.495880
O O7 0.160632 0.880410 0.459255
O O8 0.145370 0.765432 0.651316
O O9 0.811625 0.928778 0.990887
O O10 0.537123 0.270860 0.601080
O O11 0.154136 0.638342 0.380480
O O12 0.180466 0.898781 0.250447
O O13 0.522984 0.787342 0.951595
O O14 0.795000 0.901978 0.761135
O O15 0.865899 0.638471 0.607694
O O16 0.532545 0.699154 0.125477
#
# Coordination Sequence:
#
# PCOD9114603 Si02
#       8
#     2   2   2   2   2   2   2   2
#     4  11  21  36  56  84 118 158 205 246 289 344
#     4  10  21  35  56  85 118 159 203 244 289 347
#     4   9  20  38  59  83 117 155 193 241 297 352
#     4  10  18  34  58  83 115 160 199 239 288 339
#     4  10  20  38  61  88 119 155 195 252 312 367
#     4  10  21  39  61  89 123 158 199 254 311 370
#     4  10  21  38  60  85 120 158 197 246 300 354
#     4  10  20  36  63  89 114 153 203 244 308 385
#
# _framework density 21.335258
#
# number of rings (size 3 to 8) (size 9 to 14) (size 15 to 20)
#    0.000    2.000    0.000    5.250    0.000    1.000 
#    0.000   16.250    0.000    0.000    0.000    0.000 
#    0.000    0.000    0.000    0.000    0.000    0.000 
#
# Total GULP energy -89115.016638 kJ/mol
# GULP energy per Si atom -5569.688540 kJ/mol
# Density = 2.128670 g / cm^3
# Si number density = 21.335258 Si / 1000 Ang^3
#
#
#
# Elastic Constant Matrix: (Units=GPa)
#
#
# Indices 1 2 3 4 5 6 
#
# 1 42.1888 37.8926 22.0503 0.0000 -19.7925 0.0000
# 2 37.8926 179.1006 32.7623 0.0000 -7.0270 0.0000
# 3 22.0503 32.7623 69.0898 0.0000 -29.5719 0.0000
# 4 0.0000 0.0000 0.0000 30.9775 0.0000 7.8028
# 5 -19.7925 -7.0270 -29.5719 0.0000 35.6344 0.0000
# 6 0.0000 0.0000 0.0000 7.8028 0.0000 15.4106
#
#
#
# Elastic Compliance Matrix: (Units=1/GPa)
#
#
# Indices 1 2 3 4 5 6 
#
# 1 0.040504 -0.007675 -0.000475 0.000000 0.020590 0.000000
# 2 -0.007675 0.007649 -0.003655 0.000000 -0.005787 0.000000
# 3 -0.000475 -0.003655 0.024716 0.000000 0.019527 0.000000
# 4 0.000000 0.000000 0.000000 0.037000 0.000000 -0.018734
# 5 0.020590 -0.005787 0.019527 0.000000 0.054562 0.000000
# 6 0.000000 0.000000 0.000000 -0.018734 0.000000 0.074376
#
#
# Mechanical properties :
#
#
# Convention : Reuss Voigt Hill
#
# Bulk Modulus (GPa) = 20.30027 52.86553 36.58290
# Shear Modulus (GPa) = 17.93162 29.58276 23.75719
#
# Velocity S-wave (km/s) = 2.90223 3.72770 3.34056
# Velocity P-wave (km/s) = 4.55699 6.58483 5.66242
#
# Compressibility (1/GPa) = 0.04926043
#
# Stress axis : x y z
#
# Youngs Moduli (GPa) = 24.68899 130.74130 40.45881
#
# Poissons Ratio (x) = 1.00341 0.01921
# Poissons Ratio (y) = 0.18948 0.14786
# Poissons Ratio (z) = 0.01172 0.47782
#
# Static dielectric constant tensor:
#      x y z
#    x 1.893750 0.000000 -0.012170 
#    y 0.000000 1.787370 0.000000 
#    z -0.012170 0.000000 1.791990 
# 
# From -- ./inp_files/14326.got.cif
#   From: 2010.05.17/outbox.cif.g08.bks.cpg/sg4_8_cif.got.tgz:14326.got - 2010.06.03 18:43:04.
