data_PCOD9114823
_publ_section_title
;
Structure prediction by ZEFSAII (Michael W. Deem and Ramdas Pophale) SiO2 
 PCOD9114823
Probable space group: P 21
;
_chemical_formula_sum "Si O2"
_cell_formula_units_Z 16
_cell_length_a 8.891791
_cell_length_b 5.206614
_cell_length_c 19.315001
_cell_angle_alpha 90.000000
_cell_angle_beta 58.899306
_cell_angle_gamma 90.000000
_cell_volume 765.676714
_symmetry_space_group_name_H-M "P 21"
_symmetry_group_IT_number 4
_symmetry_cell_setting 'monoclinic'
loop_
_space_group_symop_operation_xyz
x,y,z
-x,1/2+y,-z
loop_
_atom_site_type_symbol
_atom_site_label
_atom_site_fract_x
_atom_site_fract_y
_atom_site_fract_z
Si Si1 0.806397 0.640260 0.211078
Si Si2 0.517599 0.828927 0.664392
Si Si3 0.615655 0.892511 0.781346
Si Si4 0.091366 0.294522 0.178172
Si Si5 0.395243 0.389984 0.857088
Si Si6 0.780139 0.002350 0.330016
Si Si7 0.612977 0.689250 0.989592
Si Si8 0.401301 0.562829 0.498209
O O1 0.640807 0.451524 0.252645
O O2 0.753012 0.854036 0.167273
O O3 0.992378 0.508767 0.155791
O O4 0.804763 0.723824 0.292133
O O5 0.655471 0.795029 0.693425
O O6 0.410048 0.598765 0.653890
O O7 0.595715 0.999646 0.583747
O O8 0.781625 0.891813 0.792041
O O9 0.476869 0.674511 0.841389
O O10 0.547448 0.185979 0.800499
O O11 0.216492 0.134633 0.097601
O O12 0.934560 0.151110 0.254705
O O13 0.336104 0.283743 0.945681
O O14 0.772777 0.024096 0.414041
O O15 0.491659 0.435775 0.017114
O O16 0.469544 0.845963 0.499879
#
# Coordination Sequence:
#
# PCOD9114823 Si02
#       8
#     2   2   2   2   2   2   2   2
#     4  10  21  39  60  92 123 161 201 265 318 371
#     4   9  19  37  62  91 119 162 216 250 304 383
#     4  11  22  39  67  90 120 171 208 260 311 390
#     4  11  25  39  63  92 127 166 206 268 330 374
#     4  11  22  43  64  89 124 161 219 257 312 382
#     4  10  20  37  61  89 128 159 204 261 323 370
#     4  12  24  44  65  92 120 167 218 261 312 394
#     4  10  19  34  62  93 121 163 210 258 306 376
#
# _framework density 20.896550999999999
#
# number of rings (size 3 to 8) (size 9 to 14) (size 15 to 20)
#    0.000    1.500    5.000    0.000    3.500    0.000 
#    2.250    0.000    2.750    0.000    0.000    0.000 
#    0.000    0.000    0.000    0.000    0.000    0.000 
#
# Total GULP energy -89088.375622 kJ/mol
# GULP energy per Si atom -5568.023476 kJ/mol
# Density = 2.084899 g / cm^3
# Si number density = 20.896551 Si / 1000 Ang^3
#
#
#
# Elastic Constant Matrix: (Units=GPa)
#
#
# Indices 1 2 3 4 5 6 
#
# 1 69.8175 10.6396 34.8177 0.0000 9.0869 0.0000
# 2 10.6396 63.5913 -1.3221 0.0000 -8.3613 0.0000
# 3 34.8177 -1.3221 113.0432 0.0000 10.2129 0.0000
# 4 0.0000 0.0000 0.0000 35.4764 0.0000 5.6169
# 5 9.0869 -8.3613 10.2129 0.0000 28.3883 0.0000
# 6 0.0000 0.0000 0.0000 5.6169 0.0000 15.1828
#
#
#
# Elastic Compliance Matrix: (Units=1/GPa)
#
#
# Indices 1 2 3 4 5 6 
#
# 1 0.018144 -0.003810 -0.005175 0.000000 -0.005068 0.000000
# 2 -0.003810 0.017166 0.000834 0.000000 0.005975 0.000000
# 3 -0.005175 0.000834 0.010623 0.000000 -0.001920 0.000000
# 4 0.000000 0.000000 0.000000 0.029942 0.000000 -0.011077
# 5 -0.005068 0.005975 -0.001920 0.000000 0.039298 0.000000
# 6 0.000000 0.000000 0.000000 -0.011077 0.000000 0.069962
#
#
# Mechanical properties :
#
#
# Convention : Reuss Voigt Hill
#
# Bulk Modulus (GPa) = 33.74702 37.19137 35.46920
# Shear Modulus (GPa) = 23.66153 29.29730 26.47941
#
# Velocity S-wave (km/s) = 3.36864 3.74841 3.56359
# Velocity P-wave (km/s) = 5.59598 6.04736 5.82604
#
# Compressibility (1/GPa) = 0.02963225
#
# Stress axis : x y z
#
# Youngs Moduli (GPa) = 55.11450 58.25527 94.13266
#
# Poissons Ratio (x) = 0.22193 0.48715
# Poissons Ratio (y) = 0.20997 -0.07854
# Poissons Ratio (z) = 0.28522 -0.04860
#
# Static dielectric constant tensor:
#      x y z
#    x 1.824760 0.000000 0.029550 
#    y 0.000000 1.826130 0.000000 
#    z 0.029550 0.000000 1.816260 
# 
# From -- ./inp_files/8682.got.cif
#   From: 2010.05.17/outbox.cif.g08.bks.cpg/sg4_5_cif.got.tgz:8682.got - 2010.06.03 18:43:04.
