data_PCOD9114051
_publ_section_title
;
Structure prediction by ZEFSAII (Michael W. Deem and Ramdas Pophale) SiO2 
 PCOD9114051
Probable space group: P 2
;
_chemical_formula_sum "Si O2"
_cell_formula_units_Z 12
_cell_length_a 10.059840
_cell_length_b 6.143609
_cell_length_c 17.283592
_cell_angle_alpha 90.000000
_cell_angle_beta 151.892656
_cell_angle_gamma 90.000000
_cell_volume 503.251117
_symmetry_space_group_name_H-M "P 2"
_symmetry_group_IT_number 3
_symmetry_cell_setting 'monoclinic'
loop_
_space_group_symop_operation_xyz
x,y,z
-x,y,-z
loop_
_atom_site_type_symbol
_atom_site_label
_atom_site_fract_x
_atom_site_fract_y
_atom_site_fract_z
Si Si1 0.500000 0.257951 0.000000
Si Si2 0.500000 0.549004 0.500000
Si Si3 0.000000 0.035065 0.500000
Si Si4 0.664191 0.671553 0.882655
Si Si5 0.995456 0.309066 0.847422
Si Si6 0.000000 0.060884 0.000000
Si Si7 0.176536 0.415954 0.690518
Si Si8 0.649483 0.688639 0.417791
O O1 0.756554 0.175307 0.073579
O O2 0.699124 0.385359 0.161360
O O3 0.593179 0.708466 0.478876
O O4 0.750381 0.399220 0.665005
O O5 0.800477 0.195074 0.346574
O O6 0.808723 0.891895 0.460210
O O7 0.784197 0.910037 0.936877
O O8 0.345549 0.622939 0.744489
O O9 0.630828 0.627318 0.773625
O O10 0.834194 0.510585 0.025235
O O11 0.874130 0.189658 0.862050
O O12 0.853994 0.480949 0.520179
#
# Coordination Sequence:
#
# PCOD9114051 Si02
#       8
#     1   1   1   2   2   1   2   2
#     4  10  24  48  78 102 144 204 240 306 382 440
#     4  12  26  50  72 112 164 194 236 326 396 418
#     4  12  24  44  78 112 138 206 260 306 364 460
#     4  11  24  47  75 104 146 198 253 313 357 449
#     4  11  26  50  77 105 156 200 246 315 378 453
#     4  12  26  46  76 114 138 204 258 298 382 460
#     4  11  23  48  75 106 147 193 256 314 370 436
#     4  12  24  46  73 112 145 197 248 314 370 452
#
# _framework density 23.844954999999999
#
# number of rings (size 3 to 8) (size 9 to 14) (size 15 to 20)
#    0.000    0.667    5.000    2.500    4.667    1.333 
#    6.000    5.833    0.000    0.000    0.000    0.000 
#    0.000    0.000    0.000    0.000    0.000    0.000 
#
# Total GULP energy -66829.032287 kJ/mol
# GULP energy per Si atom -5569.086024 kJ/mol
# Density = 2.379068 g / cm^3
# Si number density = 23.844955 Si / 1000 Ang^3
#
#
#
# Elastic Constant Matrix: (Units=GPa)
#
#
# Indices 1 2 3 4 5 6 
#
# 1 149.0703 50.9073 19.9850 0.0000 -21.4960 0.0000
# 2 50.9073 67.8466 29.9752 0.0000 -11.8885 0.0000
# 3 19.9850 29.9752 153.9409 0.0000 -26.0148 0.0000
# 4 0.0000 0.0000 0.0000 17.2840 0.0000 15.3688
# 5 -21.4960 -11.8885 -26.0148 0.0000 45.4756 0.0000
# 6 0.0000 0.0000 0.0000 15.3688 0.0000 2.2819
#
#
#
# Elastic Compliance Matrix: (Units=1/GPa)
#
#
# Indices 1 2 3 4 5 6 
#
# 1 0.009374 -0.006777 0.000611 0.000000 0.003009 0.000000
# 2 -0.006777 0.021325 -0.003179 0.000000 0.000553 0.000000
# 3 0.000611 -0.003179 0.007687 0.000000 0.003855 0.000000
# 4 0.000000 0.000000 0.000000 -0.011598 0.000000 0.078110
# 5 0.003009 0.000553 0.003855 0.000000 0.025762 0.000000
# 6 0.000000 0.000000 0.000000 0.078110 0.000000 -0.087843
#
#
# Mechanical properties :
#
#
# Convention : Reuss Voigt Hill
#
# Bulk Modulus (GPa) = 50.76797 63.62142 57.19470
# Shear Modulus (GPa) = -498.20525 31.00766 -233.59880
#
# Velocity S-wave (km/s) = -14.47028 3.61000 -9.90850
# Velocity P-wave (km/s) = 16.05765 6.64194 10.33762
#
# Compressibility (1/GPa) = 0.01969746
#
# Stress axis : x y z
#
# Youngs Moduli (GPa) = 106.67277 46.89251 130.08572
#
# Poissons Ratio (x) = 0.31777 -0.07949
# Poissons Ratio (y) = 0.72288 0.41357
# Poissons Ratio (z) = -0.06518 0.14908
#
# Static dielectric constant tensor:
#      x y z
#    x 2.068960 0.000000 0.026370 
#    y 0.000000 1.942100 0.000000 
#    z 0.026370 0.000000 1.890440 
# 
# From -- ./inp_files/15208.got.cif
#   From: 2010.05.17/outbox.cif.g08.bks.cpg/sg3_8_cif.got.tgz:15208.got - 2010.06.03 18:33:08.
