data_PCOD9114787
_publ_section_title
;
Structure prediction by ZEFSAII (Michael W. Deem and Ramdas Pophale) SiO2 
 PCOD9114787
Probable space group: P 21
;
_chemical_formula_sum "Si O2"
_cell_formula_units_Z 16
_cell_length_a 9.392223
_cell_length_b 11.215111
_cell_length_c 8.239541
_cell_angle_alpha 90.000000
_cell_angle_beta 69.393858
_cell_angle_gamma 90.000000
_cell_volume 812.383251
_symmetry_space_group_name_H-M "P 21"
_symmetry_group_IT_number 4
_symmetry_cell_setting 'monoclinic'
loop_
_space_group_symop_operation_xyz
x,y,z
-x,1/2+y,-z
loop_
_atom_site_type_symbol
_atom_site_label
_atom_site_fract_x
_atom_site_fract_y
_atom_site_fract_z
Si Si1 0.007348 0.200590 0.915127
Si Si2 0.096062 0.066374 0.175783
Si Si3 0.781949 0.163159 0.468129
Si Si4 0.317094 0.642977 0.827325
Si Si5 0.225614 0.431948 0.329051
Si Si6 0.611494 0.727474 0.876338
Si Si7 0.054957 0.822855 0.364220
Si Si8 0.758846 0.891572 0.041628
O O1 0.007879 0.214087 0.721362
O O2 0.831556 0.204430 0.037163
O O3 0.107757 0.310990 0.940527
O O4 0.073205 0.089239 0.992116
O O5 0.105635 0.930064 0.226303
O O6 0.245327 0.138131 0.172072
O O7 0.946480 0.124997 0.321811
O O8 0.671583 0.187069 0.361829
O O9 0.815257 0.273352 0.571291
O O10 0.730423 0.051823 0.597780
O O11 0.457887 0.664678 0.888550
O O12 0.286990 0.500708 0.828169
O O13 0.353191 0.329491 0.271397
O O14 0.191823 0.449372 0.151012
O O15 0.079380 0.376572 0.473827
O O16 0.623373 0.802302 0.039921
#
# Coordination Sequence:
#
# PCOD9114787 Si02
#       8
#     2   2   2   2   2   2   2   2
#     4  10  19  33  59  89 109 151 205 241 293 345
#     4   9  19  37  55  87 118 153 202 251 293 355
#     4  10  19  34  58  85 115 154 206 245 297 344
#     4  11  21  37  60  86 121 159 194 251 293 362
#     4   9  18  36  60  82 116 152 191 249 303 344
#     4   9  20  38  59  80 126 154 196 245 306 355
#     4  11  19  33  64  89 117 155 203 253 295 346
#     4   9  19  38  59  84 114 156 195 253 290 349
#
# _framework density 19.695139000000001
#
# number of rings (size 3 to 8) (size 9 to 14) (size 15 to 20)
#    0.750    1.500    1.250    3.750    0.000    1.000 
#    2.250    0.000   11.000    0.000    0.000    0.000 
#    0.000    0.000    0.000    0.000    0.000    0.000 
#
# Total GULP energy -89140.183810 kJ/mol
# GULP energy per Si atom -5571.261488 kJ/mol
# Density = 1.965031 g / cm^3
# Si number density = 19.695139 Si / 1000 Ang^3
#
#
#
# Elastic Constant Matrix: (Units=GPa)
#
#
# Indices 1 2 3 4 5 6 
#
# 1 83.3520 14.0684 -2.3033 0.0000 23.4472 0.0000
# 2 14.0684 67.8774 1.2709 0.0000 5.8583 0.0000
# 3 -2.3033 1.2709 56.7020 0.0000 23.3247 0.0000
# 4 0.0000 0.0000 0.0000 32.3103 0.0000 1.9508
# 5 23.4472 5.8583 23.3247 0.0000 21.3270 0.0000
# 6 0.0000 0.0000 0.0000 1.9508 0.0000 14.9922
#
#
#
# Elastic Compliance Matrix: (Units=1/GPa)
#
#
# Indices 1 2 3 4 5 6 
#
# 1 0.030869 -0.001428 0.027422 0.000000 -0.063537 0.000000
# 2 -0.001428 0.015351 0.001249 0.000000 -0.004013 0.000000
# 3 0.027422 0.001249 0.056834 0.000000 -0.092649 0.000000
# 4 0.000000 0.000000 0.000000 0.031195 0.000000 -0.004059
# 5 -0.063537 -0.004013 -0.092649 0.000000 0.219172 0.000000
# 6 0.000000 0.000000 0.000000 -0.004059 0.000000 0.067230
#
#
# Mechanical properties :
#
#
# Convention : Reuss Voigt Hill
#
# Bulk Modulus (GPa) = 6.34758 26.00038 16.17398
# Shear Modulus (GPa) = 11.94234 26.71891 19.33062
#
# Velocity S-wave (km/s) = 2.46511 3.68723 3.13628
# Velocity P-wave (km/s) = 3.36634 5.59979 4.62006
#
# Compressibility (1/GPa) = 0.15754028
#
# Stress axis : x y z
#
# Youngs Moduli (GPa) = 32.39471 65.14103 17.59521
#
# Poissons Ratio (x) = 0.09301 -0.48250
# Poissons Ratio (y) = 0.04625 -0.02197
# Poissons Ratio (z) = -0.88834 -0.08133
#
# Static dielectric constant tensor:
#      x y z
#    x 1.676910 0.000000 0.012000 
#    y 0.000000 1.725360 0.000000 
#    z 0.012000 0.000000 1.720520 
# 
# From -- ./inp_files/6271.got.cif
#   From: 2010.05.17/outbox.cif.g08.bks.cpg/sg4_4_cif.got.tgz:6271.got - 2010.06.03 18:43:04.
