data_PCOD9114951
_publ_section_title
;
Structure prediction by ZEFSAII (Michael W. Deem and Ramdas Pophale) SiO2 
 PCOD9114951
Probable space group: P 21
;
_chemical_formula_sum "Si O2"
_cell_formula_units_Z 16
_cell_length_a 10.279164
_cell_length_b 5.013630
_cell_length_c 19.614543
_cell_angle_alpha 90.000000
_cell_angle_beta 51.066142
_cell_angle_gamma 90.000000
_cell_volume 786.314652
_symmetry_space_group_name_H-M "P 21"
_symmetry_group_IT_number 4
_symmetry_cell_setting 'monoclinic'
loop_
_space_group_symop_operation_xyz
x,y,z
-x,1/2+y,-z
loop_
_atom_site_type_symbol
_atom_site_label
_atom_site_fract_x
_atom_site_fract_y
_atom_site_fract_z
Si Si1 0.547721 0.958400 0.896965
Si Si2 0.727780 0.413962 0.439213
Si Si3 0.642842 0.913676 0.380907
Si Si4 0.335246 0.457495 0.998176
Si Si5 0.022045 0.270549 0.445974
Si Si6 0.394845 0.271747 0.272779
Si Si7 0.609347 0.758089 0.239465
Si Si8 0.895838 0.703700 0.032812
O O1 0.393522 0.757105 0.963211
O O2 0.609320 0.883146 0.802595
O O3 0.483354 0.260325 0.923679
O O4 0.675149 0.918776 0.917308
O O5 0.703728 0.200341 0.386536
O O6 0.558171 0.397016 0.540484
O O7 0.888453 0.353220 0.432305
O O8 0.727205 0.701448 0.404000
O O9 0.675442 0.844667 0.291720
O O10 0.179079 0.351881 0.008401
O O11 0.206924 0.217966 0.357158
O O12 0.037528 0.509202 0.494939
O O13 0.487861 0.502598 0.285324
O O14 0.504705 0.005850 0.243688
O O15 0.755853 0.689560 0.137706
O O16 0.960293 0.411330 0.993267
#
# Coordination Sequence:
#
# PCOD9114951 Si02
#       8
#     2   2   2   2   2   2   2   2
#     4  10  19  37  63  88 114 160 201 256 297 367
#     4  10  21  40  62  90 127 158 205 243 305 366
#     4  10  21  39  64  87 121 171 198 247 295 364
#     4  10  20  38  62  86 120 153 206 248 311 368
#     4  12  25  41  64  97 131 162 202 258 316 356
#     4  12  22  40  66  91 124 162 208 263 301 364
#     4  12  24  42  65  93 120 161 222 246 304 377
#     4  12  24  41  62  90 127 161 202 261 311 366
#
# _framework density 20.348088000000001
#
# number of rings (size 3 to 8) (size 9 to 14) (size 15 to 20)
#    0.000    1.000    2.500    5.250    0.000    2.000 
#    4.500    0.000    0.000    0.000    0.000    0.000 
#    0.000    0.000    0.000    0.000    0.000    0.000 
#
# Total GULP energy -89465.053121 kJ/mol
# GULP energy per Si atom -5591.565820 kJ/mol
# Density = 2.030177 g / cm^3
# Si number density = 20.348088 Si / 1000 Ang^3
#
#
#
# Elastic Constant Matrix: (Units=GPa)
#
#
# Indices 1 2 3 4 5 6 
#
# 1 73.9508 -22.3339 13.7386 0.0000 1.8518 0.0000
# 2 -22.3339 53.0298 -9.8943 0.0000 -9.6809 0.0000
# 3 13.7386 -9.8943 54.0853 0.0000 -2.4425 0.0000
# 4 0.0000 0.0000 0.0000 10.8119 0.0000 5.0071
# 5 1.8518 -9.6809 -2.4425 0.0000 26.2311 0.0000
# 6 0.0000 0.0000 0.0000 5.0071 0.0000 25.2306
#
#
#
# Elastic Compliance Matrix: (Units=1/GPa)
#
#
# Indices 1 2 3 4 5 6 
#
# 1 0.015948 0.006361 -0.002844 0.000000 0.000957 0.000000
# 2 0.006361 0.023682 0.003104 0.000000 0.008580 0.000000
# 3 -0.002844 0.003104 0.019924 0.000000 0.003202 0.000000
# 4 0.000000 0.000000 0.000000 0.101851 0.000000 -0.020213
# 5 0.000957 0.008580 0.003202 0.000000 0.041520 0.000000
# 6 0.000000 0.000000 0.000000 -0.020213 0.000000 0.043646
#
#
# Mechanical properties :
#
#
# Convention : Reuss Voigt Hill
#
# Bulk Modulus (GPa) = 13.73731 16.00965 14.87348
# Shear Modulus (GPa) = 19.41037 25.75843 22.58440
#
# Velocity S-wave (km/s) = 3.09190 3.56179 3.33513
# Velocity P-wave (km/s) = 4.41727 4.97997 4.70704
#
# Compressibility (1/GPa) = 0.07279445
#
# Stress axis : x y z
#
# Youngs Moduli (GPa) = 62.70420 42.22690 50.19016
#
# Poissons Ratio (x) = -0.26859 0.14275
# Poissons Ratio (y) = -0.39883 -0.15579
# Poissons Ratio (z) = 0.17835 -0.13107
#
# Static dielectric constant tensor:
#      x y z
#    x 1.763180 0.000000 -0.002410 
#    y 0.000000 1.701460 0.000000 
#    z -0.002410 0.000000 1.693100 
# 
# From -- ./inp_files/13448.got.cif
#   From: 2010.05.17/outbox.cif.g08.bks.cpg/sg4_7_cif.got.tgz:13448.got - 2010.06.03 18:43:04.
