data_PCOD9114877
_publ_section_title
;
Structure prediction by ZEFSAII (Michael W. Deem and Ramdas Pophale) SiO2 
 PCOD9114877
Probable space group: P 21
;
_chemical_formula_sum "Si O2"
_cell_formula_units_Z 16
_cell_length_a 22.044891
_cell_length_b 4.987406
_cell_length_c 16.650638
_cell_angle_alpha 90.000000
_cell_angle_beta 153.721236
_cell_angle_gamma 90.000000
_cell_volume 810.515321
_symmetry_space_group_name_H-M "P 21"
_symmetry_group_IT_number 4
_symmetry_cell_setting 'monoclinic'
loop_
_space_group_symop_operation_xyz
x,y,z
-x,1/2+y,-z
loop_
_atom_site_type_symbol
_atom_site_label
_atom_site_fract_x
_atom_site_fract_y
_atom_site_fract_z
Si Si1 0.542543 0.772440 0.446695
Si Si2 0.490099 0.153354 0.044211
Si Si3 0.670335 0.275941 0.682376
Si Si4 0.927756 0.294581 0.511584
Si Si5 0.730466 0.789472 0.534741
Si Si6 0.185087 0.293619 0.715740
Si Si7 0.915244 0.545165 0.895948
Si Si8 0.758203 0.280834 0.464575
O O1 0.580870 0.472629 0.519252
O O2 0.391065 0.813877 0.301746
O O3 0.581830 0.808654 0.401024
O O4 0.640024 0.979943 0.612199
O O5 0.345180 0.228348 0.913068
O O6 0.510923 0.357952 0.994623
O O7 0.619238 0.189021 0.255336
O O8 0.821099 0.386168 0.847832
O O9 0.877023 0.584803 0.422443
O O10 0.881820 0.256964 0.548287
O O11 0.087570 0.265055 0.678019
O O12 0.844004 0.083643 0.357109
O O13 0.826515 0.663789 0.717579
O O14 0.736818 0.582762 0.469248
O O15 0.776595 0.080551 0.560947
O O16 0.986161 0.807351 0.016731
#
# Coordination Sequence:
#
# PCOD9114877 Si02
#       8
#     2   2   2   2   2   2   2   2
#     4   9  17  33  54  81 108 137 179 230 273 326
#     4  12  21  36  59  89 113 148 199 244 274 324
#     4   9  17  31  57  84 103 134 184 232 271 313
#     4  10  20  34  59  83 112 153 190 234 282 332
#     4  11  23  37  57  86 115 148 185 228 291 352
#     4  10  19  36  56  86 111 143 202 242 270 326
#     4  11  21  37  60  85 110 146 191 234 275 335
#     4  12  22  36  58  86 120 153 186 234 294 342
#
# _framework density 19.740527
#
# number of rings (size 3 to 8) (size 9 to 14) (size 15 to 20)
#    0.000    1.500    2.500    5.250    0.000    0.000 
#    0.000    0.000    8.250    0.000    0.000    0.000 
#    0.000    0.000    0.000    0.000    0.000    0.000 
#
# Total GULP energy -89273.920142 kJ/mol
# GULP energy per Si atom -5579.620009 kJ/mol
# Density = 1.969560 g / cm^3
# Si number density = 19.740527 Si / 1000 Ang^3
#
#
#
# Elastic Constant Matrix: (Units=GPa)
#
#
# Indices 1 2 3 4 5 6 
#
# 1 135.9659 -3.0459 13.4138 0.0000 24.6643 0.0000
# 2 -3.0459 60.3290 1.6746 0.0000 2.4942 0.0000
# 3 13.4138 1.6746 45.7504 0.0000 15.7857 0.0000
# 4 0.0000 0.0000 0.0000 22.8843 0.0000 -0.1070
# 5 24.6643 2.4942 15.7857 0.0000 24.6391 0.0000
# 6 0.0000 0.0000 0.0000 -0.1070 0.0000 33.1081
#
#
#
# Elastic Compliance Matrix: (Units=1/GPa)
#
#
# Indices 1 2 3 4 5 6 
#
# 1 0.009041 0.000833 0.000604 0.000000 -0.009522 0.000000
# 2 0.000833 0.016722 0.000020 0.000000 -0.002540 0.000000
# 3 0.000604 0.000020 0.028101 0.000000 -0.018611 0.000000
# 4 0.000000 0.000000 0.000000 0.043699 0.000000 0.000141
# 5 -0.009522 -0.002540 -0.018611 0.000000 0.062298 0.000000
# 6 0.000000 0.000000 0.000000 0.000141 0.000000 0.030205
#
#
# Mechanical properties :
#
#
# Convention : Reuss Voigt Hill
#
# Bulk Modulus (GPa) = 17.61200 29.57002 23.59101
# Shear Modulus (GPa) = 24.26269 31.45981 27.86125
#
# Velocity S-wave (km/s) = 3.50963 3.99641 3.76090
# Velocity P-wave (km/s) = 5.03631 6.02552 5.55299
#
# Compressibility (1/GPa) = 0.05677946
#
# Stress axis : x y z
#
# Youngs Moduli (GPa) = 110.60583 59.80035 35.58553
#
# Poissons Ratio (x) = -0.04984 -0.02150
# Poissons Ratio (y) = -0.09217 -0.00071
# Poissons Ratio (z) = -0.06681 -0.00119
#
# Static dielectric constant tensor:
#      x y z
#    x 1.743270 0.000000 0.045160 
#    y 0.000000 1.680190 0.000000 
#    z 0.045160 0.000000 1.700830 
# 
# From -- ./inp_files/14397.got.cif
#   From: 2010.05.17/outbox.cif.g08.bks.cpg/sg4_8_cif.got.tgz:14397.got - 2010.06.03 18:43:04.
