data_PCOD9114379
_publ_section_title
;
Structure prediction by ZEFSAII (Michael W. Deem and Ramdas Pophale) SiO2 
 PCOD9114379
Probable space group: P 2
;
_chemical_formula_sum "Si O2"
_cell_formula_units_Z 13
_cell_length_a 9.270007
_cell_length_b 5.230405
_cell_length_c 12.279652
_cell_angle_alpha 90.000000
_cell_angle_beta 76.852386
_cell_angle_gamma 90.000000
_cell_volume 579.783079
_symmetry_space_group_name_H-M "P 2"
_symmetry_group_IT_number 3
_symmetry_cell_setting 'monoclinic'
loop_
_space_group_symop_operation_xyz
x,y,z
-x,y,-z
loop_
_atom_site_type_symbol
_atom_site_label
_atom_site_fract_x
_atom_site_fract_y
_atom_site_fract_z
Si Si1 0.647811 0.165500 0.048730
Si Si2 0.050999 0.762254 0.294063
Si Si3 0.441606 0.279123 0.687648
Si Si4 0.750404 0.061363 0.583558
Si Si5 0.841683 0.662778 0.965734
Si Si6 0.000000 0.388958 0.500000
Si Si7 0.292215 0.784191 0.614127
O O1 0.598886 0.238250 0.179413
O O2 0.500000 0.149126 0.000000
O O3 0.754533 0.397605 0.995220
O O4 0.739364 0.899475 0.024296
O O5 0.150649 0.984382 0.329954
O O6 0.122263 0.693530 0.167754
O O7 0.051831 0.551921 0.389076
O O8 0.875097 0.802228 0.311470
O O9 0.373859 0.536243 0.648136
O O10 0.615973 0.239217 0.640529
O O11 0.375274 0.036512 0.637426
O O12 0.708509 0.814720 0.517393
O O13 0.863333 0.215774 0.487973
O O14 0.000000 0.661029 0.000000
#
# Coordination Sequence:
#
# PCOD9114379 Si02
#       7
#     2   2   2   2   2   1   2
#     4  12  27  52  74 112 147 200 258 310 375 445
#     4  12  26  46  77 107 151 198 256 306 374 447
#     4  12  29  47  77 104 157 195 247 312 385 441
#     4  12  27  46  74 112 148 204 247 308 375 460
#     4  12  28  49  79 111 150 199 255 316 375 439
#     4  12  24  46  76 110 148 194 256 306 366 456
#     4  12  26  49  71 114 149 197 243 314 375 457
#
# _framework density 22.422180999999998
#
# number of rings (size 3 to 8) (size 9 to 14) (size 15 to 20)
#    0.000    0.000    3.077    6.000    6.462    2.462 
#    0.000    0.000    0.000    0.000    0.000    0.000 
#    0.000    0.000    0.000    0.000    0.000    0.000 
#
# Total GULP energy -72788.709025 kJ/mol
# GULP energy per Si atom -5599.131463 kJ/mol
# Density = 2.237115 g / cm^3
# Si number density = 22.422181 Si / 1000 Ang^3
#
#
#
# Elastic Constant Matrix: (Units=GPa)
#
#
# Indices 1 2 3 4 5 6 
#
# 1 168.0395 45.1364 15.0448 0.0000 0.6359 0.0000
# 2 45.1364 93.9629 -18.7830 0.0000 7.2482 0.0000
# 3 15.0448 -18.7830 91.3132 0.0000 -6.0905 0.0000
# 4 0.0000 0.0000 0.0000 386.3362 0.0000 291.2650
# 5 0.6359 7.2482 -6.0905 0.0000 33.8993 0.0000
# 6 0.0000 0.0000 0.0000 291.2650 0.0000 283.6041
#
#
#
# Elastic Compliance Matrix: (Units=1/GPa)
#
#
# Indices 1 2 3 4 5 6 
#
# 1 0.007160 -0.003855 -0.001950 0.000000 0.000340 0.000000
# 2 -0.003855 0.013309 0.003226 0.000000 -0.002194 0.000000
# 3 -0.001950 0.003226 0.012037 0.000000 0.001509 0.000000
# 4 0.000000 0.000000 0.000000 0.011467 0.000000 -0.011777
# 5 0.000340 -0.002194 0.001509 0.000000 0.030233 0.000000
# 6 0.000000 0.000000 0.000000 -0.011777 0.000000 0.015621
#
#
# Mechanical properties :
#
#
# Convention : Reuss Voigt Hill
#
# Bulk Modulus (GPa) = 36.56624 48.45686 42.51155
# Shear Modulus (GPa) = 48.03027 161.56241 104.79634
#
# Velocity S-wave (km/s) = 4.63329 8.49771 6.84392
# Velocity P-wave (km/s) = 6.70572 10.86000 9.02514
#
# Compressibility (1/GPa) = 0.02734763
#
# Stress axis : x y z
#
# Youngs Moduli (GPa) = 139.66761 75.13914 83.07740
#
# Poissons Ratio (x) = 0.28969 0.16200
# Poissons Ratio (y) = 0.53847 -0.26805
# Poissons Ratio (z) = 0.27236 -0.24243
#
# Static dielectric constant tensor:
#      x y z
#    x 1.755890 0.000000 -0.028090 
#    y 0.000000 1.855450 0.000000 
#    z -0.028090 0.000000 1.836430 
# 
# From -- ./inp_files/10215.got.cif
#   From: 2010.05.17/outbox.cif.g08.bks.cpg/sg3_6_cif.got.tgz:10215.got - 2010.06.03 18:33:08.
