data_PCOD9114118
_publ_section_title
;
Structure prediction by ZEFSAII (Michael W. Deem and Ramdas Pophale) SiO2 
 PCOD9114118
Probable space group: P 2
;
_chemical_formula_sum "Si O2"
_cell_formula_units_Z 10
_cell_length_a 5.046989
_cell_length_b 5.622897
_cell_length_c 13.395250
_cell_angle_alpha 90.000000
_cell_angle_beta 100.447093
_cell_angle_gamma 90.000000
_cell_volume 373.838106
_symmetry_space_group_name_H-M "P 2"
_symmetry_group_IT_number 3
_symmetry_cell_setting 'monoclinic'
loop_
_space_group_symop_operation_xyz
x,y,z
-x,y,-z
loop_
_atom_site_type_symbol
_atom_site_label
_atom_site_fract_x
_atom_site_fract_y
_atom_site_fract_z
Si Si1 0.093004 0.965800 0.227554
Si Si2 0.648517 0.703007 0.117403
Si Si3 0.482529 0.655110 0.385178
Si Si4 0.561141 0.214177 0.885805
Si Si5 0.985164 0.323203 0.385463
O O1 0.340063 0.850384 0.306686
O O2 0.965463 0.743564 0.155897
O O3 0.149822 0.163398 0.144168
O O4 0.940110 0.111392 0.304714
O O5 0.552773 0.461505 0.161247
O O6 0.565814 0.961696 0.149644
O O7 0.500000 0.697445 0.000000
O O8 0.500000 0.748697 0.500000
O O9 0.768460 0.540095 0.373529
O O10 0.271871 0.436542 0.376391
O O11 0.500000 0.225374 0.000000
O O12 0.000000 0.231585 0.500000
#
# Coordination Sequence:
#
# PCOD9114118 Si02
#       5
#     2   2   2   2   2
#     4  12  28  45  86 118 166 220 285 340 426 504
#     4  10  26  51  78 116 167 215 281 344 419 490
#     4  10  26  50  77 118 170 220 279 349 419 502
#     4  10  26  51  78 116 167 215 281 344 419 490
#     4  10  26  50  77 118 170 220 279 349 419 502
#
# _framework density 26.749542999999999
#
# number of rings (size 3 to 8) (size 9 to 14) (size 15 to 20)
#    0.000    1.600    0.000    0.000   11.200    8.000 
#    0.000   16.000    0.000    0.000    0.000    0.000 
#    0.000    0.000    0.000    0.000    0.000    0.000 
#
# Total GULP energy -55823.875324 kJ/mol
# GULP energy per Si atom -5582.387532 kJ/mol
# Density = 2.668866 g / cm^3
# Si number density = 26.749543 Si / 1000 Ang^3
#
#
#
# Elastic Constant Matrix: (Units=GPa)
#
#
# Indices 1 2 3 4 5 6 
#
# 1 76.4282 44.9953 32.7016 0.0000 4.6650 0.0000
# 2 44.9953 194.0489 42.0222 0.0000 1.2335 0.0000
# 3 32.7016 42.0222 208.3546 0.0000 -5.1877 0.0000
# 4 0.0000 0.0000 0.0000 41.8824 0.0000 2.5634
# 5 4.6650 1.2335 -5.1877 0.0000 37.0548 0.0000
# 6 0.0000 0.0000 0.0000 2.5634 0.0000 67.4437
#
#
#
# Elastic Compliance Matrix: (Units=1/GPa)
#
#
# Indices 1 2 3 4 5 6 
#
# 1 0.015957 -0.003275 -0.001898 0.000000 -0.002165 0.000000
# 2 -0.003275 0.006065 -0.000706 0.000000 0.000112 0.000000
# 3 -0.001898 -0.000706 0.005265 0.000000 0.001000 0.000000
# 4 0.000000 0.000000 0.000000 0.023932 0.000000 -0.000910
# 5 -0.002165 0.000112 0.001000 0.000000 0.027396 0.000000
# 6 0.000000 0.000000 0.000000 -0.000910 0.000000 0.014862
#
#
# Mechanical properties :
#
#
# Convention : Reuss Voigt Hill
#
# Bulk Modulus (GPa) = 64.40155 79.80775 72.10465
# Shear Modulus (GPa) = 45.28549 53.21703 49.25126
#
# Velocity S-wave (km/s) = 4.11900 4.46517 4.29558
# Velocity P-wave (km/s) = 6.83737 7.51556 7.18447
#
# Compressibility (1/GPa) = 0.01552758
#
# Stress axis : x y z
#
# Youngs Moduli (GPa) = 62.67016 164.87914 189.94342
#
# Poissons Ratio (x) = 0.54001 0.36047
# Poissons Ratio (y) = 0.20526 0.13418
# Poissons Ratio (z) = 0.11893 0.11647
#
# Static dielectric constant tensor:
#      x y z
#    x -7.126850 0.000000 -2.441440 
#    y 0.000000 2.056200 0.000000 
#    z -2.441440 0.000000 1.576410 
# 
# From -- ./inp_files/12843.got.cif
#   From: 2010.05.17/outbox.cif.g08.bks.cpg/sg3_7_cif.got.tgz:12843.got - 2010.06.03 18:33:08.
