data_PCOD9114657
_publ_section_title
;
Structure prediction by ZEFSAII (Michael W. Deem and Ramdas Pophale) SiO2 
 PCOD9114657
Probable space group: P 21
;
_chemical_formula_sum "Si O2"
_cell_formula_units_Z 14
_cell_length_a 4.998897
_cell_length_b 17.754874
_cell_length_c 7.199652
_cell_angle_alpha 90.000000
_cell_angle_beta 113.929648
_cell_angle_gamma 90.000000
_cell_volume 584.077505
_symmetry_space_group_name_H-M "P 21"
_symmetry_group_IT_number 4
_symmetry_cell_setting 'monoclinic'
loop_
_space_group_symop_operation_xyz
x,y,z
-x,1/2+y,-z
loop_
_atom_site_type_symbol
_atom_site_label
_atom_site_fract_x
_atom_site_fract_y
_atom_site_fract_z
Si Si1 0.749999 0.688290 0.500000
Si Si2 0.117386 0.618906 0.247809
Si Si3 0.763962 0.993431 0.425622
Si Si4 0.293297 0.106856 0.219086
Si Si5 0.206705 0.269724 0.780914
Si Si6 0.617389 0.257674 0.247808
Si Si7 0.736038 0.383149 0.574378
O O1 0.435667 0.653099 0.314499
O O2 0.831512 0.601308 0.611005
O O3 0.668486 0.775272 0.388994
O O4 0.064329 0.723481 0.685502
O O5 0.140277 0.542343 0.367796
O O6 0.933551 0.684733 0.308956
O O7 0.937194 0.610495 0.008176
O O8 0.527093 0.929612 0.414014
O O9 0.027092 0.946968 0.414012
O O10 0.556101 0.051264 0.250236
O O11 0.433556 0.191847 0.308955
O O12 0.943899 0.325316 0.749765
O O13 0.437197 0.266084 0.008176
O O14 0.640280 0.334237 0.367796
#
# Coordination Sequence:
#
# PCOD9114657 Si02
#       7
#     2   2   2   2   2   2   2
#     4  10  18  36  64  92 120 158 210 276 322 378
#     4  10  23  41  67  96 127 174 228 277 329 397
#     4  11  26  43  66  96 140 179 218 277 341 401
#     4  10  23  41  67  96 127 174 228 277 329 397
#     4  10  23  41  67  96 127 174 228 277 329 397
#     4  10  23  41  67  96 127 174 228 277 329 397
#     4  11  26  43  66  96 140 179 218 277 341 401
#
# _framework density 23.969418999999998
#
# number of rings (size 3 to 8) (size 9 to 14) (size 15 to 20)
#    0.000    1.714    0.000    4.286   16.000    2.286 
#    0.000    0.000    0.000    0.000    0.000    0.000 
#    0.000    0.000    0.000    0.000    0.000    0.000 
#
# Total GULP energy -77938.304632 kJ/mol
# GULP energy per Si atom -5567.021759 kJ/mol
# Density = 2.391486 g / cm^3
# Si number density = 23.969419 Si / 1000 Ang^3
#
#
#
# Elastic Constant Matrix: (Units=GPa)
#
#
# Indices 1 2 3 4 5 6 
#
# 1 77.3250 38.4932 19.3105 0.0000 17.8610 0.0000
# 2 38.4932 119.3825 51.9329 0.0000 17.8036 0.0000
# 3 19.3105 51.9329 245.3132 0.0000 38.2177 0.0000
# 4 0.0000 0.0000 0.0000 34.2017 0.0000 16.7992
# 5 17.8610 17.8036 38.2177 0.0000 28.3879 0.0000
# 6 0.0000 0.0000 0.0000 16.7992 0.0000 45.7271
#
#
#
# Elastic Compliance Matrix: (Units=1/GPa)
#
#
# Indices 1 2 3 4 5 6 
#
# 1 0.017106 -0.004593 0.001080 0.000000 -0.009336 0.000000
# 2 -0.004593 0.010832 -0.001675 0.000000 -0.001649 0.000000
# 3 0.001080 -0.001675 0.005426 0.000000 -0.006935 0.000000
# 4 0.000000 0.000000 0.000000 0.035676 0.000000 -0.013107
# 5 -0.009336 -0.001649 -0.006935 0.000000 0.051470 0.000000
# 6 0.000000 0.000000 0.000000 -0.013107 0.000000 0.026684
#
#
# Mechanical properties :
#
#
# Convention : Reuss Voigt Hill
#
# Bulk Modulus (GPa) = 43.49923 73.49932 58.49927
# Shear Modulus (GPa) = 30.26050 43.81562 37.03806
#
# Velocity S-wave (km/s) = 3.55697 4.28013 3.93519
# Velocity P-wave (km/s) = 5.92086 7.42673 6.71613
#
# Compressibility (1/GPa) = 0.02298891
#
# Stress axis : x y z
#
# Youngs Moduli (GPa) = 58.46004 92.32065 184.28889
#
# Poissons Ratio (x) = 0.42404 -0.19910
# Poissons Ratio (y) = 0.26851 0.30862
# Poissons Ratio (z) = -0.06316 0.15461
#
# Static dielectric constant tensor:
#      x y z
#    x 2.310270 0.000000 -0.180720 
#    y 0.000000 2.040630 0.000000 
#    z -0.180720 0.000000 1.918370 
# 
# From -- ./inp_files/1469.got.cif
#   From: 2010.05.17/outbox.cif.g08.bks.cpg/sg4_1_cif.got.tgz:1469.got - 2010.06.03 18:43:04.
