data_PCOD9114674
_publ_section_title
;
Structure prediction by ZEFSAII (Michael W. Deem and Ramdas Pophale) SiO2 
 PCOD9114674
Probable space group: P 21
;
_chemical_formula_sum "Si O2"
_cell_formula_units_Z 16
_cell_length_a 7.972049
_cell_length_b 10.794515
_cell_length_c 7.164435
_cell_angle_alpha 90.000000
_cell_angle_beta 97.855599
_cell_angle_gamma 90.000000
_cell_volume 610.745446
_symmetry_space_group_name_H-M "P 21"
_symmetry_group_IT_number 4
_symmetry_cell_setting 'monoclinic'
loop_
_space_group_symop_operation_xyz
x,y,z
-x,1/2+y,-z
loop_
_atom_site_type_symbol
_atom_site_label
_atom_site_fract_x
_atom_site_fract_y
_atom_site_fract_z
Si Si1 0.968449 0.962020 0.556067
Si Si2 0.816773 0.400412 0.113785
Si Si3 0.978450 0.656793 0.716484
Si Si4 0.732165 0.799460 0.083721
Si Si5 0.543919 0.235400 0.204575
Si Si6 0.880406 0.292667 0.748458
Si Si7 0.667403 0.776223 0.495479
Si Si8 0.781619 0.074343 0.976150
O O1 0.087022 0.000647 0.747856
O O2 0.083882 0.869808 0.438025
O O3 0.786313 0.896285 0.559397
O O4 0.926651 0.085725 0.435082
O O5 0.633261 0.365284 0.163230
O O6 0.945394 0.288601 0.205919
O O7 0.801594 0.385432 0.891142
O O8 0.796298 0.671887 0.594128
O O9 0.030323 0.577285 0.903614
O O10 0.641165 0.787714 0.270413
O O11 0.925130 0.773709 0.159344
O O12 0.730975 0.931884 0.977598
O O13 0.635175 0.713885 0.924733
O O14 0.502961 0.250435 0.415870
O O15 0.664540 0.138297 0.118172
O O16 0.785745 0.163063 0.794335
#
# Coordination Sequence:
#
# PCOD9114674 Si02
#       8
#     2   2   2   2   2   2   2   2
#     4  10  18  38  62  90 116 158 210 261 309 359
#     4   9  21  38  57  87 127 156 203 261 297 375
#     4   9  17  38  62  88 116 154 211 258 310 346
#     4  11  21  43  64  91 126 173 208 254 324 368
#     4  10  22  42  57  88 133 161 205 254 306 399
#     4   9  19  38  64  90 114 161 210 261 301 375
#     4  10  21  39  63  89 123 163 205 262 306 378
#     4  10  21  42  65  89 131 170 202 267 321 360
#
# _framework density 26.197495
#
# number of rings (size 3 to 8) (size 9 to 14) (size 15 to 20)
#    0.000    2.500    2.500    2.250    0.000    2.000 
#   22.500    0.000    0.000    0.000    0.000    0.000 
#    0.000    0.000    0.000    0.000    0.000    0.000 
#
# Total GULP energy -89086.221208 kJ/mol
# GULP energy per Si atom -5567.888825 kJ/mol
# Density = 2.613787 g / cm^3
# Si number density = 26.197495 Si / 1000 Ang^3
#
#
#
# Elastic Constant Matrix: (Units=GPa)
#
#
# Indices 1 2 3 4 5 6 
#
# 1 38.3224 28.3323 22.2933 0.0000 -22.6657 0.0000
# 2 28.3323 65.9607 15.1969 0.0000 -26.2925 0.0000
# 3 22.2933 15.1969 177.7234 0.0000 -46.7494 0.0000
# 4 0.0000 0.0000 0.0000 36.8957 0.0000 -5.7394
# 5 -22.6657 -26.2925 -46.7494 0.0000 57.6235 0.0000
# 6 0.0000 0.0000 0.0000 -5.7394 0.0000 23.0004
#
#
#
# Elastic Compliance Matrix: (Units=1/GPa)
#
#
# Indices 1 2 3 4 5 6 
#
# 1 0.043187 -0.014608 -0.001847 0.000000 0.008824 0.000000
# 2 -0.014608 0.023565 0.001442 0.000000 0.006176 0.000000
# 3 -0.001847 0.001442 0.007268 0.000000 0.005828 0.000000
# 4 0.000000 0.000000 0.000000 0.028198 0.000000 0.007036
# 5 0.008824 0.006176 0.005828 0.000000 0.028371 0.000000
# 6 0.000000 0.000000 0.000000 0.007036 0.000000 0.045233
#
#
# Mechanical properties :
#
#
# Convention : Reuss Voigt Hill
#
# Bulk Modulus (GPa) = 22.73024 45.96128 34.34576
# Shear Modulus (GPa) = 22.67439 37.91618 30.29528
#
# Velocity S-wave (km/s) = 2.94516 3.80849 3.40431
# Velocity P-wave (km/s) = 4.50118 6.07633 5.34707
#
# Compressibility (1/GPa) = 0.04399425
#
# Stress axis : x y z
#
# Youngs Moduli (GPa) = 23.15492 42.43640 137.58666
#
# Poissons Ratio (x) = 0.61990 0.25416
# Poissons Ratio (y) = 0.33824 -0.19840
# Poissons Ratio (z) = 0.04277 -0.06119
#
# Static dielectric constant tensor:
#      x y z
#    x 2.121800 0.000000 -0.050490 
#    y 0.000000 2.313840 0.000000 
#    z -0.050490 0.000000 2.202620 
# 
# From -- ./inp_files/6116.got.cif
#   From: 2010.05.17/outbox.cif.g08.bks.cpg/sg4_4_cif.got.tgz:6116.got - 2010.06.03 18:43:04.
