data_PCOD9114389
_publ_section_title
;
Structure prediction by ZEFSAII (Michael W. Deem and Ramdas Pophale) SiO2 
 PCOD9114389
Probable space group: P 2
;
_chemical_formula_sum "Si O2"
_cell_formula_units_Z 14
_cell_length_a 7.992190
_cell_length_b 6.321347
_cell_length_c 17.205788
_cell_angle_alpha 90.000000
_cell_angle_beta 41.288026
_cell_angle_gamma 90.000000
_cell_volume 573.576960
_symmetry_space_group_name_H-M "P 2"
_symmetry_group_IT_number 3
_symmetry_cell_setting 'monoclinic'
loop_
_space_group_symop_operation_xyz
x,y,z
-x,y,-z
loop_
_atom_site_type_symbol
_atom_site_label
_atom_site_fract_x
_atom_site_fract_y
_atom_site_fract_z
Si Si1 0.655867 0.319230 0.520626
Si Si2 0.348481 0.739273 0.650882
Si Si3 0.521142 0.923046 0.860913
Si Si4 0.500000 0.572347 0.000000
Si Si5 0.716059 0.012563 0.621209
Si Si6 0.000000 0.133028 0.000000
Si Si7 0.954611 0.401885 0.161227
Si Si8 0.028293 0.107334 0.703790
O O1 0.500000 0.218602 0.500000
O O2 0.545837 0.554998 0.558295
O O3 0.927245 0.243392 0.390148
O O4 0.675473 0.253030 0.604391
O O5 0.527076 0.909813 0.625811
O O6 0.174143 0.625933 0.776328
O O7 0.159152 0.873534 0.660791
O O8 0.628592 0.926186 0.734990
O O9 0.229817 0.997657 0.956221
O O10 0.542166 0.718978 0.908718
O O11 0.729379 0.080978 0.824243
O O12 0.252711 0.440144 0.064952
O O13 0.000000 0.947343 0.500000
O O14 0.110793 0.285972 0.895169
O O15 0.871776 0.248639 0.260039
#
# Coordination Sequence:
#
# PCOD9114389 Si02
#       8
#     2   2   2   1   2   1   2   2
#     4  12  25  45  76 109 150 205 264 322 405 484
#     4  12  26  46  76 113 151 207 270 324 406 485
#     4  12  27  51  82 113 162 214 265 333 408 470
#     4  12  28  48  84 118 156 220 284 322 396 498
#     4  12  28  48  73 116 162 207 262 338 407 470
#     4  12  28  48  78 116 166 206 268 352 400 462
#     4  12  27  49  75 117 152 210 276 331 400 476
#     4  12  25  50  79 108 160 209 266 330 403 486
#
# _framework density 24.408235999999999
#
# number of rings (size 3 to 8) (size 9 to 14) (size 15 to 20)
#    0.000    0.000    5.714    3.429    6.000    1.714 
#    5.143    0.000    0.000    0.000    0.000    0.000 
#    0.000    0.000    0.000    0.000    0.000    0.000 
#
# Total GULP energy -78103.123140 kJ/mol
# GULP energy per Si atom -5578.794510 kJ/mol
# Density = 2.435268 g / cm^3
# Si number density = 24.408236 Si / 1000 Ang^3
#
#
#
# Elastic Constant Matrix: (Units=GPa)
#
#
# Indices 1 2 3 4 5 6 
#
# 1 91.6303 14.7891 8.4944 0.0000 -0.1633 0.0000
# 2 14.7891 46.4683 19.1196 0.0000 -1.4980 0.0000
# 3 8.4944 19.1196 93.2280 0.0000 13.0192 0.0000
# 4 0.0000 0.0000 0.0000 47.8637 0.0000 -9.2278
# 5 -0.1633 -1.4980 13.0192 0.0000 66.2098 0.0000
# 6 0.0000 0.0000 0.0000 -9.2278 0.0000 10.7110
#
#
#
# Elastic Compliance Matrix: (Units=1/GPa)
#
#
# Indices 1 2 3 4 5 6 
#
# 1 0.011513 -0.003529 -0.000327 0.000000 0.000013 0.000000
# 2 -0.003529 0.024735 -0.004964 0.000000 0.001527 0.000000
# 3 -0.000327 -0.004964 0.012123 0.000000 -0.002497 0.000000
# 4 0.000000 0.000000 0.000000 0.025054 0.000000 0.021585
# 5 0.000013 0.001527 -0.002497 0.000000 0.015629 0.000000
# 6 0.000000 0.000000 0.000000 0.021585 0.000000 0.111957
#
#
# Mechanical properties :
#
#
# Convention : Reuss Voigt Hill
#
# Bulk Modulus (GPa) = 32.54154 35.12587 33.83370
# Shear Modulus (GPa) = 21.84390 37.55181 29.69785
#
# Velocity S-wave (km/s) = 2.99480 3.92661 3.49193
# Velocity P-wave (km/s) = 5.03186 5.91439 5.49088
#
# Compressibility (1/GPa) = 0.03072996
#
# Stress axis : x y z
#
# Youngs Moduli (GPa) = 86.85542 40.42825 82.48765
#
# Poissons Ratio (x) = 0.14268 0.02698
# Poissons Ratio (y) = 0.30654 0.40951
# Poissons Ratio (z) = 0.02840 0.20071
#
# Static dielectric constant tensor:
#      x y z
#    x 2.003420 0.000000 -0.046570 
#    y 0.000000 1.931830 0.000000 
#    z -0.046570 0.000000 2.089210 
# 
# From -- ./inp_files/14820.got.cif
#   From: 2010.05.17/outbox.cif.g08.bks.cpg/sg3_8_cif.got.tgz:14820.got - 2010.06.03 18:33:08.
