data_PCOD9114964
_publ_section_title
;
Structure prediction by ZEFSAII (Michael W. Deem and Ramdas Pophale) SiO2 
 PCOD9114964
Probable space group: P 21
;
_chemical_formula_sum "Si O2"
_cell_formula_units_Z 16
_cell_length_a 32.752642
_cell_length_b 5.009949
_cell_length_c 25.855619
_cell_angle_alpha 90.000000
_cell_angle_beta 170.028329
_cell_angle_gamma 90.000000
_cell_volume 734.658071
_symmetry_space_group_name_H-M "P 21"
_symmetry_group_IT_number 4
_symmetry_cell_setting 'monoclinic'
loop_
_space_group_symop_operation_xyz
x,y,z
-x,1/2+y,-z
loop_
_atom_site_type_symbol
_atom_site_label
_atom_site_fract_x
_atom_site_fract_y
_atom_site_fract_z
Si Si1 0.234004 0.852550 0.964365
Si Si2 0.041638 0.837045 0.343078
Si Si3 0.852784 0.567819 0.328317
Si Si4 0.145375 0.861316 0.360316
Si Si5 0.984421 0.497698 0.911977
Si Si6 0.479682 0.366165 0.781212
Si Si7 0.472027 0.333370 0.998577
Si Si8 0.715945 0.997844 0.617468
O O1 0.345399 0.797057 0.047475
O O2 0.451960 0.923492 0.273831
O O3 0.085035 0.607146 0.799187
O O4 0.065181 0.106525 0.754807
O O5 0.005015 0.783286 0.236682
O O6 0.320149 0.849583 0.700373
O O7 0.756648 0.701788 0.260748
O O8 0.029135 0.318046 0.554539
O O9 0.634803 0.446748 0.024078
O O10 0.992231 0.929378 0.118902
O O11 0.324230 0.621168 0.571148
O O12 0.303342 0.121413 0.569997
O O13 0.883173 0.793600 0.794343
O O14 0.787001 0.294824 0.688523
O O15 0.210093 0.464379 0.230430
O O16 0.443222 0.626808 0.939629
#
# Coordination Sequence:
#
# PCOD9114964 Si02
#       8
#     2   2   2   2   2   2   2   2
#     4  12  24  43  65 101 131 171 217 271 321 382
#     4  12  28  43  65  96 138 172 213 264 334 396
#     4  12  28  47  69 100 128 165 221 282 323 381
#     4  12  22  45  66  97 128 181 215 265 322 391
#     4  10  19  37  66  95 128 172 216 268 326 372
#     4  12  25  43  70  93 132 165 228 270 315 381
#     4  12  28  49  68  93 133 178 215 260 340 403
#     4  10  20  37  63  99 130 164 221 274 313 380
#
# _framework density 21.778839999999999
#
# number of rings (size 3 to 8) (size 9 to 14) (size 15 to 20)
#    0.000    0.500    3.750    4.500    7.000    0.000 
#    0.000    1.250    0.000    0.000    0.000    0.000 
#    0.000    0.000    0.000    0.000    0.000    0.000 
#
# Total GULP energy -89586.038384 kJ/mol
# GULP energy per Si atom -5599.127399 kJ/mol
# Density = 2.172927 g / cm^3
# Si number density = 21.778840 Si / 1000 Ang^3
#
#
#
# Elastic Constant Matrix: (Units=GPa)
#
#
# Indices 1 2 3 4 5 6 
#
# 1 58.9689 -26.0779 -10.0233 0.0000 -2.4698 0.0000
# 2 -26.0779 79.8430 16.6922 0.0000 -0.2030 0.0000
# 3 -10.0233 16.6922 38.9812 0.0000 -5.4860 0.0000
# 4 0.0000 0.0000 0.0000 36.3158 0.0000 2.8641
# 5 -2.4698 -0.2030 -5.4860 0.0000 29.7928 0.0000
# 6 0.0000 0.0000 0.0000 2.8641 0.0000 35.4389
#
#
#
# Elastic Compliance Matrix: (Units=1/GPa)
#
#
# Indices 1 2 3 4 5 6 
#
# 1 0.020202 0.005988 0.002948 0.000000 0.002258 0.000000
# 2 0.005988 0.015561 -0.005173 0.000000 -0.000350 0.000000
# 3 0.002948 -0.005173 0.029418 0.000000 0.005626 0.000000
# 4 0.000000 0.000000 0.000000 0.027713 0.000000 -0.002240
# 5 0.002258 -0.000350 0.005626 0.000000 0.034786 0.000000
# 6 0.000000 0.000000 0.000000 -0.002240 0.000000 0.028399
#
#
# Mechanical properties :
#
#
# Convention : Reuss Voigt Hill
#
# Bulk Modulus (GPa) = 13.75388 15.44168 14.59778
# Shear Modulus (GPa) = 28.93718 33.45631 31.19675
#
# Velocity S-wave (km/s) = 3.64907 3.92367 3.78886
# Velocity P-wave (km/s) = 4.90746 5.25667 5.08506
#
# Compressibility (1/GPa) = 0.07270678
#
# Stress axis : x y z
#
# Youngs Moduli (GPa) = 49.50078 64.26416 33.99226
#
# Poissons Ratio (x) = -0.38478 -0.10022
# Poissons Ratio (y) = -0.29639 0.17584
# Poissons Ratio (z) = -0.14595 0.33244
#
# Static dielectric constant tensor:
#      x y z
#    x 1.802530 0.000000 -0.021800 
#    y 0.000000 1.750120 0.000000 
#    z -0.021800 0.000000 1.760570 
# 
# From -- ./inp_files/16266.got.cif
#   From: 2010.05.17/outbox.cif.g08.bks.cpg/sg4_9_cif.got.tgz:16266.got - 2010.06.03 18:43:04.
