data_PCOD9114164
_publ_section_title
;
Structure prediction by ZEFSAII (Michael W. Deem and Ramdas Pophale) SiO2 
 PCOD9114164
Probable space group: P 2
;
_chemical_formula_sum "Si O2"
_cell_formula_units_Z 16
_cell_length_a 8.337415
_cell_length_b 18.270959
_cell_length_c 9.817799
_cell_angle_alpha 90.000000
_cell_angle_beta 147.930099
_cell_angle_gamma 90.000000
_cell_volume 794.078393
_symmetry_space_group_name_H-M "P 2"
_symmetry_group_IT_number 3
_symmetry_cell_setting 'monoclinic'
loop_
_space_group_symop_operation_xyz
x,y,z
-x,y,-z
loop_
_atom_site_type_symbol
_atom_site_label
_atom_site_fract_x
_atom_site_fract_y
_atom_site_fract_z
Si Si1 0.629026 0.101970 0.939229
Si Si2 0.307655 0.270453 0.003205
Si Si3 0.748687 0.777209 0.938005
Si Si4 0.873871 0.856638 0.561730
Si Si5 0.192973 0.357599 0.496786
Si Si6 0.186983 0.525144 0.495139
Si Si7 0.197039 0.608851 0.005411
Si Si8 0.749342 0.022478 0.561667
O O1 0.701500 0.186474 0.958083
O O2 0.382580 0.069657 0.658618
O O3 0.500000 0.098608 0.000000
O O4 0.936555 0.055634 0.158839
O O5 0.489344 0.321454 0.237663
O O6 0.500000 0.270591 0.000000
O O7 0.989368 0.306393 0.737624
O O8 0.434813 0.809837 0.658014
O O9 0.711481 0.692839 0.955354
O O10 0.000000 0.780453 0.000000
O O11 0.880986 0.823533 0.158442
O O12 0.000000 0.854697 0.500000
O O13 0.802291 0.939659 0.551663
O O14 0.215136 0.441338 0.465865
O O15 0.000000 0.358216 0.500000
O O16 0.510230 0.559645 0.759425
O O17 0.000000 0.523471 0.500000
O O18 0.005849 0.574880 0.259089
O O19 0.000000 0.608931 0.000000
O O20 0.500000 0.023619 0.500000
#
# Coordination Sequence:
#
# PCOD9114164 Si02
#       8
#     2   2   2   2   2   2   2   2
#     4  11  22  39  64  92 118 153 204 255 294 344
#     4   9  17  31  55  84 115 149 192 245 298 346
#     4  11  24  43  64  88 120 161 200 239 296 364
#     4  12  25  42  65  93 121 152 197 252 296 344
#     4   9  17  31  53  85 117 149 192 245 298 346
#     4  11  22  37  62  91 120 155 204 255 294 344
#     4  11  24  41  61  86 123 163 198 239 298 364
#     4  12  25  42  62  87 124 164 195 236 298 364
#
# _framework density 20.149142999999999
#
# number of rings (size 3 to 8) (size 9 to 14) (size 15 to 20)
#    0.000    1.250    0.000    6.750    0.000    9.000 
#    0.000    0.000    0.000   15.000    0.000    0.000 
#    0.000    0.000    0.000    0.000    0.000    0.000 
#
# Total GULP energy -89528.152169 kJ/mol
# GULP energy per Si atom -5595.509511 kJ/mol
# Density = 2.010328 g / cm^3
# Si number density = 20.149143 Si / 1000 Ang^3
#
#
#
# Elastic Constant Matrix: (Units=GPa)
#
#
# Indices 1 2 3 4 5 6 
#
# 1 39.9733 -11.1717 -26.6679 0.0000 1.5827 0.0000
# 2 -11.1717 151.7219 30.0052 0.0000 2.3006 0.0000
# 3 -26.6679 30.0052 96.0353 0.0000 6.4878 0.0000
# 4 0.0000 0.0000 0.0000 51.9048 0.0000 -0.9595
# 5 1.5827 2.3006 6.4878 0.0000 34.0305 0.0000
# 6 0.0000 0.0000 0.0000 -0.9595 0.0000 33.8749
#
#
#
# Elastic Compliance Matrix: (Units=1/GPa)
#
#
# Indices 1 2 3 4 5 6 
#
# 1 0.031086 0.000626 0.008648 0.000000 -0.003137 0.000000
# 2 0.000626 0.007038 -0.002017 0.000000 -0.000120 0.000000
# 3 0.008648 -0.002017 0.013638 0.000000 -0.002866 0.000000
# 4 0.000000 0.000000 0.000000 0.019276 0.000000 0.000546
# 5 -0.003137 -0.000120 -0.002866 0.000000 0.030086 0.000000
# 6 0.000000 0.000000 0.000000 0.000546 0.000000 0.029536
#
#
# Mechanical properties :
#
#
# Convention : Reuss Voigt Hill
#
# Bulk Modulus (GPa) = 15.08821 30.22909 22.65865
# Shear Modulus (GPa) = 36.16993 43.66637 39.91815
#
# Velocity S-wave (km/s) = 4.24147 4.66032 4.45582
# Velocity P-wave (km/s) = 5.61171 6.63275 6.14348
#
# Compressibility (1/GPa) = 0.06627693
#
# Stress axis : x y z
#
# Youngs Moduli (GPa) = 32.16921 142.08978 73.32361
#
# Poissons Ratio (x) = -0.08897 -0.63413
# Poissons Ratio (y) = -0.02014 0.14789
# Poissons Ratio (z) = -0.27821 0.28658
#
# Static dielectric constant tensor:
#      x y z
#    x 1.704170 0.000000 -0.010390 
#    y 0.000000 1.687660 0.000000 
#    z -0.010390 0.000000 1.659970 
# 
# From -- ./inp_files/6265.got.cif
#   From: 2010.05.17/outbox.cif.g08.bks.cpg/sg3_4_cif.got.tgz:6265.got - 2010.06.03 18:33:08.
