data_PCOD9114748
_publ_section_title
;
Structure prediction by ZEFSAII (Michael W. Deem and Ramdas Pophale) SiO2 
 PCOD9114748
Probable space group: P 21
;
_chemical_formula_sum "Si O2"
_cell_formula_units_Z 16
_cell_length_a 14.544233
_cell_length_b 8.732327
_cell_length_c 21.344678
_cell_angle_alpha 90.000000
_cell_angle_beta 162.180390
_cell_angle_gamma 90.000000
_cell_volume 829.586892
_symmetry_space_group_name_H-M "P 21"
_symmetry_group_IT_number 4
_symmetry_cell_setting 'monoclinic'
loop_
_space_group_symop_operation_xyz
x,y,z
-x,1/2+y,-z
loop_
_atom_site_type_symbol
_atom_site_label
_atom_site_fract_x
_atom_site_fract_y
_atom_site_fract_z
Si Si1 0.457401 0.184750 0.716030
Si Si2 0.417968 0.931054 0.003135
Si Si3 0.137057 0.500711 0.105962
Si Si4 0.412337 0.182301 0.243334
Si Si5 0.763158 0.482969 0.974209
Si Si6 0.290448 0.943268 0.700820
Si Si7 0.227547 0.740758 0.769210
Si Si8 0.027998 0.223112 0.604258
O O1 0.637393 0.131172 0.771457
O O2 0.583717 0.339652 0.827701
O O3 0.105177 0.200774 0.472026
O O4 0.504513 0.050188 0.797999
O O5 0.258014 0.965776 0.965595
O O6 0.668270 0.798474 0.174336
O O7 0.597956 0.084783 0.101431
O O8 0.207817 0.860411 0.813441
O O9 0.255716 0.341891 0.156529
O O10 0.802857 0.552888 0.866250
O O11 0.083948 0.485573 0.146368
O O12 0.765263 0.195224 0.484536
O O13 0.389075 0.134734 0.154568
O O14 0.402763 0.828696 0.827089
O O15 0.095495 0.847971 0.525034
O O16 0.091255 0.066211 0.609447
#
# Coordination Sequence:
#
# PCOD9114748 Si02
#       8
#     2   2   2   2   2   2   2   2
#     4  12  21  38  65  94 123 163 209 266 305 363
#     4  12  24  41  57  92 131 169 203 248 323 382
#     4  10  20  34  58  96 121 154 214 266 305 355
#     4  10  19  32  56  92 121 157 205 263 308 352
#     4  10  21  37  62  86 125 157 205 258 309 360
#     4  12  21  35  63  94 124 159 209 260 314 366
#     4  12  26  40  61  93 129 170 204 255 320 380
#     4  12  20  35  60  91 128 161 203 258 310 368
#
# _framework density 19.286708000000001
#
# number of rings (size 3 to 8) (size 9 to 14) (size 15 to 20)
#    0.750    0.000    6.250    3.000    0.000    0.000 
#    0.000    0.000    0.000    7.500    0.000    0.000 
#    0.000    0.000    0.000    0.000    0.000    0.000 
#
# Total GULP energy -89167.438438 kJ/mol
# GULP energy per Si atom -5572.964902 kJ/mol
# Density = 1.924281 g / cm^3
# Si number density = 19.286708 Si / 1000 Ang^3
#
#
#
# Elastic Constant Matrix: (Units=GPa)
#
#
# Indices 1 2 3 4 5 6 
#
# 1 112.3776 23.0117 28.9980 0.0000 11.0473 0.0000
# 2 23.0117 62.3030 11.5719 0.0000 1.8952 0.0000
# 3 28.9980 11.5719 17.7939 0.0000 4.7083 0.0000
# 4 0.0000 0.0000 0.0000 25.2290 0.0000 7.1171
# 5 11.0473 1.8952 4.7083 0.0000 29.9100 0.0000
# 6 0.0000 0.0000 0.0000 7.1171 0.0000 49.4775
#
#
#
# Elastic Compliance Matrix: (Units=1/GPa)
#
#
# Indices 1 2 3 4 5 6 
#
# 1 0.015531 -0.001218 -0.024022 0.000000 -0.001878 0.000000
# 2 -0.001218 0.018367 -0.010196 0.000000 0.000891 0.000000
# 3 -0.024022 -0.010196 0.103781 0.000000 -0.006818 0.000000
# 4 0.000000 0.000000 0.000000 0.041313 0.000000 -0.005943
# 5 -0.001878 0.000891 -0.006818 0.000000 0.035144 0.000000
# 6 0.000000 0.000000 0.000000 -0.005943 0.000000 0.021066
#
#
# Mechanical properties :
#
#
# Convention : Reuss Voigt Hill
#
# Bulk Modulus (GPa) = 14.96809 35.51528 25.24169
# Shear Modulus (GPa) = 15.22796 29.51617 22.37206
#
# Velocity S-wave (km/s) = 2.81295 3.91626 3.40953
# Velocity P-wave (km/s) = 4.28112 6.23729 5.34938
#
# Compressibility (1/GPa) = 0.06680879
#
# Stress axis : x y z
#
# Youngs Moduli (GPa) = 64.38701 54.44552 9.63563
#
# Poissons Ratio (x) = 0.06629 0.23146
# Poissons Ratio (y) = 0.07840 0.09825
# Poissons Ratio (z) = 1.54669 0.55513
#
# Static dielectric constant tensor:
#      x y z
#    x 1.727670 0.000000 0.022640 
#    y 0.000000 1.708930 0.000000 
#    z 0.022640 0.000000 1.666250 
# 
# From -- ./inp_files/10878.got.cif
#   From: 2010.05.17/outbox.cif.g08.bks.cpg/sg4_6_cif.got.tgz:10878.got - 2010.06.03 18:43:04.
