data_PCOD9114192
_publ_section_title
;
Structure prediction by ZEFSAII (Michael W. Deem and Ramdas Pophale) SiO2 
 PCOD9114192
Probable space group: P 2
;
_chemical_formula_sum "Si O2"
_cell_formula_units_Z 16
_cell_length_a 8.710499
_cell_length_b 6.379289
_cell_length_c 14.931485
_cell_angle_alpha 90.000000
_cell_angle_beta 110.545013
_cell_angle_gamma 90.000000
_cell_volume 776.923434
_symmetry_space_group_name_H-M "P 2"
_symmetry_group_IT_number 3
_symmetry_cell_setting 'monoclinic'
loop_
_space_group_symop_operation_xyz
x,y,z
-x,y,-z
loop_
_atom_site_type_symbol
_atom_site_label
_atom_site_fract_x
_atom_site_fract_y
_atom_site_fract_z
Si Si1 0.822297 0.119460 0.920038
Si Si2 0.148071 0.884404 0.259989
Si Si3 0.663464 0.932365 0.527213
Si Si4 0.686408 0.502168 0.797939
Si Si5 0.830866 0.633540 0.437612
Si Si6 0.530174 0.827369 0.906530
Si Si7 0.605020 0.259258 0.359055
Si Si8 0.211020 0.942954 0.734239
O O1 0.792363 0.360249 0.887209
O O2 0.824000 0.999378 0.826720
O O3 0.669663 0.009906 0.940229
O O4 0.000000 0.090809 0.000000
O O5 0.205402 0.643573 0.249279
O O6 0.963770 0.939583 0.252549
O O7 0.265814 0.975313 0.361070
O O8 0.500000 0.791245 0.500000
O O9 0.601189 0.107068 0.444386
O O10 0.808121 0.811725 0.507211
O O11 0.588058 0.661161 0.842934
O O12 0.560572 0.343241 0.722101
O O13 0.690681 0.465648 0.412156
O O14 0.810130 0.749542 0.339121
O O15 0.000000 0.526495 0.500000
O O16 0.357773 0.910870 0.834013
O O17 0.500000 0.739539 0.000000
O O18 0.725061 0.140239 0.312360
#
# Coordination Sequence:
#
# PCOD9114192 Si02
#       8
#     2   2   2   2   2   2   2   2
#     4  11  25  46  69  99 135 176 226 290 350 418
#     4  11  25  43  69  98 139 179 228 285 348 414
#     4  11  24  40  65  96 136 178 226 269 338 405
#     4  11  24  46  70  99 138 180 228 289 348 409
#     4  11  23  40  65  96 134 177 224 281 332 397
#     4  11  24  45  74  98 133 177 228 284 357 415
#     4  11  24  41  70  94 138 181 231 278 338 409
#     4  11  23  44  66  97 135 177 227 285 345 405
#
# _framework density 20.594049999999999
#
# number of rings (size 3 to 8) (size 9 to 14) (size 15 to 20)
#    0.000    1.000    3.750    2.250    5.250    7.000 
#    2.250    0.000    0.000    0.000    0.000    0.000 
#    0.000    0.000    0.000    0.000    0.000    0.000 
#
# Total GULP energy -89202.064945 kJ/mol
# GULP energy per Si atom -5575.129059 kJ/mol
# Density = 2.054718 g / cm^3
# Si number density = 20.594050 Si / 1000 Ang^3
#
#
#
# Elastic Constant Matrix: (Units=GPa)
#
#
# Indices 1 2 3 4 5 6 
#
# 1 119.2081 25.5691 46.5682 0.0000 11.9030 0.0000
# 2 25.5691 60.9885 18.0054 0.0000 -3.0057 0.0000
# 3 46.5682 18.0054 125.2620 0.0000 12.4578 0.0000
# 4 0.0000 0.0000 0.0000 17.9060 0.0000 9.7103
# 5 11.9030 -3.0057 12.4578 0.0000 44.4328 0.0000
# 6 0.0000 0.0000 0.0000 9.7103 0.0000 20.3310
#
#
#
# Elastic Compliance Matrix: (Units=1/GPa)
#
#
# Indices 1 2 3 4 5 6 
#
# 1 0.010641 -0.003619 -0.003218 0.000000 -0.002193 0.000000
# 2 -0.003619 0.018512 -0.001580 0.000000 0.002665 0.000000
# 3 -0.003218 -0.001580 0.009599 0.000000 -0.001936 0.000000
# 4 0.000000 0.000000 0.000000 0.075368 0.000000 -0.035996
# 5 -0.002193 0.002665 -0.001936 0.000000 0.023817 0.000000
# 6 0.000000 0.000000 0.000000 -0.035996 0.000000 0.066378
#
#
# Mechanical properties :
#
#
# Convention : Reuss Voigt Hill
#
# Bulk Modulus (GPa) = 45.62599 53.97157 49.79878
# Shear Modulus (GPa) = 21.88618 30.88836 26.38727
#
# Velocity S-wave (km/s) = 3.26351 3.87701 3.58342
# Velocity P-wave (km/s) = 6.03355 6.80484 6.43077
#
# Compressibility (1/GPa) = 0.02191733
#
# Stress axis : x y z
#
# Youngs Moduli (GPa) = 93.97668 54.01949 104.17533
#
# Poissons Ratio (x) = 0.19551 0.33519
# Poissons Ratio (y) = 0.34013 0.16464
# Poissons Ratio (z) = 0.30238 0.08537
#
# Static dielectric constant tensor:
#      x y z
#    x 1.835830 0.000000 -0.081730 
#    y 0.000000 1.764300 0.000000 
#    z -0.081730 0.000000 1.770810 
# 
# From -- ./inp_files/13378.got.cif
#   From: 2010.05.17/outbox.cif.g08.bks.cpg/sg3_7_cif.got.tgz:13378.got - 2010.06.03 18:33:08.
