data_PCOD9114013
_publ_section_title
;
Structure prediction by ZEFSAII (Michael W. Deem and Ramdas Pophale) SiO2 
 PCOD9114013
Probable space group: P 2
;
_chemical_formula_sum "Si O2"
_cell_formula_units_Z 16
_cell_length_a 12.282464
_cell_length_b 8.390160
_cell_length_c 9.410138
_cell_angle_alpha 90.000000
_cell_angle_beta 49.482745
_cell_angle_gamma 90.000000
_cell_volume 737.200313
_symmetry_space_group_name_H-M "P 2"
_symmetry_group_IT_number 3
_symmetry_cell_setting 'monoclinic'
loop_
_space_group_symop_operation_xyz
x,y,z
-x,y,-z
loop_
_atom_site_type_symbol
_atom_site_label
_atom_site_fract_x
_atom_site_fract_y
_atom_site_fract_z
Si Si1 0.135803 0.306010 0.303130
Si Si2 0.358829 0.266083 0.889661
Si Si3 0.436027 0.591576 0.707924
Si Si4 0.847675 0.784028 0.052564
Si Si5 0.660606 0.133437 0.674971
Si Si6 0.880127 0.672209 0.707228
Si Si7 0.665486 0.063743 0.350437
Si Si8 0.615328 0.783318 0.779454
O O1 0.261069 0.276604 0.312118
O O2 0.090300 0.483958 0.293968
O O3 0.000000 0.232386 0.500000
O O4 0.214060 0.236254 0.098441
O O5 0.414916 0.446646 0.836584
O O6 0.489955 0.159143 0.832593
O O7 0.338386 0.217223 0.745214
O O8 0.500000 0.548709 0.500000
O O9 0.276221 0.654721 0.815129
O O10 0.537251 0.720688 0.703103
O O11 0.772917 0.941162 0.183148
O O12 0.868224 0.770151 0.863883
O O13 0.000000 0.757637 0.000000
O O14 0.704423 0.120357 0.473850
O O15 0.689014 0.955916 0.705758
O O16 0.735443 0.668241 0.738692
O O17 0.000000 0.738189 0.500000
O O18 0.500000 0.000125 0.500000
O O19 0.500000 0.796026 0.000000
#
# Coordination Sequence:
#
# PCOD9114013 Si02
#       8
#     2   2   2   2   2   2   2   2
#     4  11  24  45  66  95 138 181 227 278 343 414
#     4  11  22  45  67 101 133 177 230 283 345 407
#     4  12  24  43  72 103 135 183 235 288 350 415
#     4  12  26  46  68  98 143 184 231 293 350 419
#     4  11  24  41  69 102 134 177 222 286 350 408
#     4  11  27  46  66 102 140 184 231 289 352 416
#     4  10  24  45  69 100 137 177 230 288 342 419
#     4  12  23  42  71 103 134 177 230 292 347 409
#
# _framework density 21.703735999999999
#
# number of rings (size 3 to 8) (size 9 to 14) (size 15 to 20)
#    0.000    0.750    2.500    5.625    5.250    1.500 
#    2.250    0.625    0.000    0.000    0.000    0.000 
#    0.000    0.000    0.000    0.000    0.000    0.000 
#
# Total GULP energy -89293.981641 kJ/mol
# GULP energy per Si atom -5580.873853 kJ/mol
# Density = 2.165434 g / cm^3
# Si number density = 21.703736 Si / 1000 Ang^3
#
#
#
# Elastic Constant Matrix: (Units=GPa)
#
#
# Indices 1 2 3 4 5 6 
#
# 1 73.0927 9.5766 37.8364 0.0000 -6.3595 0.0000
# 2 9.5766 52.9828 15.1465 0.0000 5.6074 0.0000
# 3 37.8364 15.1465 176.0442 0.0000 -0.8224 0.0000
# 4 0.0000 0.0000 0.0000 78.3595 0.0000 37.2793
# 5 -6.3595 5.6074 -0.8224 0.0000 27.4562 0.0000
# 6 0.0000 0.0000 0.0000 37.2793 0.0000 49.4455
#
#
#
# Elastic Compliance Matrix: (Units=1/GPa)
#
#
# Indices 1 2 3 4 5 6 
#
# 1 0.016019 -0.002411 -0.003216 0.000000 0.004106 0.000000
# 2 -0.002411 0.020163 -0.001239 0.000000 -0.004713 0.000000
# 3 -0.003216 -0.001239 0.006477 0.000000 -0.000298 0.000000
# 4 0.000000 0.000000 0.000000 0.019899 0.000000 -0.015003
# 5 0.004106 -0.004713 -0.000298 0.000000 0.038326 0.000000
# 6 0.000000 0.000000 0.000000 -0.015003 0.000000 0.031536
#
#
# Mechanical properties :
#
#
# Convention : Reuss Voigt Hill
#
# Bulk Modulus (GPa) = 34.56909 47.47098 41.02004
# Shear Modulus (GPa) = 32.09359 47.02292 39.55825
#
# Velocity S-wave (km/s) = 3.84958 4.65971 4.27388
# Velocity P-wave (km/s) = 5.97673 7.13234 6.57995
#
# Compressibility (1/GPa) = 0.02892758
#
# Stress axis : x y z
#
# Youngs Moduli (GPa) = 62.42459 49.59656 154.39588
#
# Poissons Ratio (x) = 0.11956 0.49660
# Poissons Ratio (y) = 0.15048 0.19125
# Poissons Ratio (z) = 0.20078 0.06143
#
# Static dielectric constant tensor:
#      x y z
#    x 1.725030 0.000000 0.031730 
#    y 0.000000 1.846330 0.000000 
#    z 0.031730 0.000000 1.783880 
# 
# From -- ./inp_files/7414.got.cif
#   From: 2010.05.17/outbox.cif.g08.bks.cpg/sg3_4_cif.got.tgz:7414.got - 2010.06.03 18:33:08.
