data_PCOD9114331
_publ_section_title
;
Structure prediction by ZEFSAII (Michael W. Deem and Ramdas Pophale) SiO2 
 PCOD9114331
Probable space group: P 2
;
_chemical_formula_sum "Si O2"
_cell_formula_units_Z 13
_cell_length_a 14.318814
_cell_length_b 4.822589
_cell_length_c 12.119894
_cell_angle_alpha 90.000000
_cell_angle_beta 37.471592
_cell_angle_gamma 90.000000
_cell_volume 509.157895
_symmetry_space_group_name_H-M "P 2"
_symmetry_group_IT_number 3
_symmetry_cell_setting 'monoclinic'
loop_
_space_group_symop_operation_xyz
x,y,z
-x,y,-z
loop_
_atom_site_type_symbol
_atom_site_label
_atom_site_fract_x
_atom_site_fract_y
_atom_site_fract_z
Si Si1 0.294163 0.985570 0.843990
Si Si2 0.630406 0.274245 0.954611
Si Si3 0.461214 0.598448 0.305476
Si Si4 0.817619 0.781360 0.717494
Si Si5 0.500000 0.303088 0.500000
Si Si6 0.110453 0.689008 0.574762
Si Si7 0.923547 0.476157 0.955404
O O1 0.445342 0.888647 0.771427
O O2 0.242932 0.034609 0.153417
O O3 0.358859 0.113968 0.670480
O O4 0.207863 0.701177 0.902355
O O5 0.561287 0.412871 0.128472
O O6 0.500000 0.140783 0.000000
O O7 0.694034 0.537463 0.826776
O O8 0.461272 0.478637 0.428813
O O9 0.286002 0.601775 0.430980
O O10 0.850455 0.908360 0.564148
O O11 0.835478 0.203351 0.994150
O O12 0.953837 0.615356 0.653655
O O13 0.041086 0.625969 0.761225
O O14 0.000000 0.404385 0.000000
#
# Coordination Sequence:
#
# PCOD9114331 Si02
#       7
#     2   2   2   2   1   2   2
#     4  12  28  52  78 121 166 215 282 337 405 500
#     4  12  27  53  84 119 162 213 278 335 417 485
#     4  12  28  54  87 122 163 224 277 350 403 503
#     4  11  28  54  78 121 164 212 271 345 408 494
#     4  12  28  50  84 124 166 212 288 336 410 480
#     4  11  28  52  82 120 166 214 274 340 418 484
#     4  12  28  53  82 120 171 225 272 344 423 495
#
# _framework density 25.532351999999999
#
# number of rings (size 3 to 8) (size 9 to 14) (size 15 to 20)
#    0.000    0.308    3.077    3.231    6.462    3.692 
#    2.769    0.000    0.000    0.000    0.000    0.000 
#    0.000    0.000    0.000    0.000    0.000    0.000 
#
# Total GULP energy -72416.920073 kJ/mol
# GULP energy per Si atom -5570.532313 kJ/mol
# Density = 2.547424 g / cm^3
# Si number density = 25.532352 Si / 1000 Ang^3
#
#
#
# Elastic Constant Matrix: (Units=GPa)
#
#
# Indices 1 2 3 4 5 6 
#
# 1 159.3049 39.0644 79.3032 0.0000 15.0877 0.0000
# 2 39.0644 120.2163 34.0839 0.0000 -7.3909 0.0000
# 3 79.3032 34.0839 154.3465 0.0000 11.8808 0.0000
# 4 0.0000 0.0000 0.0000 15.7975 0.0000 17.5724
# 5 15.0877 -7.3909 11.8808 0.0000 51.3431 0.0000
# 6 0.0000 0.0000 0.0000 17.5724 0.0000 14.8406
#
#
#
# Elastic Compliance Matrix: (Units=1/GPa)
#
#
# Indices 1 2 3 4 5 6 
#
# 1 0.008925 -0.001882 -0.004019 0.000000 -0.001964 0.000000
# 2 -0.001882 0.009430 -0.001286 0.000000 0.002208 0.000000
# 3 -0.004019 -0.001286 0.008910 0.000000 -0.001066 0.000000
# 4 0.000000 0.000000 0.000000 -0.199617 0.000000 0.236362
# 5 -0.001964 0.002208 -0.001066 0.000000 0.020618 0.000000
# 6 0.000000 0.000000 0.000000 0.236362 0.000000 -0.212488
#
#
# Mechanical properties :
#
#
# Convention : Reuss Voigt Hill
#
# Bulk Modulus (GPa) = 77.56388 82.08564 79.82476
# Shear Modulus (GPa) = -14.46967 35.15731 10.34382
#
# Velocity S-wave (km/s) = -2.38317 3.71478 2.01496
# Velocity P-wave (km/s) = 4.78246 7.11470 6.06180
#
# Compressibility (1/GPa) = 0.01289260
#
# Stress axis : x y z
#
# Youngs Moduli (GPa) = 112.03941 106.04478 112.23401
#
# Poissons Ratio (x) = 0.19952 0.45110
# Poissons Ratio (y) = 0.21080 0.14429
# Poissons Ratio (z) = 0.45031 0.13633
#
# Static dielectric constant tensor:
#      x y z
#    x 2.023150 0.000000 -0.028390 
#    y 0.000000 1.994110 0.000000 
#    z -0.028390 0.000000 2.175530 
# 
# From -- ./inp_files/12041.got.cif
#   From: 2010.05.17/outbox.cif.g08.bks.cpg/sg3_7_cif.got.tgz:12041.got - 2010.06.03 18:33:08.
