data_PCOD9114699
_publ_section_title
;
Structure prediction by ZEFSAII (Michael W. Deem and Ramdas Pophale) SiO2 
 PCOD9114699
Probable space group: P 21
;
_chemical_formula_sum "Si O2"
_cell_formula_units_Z 16
_cell_length_a 9.650374
_cell_length_b 8.631727
_cell_length_c 11.737429
_cell_angle_alpha 90.000000
_cell_angle_beta 142.701157
_cell_angle_gamma 90.000000
_cell_volume 592.471710
_symmetry_space_group_name_H-M "P 21"
_symmetry_group_IT_number 4
_symmetry_cell_setting 'monoclinic'
loop_
_space_group_symop_operation_xyz
x,y,z
-x,1/2+y,-z
loop_
_atom_site_type_symbol
_atom_site_label
_atom_site_fract_x
_atom_site_fract_y
_atom_site_fract_z
Si Si1 0.112099 0.629530 0.277749
Si Si2 0.228973 0.603267 0.925012
Si Si3 0.670957 0.095679 0.242879
Si Si4 0.950072 0.777535 0.401006
Si Si5 0.092349 0.873994 0.971066
Si Si6 0.304199 0.474988 0.195543
Si Si7 0.741524 0.651171 0.483430
Si Si8 0.519359 0.474292 0.661142
O O1 0.162927 0.612434 0.173600
O O2 0.367808 0.591695 0.489590
O O3 0.998385 0.738257 0.299677
O O4 0.947803 0.479700 0.167864
O O5 0.401360 0.617024 0.933491
O O6 0.255349 0.742411 0.030482
O O7 0.975023 0.624583 0.706171
O O8 0.267047 0.463444 0.036355
O O9 0.807176 0.244129 0.378652
O O10 0.842577 0.946377 0.347290
O O11 0.493655 0.045314 0.220545
O O12 0.793194 0.670938 0.381865
O O13 0.211898 0.940991 0.164948
O O14 0.831036 0.832988 0.835992
O O15 0.567059 0.510235 0.389848
O O16 0.619848 0.812662 0.439116
#
# Coordination Sequence:
#
# PCOD9114699 Si02
#       8
#     2   2   2   2   2   2   2   2
#     4   9  21  38  59  90 126 162 209 257 323 376
#     4  11  21  40  62  94 127 165 216 264 322 380
#     4   9  21  36  68  93 126 169 213 266 320 382
#     4   9  19  39  63  94 126 163 215 262 319 378
#     4  10  22  37  59  90 123 170 208 266 314 377
#     4  10  23  35  59  93 121 168 209 253 322 381
#     4  10  19  37  64  85 121 165 207 260 319 373
#     4  10  18  40  62  87 122 170 211 258 323 375
#
# _framework density 27.005510000000001
#
# number of rings (size 3 to 8) (size 9 to 14) (size 15 to 20)
#    0.750    1.500    2.500    0.000    3.500    2.000 
#    0.000    1.250    0.000    0.000    0.000    0.000 
#    0.000    0.000    0.000    0.000    0.000    0.000 
#
# Total GULP energy -89085.630250 kJ/mol
# GULP energy per Si atom -5567.851891 kJ/mol
# Density = 2.694404 g / cm^3
# Si number density = 27.005510 Si / 1000 Ang^3
#
#
#
# Elastic Constant Matrix: (Units=GPa)
#
#
# Indices 1 2 3 4 5 6 
#
# 1 62.5171 -2.3987 10.8369 0.0000 -19.2079 0.0000
# 2 -2.3987 24.8958 -10.6163 0.0000 -0.7018 0.0000
# 3 10.8369 -10.6163 122.1917 0.0000 -4.8752 0.0000
# 4 0.0000 0.0000 0.0000 23.0247 0.0000 2.1532
# 5 -19.2079 -0.7018 -4.8752 0.0000 55.9490 0.0000
# 6 0.0000 0.0000 0.0000 2.1532 0.0000 32.0968
#
#
#
# Elastic Compliance Matrix: (Units=1/GPa)
#
#
# Indices 1 2 3 4 5 6 
#
# 1 0.018151 0.001392 -0.001244 0.000000 0.006141 0.000000
# 2 0.001392 0.041859 0.003566 0.000000 0.001313 0.000000
# 3 -0.001244 0.003566 0.008619 0.000000 0.000369 0.000000
# 4 0.000000 0.000000 0.000000 0.043706 0.000000 -0.002932
# 5 0.006141 0.001313 0.000369 0.000000 0.020030 0.000000
# 6 0.000000 0.000000 0.000000 -0.002932 0.000000 0.031352
#
#
# Mechanical properties :
#
#
# Convention : Reuss Voigt Hill
#
# Bulk Modulus (GPa) = 13.14821 22.80539 17.97680
# Shear Modulus (GPa) = 27.52654 36.33292 31.92973
#
# Velocity S-wave (km/s) = 3.19610 3.67193 3.44225
# Velocity P-wave (km/s) = 4.30109 5.14203 4.74025
#
# Compressibility (1/GPa) = 0.07605596
#
# Stress axis : x y z
#
# Youngs Moduli (GPa) = 55.09246 23.88964 116.02684
#
# Poissons Ratio (x) = -0.03324 0.14433
# Poissons Ratio (y) = -0.07666 -0.41373
# Poissons Ratio (z) = 0.06853 -0.08519
#
# Static dielectric constant tensor:
#      x y z
#    x 2.183880 0.000000 -0.060240 
#    y 0.000000 2.412050 0.000000 
#    z -0.060240 0.000000 2.115290 
# 
# From -- ./inp_files/12208.got.cif
#   From: 2010.05.17/outbox.cif.g08.bks.cpg/sg4_7_cif.got.tgz:12208.got - 2010.06.03 18:43:04.
