data_PCOD9114705
_publ_section_title
;
Structure prediction by ZEFSAII (Michael W. Deem and Ramdas Pophale) SiO2 
 PCOD9114705
Probable space group: P 21
;
_chemical_formula_sum "Si O2"
_cell_formula_units_Z 16
_cell_length_a 8.899204
_cell_length_b 8.716661
_cell_length_c 11.052693
_cell_angle_alpha 90.000000
_cell_angle_beta 62.332353
_cell_angle_gamma 90.000000
_cell_volume 759.336853
_symmetry_space_group_name_H-M "P 21"
_symmetry_group_IT_number 4
_symmetry_cell_setting 'monoclinic'
loop_
_space_group_symop_operation_xyz
x,y,z
-x,1/2+y,-z
loop_
_atom_site_type_symbol
_atom_site_label
_atom_site_fract_x
_atom_site_fract_y
_atom_site_fract_z
Si Si1 0.647503 0.515090 0.037766
Si Si2 0.407851 0.235394 0.140471
Si Si3 0.970328 0.816395 0.742021
Si Si4 0.376416 0.949795 0.326178
Si Si5 0.969719 0.302175 0.568867
Si Si6 0.799302 0.568902 0.384474
Si Si7 0.006592 0.480275 0.791408
Si Si8 0.718008 0.772575 0.204147
O O1 0.540210 0.368936 0.120951
O O2 0.718237 0.631431 0.111669
O O3 0.536812 0.623309 0.989601
O O4 0.809877 0.459471 0.900067
O O5 0.231610 0.315000 0.163659
O O6 0.364981 0.114442 0.263235
O O7 0.991427 0.815650 0.587602
O O8 0.039181 0.661298 0.776697
O O9 0.085719 0.957226 0.740326
O O10 0.231980 0.827205 0.342473
O O11 0.558586 0.878878 0.236141
O O12 0.333747 0.981114 0.482244
O O13 0.060829 0.149580 0.581556
O O14 0.037897 0.426403 0.640910
O O15 0.703742 0.692915 0.340423
O O16 0.117856 0.380154 0.841568
#
# Coordination Sequence:
#
# PCOD9114705 Si02
#       8
#     2   2   2   2   2   2   2   2
#     4  11  25  42  66  94 134 175 224 266 328 388
#     4  11  23  42  67 100 123 168 228 282 317 377
#     4  10  19  38  68  96 121 166 221 274 329 376
#     4  11  22  42  65  98 131 169 219 278 329 380
#     4  10  18  40  68  94 126 161 220 271 321 388
#     4  10  23  39  63 100 130 171 214 265 345 389
#     4  10  23  44  64  92 138 172 219 269 328 398
#     4  11  27  41  61  96 137 180 211 265 335 398
#
# _framework density 21.071017999999999
#
# number of rings (size 3 to 8) (size 9 to 14) (size 15 to 20)
#    0.000    1.500    3.750    1.500    1.750    8.000 
#    0.000    0.000    0.000    0.000    0.000    0.000 
#    0.000    0.000    0.000    0.000    0.000    0.000 
#
# Total GULP energy -89221.624546 kJ/mol
# GULP energy per Si atom -5576.351534 kJ/mol
# Density = 2.102306 g / cm^3
# Si number density = 21.071018 Si / 1000 Ang^3
#
#
#
# Elastic Constant Matrix: (Units=GPa)
#
#
# Indices 1 2 3 4 5 6 
#
# 1 56.8658 28.4879 14.6238 0.0000 2.1880 0.0000
# 2 28.4879 74.9047 19.6788 0.0000 -9.2668 0.0000
# 3 14.6238 19.6788 50.2170 0.0000 -4.5907 0.0000
# 4 0.0000 0.0000 0.0000 34.8599 0.0000 1.8631
# 5 2.1880 -9.2668 -4.5907 0.0000 18.1206 0.0000
# 6 0.0000 0.0000 0.0000 1.8631 0.0000 41.0606
#
#
#
# Elastic Compliance Matrix: (Units=1/GPa)
#
#
# Indices 1 2 3 4 5 6 
#
# 1 0.023404 -0.008860 -0.004111 0.000000 -0.008398 0.000000
# 2 -0.008860 0.018969 -0.003960 0.000000 0.009767 0.000000
# 3 -0.004111 -0.003960 0.023057 0.000000 0.004312 0.000000
# 4 0.000000 0.000000 0.000000 0.028756 0.000000 -0.001305
# 5 -0.008398 0.009767 0.004312 0.000000 0.062287 0.000000
# 6 0.000000 0.000000 0.000000 -0.001305 0.000000 0.024413
#
#
# Mechanical properties :
#
#
# Convention : Reuss Voigt Hill
#
# Bulk Modulus (GPa) = 31.67908 34.17427 32.92667
# Shear Modulus (GPa) = 22.19538 26.75469 24.47504
#
# Velocity S-wave (km/s) = 3.24907 3.56721 3.41185
# Velocity P-wave (km/s) = 5.39837 5.76372 5.58403
#
# Compressibility (1/GPa) = 0.03156657
#
# Stress axis : x y z
#
# Youngs Moduli (GPa) = 42.72729 52.71839 43.37071
#
# Poissons Ratio (x) = 0.46709 0.17831
# Poissons Ratio (y) = 0.37856 0.17176
# Poissons Ratio (z) = 0.17567 0.20878
#
# Static dielectric constant tensor:
#      x y z
#    x 1.751790 0.000000 0.039760 
#    y 0.000000 1.782040 0.000000 
#    z 0.039760 0.000000 1.775370 
# 
# From -- ./inp_files/7655.got.cif
#   From: 2010.05.17/outbox.cif.g08.bks.cpg/sg4_4_cif.got.tgz:7655.got - 2010.06.03 18:43:04.
