data_PCOD9114772
_publ_section_title
;
Structure prediction by ZEFSAII (Michael W. Deem and Ramdas Pophale) SiO2 
 PCOD9114772
Probable space group: P 21
;
_chemical_formula_sum "Si O2"
_cell_formula_units_Z 16
_cell_length_a 22.157194
_cell_length_b 5.294577
_cell_length_c 9.183965
_cell_angle_alpha 90.000000
_cell_angle_beta 144.409960
_cell_angle_gamma 90.000000
_cell_volume 627.025950
_symmetry_space_group_name_H-M "P 21"
_symmetry_group_IT_number 4
_symmetry_cell_setting 'monoclinic'
loop_
_space_group_symop_operation_xyz
x,y,z
-x,1/2+y,-z
loop_
_atom_site_type_symbol
_atom_site_label
_atom_site_fract_x
_atom_site_fract_y
_atom_site_fract_z
Si Si1 0.637820 0.767380 0.637370
Si Si2 0.736526 0.274326 0.702772
Si Si3 0.450145 0.240968 0.829983
Si Si4 0.967754 0.173272 0.193493
Si Si5 0.836176 0.380518 0.448165
Si Si6 0.317156 0.260777 0.965064
Si Si7 0.703472 0.046524 0.348538
Si Si8 0.892752 0.005994 0.342047
O O1 0.710109 0.529319 0.735435
O O2 0.546643 0.746257 0.338400
O O3 0.692027 0.038554 0.710470
O O4 0.608943 0.734757 0.751132
O O5 0.684432 0.246072 0.441271
O O6 0.858903 0.246469 0.910772
O O7 0.327948 0.294779 0.625493
O O8 0.502395 0.498598 0.996666
O O9 0.930251 0.994170 0.252268
O O10 0.065230 0.041183 0.305409
O O11 0.018574 0.408450 0.376616
O O12 0.726165 0.524733 0.214057
O O13 0.814194 0.135921 0.504064
O O14 0.861423 0.282644 0.335512
O O15 0.348582 0.472614 0.909350
O O16 0.209197 0.343247 0.829249
#
# Coordination Sequence:
#
# PCOD9114772 Si02
#       8
#     2   2   2   2   2   2   2   2
#     4  11  24  44  72 109 133 182 238 289 357 443
#     4  11  25  41  68  97 145 192 245 289 342 427
#     4  11  25  49  80 106 136 177 231 294 373 465
#     4  11  20  33  59  89 138 190 250 291 335 397
#     4  10  22  38  60  92 143 188 237 291 356 403
#     4  10  22  40  68  98 137 186 236 295 364 419
#     4  10  25  46  68 100 140 186 230 297 377 427
#     4  10  19  33  55  91 128 187 241 300 334 399
#
# _framework density 25.517285000000001
#
# number of rings (size 3 to 8) (size 9 to 14) (size 15 to 20)
#    0.000    1.500    2.500    2.250   10.500    0.000 
#    6.750    1.250    0.000    0.000    0.000    0.000 
#    0.000    0.000    0.000    0.000    0.000    0.000 
#
# Total GULP energy -89132.798563 kJ/mol
# GULP energy per Si atom -5570.799910 kJ/mol
# Density = 2.545921 g / cm^3
# Si number density = 25.517285 Si / 1000 Ang^3
#
#
#
# Elastic Constant Matrix: (Units=GPa)
#
#
# Indices 1 2 3 4 5 6 
#
# 1 60.6157 9.8335 11.2760 0.0000 -19.9651 0.0000
# 2 9.8335 113.2710 32.1585 0.0000 6.9545 0.0000
# 3 11.2760 32.1585 121.6790 0.0000 -10.1524 0.0000
# 4 0.0000 0.0000 0.0000 26.8975 0.0000 11.9086
# 5 -19.9651 6.9545 -10.1524 0.0000 41.3754 0.0000
# 6 0.0000 0.0000 0.0000 11.9086 0.0000 27.5209
#
#
#
# Elastic Compliance Matrix: (Units=1/GPa)
#
#
# Indices 1 2 3 4 5 6 
#
# 1 0.020252 -0.002248 -0.000445 0.000000 0.010041 0.000000
# 2 -0.002248 0.010008 -0.002723 0.000000 -0.003435 0.000000
# 3 -0.000445 -0.002723 0.009188 0.000000 0.002498 0.000000
# 4 0.000000 0.000000 0.000000 0.045989 0.000000 -0.019900
# 5 0.010041 -0.003435 0.002498 0.000000 0.030204 0.000000
# 6 0.000000 0.000000 0.000000 -0.019900 0.000000 0.044947
#
#
# Mechanical properties :
#
#
# Convention : Reuss Voigt Hill
#
# Bulk Modulus (GPa) = 34.94698 44.67797 39.81247
# Shear Modulus (GPa) = 27.63072 35.31194 31.47133
#
# Velocity S-wave (km/s) = 3.29420 3.72404 3.51570
# Velocity P-wave (km/s) = 5.30982 6.00318 5.66711
#
# Compressibility (1/GPa) = 0.02861478
#
# Stress axis : x y z
#
# Youngs Moduli (GPa) = 49.37749 99.92384 108.84176
#
# Poissons Ratio (x) = 0.22467 0.04841
# Poissons Ratio (y) = 0.11102 0.29640
# Poissons Ratio (z) = 0.02196 0.27211
#
# Static dielectric constant tensor:
#      x y z
#    x 2.066030 0.000000 0.027160 
#    y 0.000000 2.088890 0.000000 
#    z 0.027160 0.000000 2.141740 
# 
# From -- ./inp_files/10017.got.cif
#   From: 2010.05.17/outbox.cif.g08.bks.cpg/sg4_6_cif.got.tgz:10017.got - 2010.06.03 18:43:04.
