data_PCOD9114242
_publ_section_title
;
Structure prediction by ZEFSAII (Michael W. Deem and Ramdas Pophale) SiO2 
 PCOD9114242
Probable space group: P 2
;
_chemical_formula_sum "Si O2"
_cell_formula_units_Z 14
_cell_length_a 9.611842
_cell_length_b 15.791123
_cell_length_c 5.160095
_cell_angle_alpha 90.000000
_cell_angle_beta 124.969042
_cell_angle_gamma 90.000000
_cell_volume 641.809396
_symmetry_space_group_name_H-M "P 2"
_symmetry_group_IT_number 3
_symmetry_cell_setting 'monoclinic'
loop_
_space_group_symop_operation_xyz
x,y,z
-x,y,-z
loop_
_atom_site_type_symbol
_atom_site_label
_atom_site_fract_x
_atom_site_fract_y
_atom_site_fract_z
Si Si1 0.000000 0.853740 0.500000
Si Si2 0.184103 0.201794 0.327486
Si Si3 0.341052 0.929757 0.027878
Si Si4 0.888324 0.513907 0.618436
Si Si5 0.162782 0.702039 0.364467
Si Si6 0.500000 0.774979 0.500000
Si Si7 0.381177 0.370268 0.624150
Si Si8 0.670725 0.123906 0.023194
O O1 0.114513 0.788017 0.460103
O O2 0.143435 0.914218 0.764107
O O3 0.245092 0.294217 0.480386
O O4 0.197544 0.141508 0.597633
O O5 0.300413 0.177452 0.204031
O O6 0.000000 0.200771 0.000000
O O7 0.340816 0.028402 0.102848
O O8 0.500000 0.929390 0.000000
O O9 0.386155 0.843765 0.227009
O O10 0.839599 0.611317 0.498464
O O11 0.723119 0.457513 0.482083
O O12 0.000000 0.480023 0.500000
O O13 0.000000 0.512135 0.000000
O O14 0.354166 0.716935 0.469325
O O15 0.000000 0.695597 0.000000
O O16 0.500000 0.365836 0.500000
O O17 0.500000 0.363273 0.000000
O O18 0.500000 0.143729 0.000000
#
# Coordination Sequence:
#
# PCOD9114242 Si02
#       8
#     1   2   2   2   2   1   2   2
#     4  12  22  44  66  96 140 186 234 294 354 416
#     4  12  26  46  73 104 139 185 232 285 352 425
#     4  11  26  41  67 101 140 186 242 294 353 412
#     4  11  25  47  74 105 143 183 230 290 351 419
#     4  11  24  43  69 101 141 185 235 293 356 414
#     4  12  24  44  66 102 136 192 242 294 350 424
#     4  12  26  47  73 108 141 181 230 283 354 424
#     4  11  26  46  70 102 144 185 233 293 350 412
#
# _framework density 21.813327999999998
#
# number of rings (size 3 to 8) (size 9 to 14) (size 15 to 20)
#    0.000    0.571    3.571    4.286    7.000    1.143 
#    2.571    0.000    0.000    0.000    0.000    0.000 
#    0.000    0.000    0.000    0.000    0.000    0.000 
#
# Total GULP energy -78034.888555 kJ/mol
# GULP energy per Si atom -5573.920611 kJ/mol
# Density = 2.176368 g / cm^3
# Si number density = 21.813328 Si / 1000 Ang^3
#
#
#
# Elastic Constant Matrix: (Units=GPa)
#
#
# Indices 1 2 3 4 5 6 
#
# 1 106.3602 19.4903 27.6256 0.0000 18.6849 0.0000
# 2 19.4903 88.1112 11.8766 0.0000 3.7252 0.0000
# 3 27.6256 11.8766 112.0733 0.0000 16.1594 0.0000
# 4 0.0000 0.0000 0.0000 107.2329 0.0000 103.4426
# 5 18.6849 3.7252 16.1594 0.0000 43.9749 0.0000
# 6 0.0000 0.0000 0.0000 103.4426 0.0000 198.2614
#
#
#
# Elastic Compliance Matrix: (Units=1/GPa)
#
#
# Indices 1 2 3 4 5 6 
#
# 1 0.010933 -0.001998 -0.001941 0.000000 -0.003763 0.000000
# 2 -0.001998 0.011892 -0.000787 0.000000 0.000131 0.000000
# 3 -0.001941 -0.000787 0.009879 0.000000 -0.002739 0.000000
# 4 0.000000 0.000000 0.000000 0.018775 0.000000 -0.009796
# 5 -0.003763 0.000131 -0.002739 0.000000 0.025335 0.000000
# 6 0.000000 0.000000 0.000000 -0.009796 0.000000 0.010155
#
#
# Mechanical properties :
#
#
# Convention : Reuss Voigt Hill
#
# Bulk Modulus (GPa) = 43.00278 47.16997 45.08638
# Shear Modulus (GPa) = 47.99819 86.39731 67.19775
#
# Velocity S-wave (km/s) = 4.69594 6.30028 5.55632
# Velocity P-wave (km/s) = 7.01136 8.63690 7.86624
#
# Compressibility (1/GPa) = 0.02325431
#
# Stress axis : x y z
#
# Youngs Moduli (GPa) = 91.46396 84.09217 101.22066
#
# Poissons Ratio (x) = 0.16800 0.19644
# Poissons Ratio (y) = 0.18272 0.07962
# Poissons Ratio (z) = 0.17750 0.06614
#
# Static dielectric constant tensor:
#      x y z
#    x 0.503130 0.000000 0.226760 
#    y 0.000000 1.791170 0.000000 
#    z 0.226760 0.000000 1.696040 
# 
# From -- ./inp_files/1638.got.cif
#   From: 2010.05.17/outbox.cif.g08.bks.cpg/sg3_1_cif.got.tgz:1638.got - 2010.06.03 18:33:08.
