data_PCOD9114291
_publ_section_title
;
Structure prediction by ZEFSAII (Michael W. Deem and Ramdas Pophale) SiO2 
 PCOD9114291
Probable space group: P 2
;
_chemical_formula_sum "Si O2"
_cell_formula_units_Z 12
_cell_length_a 5.392809
_cell_length_b 4.761455
_cell_length_c 18.291651
_cell_angle_alpha 90.000000
_cell_angle_beta 68.501627
_cell_angle_gamma 90.000000
_cell_volume 437.009008
_symmetry_space_group_name_H-M "P 2"
_symmetry_group_IT_number 3
_symmetry_cell_setting 'monoclinic'
loop_
_space_group_symop_operation_xyz
x,y,z
-x,y,-z
loop_
_atom_site_type_symbol
_atom_site_label
_atom_site_fract_x
_atom_site_fract_y
_atom_site_fract_z
Si Si1 0.923580 0.234330 0.240099
Si Si2 0.655795 0.255084 0.416719
Si Si3 0.229035 0.552034 0.013386
Si Si4 0.247175 0.759539 0.250866
Si Si5 0.215723 0.838833 0.867715
Si Si6 0.844214 0.614661 0.580431
O O1 0.737829 0.133396 0.328442
O O2 0.815016 0.125804 0.174210
O O3 0.017378 0.547366 0.248553
O O4 0.195009 0.058060 0.220484
O O5 0.500000 0.097074 0.500000
O O6 0.430249 0.483928 0.418873
O O7 0.931045 0.385507 0.418763
O O8 0.077728 0.695773 0.096496
O O9 0.500000 0.401683 0.000000
O O10 0.289662 0.790653 0.945316
O O11 0.000000 0.368026 0.000000
O O12 0.546817 0.675456 0.199060
O O13 0.217154 0.784872 0.340660
O O14 0.000000 0.776156 0.500000
#
# Coordination Sequence:
#
# PCOD9114291 Si02
#       6
#     2   2   2   2   2   2
#     4  11  25  43  68 105 142 185 242 294 355 424
#     4   9  20  41  65  96 138 183 233 287 347 411
#     4   8  18  40  70 104 142 182 228 290 356 430
#     4  11  25  43  68 105 142 185 242 294 355 424
#     4   9  22  38  76 100 148 180 242 288 366 425
#     4   9  20  41  65  96 138 183 233 287 347 411
#
# _framework density 27.459392000000001
#
# number of rings (size 3 to 8) (size 9 to 14) (size 15 to 20)
#    1.000    1.333    0.000    1.000    9.333    0.000 
#    3.000    1.667    0.000   41.000    0.000    0.000 
#    0.000    0.000    0.000    0.000    0.000    0.000 
#
# Total GULP energy -66996.503679 kJ/mol
# GULP energy per Si atom -5583.041973 kJ/mol
# Density = 2.739689 g / cm^3
# Si number density = 27.459392 Si / 1000 Ang^3
#
#
#
# Elastic Constant Matrix: (Units=GPa)
#
#
# Indices 1 2 3 4 5 6 
#
# 1 179.7688 32.2070 17.3400 0.0000 -18.4703 0.0000
# 2 32.2070 59.9976 4.6245 0.0000 4.3850 0.0000
# 3 17.3400 4.6245 203.5077 0.0000 -7.5664 0.0000
# 4 0.0000 0.0000 0.0000 15.1297 0.0000 4.7416
# 5 -18.4703 4.3850 -7.5664 0.0000 43.0126 0.0000
# 6 0.0000 0.0000 0.0000 4.7416 0.0000 37.0897
#
#
#
# Elastic Compliance Matrix: (Units=1/GPa)
#
#
# Indices 1 2 3 4 5 6 
#
# 1 0.006591 -0.003740 -0.000360 0.000000 0.003148 0.000000
# 2 -0.003740 0.018956 -0.000245 0.000000 -0.003582 0.000000
# 3 -0.000360 -0.000245 0.004978 0.000000 0.000746 0.000000
# 4 0.000000 0.000000 0.000000 0.068854 0.000000 -0.008802
# 5 0.003148 -0.003582 0.000746 0.000000 0.025097 0.000000
# 6 0.000000 0.000000 0.000000 -0.008802 0.000000 0.028087
#
#
# Mechanical properties :
#
#
# Convention : Reuss Voigt Hill
#
# Bulk Modulus (GPa) = 45.79962 61.29078 53.54520
# Shear Modulus (GPa) = 29.66803 44.98656 37.32730
#
# Velocity S-wave (km/s) = 3.29056 4.05198 3.69095
# Velocity P-wave (km/s) = 5.58142 6.65284 6.14055
#
# Compressibility (1/GPa) = 0.02183424
#
# Stress axis : x y z
#
# Youngs Moduli (GPa) = 151.72222 52.75400 200.89307
#
# Poissons Ratio (x) = 0.19732 0.07223
# Poissons Ratio (y) = 0.56751 0.04926
# Poissons Ratio (z) = 0.05455 0.01294
#
# Static dielectric constant tensor:
#      x y z
#    x 2.191080 0.000000 0.070590 
#    y 0.000000 2.090400 0.000000 
#    z 0.070590 0.000000 2.181380 
# 
# From -- ./inp_files/14513.got.cif
#   From: 2010.05.17/outbox.cif.g08.bks.cpg/sg3_8_cif.got.tgz:14513.got - 2010.06.03 18:33:08.
