data_PCOD9114673
_publ_section_title
;
Structure prediction by ZEFSAII (Michael W. Deem and Ramdas Pophale) SiO2 
 PCOD9114673
Probable space group: P 21
;
_chemical_formula_sum "Si O2"
_cell_formula_units_Z 16
_cell_length_a 27.338265
_cell_length_b 5.153448
_cell_length_c 21.136606
_cell_angle_alpha 90.000000
_cell_angle_beta 166.145635
_cell_angle_gamma 90.000000
_cell_volume 713.062607
_symmetry_space_group_name_H-M "P 21"
_symmetry_group_IT_number 4
_symmetry_cell_setting 'monoclinic'
loop_
_space_group_symop_operation_xyz
x,y,z
-x,1/2+y,-z
loop_
_atom_site_type_symbol
_atom_site_label
_atom_site_fract_x
_atom_site_fract_y
_atom_site_fract_z
Si Si1 0.156765 0.001860 0.347060
Si Si2 0.037884 0.727031 0.008298
Si Si3 0.528961 0.979257 0.441823
Si Si4 0.185203 0.469089 0.873397
Si Si5 0.475064 0.736222 0.133085
Si Si6 0.094809 0.838851 0.584901
Si Si7 0.550956 0.094066 0.332601
Si Si8 0.739933 0.996486 0.890984
O O1 0.324659 0.060113 0.611977
O O2 0.274020 0.810726 0.446395
O O3 0.944437 0.923579 0.110532
O O4 0.089473 0.239109 0.216915
O O5 0.250515 0.579665 0.258618
O O6 0.059242 0.014580 0.064586
O O7 0.565341 0.917805 0.412766
O O8 0.392656 0.236682 0.274136
O O9 0.406785 0.733362 0.315957
O O10 0.975760 0.404918 0.574613
O O11 0.315509 0.637928 0.986810
O O12 0.325593 0.215431 0.054533
O O13 0.182523 0.575384 0.940831
O O14 0.560099 0.991644 0.272881
O O15 0.333590 0.777402 0.895232
O O16 0.967805 0.588656 0.450800
#
# Coordination Sequence:
#
# PCOD9114673 Si02
#       8
#     2   2   2   2   2   2   2   2
#     4  11  26  39  63  93 127 168 212 264 320 384
#     4  12  25  42  68  96 123 162 214 267 314 370
#     4  11  23  42  64  90 126 165 212 253 317 378
#     4   9  19  35  60  88 122 157 202 255 310 374
#     4  10  19  36  64  87 120 161 212 258 307 372
#     4  10  19  33  59  96 119 152 209 268 306 358
#     4  10  18  38  61  88 116 161 207 255 301 373
#     4  11  25  41  63  92 129 170 202 256 323 387
#
# _framework density 22.438423
#
# number of rings (size 3 to 8) (size 9 to 14) (size 15 to 20)
#    0.000    1.500    3.750    1.500    3.500    1.000 
#    0.000    0.000    2.750    0.000    0.000    0.000 
#    0.000    0.000    0.000    0.000    0.000    0.000 
#
# Total GULP energy -89198.949853 kJ/mol
# GULP energy per Si atom -5574.934366 kJ/mol
# Density = 2.238735 g / cm^3
# Si number density = 22.438423 Si / 1000 Ang^3
#
#
#
# Elastic Constant Matrix: (Units=GPa)
#
#
# Indices 1 2 3 4 5 6 
#
# 1 41.9866 -9.4657 38.5844 0.0000 -14.8050 0.0000
# 2 -9.4657 78.7673 13.8702 0.0000 -4.7034 0.0000
# 3 38.5844 13.8702 141.7329 0.0000 -13.1873 0.0000
# 4 0.0000 0.0000 0.0000 28.7724 0.0000 -8.9073
# 5 -14.8050 -4.7034 -13.1873 0.0000 24.6711 0.0000
# 6 0.0000 0.0000 0.0000 -8.9073 0.0000 7.3826
#
#
#
# Elastic Compliance Matrix: (Units=1/GPa)
#
#
# Indices 1 2 3 4 5 6 
#
# 1 0.043027 0.008321 -0.010500 0.000000 0.021794 0.000000
# 2 0.008321 0.014611 -0.003127 0.000000 0.006108 0.000000
# 3 -0.010500 -0.003127 0.010080 0.000000 -0.001509 0.000000
# 4 0.000000 0.000000 0.000000 0.055477 0.000000 0.066935
# 5 0.021794 0.006108 -0.001509 0.000000 0.053969 0.000000
# 6 0.000000 0.000000 0.000000 0.066935 0.000000 0.216213
#
#
# Mechanical properties :
#
#
# Convention : Reuss Voigt Hill
#
# Bulk Modulus (GPa) = 17.51123 38.71827 28.11475
# Shear Modulus (GPa) = 11.81967 26.79840 19.30904
#
# Velocity S-wave (km/s) = 2.29762 3.45963 2.93667
# Velocity P-wave (km/s) = 3.85484 5.76641 4.90465
#
# Compressibility (1/GPa) = 0.05710620
#
# Stress axis : x y z
#
# Youngs Moduli (GPa) = 23.24112 68.44201 99.21109
#
# Poissons Ratio (x) = -0.56951 1.04171
# Poissons Ratio (y) = -0.19339 0.31022
# Poissons Ratio (z) = 0.24403 0.21401
#
# Static dielectric constant tensor:
#      x y z
#    x 1.863500 0.000000 -0.032430 
#    y 0.000000 1.897950 0.000000 
#    z -0.032430 0.000000 1.870420 
# 
# From -- ./inp_files/9861.got.cif
#   From: 2010.05.17/outbox.cif.g08.bks.cpg/sg4_5_cif.got.tgz:9861.got - 2010.06.03 18:43:04.
