data_PCOD9114404
_publ_section_title
;
Structure prediction by ZEFSAII (Michael W. Deem and Ramdas Pophale) SiO2 
 PCOD9114404
Probable space group: P 2
;
_chemical_formula_sum "Si O2"
_cell_formula_units_Z 9
_cell_length_a 10.139156
_cell_length_b 4.891855
_cell_length_c 7.725587
_cell_angle_alpha 90.000000
_cell_angle_beta 104.636320
_cell_angle_gamma 90.000000
_cell_volume 370.748943
_symmetry_space_group_name_H-M "P 2"
_symmetry_group_IT_number 3
_symmetry_cell_setting 'monoclinic'
loop_
_space_group_symop_operation_xyz
x,y,z
-x,y,-z
loop_
_atom_site_type_symbol
_atom_site_label
_atom_site_fract_x
_atom_site_fract_y
_atom_site_fract_z
Si Si1 0.550953 0.939640 0.831071
Si Si2 0.000000 0.657226 0.000000
Si Si3 0.718607 0.419858 0.782474
Si Si4 0.885491 0.735214 0.327610
Si Si5 0.281967 0.244820 0.615072
O O1 0.619049 0.681729 0.761476
O O2 0.665041 0.173260 0.882739
O O3 0.426081 0.100814 0.702078
O O4 0.500000 0.845167 0.000000
O O5 0.130141 0.491505 0.109288
O O6 0.945423 0.796980 0.157678
O O7 0.281822 0.327066 0.415443
O O8 0.763957 0.510078 0.289336
O O9 0.000000 0.629340 0.500000
O O10 0.828220 0.012387 0.386573
#
# Coordination Sequence:
#
# PCOD9114404 Si02
#       5
#     2   1   2   2   2
#     4  12  26  49  77 112 154 199 266 314 389 453
#     4  12  28  50  80 112 162 198 266 304 396 456
#     4  12  27  47  77 115 152 210 250 324 383 462
#     4  12  26  48  76 112 155 201 253 314 380 459
#     4  12  26  49  76 112 153 198 259 317 383 452
#
# _framework density 24.275188
#
# number of rings (size 3 to 8) (size 9 to 14) (size 15 to 20)
#    0.000    0.000    2.222    7.333    0.000    3.556 
#    0.000    0.000    0.000    0.000    0.000    0.000 
#    0.000    0.000    0.000    0.000    0.000    0.000 
#
# Total GULP energy -50482.405601 kJ/mol
# GULP energy per Si atom -5609.156178 kJ/mol
# Density = 2.421994 g / cm^3
# Si number density = 24.275188 Si / 1000 Ang^3
#
#
#
# Elastic Constant Matrix: (Units=GPa)
#
#
# Indices 1 2 3 4 5 6 
#
# 1 165.6672 76.9911 86.3745 0.0000 -18.7565 0.0000
# 2 76.9911 154.7009 40.0183 0.0000 -19.3207 0.0000
# 3 86.3745 40.0183 152.1132 0.0000 -6.3183 0.0000
# 4 0.0000 0.0000 0.0000 26.3149 0.0000 -9.2670
# 5 -18.7565 -19.3207 -6.3183 0.0000 22.9080 0.0000
# 6 0.0000 0.0000 0.0000 -9.2670 0.0000 18.6610
#
#
#
# Elastic Compliance Matrix: (Units=1/GPa)
#
#
# Indices 1 2 3 4 5 6 
#
# 1 0.010793 -0.003513 -0.005018 0.000000 0.004491 0.000000
# 2 -0.003513 0.008812 -0.000136 0.000000 0.004518 0.000000
# 3 -0.005018 -0.000136 0.009391 0.000000 -0.001633 0.000000
# 4 0.000000 0.000000 0.000000 0.046055 0.000000 0.022871
# 5 0.004491 0.004518 -0.001633 0.000000 0.050690 0.000000
# 6 0.000000 0.000000 0.000000 0.022871 0.000000 0.064945
#
#
# Mechanical properties :
#
#
# Convention : Reuss Voigt Hill
#
# Bulk Modulus (GPa) = 85.74109 97.69433 91.71771
# Shear Modulus (GPa) = 23.59506 31.51660 27.55583
#
# Velocity S-wave (km/s) = 3.12105 3.60711 3.37284
# Velocity P-wave (km/s) = 6.95594 7.59475 7.28235
#
# Compressibility (1/GPa) = 0.01166302
#
# Stress axis : x y z
#
# Youngs Moduli (GPa) = 92.64880 113.48520 106.47977
#
# Poissons Ratio (x) = 0.39864 0.53434
# Poissons Ratio (y) = 0.32545 0.01447
# Poissons Ratio (z) = 0.46493 0.01542
#
# Static dielectric constant tensor:
#      x y z
#    x 1.959340 0.000000 0.034890 
#    y 0.000000 1.903610 0.000000 
#    z 0.034890 0.000000 1.922310 
# 
# From -- ./inp_files/4898.got.cif
#   From: 2010.05.17/outbox.cif.g08.bks.cpg/sg3_3_cif.got.tgz:4898.got - 2010.06.03 18:33:08.
