data_PCOD9114264
_publ_section_title
;
Structure prediction by ZEFSAII (Michael W. Deem and Ramdas Pophale) SiO2 
 PCOD9114264
Probable space group: P 2
;
_chemical_formula_sum "Si O2"
_cell_formula_units_Z 16
_cell_length_a 8.993912
_cell_length_b 5.539186
_cell_length_c 14.331686
_cell_angle_alpha 90.000000
_cell_angle_beta 69.714679
_cell_angle_gamma 90.000000
_cell_volume 669.706356
_symmetry_space_group_name_H-M "P 2"
_symmetry_group_IT_number 3
_symmetry_cell_setting 'monoclinic'
loop_
_space_group_symop_operation_xyz
x,y,z
-x,y,-z
loop_
_atom_site_type_symbol
_atom_site_label
_atom_site_fract_x
_atom_site_fract_y
_atom_site_fract_z
Si Si1 0.357522 0.329730 0.102961
Si Si2 0.879326 0.693450 0.939853
Si Si3 0.858996 0.001356 0.603969
Si Si4 0.067947 0.101077 0.210480
Si Si5 0.459962 0.281495 0.399933
Si Si6 0.760821 0.342750 0.211356
Si Si7 0.621325 0.661521 0.723521
Si Si8 0.322350 0.866274 0.858308
O O1 0.212230 0.477325 0.088940
O O2 0.257405 0.097751 0.151052
O O3 0.398429 0.462587 0.190963
O O4 0.500000 0.308045 0.000000
O O5 0.968700 0.865331 0.845923
O O6 0.729002 0.811438 0.026014
O O7 0.000000 0.636990 0.000000
O O8 0.796207 0.756535 0.666607
O O9 0.000000 0.968593 0.500000
O O10 0.935215 0.128620 0.677103
O O11 0.698520 0.127499 0.595685
O O12 0.937109 0.296820 0.208435
O O13 0.500000 0.266342 0.500000
O O14 0.630229 0.242079 0.312919
O O15 0.424281 0.547574 0.366216
O O16 0.729462 0.618300 0.186943
O O17 0.741885 0.138454 0.136895
O O18 0.503794 0.868061 0.785717
#
# Coordination Sequence:
#
# PCOD9114264 Si02
#       8
#     2   2   2   2   2   2   2   2
#     4  12  26  45  73 106 148 203 248 308 385 461
#     4  12  25  42  70 107 147 194 249 303 374 449
#     4  12  26  47  74 106 146 195 256 320 384 452
#     4  12  27  44  72 108 153 195 252 320 379 452
#     4  11  25  49  76 104 141 196 255 316 382 452
#     4  11  25  48  74 109 155 198 253 312 379 446
#     4  11  24  48  72 108 149 191 256 311 380 462
#     4  11  24  45  76 108 151 201 249 312 368 458
#
# _framework density 23.891069999999999
#
# number of rings (size 3 to 8) (size 9 to 14) (size 15 to 20)
#    0.000    0.500    6.250    1.500    1.750    3.000 
#    6.750    0.000    0.000    0.000    0.000    0.000 
#    0.000    0.000    0.000    0.000    0.000    0.000 
#
# Total GULP energy -89123.548978 kJ/mol
# GULP energy per Si atom -5570.221811 kJ/mol
# Density = 2.383669 g / cm^3
# Si number density = 23.891070 Si / 1000 Ang^3
#
#
#
# Elastic Constant Matrix: (Units=GPa)
#
#
# Indices 1 2 3 4 5 6 
#
# 1 127.8101 43.3173 53.3345 0.0000 -7.6001 0.0000
# 2 43.3173 49.8875 13.3564 0.0000 -1.0967 0.0000
# 3 53.3345 13.3564 142.5120 0.0000 -20.0077 0.0000
# 4 0.0000 0.0000 0.0000 21.9069 0.0000 -4.6134
# 5 -7.6001 -1.0967 -20.0077 0.0000 61.8207 0.0000
# 6 0.0000 0.0000 0.0000 -4.6134 0.0000 52.1436
#
#
#
# Elastic Compliance Matrix: (Units=1/GPa)
#
#
# Indices 1 2 3 4 5 6 
#
# 1 0.012878 -0.010149 -0.003846 0.000000 0.000158 0.000000
# 2 -0.010149 0.028563 0.001066 0.000000 -0.000396 0.000000
# 3 -0.003846 0.001066 0.008688 0.000000 0.002358 0.000000
# 4 0.000000 0.000000 0.000000 0.046514 0.000000 0.004115
# 5 0.000158 -0.000396 0.002358 0.000000 0.016951 0.000000
# 6 0.000000 0.000000 0.000000 0.004115 0.000000 0.019542
#
#
# Mechanical properties :
#
#
# Convention : Reuss Voigt Hill
#
# Bulk Modulus (GPa) = 41.20307 60.02512 50.61410
# Shear Modulus (GPa) = 29.92473 41.18767 35.55620
#
# Velocity S-wave (km/s) = 3.54298 4.15659 3.86199
# Velocity P-wave (km/s) = 5.83272 6.94372 6.41233
#
# Compressibility (1/GPa) = 0.02427004
#
# Stress axis : x y z
#
# Youngs Moduli (GPa) = 77.65064 35.00980 115.10774
#
# Poissons Ratio (x) = 0.35531 0.44273
# Poissons Ratio (y) = 0.78807 -0.12265
# Poissons Ratio (z) = 0.29866 -0.03731
#
# Static dielectric constant tensor:
#      x y z
#    x 2.023550 0.000000 0.009760 
#    y 0.000000 2.105160 0.000000 
#    z 0.009760 0.000000 1.910090 
# 
# From -- ./inp_files/9630.got.cif
#   From: 2010.05.17/outbox.cif.g08.bks.cpg/sg3_5_cif.got.tgz:9630.got - 2010.06.03 18:33:08.
