data_PCOD9114746
_publ_section_title
;
Structure prediction by ZEFSAII (Michael W. Deem and Ramdas Pophale) SiO2 
 PCOD9114746
Probable space group: P 21
;
_chemical_formula_sum "Si O2"
_cell_formula_units_Z 14
_cell_length_a 15.872002
_cell_length_b 6.922829
_cell_length_c 15.838964
_cell_angle_alpha 90.000000
_cell_angle_beta 160.444741
_cell_angle_gamma 90.000000
_cell_volume 582.530066
_symmetry_space_group_name_H-M "P 21"
_symmetry_group_IT_number 4
_symmetry_cell_setting 'monoclinic'
loop_
_space_group_symop_operation_xyz
x,y,z
-x,1/2+y,-z
loop_
_atom_site_type_symbol
_atom_site_label
_atom_site_fract_x
_atom_site_fract_y
_atom_site_fract_z
Si Si1 0.630731 0.360120 0.736614
Si Si2 0.432835 0.138814 0.088381
Si Si3 0.039878 0.135538 0.413040
Si Si4 0.024709 0.578711 0.454586
Si Si5 0.420471 0.689293 0.133788
Si Si6 0.338583 0.729963 0.422732
Si Si7 0.804640 0.744748 0.959921
O O1 0.607603 0.217168 0.792961
O O2 0.392162 0.507068 0.500772
O O3 0.682766 0.261031 0.697062
O O4 0.836151 0.522342 0.956278
O O5 0.716398 0.182607 0.327379
O O6 0.332872 0.232580 0.080266
O O7 0.433807 0.909239 0.110722
O O8 0.228846 0.172138 0.822230
O O9 0.035982 0.367055 0.424244
O O10 0.316868 0.090299 0.640906
O O11 0.989745 0.055558 0.458881
O O12 0.817941 0.095908 0.137642
O O13 0.598806 0.826841 0.700613
O O14 0.088251 0.818883 0.227854
#
# Coordination Sequence:
#
# PCOD9114746 Si02
#       7
#     2   2   2   2   2   2   2
#     4   9  22  35  59  80 111 138 188 219 272 315
#     4   9  17  32  53  79  98 136 176 216 244 312
#     4  10  20  34  55  77 103 136 177 213 264 303
#     4  10  19  32  56  77 103 132 176 216 260 307
#     4   9  19  32  56  76 102 141 176 211 252 325
#     4  10  21  33  59  80 111 139 184 226 265 318
#     4   9  20  32  56  79 108 140 181 215 269 318
#
# _framework density 24.033093999999998
#
# number of rings (size 3 to 8) (size 9 to 14) (size 15 to 20)
#    0.857    1.714    0.000    1.714    8.000    0.000 
#    0.000    0.000    9.429    0.000    0.000    0.000 
#    0.000    0.000    0.000    0.000    0.000    0.000 
#
# Total GULP energy -78210.226171 kJ/mol
# GULP energy per Si atom -5586.444727 kJ/mol
# Density = 2.397839 g / cm^3
# Si number density = 24.033094 Si / 1000 Ang^3
#
#
#
# Elastic Constant Matrix: (Units=GPa)
#
#
# Indices 1 2 3 4 5 6 
#
# 1 98.2211 27.7729 75.1630 0.0000 -10.1017 0.0000
# 2 27.7729 62.4399 22.2666 0.0000 -13.6216 0.0000
# 3 75.1630 22.2666 156.5042 0.0000 17.4069 0.0000
# 4 0.0000 0.0000 0.0000 -3.9046 0.0000 1.2926
# 5 -10.1017 -13.6216 17.4069 0.0000 37.8038 0.0000
# 6 0.0000 0.0000 0.0000 1.2926 0.0000 -3.8744
#
#
#
# Elastic Compliance Matrix: (Units=1/GPa)
#
#
# Indices 1 2 3 4 5 6 
#
# 1 0.019556 -0.003304 -0.009877 0.000000 0.008583 0.000000
# 2 -0.003304 0.019772 -0.002024 0.000000 0.007173 0.000000
# 3 -0.009877 -0.002024 0.012432 0.000000 -0.009093 0.000000
# 4 0.000000 0.000000 0.000000 -0.287905 0.000000 -0.096052
# 5 0.008583 0.007173 -0.009093 0.000000 0.035517 0.000000
# 6 0.000000 0.000000 0.000000 -0.096052 0.000000 -0.290151
#
#
# Mechanical properties :
#
#
# Convention : Reuss Voigt Hill
#
# Bulk Modulus (GPa) = 46.83673 63.06335 54.95004
# Shear Modulus (GPa) = -11.03139 18.80249 3.88555
#
# Velocity S-wave (km/s) = -2.14477 2.80010 1.27289
# Velocity P-wave (km/s) = 3.66024 6.06228 5.00742
#
# Compressibility (1/GPa) = 0.02135077
#
# Stress axis : x y z
#
# Youngs Moduli (GPa) = 51.13516 50.57741 80.43599
#
# Poissons Ratio (x) = 0.16711 0.79443
# Poissons Ratio (y) = 0.16895 0.16281
# Poissons Ratio (z) = 0.50504 0.10237
#
# Static dielectric constant tensor:
#      x y z
#    x 1.847830 0.000000 0.011870 
#    y 0.000000 2.004030 0.000000 
#    z 0.011870 0.000000 1.920410 
# 
# From -- ./inp_files/2706.got.cif
#   From: 2010.05.17/outbox.cif.g08.bks.cpg/sg4_2_cif.got.tgz:2706.got - 2010.06.03 18:43:04.
