data_PCOD9114306
_publ_section_title
;
Structure prediction by ZEFSAII (Michael W. Deem and Ramdas Pophale) SiO2 
 PCOD9114306
Probable space group: P 2
;
_chemical_formula_sum "Si O2"
_cell_formula_units_Z 13
_cell_length_a 9.146678
_cell_length_b 6.107640
_cell_length_c 10.232176
_cell_angle_alpha 90.000000
_cell_angle_beta 109.548149
_cell_angle_gamma 90.000000
_cell_volume 538.668974
_symmetry_space_group_name_H-M "P 2"
_symmetry_group_IT_number 3
_symmetry_cell_setting 'monoclinic'
loop_
_space_group_symop_operation_xyz
x,y,z
-x,y,-z
loop_
_atom_site_type_symbol
_atom_site_label
_atom_site_fract_x
_atom_site_fract_y
_atom_site_fract_z
Si Si1 0.370026 0.977900 0.761512
Si Si2 0.437666 0.349631 0.622283
Si Si3 0.619684 0.633737 0.887090
Si Si4 0.822862 0.656751 0.474513
Si Si5 0.087108 0.688808 0.212593
Si Si6 0.000000 0.057928 0.000000
Si Si7 0.195675 0.340547 0.890198
O O1 0.515374 0.850429 0.867752
O O2 0.251254 0.812241 0.657091
O O3 0.447518 0.099559 0.661271
O O4 0.275795 0.158544 0.819291
O O5 0.500000 0.407739 0.500000
O O6 0.524569 0.478121 0.761758
O O7 0.260987 0.426230 0.566020
O O8 0.783648 0.660063 0.861120
O O9 0.328102 0.516908 0.964089
O O10 0.820918 0.728565 0.625246
O O11 0.000000 0.634352 0.500000
O O12 0.960366 0.488582 0.190075
O O13 0.007549 0.907293 0.131643
O O14 0.145038 0.212333 0.007609
#
# Coordination Sequence:
#
# PCOD9114306 Si02
#       7
#     2   2   2   2   2   1   2
#     4  11  29  47  76 114 154 203 264 320 404 459
#     4  11  25  46  74 109 153 203 259 316 395 470
#     4  11  25  50  73 113 152 209 253 331 383 471
#     4  11  25  48  74 110 151 201 252 328 384 463
#     4  12  24  46  81 110 161 196 271 321 387 471
#     4  12  24  44  80 116 148 210 264 310 398 464
#     4  12  26  52  74 118 157 205 262 327 392 474
#
# _framework density 24.133562999999999
#
# number of rings (size 3 to 8) (size 9 to 14) (size 15 to 20)
#    0.000    0.615    4.615    1.846    4.308    4.923 
#    2.769    0.000    0.000    0.000    0.000    0.000 
#    0.000    0.000    0.000    0.000    0.000    0.000 
#
# Total GULP energy -72642.886879 kJ/mol
# GULP energy per Si atom -5587.914375 kJ/mol
# Density = 2.407863 g / cm^3
# Si number density = 24.133563 Si / 1000 Ang^3
#
#
#
# Elastic Constant Matrix: (Units=GPa)
#
#
# Indices 1 2 3 4 5 6 
#
# 1 99.5076 60.6531 32.0069 0.0000 13.3926 0.0000
# 2 60.6531 106.8763 49.9456 0.0000 6.0464 0.0000
# 3 32.0069 49.9456 126.2398 0.0000 -1.7796 0.0000
# 4 0.0000 0.0000 0.0000 23.5871 0.0000 -12.7466
# 5 13.3926 6.0464 -1.7796 0.0000 39.1263 0.0000
# 6 0.0000 0.0000 0.0000 -12.7466 0.0000 34.2789
#
#
#
# Elastic Compliance Matrix: (Units=1/GPa)
#
#
# Indices 1 2 3 4 5 6 
#
# 1 0.016052 -0.008516 -0.000760 0.000000 -0.004213 0.000000
# 2 -0.008516 0.016153 -0.004228 0.000000 0.000226 0.000000
# 3 -0.000760 -0.004228 0.009806 0.000000 0.001360 0.000000
# 4 0.000000 0.000000 0.000000 0.053058 0.000000 0.019730
# 5 -0.004213 0.000226 0.001360 0.000000 0.027027 0.000000
# 6 0.000000 0.000000 0.000000 0.019730 0.000000 0.036509
#
#
# Mechanical properties :
#
#
# Convention : Reuss Voigt Hill
#
# Bulk Modulus (GPa) = 66.65714 68.64831 67.65272
# Shear Modulus (GPa) = 26.23106 32.06633 29.14870
#
# Velocity S-wave (km/s) = 3.30041 3.64909 3.47912
# Velocity P-wave (km/s) = 6.49644 6.80157 6.65076
#
# Compressibility (1/GPa) = 0.01500214
#
# Stress axis : x y z
#
# Youngs Moduli (GPa) = 62.29873 61.90921 101.97687
#
# Poissons Ratio (x) = 0.52722 0.07749
# Poissons Ratio (y) = 0.53054 0.43119
# Poissons Ratio (z) = 0.04734 0.26177
#
# Static dielectric constant tensor:
#      x y z
#    x 1.990880 0.000000 -0.014320 
#    y 0.000000 1.962580 0.000000 
#    z -0.014320 0.000000 2.062160 
# 
# From -- ./inp_files/10276.got.cif
#   From: 2010.05.17/outbox.cif.g08.bks.cpg/sg3_6_cif.got.tgz:10276.got - 2010.06.03 18:33:08.
