data_PCOD9114874
_publ_section_title
;
Structure prediction by ZEFSAII (Michael W. Deem and Ramdas Pophale) SiO2 
 PCOD9114874
Probable space group: P 21
;
_chemical_formula_sum "Si O2"
_cell_formula_units_Z 14
_cell_length_a 9.060798
_cell_length_b 4.983014
_cell_length_c 16.153287
_cell_angle_alpha 90.000000
_cell_angle_beta 81.641563
_cell_angle_gamma 90.000000
_cell_volume 721.575424
_symmetry_space_group_name_H-M "P 21"
_symmetry_group_IT_number 4
_symmetry_cell_setting 'monoclinic'
loop_
_space_group_symop_operation_xyz
x,y,z
-x,1/2+y,-z
loop_
_atom_site_type_symbol
_atom_site_label
_atom_site_fract_x
_atom_site_fract_y
_atom_site_fract_z
Si Si1 0.991707 0.846860 0.441007
Si Si2 0.450166 0.645864 0.953052
Si Si3 0.612406 0.560407 0.587457
Si Si4 0.733191 0.844262 0.836095
Si Si5 0.692560 0.056785 0.479873
Si Si6 0.769166 0.360821 0.723980
Si Si7 0.107928 0.546591 0.008621
O O1 0.834294 0.950508 0.420512
O O2 0.983045 0.565526 0.488423
O O3 0.103319 0.839405 0.355722
O O4 0.563746 0.764192 0.875395
O O5 0.521019 0.360048 0.974823
O O6 0.271172 0.614559 0.952008
O O7 0.669916 0.854127 0.559041
O O8 0.445051 0.543142 0.569978
O O9 0.634524 0.479679 0.679747
O O10 0.695753 0.347322 0.520881
O O11 0.805364 0.579479 0.790596
O O12 0.828125 0.945073 0.907639
O O13 0.734397 0.080656 0.769161
O O14 0.997674 0.806202 0.018663
#
# Coordination Sequence:
#
# PCOD9114874 Si02
#       7
#     2   2   2   2   2   2   2
#     4  12  21  36  58  85 116 162 210 249 299 366
#     4  10  20  40  66  91 122 163 212 245 294 389
#     4  10  20  34  58  77 109 149 197 249 300 346
#     4  11  24  40  61  93 127 162 206 255 314 374
#     4  10  19  36  54  81 105 147 207 254 281 350
#     4  12  22  37  58  90 125 161 205 265 314 358
#     4  11  22  41  69  97 124 164 209 255 308 381
#
# _framework density 19.401990000000001
#
# number of rings (size 3 to 8) (size 9 to 14) (size 15 to 20)
#    0.000    1.143    2.857    6.000    0.000    0.000 
#    0.000    4.286    0.000    0.000    0.000    0.000 
#    0.000    0.000    0.000    0.000    0.000    0.000 
#
# Total GULP energy -78044.738325 kJ/mol
# GULP energy per Si atom -5574.624166 kJ/mol
# Density = 1.935783 g / cm^3
# Si number density = 19.401990 Si / 1000 Ang^3
#
#
#
# Elastic Constant Matrix: (Units=GPa)
#
#
# Indices 1 2 3 4 5 6 
#
# 1 126.7532 47.8679 48.9473 0.0000 -22.6052 0.0000
# 2 47.8679 108.8837 25.1877 0.0000 -11.1502 0.0000
# 3 48.9473 25.1877 97.3131 0.0000 -22.1385 0.0000
# 4 0.0000 0.0000 0.0000 31.4343 0.0000 1.3251
# 5 -22.6052 -11.1502 -22.1385 0.0000 21.8666 0.0000
# 6 0.0000 0.0000 0.0000 1.3251 0.0000 36.1391
#
#
#
# Elastic Compliance Matrix: (Units=1/GPa)
#
#
# Indices 1 2 3 4 5 6 
#
# 1 0.011841 -0.003708 -0.003432 0.000000 0.006876 0.000000
# 2 -0.003708 0.011099 -0.000770 0.000000 0.001048 0.000000
# 3 -0.003432 -0.000770 0.014688 0.000000 0.010931 0.000000
# 4 0.000000 0.000000 0.000000 0.031862 0.000000 -0.001168
# 5 0.006876 0.001048 0.010931 0.000000 0.064441 0.000000
# 6 0.000000 0.000000 0.000000 -0.001168 0.000000 0.027714
#
#
# Mechanical properties :
#
#
# Convention : Reuss Voigt Hill
#
# Bulk Modulus (GPa) = 45.85020 64.10619 54.97819
# Shear Modulus (GPa) = 27.06607 31.95114 29.50860
#
# Velocity S-wave (km/s) = 3.73904 4.06248 3.90411
# Velocity P-wave (km/s) = 6.50566 7.42413 6.98002
#
# Compressibility (1/GPa) = 0.02181016
#
# Stress axis : x y z
#
# Youngs Moduli (GPa) = 84.45205 90.09512 68.08154
#
# Poissons Ratio (x) = 0.33403 0.23366
# Poissons Ratio (y) = 0.31311 0.05240
# Poissons Ratio (z) = 0.28984 0.06934
#
# Static dielectric constant tensor:
#      x y z
#    x 1.876870 0.000000 -0.022220 
#    y 0.000000 1.696690 0.000000 
#    z -0.022220 0.000000 1.669390 
# 
# From -- ./inp_files/13438.got.cif
#   From: 2010.05.17/outbox.cif.g08.bks.cpg/sg4_7_cif.got.tgz:13438.got - 2010.06.03 18:43:04.
