data_PCOD9114538
_publ_section_title
;
Structure prediction by ZEFSAII (Michael W. Deem and Ramdas Pophale) SiO2 
 PCOD9114538
Probable space group: P 21
;
_chemical_formula_sum "Si O2"
_cell_formula_units_Z 16
_cell_length_a 15.319889
_cell_length_b 5.589650
_cell_length_c 10.963279
_cell_angle_alpha 90.000000
_cell_angle_beta 141.557132
_cell_angle_gamma 90.000000
_cell_volume 583.694078
_symmetry_space_group_name_H-M "P 21"
_symmetry_group_IT_number 4
_symmetry_cell_setting 'monoclinic'
loop_
_space_group_symop_operation_xyz
x,y,z
-x,1/2+y,-z
loop_
_atom_site_type_symbol
_atom_site_label
_atom_site_fract_x
_atom_site_fract_y
_atom_site_fract_z
Si Si1 0.688598 0.233530 0.246860
Si Si2 0.917232 0.115873 0.052308
Si Si3 0.919374 0.616492 0.076349
Si Si4 0.647956 0.128217 0.580534
Si Si5 0.008479 0.639401 0.434487
Si Si6 0.688061 0.057351 0.988672
Si Si7 0.587588 0.561707 0.928627
Si Si8 0.649813 0.627328 0.600223
O O1 0.843619 0.207972 0.467382
O O2 0.565628 0.145724 0.197528
O O3 0.689615 0.047231 0.135588
O O4 0.661405 0.480950 0.140019
O O5 0.995135 0.366362 0.130407
O O6 0.993743 0.864468 0.121824
O O7 0.779473 0.123620 0.817187
O O8 0.840498 0.099237 0.099298
O O9 0.902476 0.613355 0.204617
O O10 0.776727 0.618170 0.838998
O O11 0.656978 0.386332 0.530017
O O12 0.501045 0.124937 0.495684
O O13 0.660437 0.869430 0.535176
O O14 0.014999 0.377543 0.507310
O O15 0.605859 0.308398 0.876670
O O16 0.632968 0.793393 0.898652
#
# Coordination Sequence:
#
# PCOD9114538 Si02
#       8
#     2   2   2   2   2   2   2   2
#     4  10  21  35  50  64  91 114 168 194 232 273
#     4  10  18  29  46  63 100 114 152 182 237 285
#     4  10  19  32  41  65  89 133 149 185 225 273
#     4   8  14  24  40  64  79 121 139 188 219 265
#     4  12  26  34  48  69  98 131 160 189 232 284
#     4  10  18  29  46  68  83 112 146 193 240 270
#     4  10  20  32  51  65  79 119 157 201 239 248
#     4   8  14  25  42  56  87 110 161 174 214 272
#
# _framework density 27.411619000000002
#
# number of rings (size 3 to 8) (size 9 to 14) (size 15 to 20)
#    0.750    1.500    1.250    3.000    3.500    0.000 
#    0.000    0.000    0.000    0.000    0.000    0.000 
#    0.000    2.000    0.000    0.000    0.000    6.750 
#
# Total GULP energy -89235.764477 kJ/mol
# GULP energy per Si atom -5577.235280 kJ/mol
# Density = 2.734923 g / cm^3
# Si number density = 27.411619 Si / 1000 Ang^3
#
#
#
# Elastic Constant Matrix: (Units=GPa)
#
#
# Indices 1 2 3 4 5 6 
#
# 1 94.2088 40.7560 10.0732 0.0000 5.6474 0.0000
# 2 40.7560 341.4488 30.3823 0.0000 -1.1694 0.0000
# 3 10.0732 30.3823 114.2590 0.0000 -8.1457 0.0000
# 4 0.0000 0.0000 0.0000 18.3869 0.0000 0.0522
# 5 5.6474 -1.1694 -8.1457 0.0000 43.4861 0.0000
# 6 0.0000 0.0000 0.0000 0.0522 0.0000 -34.3092
#
#
#
# Elastic Compliance Matrix: (Units=1/GPa)
#
#
# Indices 1 2 3 4 5 6 
#
# 1 0.011356 -0.001292 -0.000776 0.000000 -0.001655 0.000000
# 2 -0.001292 0.003147 -0.000714 0.000000 0.000119 0.000000
# 3 -0.000776 -0.000714 0.009138 0.000000 0.001793 0.000000
# 4 0.000000 0.000000 0.000000 0.054386 0.000000 0.000083
# 5 -0.001655 0.000119 0.001793 0.000000 0.023550 0.000000
# 6 0.000000 0.000000 0.000000 0.000083 0.000000 -0.029147
#
#
# Mechanical properties :
#
#
# Convention : Reuss Voigt Hill
#
# Bulk Modulus (GPa) = 55.31939 79.14884 67.23412
# Shear Modulus (GPa) = 59.50947 36.75975 48.13461
#
# Velocity S-wave (km/s) = 4.66441 3.66598 4.19500
# Velocity P-wave (km/s) = 7.01668 6.84515 6.93144
#
# Compressibility (1/GPa) = 0.01807684
#
# Stress axis : x y z
#
# Youngs Moduli (GPa) = 88.06053 317.77285 109.43037
#
# Poissons Ratio (x) = 0.41060 0.08487
# Poissons Ratio (y) = 0.11378 0.07818
# Poissons Ratio (z) = 0.06829 0.22702
#
# Static dielectric constant tensor:
#      x y z
#    x 2.073430 0.000000 0.009640 
#    y 0.000000 2.211690 0.000000 
#    z 0.009640 0.000000 2.172940 
# 
# From -- ./inp_files/14364.got.cif
#   From: 2010.05.17/outbox.cif.g08.bks.cpg/sg4_8_cif.got.tgz:14364.got - 2010.06.03 18:43:04.
