data_PCOD9114639
_publ_section_title
;
Structure prediction by ZEFSAII (Michael W. Deem and Ramdas Pophale) SiO2 
 PCOD9114639
Probable space group: P 21
;
_chemical_formula_sum "Si O2"
_cell_formula_units_Z 16
_cell_length_a 6.849681
_cell_length_b 5.585656
_cell_length_c 17.139009
_cell_angle_alpha 90.000000
_cell_angle_beta 105.349213
_cell_angle_gamma 90.000000
_cell_volume 632.347933
_symmetry_space_group_name_H-M "P 21"
_symmetry_group_IT_number 4
_symmetry_cell_setting 'monoclinic'
loop_
_space_group_symop_operation_xyz
x,y,z
-x,1/2+y,-z
loop_
_atom_site_type_symbol
_atom_site_label
_atom_site_fract_x
_atom_site_fract_y
_atom_site_fract_z
Si Si1 0.564187 0.765820 0.078162
Si Si2 0.979855 0.213963 0.786431
Si Si3 0.584491 0.944723 0.590464
Si Si4 0.517895 0.262346 0.112326
Si Si5 0.929252 0.278311 0.956015
Si Si6 0.185263 0.153378 0.499608
Si Si7 0.257617 0.218233 0.241149
Si Si8 0.055735 0.799093 0.376162
O O1 0.629630 0.517049 0.124621
O O2 0.317266 0.771797 0.068736
O O3 0.640136 0.014530 0.122870
O O4 0.581451 0.764487 0.985722
O O5 0.028743 0.242592 0.882296
O O6 0.830210 0.450528 0.764774
O O7 0.085731 0.251710 0.713306
O O8 0.900262 0.939382 0.775047
O O9 0.348497 0.972793 0.551635
O O10 0.728562 0.175504 0.620675
O O11 0.671475 0.861882 0.516226
O O12 0.611328 0.773402 0.667969
O O13 0.374777 0.249488 0.171699
O O14 0.998747 0.541117 0.990674
O O15 0.032719 0.195319 0.552963
O O16 0.083377 0.069901 0.407802
#
# Coordination Sequence:
#
# PCOD9114639 Si02
#       8
#     2   2   2   2   2   2   2   2
#     4  10  20  34  58  88 110 161 206 265 317 393
#     4  11  23  41  65  94 127 173 238 270 340 426
#     4  11  24  38  69  99 135 173 235 283 345 417
#     4  10  18  35  61  84 118 148 214 263 319 388
#     4  12  23  39  62  87 127 173 213 271 335 399
#     4  12  22  43  67 102 133 182 231 288 348 427
#     4  11  20  39  66  93 124 175 217 288 341 400
#     4  11  24  41  70  97 136 185 226 286 359 410
#
# _framework density 25.302524999999999
#
# number of rings (size 3 to 8) (size 9 to 14) (size 15 to 20)
#    0.000    1.000    6.250    1.500    0.000    0.000 
#    2.250    0.000    5.500    0.000    0.000    0.000 
#    0.000    0.000    0.000    0.000    0.000    0.000 
#
# Total GULP energy -89306.538441 kJ/mol
# GULP energy per Si atom -5581.658653 kJ/mol
# Density = 2.524494 g / cm^3
# Si number density = 25.302525 Si / 1000 Ang^3
#
#
#
# Elastic Constant Matrix: (Units=GPa)
#
#
# Indices 1 2 3 4 5 6 
#
# 1 70.4654 16.7135 8.2759 0.0000 -17.9864 0.0000
# 2 16.7135 128.2666 8.0451 0.0000 -8.8128 0.0000
# 3 8.2759 8.0451 128.8445 0.0000 -21.4396 0.0000
# 4 0.0000 0.0000 0.0000 51.0681 0.0000 -15.1183
# 5 -17.9864 -8.8128 -21.4396 0.0000 40.0907 0.0000
# 6 0.0000 0.0000 0.0000 -15.1183 0.0000 30.3125
#
#
#
# Elastic Compliance Matrix: (Units=1/GPa)
#
#
# Indices 1 2 3 4 5 6 
#
# 1 0.016371 -0.001660 0.000234 0.000000 0.007105 0.000000
# 2 -0.001660 0.008090 -0.000249 0.000000 0.000901 0.000000
# 3 0.000234 -0.000249 0.008529 0.000000 0.004612 0.000000
# 4 0.000000 0.000000 0.000000 0.022974 0.000000 0.011458
# 5 0.007105 0.000901 0.004612 0.000000 0.030795 0.000000
# 6 0.000000 0.000000 0.000000 0.011458 0.000000 0.038704
#
#
# Mechanical properties :
#
#
# Convention : Reuss Voigt Hill
#
# Bulk Modulus (GPa) = 33.73553 43.73837 38.73695
# Shear Modulus (GPa) = 36.05094 43.93040 39.99067
#
# Velocity S-wave (km/s) = 3.77874 4.17130 3.97986
# Velocity P-wave (km/s) = 5.69213 6.36580 6.03837
#
# Compressibility (1/GPa) = 0.02964234
#
# Stress axis : x y z
#
# Youngs Moduli (GPa) = 61.08314 123.60917 117.24505
#
# Poissons Ratio (x) = 0.20516 -0.02748
# Poissons Ratio (y) = 0.10138 0.02915
# Poissons Ratio (z) = -0.01432 0.03074
#
# Static dielectric constant tensor:
#      x y z
#    x 2.086790 0.000000 0.108390 
#    y 0.000000 2.108140 0.000000 
#    z 0.108390 0.000000 2.034720 
# 
# From -- ./inp_files/13532.got.cif
#   From: 2010.05.17/outbox.cif.g08.bks.cpg/sg4_7_cif.got.tgz:13532.got - 2010.06.03 18:43:04.
