data_PCOD9114153
_publ_section_title
;
Structure prediction by ZEFSAII (Michael W. Deem and Ramdas Pophale) SiO2 
 PCOD9114153
Probable space group: P 2
;
_chemical_formula_sum "Si O2"
_cell_formula_units_Z 13
_cell_length_a 6.450401
_cell_length_b 11.395944
_cell_length_c 9.381003
_cell_angle_alpha 90.000000
_cell_angle_beta 108.955497
_cell_angle_gamma 90.000000
_cell_volume 652.187342
_symmetry_space_group_name_H-M "P 2"
_symmetry_group_IT_number 3
_symmetry_cell_setting 'monoclinic'
loop_
_space_group_symop_operation_xyz
x,y,z
-x,y,-z
loop_
_atom_site_type_symbol
_atom_site_label
_atom_site_fract_x
_atom_site_fract_y
_atom_site_fract_z
Si Si1 0.191590 0.934510 0.659123
Si Si2 0.031979 0.111535 0.853874
Si Si3 0.682863 0.322922 0.142788
Si Si4 0.060871 0.707935 0.355926
Si Si5 0.621008 0.263531 0.677657
Si Si6 0.940520 0.476662 0.817984
Si Si7 0.500000 0.858370 0.500000
O O1 0.415831 0.931062 0.618755
O O2 0.000000 0.957815 0.500000
O O3 0.128166 0.806324 0.708550
O O4 0.158818 0.028574 0.773987
O O5 0.806559 0.163439 0.738048
O O6 0.181390 0.226126 0.914387
O O7 0.000000 0.053062 0.000000
O O8 0.567549 0.258084 0.246337
O O9 0.854030 0.421677 0.221891
O O10 0.500000 0.375670 0.000000
O O11 0.085954 0.607409 0.245420
O O12 0.289938 0.778655 0.416285
O O13 0.000000 0.658655 0.500000
O O14 0.500000 0.259729 0.500000
O O15 0.741890 0.388570 0.735711
O O16 0.000000 0.472976 0.000000
#
# Coordination Sequence:
#
# PCOD9114153 Si02
#       7
#     2   2   2   2   2   2   1
#     4   9  21  40  62  90 125 160 207 262 305 368
#     4  11  23  41  64  93 129 164 205 258 308 371
#     4  11  21  42  60  87 131 169 197 248 316 365
#     4   9  21  39  62  89 123 159 207 260 306 367
#     4  11  25  39  62  95 124 166 210 251 305 371
#     4  11  23  39  62  92 128 162 205 258 305 369
#     4   8  18  42  62  90 124 160 206 258 320 358
#
# _framework density 19.932922000000001
#
# number of rings (size 3 to 8) (size 9 to 14) (size 15 to 20)
#    0.000    2.154    3.077    0.923    5.385    5.538 
#    1.385    0.000    0.000    0.000    0.000    0.000 
#    0.000    0.000    0.000    0.000    0.000    0.000 
#
# Total GULP energy -72517.651356 kJ/mol
# GULP energy per Si atom -5578.280874 kJ/mol
# Density = 1.988755 g / cm^3
# Si number density = 19.932922 Si / 1000 Ang^3
#
#
#
# Elastic Constant Matrix: (Units=GPa)
#
#
# Indices 1 2 3 4 5 6 
#
# 1 120.3357 28.3342 45.9300 0.0000 -24.1100 0.0000
# 2 28.3342 85.1143 40.4482 0.0000 -14.4959 0.0000
# 3 45.9300 40.4482 105.9247 0.0000 -11.0090 0.0000
# 4 0.0000 0.0000 0.0000 30.3383 0.0000 -8.6387
# 5 -24.1100 -14.4959 -11.0090 0.0000 29.9143 0.0000
# 6 0.0000 0.0000 0.0000 -8.6387 0.0000 15.3845
#
#
#
# Elastic Compliance Matrix: (Units=1/GPa)
#
#
# Indices 1 2 3 4 5 6 
#
# 1 0.011468 -0.000674 -0.003939 0.000000 0.007467 0.000000
# 2 -0.000674 0.015194 -0.004992 0.000000 0.004982 0.000000
# 3 -0.003939 -0.004992 0.012970 0.000000 -0.000821 0.000000
# 4 0.000000 0.000000 0.000000 0.039235 0.000000 0.022031
# 5 0.007467 0.004982 -0.000821 0.000000 0.041559 0.000000
# 6 0.000000 0.000000 0.000000 0.022031 0.000000 0.077371
#
#
# Mechanical properties :
#
#
# Convention : Reuss Voigt Hill
#
# Bulk Modulus (GPa) = 48.96775 60.08884 54.52829
# Shear Modulus (GPa) = 22.33984 28.23823 25.28904
#
# Velocity S-wave (km/s) = 3.35139 3.76794 3.56576
# Velocity P-wave (km/s) = 6.29249 7.01005 6.66094
#
# Compressibility (1/GPa) = 0.02042161
#
# Stress axis : x y z
#
# Youngs Moduli (GPa) = 87.19599 65.81500 77.10272
#
# Poissons Ratio (x) = 0.04436 0.30374
# Poissons Ratio (y) = 0.05877 0.38489
# Poissons Ratio (z) = 0.34350 0.32854
#
# Static dielectric constant tensor:
#      x y z
#    x 1.739580 0.000000 -0.019630 
#    y 0.000000 1.708110 0.000000 
#    z -0.019630 0.000000 1.733310 
# 
# From -- ./inp_files/1292.got.cif
#   From: 2010.05.17/outbox.cif.g08.bks.cpg/sg3_1_cif.got.tgz:1292.got - 2010.06.03 18:33:08.
