data_PCOD9114729
_publ_section_title
;
Structure prediction by ZEFSAII (Michael W. Deem and Ramdas Pophale) SiO2 
 PCOD9114729
Probable space group: P 21
;
_chemical_formula_sum "Si O2"
_cell_formula_units_Z 16
_cell_length_a 7.992577
_cell_length_b 13.616880
_cell_length_c 7.694546
_cell_angle_alpha 90.000000
_cell_angle_beta 125.442903
_cell_angle_gamma 90.000000
_cell_volume 682.247341
_symmetry_space_group_name_H-M "P 21"
_symmetry_group_IT_number 4
_symmetry_cell_setting 'monoclinic'
loop_
_space_group_symop_operation_xyz
x,y,z
-x,1/2+y,-z
loop_
_atom_site_type_symbol
_atom_site_label
_atom_site_fract_x
_atom_site_fract_y
_atom_site_fract_z
Si Si1 0.380326 0.739670 0.075642
Si Si2 0.528529 0.549233 0.013694
Si Si3 0.385069 0.354111 0.311360
Si Si4 0.709542 0.890458 0.343655
Si Si5 0.814166 0.309363 0.678036
Si Si6 0.855500 0.675347 0.996921
Si Si7 0.961674 0.978755 0.998931
Si Si8 0.139507 0.895618 0.738393
O O1 0.416759 0.626694 0.067241
O O2 0.229650 0.790910 0.847686
O O3 0.595258 0.798542 0.188077
O O4 0.292857 0.766453 0.211009
O O5 0.376086 0.486396 0.802022
O O6 0.671253 0.616529 0.975209
O O7 0.683778 0.473345 0.198470
O O8 0.362243 0.387527 0.498136
O O9 0.623450 0.324036 0.432669
O O10 0.243261 0.259424 0.184015
O O11 0.272930 0.440002 0.134168
O O12 0.954135 0.886097 0.493616
O O13 0.997701 0.230076 0.774141
O O14 0.908096 0.414903 0.786495
O O15 0.985495 0.593445 0.969623
O O16 0.042885 0.940465 0.859205
#
# Coordination Sequence:
#
# PCOD9114729 Si02
#       8
#     2   2   2   2   2   2   2   2
#     4   9  18  34  54  76 103 135 175 216 257 307
#     4  10  20  33  54  81 106 135 173 216 260 307
#     4   9  17  31  52  75  98 131 176 212 247 304
#     4   9  18  35  57  75 101 143 178 208 254 315
#     4   9  18  33  52  73 101 138 173 211 257 308
#     4  10  19  31  52  80 105 135 174 215 260 306
#     4   8  16  31  49  71 100 134 169 207 252 305
#     4   8  16  32  52  73 100 135 172 207 251 308
#
# _framework density 23.451903999999999
#
# number of rings (size 3 to 8) (size 9 to 14) (size 15 to 20)
#    0.000    3.000    0.000    3.000    0.000    5.000 
#    0.000    5.000    0.000    1.500    0.000    0.000 
#    0.000    0.000    0.000    0.000    0.000    0.000 
#
# Total GULP energy -89440.877321 kJ/mol
# GULP energy per Si atom -5590.054833 kJ/mol
# Density = 2.339853 g / cm^3
# Si number density = 23.451904 Si / 1000 Ang^3
#
#
#
# Elastic Constant Matrix: (Units=GPa)
#
#
# Indices 1 2 3 4 5 6 
#
# 1 73.8666 18.5462 44.2974 0.0000 14.1078 0.0000
# 2 18.5462 148.4966 62.2287 0.0000 19.5412 0.0000
# 3 44.2974 62.2287 127.4410 0.0000 44.3444 0.0000
# 4 0.0000 0.0000 0.0000 12.8100 0.0000 0.6576
# 5 14.1078 19.5412 44.3444 0.0000 51.2095 0.0000
# 6 0.0000 0.0000 0.0000 0.6576 0.0000 33.4626
#
#
#
# Elastic Compliance Matrix: (Units=1/GPa)
#
#
# Indices 1 2 3 4 5 6 
#
# 1 0.017142 0.000459 -0.006410 0.000000 0.000653 0.000000
# 2 0.000459 0.008488 -0.004484 0.000000 0.000518 0.000000
# 3 -0.006410 -0.004484 0.015822 0.000000 -0.010224 0.000000
# 4 0.000000 0.000000 0.000000 0.078143 0.000000 -0.001536
# 5 0.000653 0.000518 -0.010224 0.000000 0.028003 0.000000
# 6 0.000000 0.000000 0.000000 -0.001536 0.000000 0.029914
#
#
# Mechanical properties :
#
#
# Convention : Reuss Voigt Hill
#
# Bulk Modulus (GPa) = 48.58641 66.66096 57.62369
# Shear Modulus (GPa) = 24.36145 34.47856 29.42000
#
# Velocity S-wave (km/s) = 3.22651 3.83845 3.54571
# Velocity P-wave (km/s) = 5.88583 6.93767 6.43328
#
# Compressibility (1/GPa) = 0.02058189
#
# Stress axis : x y z
#
# Youngs Moduli (GPa) = 58.33690 117.81497 63.20354
#
# Poissons Ratio (x) = -0.05411 0.40512
# Poissons Ratio (y) = -0.02679 0.28343
# Poissons Ratio (z) = 0.37392 0.52833
#
# Static dielectric constant tensor:
#      x y z
#    x 2.030370 0.000000 0.018120 
#    y 0.000000 1.820440 0.000000 
#    z 0.018120 0.000000 1.850810 
# 
# From -- ./inp_files/6667.got.cif
#   From: 2010.05.17/outbox.cif.g08.bks.cpg/sg4_4_cif.got.tgz:6667.got - 2010.06.03 18:43:04.
