data_PCOD9114341
_publ_section_title
;
Structure prediction by ZEFSAII (Michael W. Deem and Ramdas Pophale) SiO2 
 PCOD9114341
Probable space group: P 2
;
_chemical_formula_sum "Si O2"
_cell_formula_units_Z 13
_cell_length_a 13.811969
_cell_length_b 6.916391
_cell_length_c 8.493224
_cell_angle_alpha 90.000000
_cell_angle_beta 45.351927
_cell_angle_gamma 90.000000
_cell_volume 577.223435
_symmetry_space_group_name_H-M "P 2"
_symmetry_group_IT_number 3
_symmetry_cell_setting 'monoclinic'
loop_
_space_group_symop_operation_xyz
x,y,z
-x,y,-z
loop_
_atom_site_type_symbol
_atom_site_label
_atom_site_fract_x
_atom_site_fract_y
_atom_site_fract_z
Si Si1 0.000000 0.210441 0.000000
Si Si2 0.765988 0.444930 0.409175
Si Si3 0.083898 0.979096 0.201329
Si Si4 0.560991 0.406308 0.224409
Si Si5 0.797291 0.337394 0.734049
Si Si6 0.000000 0.661957 0.500000
Si Si7 0.500000 0.057354 0.500000
Si Si8 0.709256 0.750783 0.251890
O O1 0.013611 0.092494 0.142718
O O2 0.858025 0.323560 0.182923
O O3 0.601502 0.429642 0.602139
O O4 0.809115 0.374902 0.533565
O O5 0.788831 0.656162 0.306856
O O6 0.143837 0.137096 0.259569
O O7 0.979014 0.819086 0.387549
O O8 0.203835 0.859173 0.979739
O O9 0.575142 0.201804 0.296769
O O10 0.627520 0.579535 0.251679
O O11 0.645254 0.378474 0.968526
O O12 0.886954 0.516534 0.693699
O O13 0.610507 0.910765 0.441529
#
# Coordination Sequence:
#
# PCOD9114341 Si02
#       8
#     1   2   2   2   2   1   1   2
#     4  12  28  48  80 114 150 202 268 326 384 460
#     4  12  26  46  74 110 156 198 259 321 388 455
#     4  12  27  49  75 110 152 204 263 318 386 474
#     4  12  23  48  73 110 152 206 252 332 379 454
#     4  12  27  48  73 107 160 204 248 326 404 448
#     4  12  26  46  74 102 156 204 252 316 398 462
#     4  12  20  44  78 106 144 190 262 312 388 438
#     4  12  24  44  79 110 147 201 266 316 380 459
#
# _framework density 22.521609999999999
#
# number of rings (size 3 to 8) (size 9 to 14) (size 15 to 20)
#    0.000    0.000    6.154    4.615    4.308    0.000 
#    2.769    0.000    0.000    0.000    0.000    0.000 
#    0.000    0.000    0.000    0.000    0.000    0.000 
#
# Total GULP energy -72493.147870 kJ/mol
# GULP energy per Si atom -5576.395990 kJ/mol
# Density = 2.247035 g / cm^3
# Si number density = 22.521610 Si / 1000 Ang^3
#
#
#
# Elastic Constant Matrix: (Units=GPa)
#
#
# Indices 1 2 3 4 5 6 
#
# 1 74.2891 48.7667 9.2043 0.0000 8.1789 0.0000
# 2 48.7667 160.3463 55.7357 0.0000 4.4504 0.0000
# 3 9.2043 55.7357 104.9637 0.0000 0.3689 0.0000
# 4 0.0000 0.0000 0.0000 51.5650 0.0000 15.7403
# 5 8.1789 4.4504 0.3689 0.0000 36.6866 0.0000
# 6 0.0000 0.0000 0.0000 15.7403 0.0000 3.8494
#
#
#
# Elastic Compliance Matrix: (Units=1/GPa)
#
#
# Indices 1 2 3 4 5 6 
#
# 1 0.017385 -0.005730 0.001530 0.000000 -0.003196 0.000000
# 2 -0.005730 0.009566 -0.004578 0.000000 0.000163 0.000000
# 3 0.001530 -0.004578 0.011823 0.000000 0.000095 0.000000
# 4 0.000000 0.000000 0.000000 -0.078136 0.000000 0.319502
# 5 -0.003196 0.000163 0.000095 0.000000 0.027950 0.000000
# 6 0.000000 0.000000 0.000000 0.319502 0.000000 -1.046680
#
#
# Mechanical properties :
#
#
# Convention : Reuss Voigt Hill
#
# Bulk Modulus (GPa) = 47.13094 63.00138 55.06616
# Shear Modulus (GPa) = -4.83810 33.47969 14.32079
#
# Velocity S-wave (km/s) = -1.46727 3.85977 2.52438
# Velocity P-wave (km/s) = 4.25464 6.92086 5.74457
#
# Compressibility (1/GPa) = 0.02121748
#
# Stress axis : x y z
#
# Youngs Moduli (GPa) = 57.52114 104.53814 84.57854
#
# Poissons Ratio (x) = 0.59903 -0.12937
# Poissons Ratio (y) = 0.32961 0.38716
# Poissons Ratio (z) = -0.08798 0.47853
#
# Static dielectric constant tensor:
#      x y z
#    x 1.881140 0.000000 -0.007140 
#    y 0.000000 1.837180 0.000000 
#    z -0.007140 0.000000 1.908930 
# 
# From -- ./inp_files/8257.got.cif
#   From: 2010.05.17/outbox.cif.g08.bks.cpg/sg3_5_cif.got.tgz:8257.got - 2010.06.03 18:33:08.
