data_PCOD9114733
_publ_section_title
;
Structure prediction by ZEFSAII (Michael W. Deem and Ramdas Pophale) SiO2 
 PCOD9114733
Probable space group: P 21
;
_chemical_formula_sum "Si O2"
_cell_formula_units_Z 16
_cell_length_a 27.439258
_cell_length_b 5.243048
_cell_length_c 12.643771
_cell_angle_alpha 90.000000
_cell_angle_beta 151.054346
_cell_angle_gamma 90.000000
_cell_volume 880.359518
_symmetry_space_group_name_H-M "P 21"
_symmetry_group_IT_number 4
_symmetry_cell_setting 'monoclinic'
loop_
_space_group_symop_operation_xyz
x,y,z
-x,1/2+y,-z
loop_
_atom_site_type_symbol
_atom_site_label
_atom_site_fract_x
_atom_site_fract_y
_atom_site_fract_z
Si Si1 0.047171 0.395500 0.319405
Si Si2 0.494088 0.095798 0.561023
Si Si3 0.837327 0.635785 0.287934
Si Si4 0.708975 0.136114 0.000755
Si Si5 0.936036 0.883093 0.872806
Si Si6 0.148019 0.589337 0.080938
Si Si7 0.910715 0.697026 0.202985
Si Si8 0.711209 0.362772 0.776123
O O1 0.106631 0.181568 0.495940
O O2 0.104569 0.462739 0.320489
O O3 0.012947 0.600784 0.341651
O O4 0.937979 0.302853 0.071212
O O5 0.518118 0.842228 0.537167
O O6 0.389282 0.030457 0.419385
O O7 0.593392 0.146998 0.819277
O O8 0.778736 0.369275 0.171128
O O9 0.915301 0.677023 0.338220
O O10 0.758600 0.866989 0.121394
O O11 0.700439 0.181188 0.857977
O O12 0.864951 0.916397 0.840150
O O13 0.974694 0.591987 0.940603
O O14 0.257512 0.704031 0.267538
O O15 0.115789 0.454477 0.909476
O O16 0.810578 0.530053 0.988572
#
# Coordination Sequence:
#
# PCOD9114733 Si02
#       8
#     2   2   2   2   2   2   2   2
#     4  10  23  33  51  74 105 152 186 215 263 314
#     4  10  19  32  54  76 108 146 176 215 278 332
#     4  11  23  33  51  73 112 145 185 210 259 321
#     4  10  20  35  48  76 108 144 173 219 259 326
#     4  10  20  36  53  72 102 142 185 229 264 301
#     4  10  19  34  51  74 107 140 180 226 267 307
#     4  10  19  32  48  73 106 142 174 221 257 316
#     4   9  19  31  50  78 106 137 175 217 273 323
#
# _framework density 18.174393999999999
#
# number of rings (size 3 to 8) (size 9 to 14) (size 15 to 20)
#    0.000    2.000    2.500    2.250    5.250    0.000 
#    0.000    0.000    0.000    0.000    0.000    0.000 
#    3.750    0.000    0.250    0.000    0.000    0.000 
#
# Total GULP energy -89113.782466 kJ/mol
# GULP energy per Si atom -5569.611404 kJ/mol
# Density = 1.813303 g / cm^3
# Si number density = 18.174394 Si / 1000 Ang^3
#
#
#
# Elastic Constant Matrix: (Units=GPa)
#
#
# Indices 1 2 3 4 5 6 
#
# 1 59.3223 1.9819 29.4328 0.0000 -4.3434 0.0000
# 2 1.9819 66.0429 9.7667 0.0000 13.4675 0.0000
# 3 29.4328 9.7667 52.1166 0.0000 7.0410 0.0000
# 4 0.0000 0.0000 0.0000 27.3709 0.0000 5.2207
# 5 -4.3434 13.4675 7.0410 0.0000 21.2378 0.0000
# 6 0.0000 0.0000 0.0000 5.2207 0.0000 28.1437
#
#
#
# Elastic Compliance Matrix: (Units=1/GPa)
#
#
# Indices 1 2 3 4 5 6 
#
# 1 0.025477 -0.000648 -0.015731 0.000000 0.010837 0.000000
# 2 -0.000648 0.017579 -0.001470 0.000000 -0.010793 0.000000
# 3 -0.015731 -0.001470 0.029999 0.000000 -0.012231 0.000000
# 4 0.000000 0.000000 0.000000 0.037875 0.000000 -0.007026
# 5 0.010837 -0.010793 -0.012231 0.000000 0.060201 0.000000
# 6 0.000000 0.000000 0.000000 -0.007026 0.000000 0.036835
#
#
# Mechanical properties :
#
#
# Convention : Reuss Voigt Hill
#
# Bulk Modulus (GPa) = 26.76811 28.87160 27.81985
# Shear Modulus (GPa) = 19.52225 24.43716 21.97971
#
# Velocity S-wave (km/s) = 3.28100 3.67085 3.48138
# Velocity P-wave (km/s) = 5.39571 5.82127 5.61253
#
# Compressibility (1/GPa) = 0.03735789
#
# Stress axis : x y z
#
# Youngs Moduli (GPa) = 39.25122 56.88467 33.33390
#
# Poissons Ratio (x) = 0.03686 0.52436
# Poissons Ratio (y) = 0.02544 0.04901
# Poissons Ratio (z) = 0.61745 0.08364
#
# Static dielectric constant tensor:
#      x y z
#    x 1.719300 0.000000 0.003070 
#    y 0.000000 1.713180 0.000000 
#    z 0.003070 0.000000 1.638740 
# 
# From -- ./inp_files/11769.got.cif
#   From: 2010.05.17/outbox.cif.g08.bks.cpg/sg4_6_cif.got.tgz:11769.got - 2010.06.03 18:43:04.
