data_PCOD9114475
_publ_section_title
;
Structure prediction by ZEFSAII (Michael W. Deem and Ramdas Pophale) SiO2 
 PCOD9114475
Probable space group: P 21
;
_chemical_formula_sum "Si O2"
_cell_formula_units_Z 12
_cell_length_a 13.342020
_cell_length_b 5.720120
_cell_length_c 9.683141
_cell_angle_alpha 90.000000
_cell_angle_beta 147.145141
_cell_angle_gamma 90.000000
_cell_volume 400.915600
_symmetry_space_group_name_H-M "P 21"
_symmetry_group_IT_number 4
_symmetry_cell_setting 'monoclinic'
loop_
_space_group_symop_operation_xyz
x,y,z
-x,1/2+y,-z
loop_
_atom_site_type_symbol
_atom_site_label
_atom_site_fract_x
_atom_site_fract_y
_atom_site_fract_z
Si Si1 0.464157 0.235640 0.152586
Si Si2 0.901652 0.235640 0.590716
Si Si3 0.646903 0.235640 0.645834
Si Si4 0.150096 0.235640 0.151629
Si Si5 0.122907 0.235640 0.430825
Si Si6 0.562137 0.235640 0.873584
O O1 0.679260 0.235640 0.356419
O O2 0.482741 0.235640 0.340532
O O3 0.373502 0.479490 0.002662
O O4 0.373502 0.991790 0.002662
O O5 0.941728 0.492959 0.579579
O O6 0.941728 0.978321 0.579579
O O7 0.014364 0.235640 0.864864
O O8 0.742198 0.487050 0.725699
O O9 0.597651 0.235640 0.750589
O O10 0.742198 0.984231 0.725699
O O11 0.054937 0.235640 0.192548
O O12 0.345076 0.235640 0.663639
#
# Coordination Sequence:
#
# PCOD9114475 Si02
#       6
#     2   2   2   2   2   2
#     4  10  17  26  33  38  42  55  58  69  70  74
#     4  10  18  26  32  38  46  50  62  64  72  80
#     4  12  19  24  31  40  46  53  56  65  74  80
#     4  12  19  24  31  40  46  53  56  65  74  80
#     4  10  17  26  33  38  42  55  58  69  70  74
#     4  10  18  26  32  38  46  50  62  64  72  80
#
# _framework density 29.931484000000001
#
# number of rings (size 3 to 8) (size 9 to 14) (size 15 to 20)
#    0.000    1.333    6.667    4.000    0.000    0.000 
#    0.000    0.000    0.000    0.000    0.000    0.000 
#    0.000    0.000    0.000    0.000    0.000    0.000 
#
# Total GULP energy -67174.214521 kJ/mol
# GULP energy per Si atom -5597.851210 kJ/mol
# Density = 2.986336 g / cm^3
# Si number density = 29.931484 Si / 1000 Ang^3
#
#
#
# Elastic Constant Matrix: (Units=GPa)
#
#
# Indices 1 2 3 4 5 6 
#
# 1 121.3265 55.5863 31.3517 0.0000 -24.2522 0.0000
# 2 55.5863 470.9001 51.1563 0.0000 6.2478 0.0000
# 3 31.3517 51.1563 115.1002 0.0000 -18.0618 0.0000
# 4 0.0000 0.0000 0.0000 -7.6555 0.0000 54.3493
# 5 -24.2522 6.2478 -18.0618 0.0000 46.7899 0.0000
# 6 0.0000 0.0000 0.0000 54.3493 0.0000 -30.1758
#
#
#
# Elastic Compliance Matrix: (Units=1/GPa)
#
#
# Indices 1 2 3 4 5 6 
#
# 1 0.010090 -0.001090 -0.001512 0.000000 0.004792 0.000000
# 2 -0.001090 0.002372 -0.000954 0.000000 -0.001250 0.000000
# 3 -0.001512 -0.000954 0.010028 0.000000 0.003215 0.000000
# 4 0.000000 0.000000 0.000000 0.011082 0.000000 0.019961
# 5 0.004792 -0.001250 0.003215 0.000000 0.025264 0.000000
# 6 0.000000 0.000000 0.000000 0.019961 0.000000 0.002812
#
#
# Mechanical properties :
#
#
# Convention : Reuss Voigt Hill
#
# Bulk Modulus (GPa) = 65.02258 109.27949 87.15104
# Shear Modulus (GPa) = 67.67069 39.74054 53.70562
#
# Velocity S-wave (km/s) = 4.76000 3.64774 4.24050
# Velocity P-wave (km/s) = 7.20979 7.37092 7.29080
#
# Compressibility (1/GPa) = 0.01537927
#
# Stress axis : x y z
#
# Youngs Moduli (GPa) = 99.10431 421.49798 99.71891
#
# Poissons Ratio (x) = 0.45962 0.15076
# Poissons Ratio (y) = 0.10807 0.09509
# Poissons Ratio (z) = 0.14983 0.40194
#
# Static dielectric constant tensor:
#      x y z
#    x 2.373020 0.000000 0.140220 
#    y 0.000000 2.294710 0.000000 
#    z 0.140220 0.000000 2.352140 
# 
# From -- ./inp_files/12722.got.cif
#   From: 2010.05.17/outbox.cif.g08.bks.cpg/sg4_7_cif.got.tgz:12722.got - 2010.06.03 18:43:04.
