data_PCOD9114986
_publ_section_title
;
Structure prediction by ZEFSAII (Michael W. Deem and Ramdas Pophale) SiO2 
 PCOD9114986
Probable space group: P 21
;
_chemical_formula_sum "Si O2"
_cell_formula_units_Z 16
_cell_length_a 12.468109
_cell_length_b 7.464116
_cell_length_c 11.679985
_cell_angle_alpha 90.000000
_cell_angle_beta 142.981050
_cell_angle_gamma 90.000000
_cell_volume 654.447525
_symmetry_space_group_name_H-M "P 21"
_symmetry_group_IT_number 4
_symmetry_cell_setting 'monoclinic'
loop_
_space_group_symop_operation_xyz
x,y,z
-x,1/2+y,-z
loop_
_atom_site_type_symbol
_atom_site_label
_atom_site_fract_x
_atom_site_fract_y
_atom_site_fract_z
Si Si1 0.791897 0.734330 0.262789
Si Si2 0.851694 0.158451 0.300977
Si Si3 0.266063 0.885080 0.166338
Si Si4 0.136584 0.869859 0.289328
Si Si5 0.262675 0.228036 0.034237
Si Si6 0.055748 0.269409 0.249488
Si Si7 0.626513 0.274296 0.294303
Si Si8 0.604473 0.851788 0.319917
O O1 0.659740 0.727561 0.259251
O O2 0.981659 0.665475 0.469080
O O3 0.803859 0.949115 0.247978
O O4 0.748186 0.645035 0.104308
O O5 0.703387 0.287349 0.231690
O O6 0.926211 0.230909 0.246246
O O7 0.257321 0.808131 0.286259
O O8 0.421787 0.795067 0.224280
O O9 0.304362 0.094329 0.174113
O O10 0.066945 0.865845 0.946500
O O11 0.228888 0.832798 0.489218
O O12 0.119009 0.080639 0.256056
O O13 0.934812 0.800837 0.115218
O O14 0.435404 0.354178 0.165544
O O15 0.232127 0.356870 0.450871
O O16 0.598098 0.058940 0.276676
#
# Coordination Sequence:
#
# PCOD9114986 Si02
#       8
#     2   2   2   2   2   2   2   2
#     4  10  20  38  66  93 132 161 211 263 323 386
#     4  10  19  38  63  96 130 160 204 263 326 380
#     4  11  26  42  65  90 132 176 218 260 320 387
#     4  12  24  44  63  95 130 172 219 265 319 384
#     4  11  23  43  66  97 125 175 219 260 325 383
#     4  11  23  40  64  95 129 165 216 269 317 380
#     4  10  22  41  68  92 127 170 208 266 326 382
#     4   9  23  42  61  98 123 167 211 262 326 380
#
# _framework density 24.448101000000001
#
# number of rings (size 3 to 8) (size 9 to 14) (size 15 to 20)
#    0.000    1.500    2.500    1.500    5.250    4.000 
#    0.000    0.000    0.000    0.000    0.000    0.000 
#    0.000    0.000    0.000    0.000    0.000    0.000 
#
# Total GULP energy -89425.912187 kJ/mol
# GULP energy per Si atom -5589.119512 kJ/mol
# Density = 2.439246 g / cm^3
# Si number density = 24.448101 Si / 1000 Ang^3
#
#
#
# Elastic Constant Matrix: (Units=GPa)
#
#
# Indices 1 2 3 4 5 6 
#
# 1 135.2519 4.8006 29.2672 0.0000 15.1338 0.0000
# 2 4.8006 36.5685 -0.5193 0.0000 7.3038 0.0000
# 3 29.2672 -0.5193 60.6610 0.0000 11.1123 0.0000
# 4 0.0000 0.0000 0.0000 5.8672 0.0000 4.5683
# 5 15.1338 7.3038 11.1123 0.0000 31.1342 0.0000
# 6 0.0000 0.0000 0.0000 4.5683 0.0000 16.9682
#
#
#
# Elastic Compliance Matrix: (Units=1/GPa)
#
#
# Indices 1 2 3 4 5 6 
#
# 1 0.008499 -0.000629 -0.003612 0.000000 -0.002694 0.000000
# 2 -0.000629 0.028879 0.001857 0.000000 -0.007132 0.000000
# 3 -0.003612 0.001857 0.019261 0.000000 -0.005554 0.000000
# 4 0.000000 0.000000 0.000000 0.215640 0.000000 -0.058056
# 5 -0.002694 -0.007132 -0.005554 0.000000 0.037084 0.000000
# 6 0.000000 0.000000 0.000000 -0.058056 0.000000 0.074564
#
#
# Mechanical properties :
#
#
# Convention : Reuss Voigt Hill
#
# Bulk Modulus (GPa) = 19.27840 33.28648 26.28244
# Shear Modulus (GPa) = 12.31568 24.05613 18.18590
#
# Velocity S-wave (km/s) = 2.24687 3.14023 2.73033
# Velocity P-wave (km/s) = 3.82541 5.17617 4.55118
#
# Compressibility (1/GPa) = 0.05187153
#
# Stress axis : x y z
#
# Youngs Moduli (GPa) = 117.65948 34.62681 51.91754
#
# Poissons Ratio (x) = 0.02178 0.18755
# Poissons Ratio (y) = 0.07399 -0.09642
# Poissons Ratio (z) = 0.42503 -0.06431
#
# Static dielectric constant tensor:
#      x y z
#    x 2.011660 0.000000 0.031170 
#    y 0.000000 1.978180 0.000000 
#    z 0.031170 0.000000 1.964000 
# 
# From -- ./inp_files/9578.got.cif
#   From: 2010.05.17/outbox.cif.g08.bks.cpg/sg4_5_cif.got.tgz:9578.got - 2010.06.03 18:43:04.
