data_PCOD9114584
_publ_section_title
;
Structure prediction by ZEFSAII (Michael W. Deem and Ramdas Pophale) SiO2 
 PCOD9114584
Probable space group: P 21
;
_chemical_formula_sum "Si O2"
_cell_formula_units_Z 14
_cell_length_a 5.527412
_cell_length_b 14.854987
_cell_length_c 6.427405
_cell_angle_alpha 90.000000
_cell_angle_beta 103.011519
_cell_angle_gamma 90.000000
_cell_volume 514.201744
_symmetry_space_group_name_H-M "P 21"
_symmetry_group_IT_number 4
_symmetry_cell_setting 'monoclinic'
loop_
_space_group_symop_operation_xyz
x,y,z
-x,1/2+y,-z
loop_
_atom_site_type_symbol
_atom_site_label
_atom_site_fract_x
_atom_site_fract_y
_atom_site_fract_z
Si Si1 0.268262 0.954140 0.667940
Si Si2 0.098912 0.891824 0.063240
Si Si3 0.329603 0.753431 0.563182
Si Si4 0.971735 0.683848 0.031924
Si Si5 0.181889 0.152880 0.476907
Si Si6 0.610899 0.959859 0.105166
Si Si7 0.456427 0.649353 0.979009
O O1 0.274889 0.859704 0.547435
O O2 0.528603 0.959729 0.845950
O O3 0.085004 0.938696 0.831711
O O4 0.220324 0.047536 0.542267
O O5 0.010509 0.789835 0.037900
O O6 0.895952 0.935679 0.174500
O O7 0.393979 0.900155 0.163038
O O8 0.567839 0.715873 0.483233
O O9 0.404750 0.733550 0.819834
O O10 0.067912 0.701330 0.476647
O O11 0.892450 0.653342 0.784785
O O12 0.733210 0.656037 0.118629
O O13 0.241575 0.641940 0.105713
O O14 0.567910 0.061467 0.168472
#
# Coordination Sequence:
#
# PCOD9114584 Si02
#       7
#     2   2   2   2   2   2   2
#     4  10  22  35  60  82 113 145 188 221 279 327
#     4  10  19  34  54  83 104 139 191 214 276 319
#     4  10  21  37  57  82 109 150 182 229 270 326
#     4  10  18  35  55  80 103 147 177 230 263 325
#     4  10  20  33  58  83 108 143 190 224 271 326
#     4  10  20  31  53  83 102 141 178 234 259 325
#     4  10  18  33  55  77 109 133 188 218 272 316
#
# _framework density 27.226668
#
# number of rings (size 3 to 8) (size 9 to 14) (size 15 to 20)
#    0.857    1.143    2.857    3.429    2.000    0.000 
#    0.000    0.000    0.000   27.429    0.000    0.000 
#    0.000    0.000    0.000    0.000    0.000    0.000 
#
# Total GULP energy -78288.604141 kJ/mol
# GULP energy per Si atom -5592.043153 kJ/mol
# Density = 2.716470 g / cm^3
# Si number density = 27.226668 Si / 1000 Ang^3
#
#
#
# Elastic Constant Matrix: (Units=GPa)
#
#
# Indices 1 2 3 4 5 6 
#
# 1 284.4931 93.1001 45.9255 0.0000 -7.0375 0.0000
# 2 93.1001 205.2195 40.9884 0.0000 1.4782 0.0000
# 3 45.9255 40.9884 54.4057 0.0000 6.3260 0.0000
# 4 0.0000 0.0000 0.0000 52.3935 0.0000 3.4935
# 5 -7.0375 1.4782 6.3260 0.0000 49.2781 0.0000
# 6 0.0000 0.0000 0.0000 3.4935 0.0000 49.9547
#
#
#
# Elastic Compliance Matrix: (Units=1/GPa)
#
#
# Indices 1 2 3 4 5 6 
#
# 1 0.004475 -0.001482 -0.002782 0.000000 0.001041 0.000000
# 2 -0.001482 0.006234 -0.003451 0.000000 0.000044 0.000000
# 3 -0.002782 -0.003451 0.023717 0.000000 -0.003338 0.000000
# 4 0.000000 0.000000 0.000000 0.019176 0.000000 -0.001341
# 5 0.001041 0.000044 -0.003338 0.000000 0.020869 0.000000
# 6 0.000000 0.000000 0.000000 -0.001341 0.000000 0.020112
#
#
# Mechanical properties :
#
#
# Convention : Reuss Voigt Hill
#
# Bulk Modulus (GPa) = 52.64199 100.46069 76.55134
# Shear Modulus (GPa) = 42.97625 54.59887 48.78756
#
# Velocity S-wave (km/s) = 3.97730 4.48297 4.23768
# Velocity P-wave (km/s) = 6.36149 7.98586 7.21951
#
# Compressibility (1/GPa) = 0.01899624
#
# Stress axis : x y z
#
# Youngs Moduli (GPa) = 223.47396 160.40966 42.16447
#
# Poissons Ratio (x) = 0.23771 0.11730
# Poissons Ratio (y) = 0.33117 0.14550
# Poissons Ratio (z) = 0.62167 0.55355
#
# Static dielectric constant tensor:
#      x y z
#    x 2.157380 0.000000 -0.036290 
#    y 0.000000 2.095180 0.000000 
#    z -0.036290 0.000000 2.361350 
# 
# From -- ./inp_files/2753.got.cif
#   From: 2010.05.17/outbox.cif.g08.bks.cpg/sg4_2_cif.got.tgz:2753.got - 2010.06.03 18:43:04.
