data_PCOD9114535
_publ_section_title
;
Structure prediction by ZEFSAII (Michael W. Deem and Ramdas Pophale) SiO2 
 PCOD9114535
Probable space group: P 21
;
_chemical_formula_sum "Si O2"
_cell_formula_units_Z 14
_cell_length_a 7.604339
_cell_length_b 5.017227
_cell_length_c 20.615796
_cell_angle_alpha 90.000000
_cell_angle_beta 138.291210
_cell_angle_gamma 90.000000
_cell_volume 523.325811
_symmetry_space_group_name_H-M "P 21"
_symmetry_group_IT_number 4
_symmetry_cell_setting 'monoclinic'
loop_
_space_group_symop_operation_xyz
x,y,z
-x,1/2+y,-z
loop_
_atom_site_type_symbol
_atom_site_label
_atom_site_fract_x
_atom_site_fract_y
_atom_site_fract_z
Si Si1 0.146467 0.647850 0.247404
Si Si2 0.466148 0.157632 0.306435
Si Si3 0.002877 0.517984 0.577029
Si Si4 0.150264 0.079933 0.959530
Si Si5 0.220364 0.989180 0.703273
Si Si6 0.526758 0.224072 0.548608
Si Si7 0.357060 0.577978 0.084224
O O1 0.258260 0.346891 0.283334
O O2 0.200656 0.733546 0.336601
O O3 0.905233 0.632702 0.131315
O O4 0.336345 0.869109 0.264762
O O5 0.526708 0.330538 0.258895
O O6 0.771519 0.110967 0.411513
O O7 0.028524 0.733005 0.644196
O O8 0.707312 0.586274 0.474053
O O9 0.099641 0.230502 0.627829
O O10 0.874153 0.102000 0.924413
O O11 0.336853 0.294875 0.044324
O O12 0.275102 0.795193 0.008644
O O13 0.354375 0.104630 0.804457
O O14 0.462871 0.521448 0.508632
#
# Coordination Sequence:
#
# PCOD9114535 Si02
#       7
#     2   2   2   2   2   2   2
#     4  12  22  38  60  87 129 154 201 249 295 355
#     4  10  19  34  60  90 120 151 187 238 316 352
#     4  10  20  38  62  85 120 150 200 244 309 355
#     4  10  19  28  48  83 119 169 180 223 286 355
#     4  10  18  34  56  90 123 150 190 232 290 363
#     4  12  28  46  62  85 114 164 217 254 298 355
#     4  10  18  28  50  82 129 152 189 212 288 381
#
# _framework density 26.751977
#
# number of rings (size 3 to 8) (size 9 to 14) (size 15 to 20)
#    0.857    0.571    2.857    3.429    4.000    1.143 
#    0.000    0.000    0.000    0.000    0.000   20.000 
#    0.000    0.000    0.000    0.000    0.000    0.000 
#
# Total GULP energy -78132.975695 kJ/mol
# GULP energy per Si atom -5580.926835 kJ/mol
# Density = 2.669109 g / cm^3
# Si number density = 26.751977 Si / 1000 Ang^3
#
#
#
# Elastic Constant Matrix: (Units=GPa)
#
#
# Indices 1 2 3 4 5 6 
#
# 1 46.0233 16.9466 10.9729 0.0000 -14.9227 0.0000
# 2 16.9466 110.4804 -5.4169 0.0000 6.6649 0.0000
# 3 10.9729 -5.4169 147.3415 0.0000 -5.4102 0.0000
# 4 0.0000 0.0000 0.0000 34.7302 0.0000 -2.1828
# 5 -14.9227 6.6649 -5.4102 0.0000 36.2745 0.0000
# 6 0.0000 0.0000 0.0000 -2.1828 0.0000 31.0697
#
#
#
# Elastic Compliance Matrix: (Units=1/GPa)
#
#
# Indices 1 2 3 4 5 6 
#
# 1 0.028000 -0.005120 -0.001826 0.000000 0.012187 0.000000
# 2 -0.005120 0.010100 0.000610 0.000000 -0.003871 0.000000
# 3 -0.001826 0.000610 0.006952 0.000000 0.000173 0.000000
# 4 0.000000 0.000000 0.000000 0.028921 0.000000 0.002032
# 5 0.012187 -0.003871 0.000173 0.000000 0.033318 0.000000
# 6 0.000000 0.000000 0.000000 0.002032 0.000000 0.032328
#
#
# Mechanical properties :
#
#
# Convention : Reuss Voigt Hill
#
# Bulk Modulus (GPa) = 30.88164 38.76116 34.82140
# Shear Modulus (GPa) = 30.65901 39.17104 34.91502
#
# Velocity S-wave (km/s) = 3.38900 3.83068 3.61659
# Velocity P-wave (km/s) = 5.18484 5.83832 5.52126
#
# Compressibility (1/GPa) = 0.03238170
#
# Stress axis : x y z
#
# Youngs Moduli (GPa) = 35.71402 99.00863 143.84862
#
# Poissons Ratio (x) = 0.50689 0.26266
# Poissons Ratio (y) = 0.18284 -0.08782
# Poissons Ratio (z) = 0.06521 -0.06044
#
# Static dielectric constant tensor:
#      x y z
#    x 2.381840 0.000000 0.001150 
#    y 0.000000 2.004200 0.000000 
#    z 0.001150 0.000000 2.103140 
# 
# From -- ./inp_files/16081.got.cif
#   From: 2010.05.17/outbox.cif.g08.bks.cpg/sg4_9_cif.got.tgz:16081.got - 2010.06.03 18:43:04.
