data_PCOD9114738
_publ_section_title
;
Structure prediction by ZEFSAII (Michael W. Deem and Ramdas Pophale) SiO2 
 PCOD9114738
Probable space group: P 21
;
_chemical_formula_sum "Si O2"
_cell_formula_units_Z 14
_cell_length_a 19.670995
_cell_length_b 5.116409
_cell_length_c 5.041619
_cell_angle_alpha 90.000000
_cell_angle_beta 72.392269
_cell_angle_gamma 90.000000
_cell_volume 483.640647
_symmetry_space_group_name_H-M "P 21"
_symmetry_group_IT_number 4
_symmetry_cell_setting 'monoclinic'
loop_
_space_group_symop_operation_xyz
x,y,z
-x,1/2+y,-z
loop_
_atom_site_type_symbol
_atom_site_label
_atom_site_fract_x
_atom_site_fract_y
_atom_site_fract_z
Si Si1 0.199009 0.154790 0.586200
Si Si2 0.627969 0.474749 0.241706
Si Si3 0.339949 0.322563 0.304953
Si Si4 0.061373 0.959854 0.614281
Si Si5 0.091157 0.643430 0.080444
Si Si6 0.484173 0.556265 0.179406
Si Si7 0.231738 0.794813 0.048646
O O1 0.256558 0.380883 0.454223
O O2 0.114335 0.193911 0.641858
O O3 0.218455 0.934495 0.343049
O O4 0.213375 0.016605 0.849229
O O5 0.644662 0.587503 0.507740
O O6 0.542979 0.442066 0.313164
O O7 0.647027 0.697176 0.998484
O O8 0.683904 0.247386 0.092797
O O9 0.399791 0.529680 0.322113
O O10 0.075941 0.890825 0.293924
O O11 0.977389 0.976171 0.763835
O O12 0.086156 0.734611 0.785777
O O13 0.172522 0.573015 0.058232
O O14 0.503049 0.847925 0.073139
#
# Coordination Sequence:
#
# PCOD9114738 Si02
#       7
#     2   2   2   2   2   2   2
#     4   8  15  29  50  73 100 140 182 223 276 338
#     4   9  18  34  56  80 108 145 191 239 289 346
#     4   9  18  34  56  80 108 145 191 239 289 346
#     4  10  19  32  51  75 105 141 181 226 279 334
#     4  10  19  32  51  75 105 141 181 226 279 334
#     4  10  22  40  62  90 122 158 200 246 298 354
#     4   8  15  29  50  73 100 140 182 223 276 338
#
# _framework density 28.947113000000002
#
# number of rings (size 3 to 8) (size 9 to 14) (size 15 to 20)
#    0.000    2.857    0.000    0.857    0.000    4.571 
#    0.000    1.429    0.000   12.000    0.000    0.000 
#    0.000    0.000    0.000    0.000    0.000    0.000 
#
# Total GULP energy -78397.761409 kJ/mol
# GULP energy per Si atom -5599.840101 kJ/mol
# Density = 2.888123 g / cm^3
# Si number density = 28.947113 Si / 1000 Ang^3
#
#
#
# Elastic Constant Matrix: (Units=GPa)
#
#
# Indices 1 2 3 4 5 6 
#
# 1 189.8063 50.7842 41.9529 0.0000 0.2010 0.0000
# 2 50.7842 78.9987 44.1460 0.0000 -10.8534 0.0000
# 3 41.9529 44.1460 128.7536 0.0000 -8.9002 0.0000
# 4 0.0000 0.0000 0.0000 9.9557 0.0000 -10.6736
# 5 0.2010 -10.8534 -8.9002 0.0000 52.1450 0.0000
# 6 0.0000 0.0000 0.0000 -10.6736 0.0000 38.8884
#
#
#
# Elastic Compliance Matrix: (Units=1/GPa)
#
#
# Indices 1 2 3 4 5 6 
#
# 1 0.006482 -0.003813 -0.000872 0.000000 -0.000967 0.000000
# 2 -0.003813 0.018197 -0.004790 0.000000 0.002984 0.000000
# 3 -0.000872 -0.004790 0.009740 0.000000 0.000669 0.000000
# 4 0.000000 0.000000 0.000000 0.142326 0.000000 0.039064
# 5 -0.000967 0.002984 0.000669 0.000000 0.019916 0.000000
# 6 0.000000 0.000000 0.000000 0.039064 0.000000 0.036436
#
#
# Mechanical properties :
#
#
# Convention : Reuss Voigt Hill
#
# Bulk Modulus (GPa) = 64.64814 74.59166 69.61990
# Shear Modulus (GPa) = 19.43982 37.57620 28.50801
#
# Velocity S-wave (km/s) = 2.59427 3.60682 3.14161
# Velocity P-wave (km/s) = 5.59958 6.57037 6.10430
#
# Compressibility (1/GPa) = 0.01546835
#
# Stress axis : x y z
#
# Youngs Moduli (GPa) = 154.26321 54.95531 102.67440
#
# Poissons Ratio (x) = 0.20954 0.08950
# Poissons Ratio (y) = 0.58820 0.49185
# Poissons Ratio (z) = 0.13448 0.26326
#
# Static dielectric constant tensor:
#      x y z
#    x 2.463690 0.000000 -0.067160 
#    y 0.000000 2.215910 0.000000 
#    z -0.067160 0.000000 2.177630 
# 
# From -- ./inp_files/4289.got.cif
#   From: 2010.05.17/outbox.cif.g08.bks.cpg/sg4_3_cif.got.tgz:4289.got - 2010.06.03 18:43:04.
