data_PCOD9114429
_publ_section_title
;
Structure prediction by ZEFSAII (Michael W. Deem and Ramdas Pophale) SiO2 
 PCOD9114429
Probable space group: P 2
;
_chemical_formula_sum "Si O2"
_cell_formula_units_Z 12
_cell_length_a 15.000000
_cell_length_b 6.000000
_cell_length_c 9.000000
_cell_angle_alpha 90.000000
_cell_angle_beta 140.000000
_cell_angle_gamma 90.000000
_cell_volume 520.657964
_symmetry_space_group_name_H-M "P 2"
_symmetry_group_IT_number 3
_symmetry_cell_setting 'monoclinic'
loop_
_space_group_symop_operation_xyz
x,y,z
-x,y,-z
loop_
_atom_site_type_symbol
_atom_site_label
_atom_site_fract_x
_atom_site_fract_y
_atom_site_fract_z
Si Si1 0.500000 0.466570 0.500000
Si Si2 0.260025 0.382908 0.676618
Si Si3 0.708510 0.248079 0.974764
Si Si4 0.000000 0.799608 0.000000
Si Si5 0.994427 0.036054 0.665502
Si Si6 0.713365 0.689718 0.559892
Si Si7 0.460739 0.023362 0.802881
O O1 0.626387 0.332744 0.730031
O O2 0.577804 0.590813 0.465999
O O3 0.249110 0.586739 0.552006
O O4 0.388304 0.243680 0.774731
O O5 0.281388 0.427338 0.878163
O O6 0.128060 0.218079 0.500438
O O7 0.605493 0.061092 0.907974
O O8 0.858146 0.156105 0.132781
O O9 0.853813 0.673042 0.832581
O O10 0.979415 0.916414 0.809567
O O11 0.000000 0.929861 0.500000
O O12 0.657543 0.934787 0.455779
O O13 0.500000 0.880964 0.000000
#
# Coordination Sequence:
#
# PCOD9114429 Si02
#       7
#     1   2   2   1   2   2   2
#     4  12  28  40  66 106 140 174 228 286 348 412
#     4  10  22  49  71  95 135 182 234 277 344 412
#     4  10  24  44  72 100 134 182 225 286 347 408
#     4  12  28  46  72 104 140 186 232 292 344 410
#     4  10  24  48  74 101 137 187 235 280 345 416
#     4  12  28  44  68 106 135 178 234 282 351 409
#     4  10  22  43  73  97 129 179 225 284 343 409
#
# _framework density 23.04776
#
# number of rings (size 3 to 8) (size 9 to 14) (size 15 to 20)
#    0.000    1.333    3.333    0.000   11.667    0.000 
#    3.000    0.000    0.000    0.000    0.000    0.000 
#    0.000    0.000    0.000    0.000    0.000    0.000 
#
# Total GULP energy -66819.794124 kJ/mol
# GULP energy per Si atom -5568.316177 kJ/mol
# Density = 2.299530 g / cm^3
# Si number density = 23.047760 Si / 1000 Ang^3
#
#
#
# Elastic Constant Matrix: (Units=GPa)
#
#
# Indices 1 2 3 4 5 6 
#
# 1 104.4093 18.3790 20.4321 0.0000 10.4404 0.0000
# 2 18.3790 12.0809 23.8304 0.0000 -1.4930 0.0000
# 3 20.4321 23.8304 131.9511 0.0000 23.3303 0.0000
# 4 0.0000 0.0000 0.0000 44.7728 0.0000 -15.6619
# 5 10.4404 -1.4930 23.3303 0.0000 55.8398 0.0000
# 6 0.0000 0.0000 0.0000 -15.6619 0.0000 9.1542
#
#
#
# Elastic Compliance Matrix: (Units=1/GPa)
#
#
# Indices 1 2 3 4 5 6 
#
# 1 0.014930 -0.032256 0.004492 0.000000 -0.005530 0.000000
# 2 -0.032256 0.209600 -0.037701 0.000000 0.027387 0.000000
# 3 0.004492 -0.037701 0.015137 0.000000 -0.008172 0.000000
# 4 0.000000 0.000000 0.000000 0.055627 0.000000 0.095172
# 5 -0.005530 0.027387 -0.008172 0.000000 0.023089 0.000000
# 6 0.000000 0.000000 0.000000 0.095172 0.000000 0.272070
#
#
# Mechanical properties :
#
#
# Convention : Reuss Voigt Hill
#
# Bulk Modulus (GPa) = 9.19673 41.52494 25.36083
# Shear Modulus (GPa) = 6.59953 34.34002 20.46978
#
# Velocity S-wave (km/s) = 1.69400 3.86418 2.98341
# Velocity P-wave (km/s) = 2.79734 6.16159 4.78489
#
# Compressibility (1/GPa) = 0.10873432
#
# Stress axis : x y z
#
# Youngs Moduli (GPa) = 66.98034 4.77100 66.06383
#
# Poissons Ratio (x) = 0.15389 -0.29673
# Poissons Ratio (y) = 2.16053 2.49070
# Poissons Ratio (z) = -0.30084 0.17987
#
# Static dielectric constant tensor:
#      x y z
#    x 1.276580 0.000000 0.273470 
#    y 0.000000 1.933520 0.000000 
#    z 0.273470 0.000000 1.743720 
# 
# From -- ./inp_files/7923.got.cif
#   From: 2010.05.17/outbox.ucp.g08.bks.cvg/sg3_4_cif.got.tgz:7923.got - 2010.06.11 12:50:29.
