data_PCOD9114045
_publ_section_title
;
Structure prediction by ZEFSAII (Michael W. Deem and Ramdas Pophale) SiO2 
 PCOD9114045
Probable space group: P 2
;
_chemical_formula_sum "Si O2"
_cell_formula_units_Z 15
_cell_length_a 8.836113
_cell_length_b 8.343102
_cell_length_c 11.701374
_cell_angle_alpha 90.000000
_cell_angle_beta 52.134417
_cell_angle_gamma 90.000000
_cell_volume 681.007539
_symmetry_space_group_name_H-M "P 2"
_symmetry_group_IT_number 3
_symmetry_cell_setting 'monoclinic'
loop_
_space_group_symop_operation_xyz
x,y,z
-x,y,-z
loop_
_atom_site_type_symbol
_atom_site_label
_atom_site_fract_x
_atom_site_fract_y
_atom_site_fract_z
Si Si1 0.836130 0.768960 0.485406
Si Si2 0.714356 0.010339 0.347733
Si Si3 0.299010 0.444303 0.140677
Si Si4 0.488183 0.924905 0.240317
Si Si5 0.771129 0.244767 0.604028
Si Si6 0.288940 0.472952 0.577161
Si Si7 0.500000 0.761856 0.000000
Si Si8 0.954331 0.305470 0.153104
O O1 0.849881 0.596912 0.420983
O O2 0.000000 0.802777 0.500000
O O3 0.812154 0.893747 0.393600
O O4 0.640877 0.783568 0.647219
O O5 0.500000 0.047419 0.500000
O O6 0.662571 0.943143 0.246774
O O7 0.867511 0.146930 0.249530
O O8 0.266822 0.380255 0.282917
O O9 0.329195 0.636048 0.111397
O O10 0.135110 0.371063 0.138021
O O11 0.500000 0.377068 0.000000
O O12 0.356712 0.087101 0.308533
O O13 0.543104 0.873457 0.088029
O O14 0.710285 0.321802 0.510388
O O15 0.000000 0.208341 0.500000
O O16 0.500000 0.540241 0.500000
O O17 0.212342 0.430759 0.737908
O O18 0.000000 0.287933 0.000000
#
# Coordination Sequence:
#
# PCOD9114045 Si02
#       8
#     2   2   2   2   2   2   1   2
#     4  11  25  43  73 105 142 189 252 309 374 443
#     4  10  24  48  71 106 144 192 247 313 385 442
#     4  10  27  46  71 104 150 195 247 300 373 450
#     4  11  24  43  74 105 149 192 246 311 373 449
#     4  12  24  44  75 111 141 195 255 314 367 440
#     4  12  25  44  76 103 145 194 248 307 379 444
#     4  10  26  46  72 106 152 204 248 290 388 452
#     4  12  27  45  70 106 146 188 245 310 365 447
#
# _framework density 22.026188999999999
#
# number of rings (size 3 to 8) (size 9 to 14) (size 15 to 20)
#    0.400    0.533    1.333    5.600    8.400    1.067 
#    0.000    0.667    0.000    0.000    0.000    0.000 
#    0.000    0.000    0.000    0.000    0.000    0.000 
#
# Total GULP energy -83815.233770 kJ/mol
# GULP energy per Si atom -5587.682251 kJ/mol
# Density = 2.197606 g / cm^3
# Si number density = 22.026189 Si / 1000 Ang^3
#
#
#
# Elastic Constant Matrix: (Units=GPa)
#
#
# Indices 1 2 3 4 5 6 
#
# 1 142.5983 53.3823 43.5087 0.0000 19.2406 0.0000
# 2 53.3823 108.0355 57.3299 0.0000 17.4464 0.0000
# 3 43.5087 57.3299 127.2108 0.0000 36.9537 0.0000
# 4 0.0000 0.0000 0.0000 47.1288 0.0000 1.6944
# 5 19.2406 17.4464 36.9537 0.0000 47.9015 0.0000
# 6 0.0000 0.0000 0.0000 1.6944 0.0000 31.0295
#
#
#
# Elastic Compliance Matrix: (Units=1/GPa)
#
#
# Indices 1 2 3 4 5 6 
#
# 1 0.008867 -0.003629 -0.000962 0.000000 -0.001498 0.000000
# 2 -0.003629 0.013653 -0.005015 0.000000 0.000353 0.000000
# 3 -0.000962 -0.005015 0.012640 0.000000 -0.007538 0.000000
# 4 0.000000 0.000000 0.000000 0.021260 0.000000 -0.001161
# 5 -0.001498 0.000353 -0.007538 0.000000 0.027164 0.000000
# 6 0.000000 0.000000 0.000000 -0.001161 0.000000 0.032291
#
#
# Mechanical properties :
#
#
# Convention : Reuss Voigt Hill
#
# Bulk Modulus (GPa) = 62.70175 76.25406 69.47790
# Shear Modulus (GPa) = 35.61189 40.12019 37.86604
#
# Velocity S-wave (km/s) = 4.02530 4.27251 4.15075
# Velocity P-wave (km/s) = 7.08045 7.68336 7.38806
#
# Compressibility (1/GPa) = 0.01594852
#
# Stress axis : x y z
#
# Youngs Moduli (GPa) = 112.77998 73.24258 79.11550
#
# Poissons Ratio (x) = 0.26578 0.07613
# Poissons Ratio (y) = 0.40926 0.39674
# Poissons Ratio (z) = 0.10852 0.36728
#
# Static dielectric constant tensor:
#      x y z
#    x 1.769700 0.000000 -0.030770 
#    y 0.000000 1.865410 0.000000 
#    z -0.030770 0.000000 1.813080 
# 
# From -- ./inp_files/10718.got.cif
#   From: 2010.05.17/outbox.cif.g08.bks.cpg/sg3_6_cif.got.tgz:10718.got - 2010.06.03 18:33:08.
