data_PCOD9114204
_publ_section_title
;
Structure prediction by ZEFSAII (Michael W. Deem and Ramdas Pophale) SiO2 
 PCOD9114204
Probable space group: P 2
;
_chemical_formula_sum "Si O2"
_cell_formula_units_Z 15
_cell_length_a 11.594005
_cell_length_b 9.581919
_cell_length_c 6.738049
_cell_angle_alpha 90.000000
_cell_angle_beta 120.050427
_cell_angle_gamma 90.000000
_cell_volume 647.932658
_symmetry_space_group_name_H-M "P 2"
_symmetry_group_IT_number 3
_symmetry_cell_setting 'monoclinic'
loop_
_space_group_symop_operation_xyz
x,y,z
-x,y,-z
loop_
_atom_site_type_symbol
_atom_site_label
_atom_site_fract_x
_atom_site_fract_y
_atom_site_fract_z
Si Si1 0.185202 0.106800 0.992686
Si Si2 0.204782 0.407554 0.010693
Si Si3 0.759818 0.862392 0.375357
Si Si4 0.113944 0.136849 0.399605
Si Si5 0.105830 0.436740 0.340333
Si Si6 0.356505 0.863198 0.300760
Si Si7 0.000000 0.687598 0.500000
Si Si8 0.376544 0.644563 0.991986
O O1 0.258126 0.253503 0.010588
O O2 0.148145 0.130078 0.194252
O O3 0.280455 0.971938 0.089244
O O4 0.044519 0.097860 0.749446
O O5 0.209324 0.447611 0.248583
O O6 0.261864 0.530201 0.925163
O O7 0.045841 0.397968 0.848850
O O8 0.740524 0.834773 0.595295
O O9 0.881625 0.794773 0.355490
O O10 0.643001 0.773679 0.177015
O O11 0.788940 0.027156 0.408380
O O12 0.140798 0.296025 0.490283
O O13 0.075770 0.584374 0.414885
O O14 0.500000 0.920051 0.500000
O O15 0.387948 0.721221 0.211960
O O16 0.500000 0.565911 0.000000
#
# Coordination Sequence:
#
# PCOD9114204 Si02
#       8
#     2   2   2   2   2   2   1   2
#     4   8  17  36  67  91 117 165 212 255 321 374
#     4   9  18  39  63  90 121 161 209 258 317 378
#     4  11  24  40  60  96 127 162 210 257 316 385
#     4   8  17  36  61  94 127 157 199 261 328 378
#     4   9  18  35  62  91 127 160 191 260 328 376
#     4  11  23  43  64  85 128 172 213 261 306 367
#     4  12  22  34  56  96 130 152 204 254 320 388
#     4  12  24  42  65  89 128 172 213 258 310 375
#
# _framework density 23.150556999999999
#
# number of rings (size 3 to 8) (size 9 to 14) (size 15 to 20)
#    0.000    2.133    2.667    2.400    1.867    0.533 
#    2.400    1.333    5.867    0.000    0.000    0.000 
#    0.000    0.000    0.000    0.000    0.000    0.000 
#
# Total GULP energy -83510.146969 kJ/mol
# GULP energy per Si atom -5567.343131 kJ/mol
# Density = 2.309786 g / cm^3
# Si number density = 23.150557 Si / 1000 Ang^3
#
#
#
# Elastic Constant Matrix: (Units=GPa)
#
#
# Indices 1 2 3 4 5 6 
#
# 1 86.2739 41.0052 7.9482 0.0000 -7.7595 0.0000
# 2 41.0052 145.4218 32.9290 0.0000 -0.4754 0.0000
# 3 7.9482 32.9290 65.9641 0.0000 3.4488 0.0000
# 4 0.0000 0.0000 0.0000 26.8554 0.0000 -6.4900
# 5 -7.7595 -0.4754 3.4488 0.0000 32.2627 0.0000
# 6 0.0000 0.0000 0.0000 -6.4900 0.0000 18.5085
#
#
#
# Elastic Compliance Matrix: (Units=1/GPa)
#
#
# Indices 1 2 3 4 5 6 
#
# 1 0.013717 -0.003884 0.000117 0.000000 0.003229 0.000000
# 2 -0.003884 0.008862 -0.003936 0.000000 -0.000383 0.000000
# 3 0.000117 -0.003936 0.017208 0.000000 -0.001869 0.000000
# 4 0.000000 0.000000 0.000000 0.040684 0.000000 0.014266
# 5 0.003229 -0.000383 -0.001869 0.000000 0.031966 0.000000
# 6 0.000000 0.000000 0.000000 0.014266 0.000000 0.059032
#
#
# Mechanical properties :
#
#
# Convention : Reuss Voigt Hill
#
# Bulk Modulus (GPa) = 41.01439 51.26941 46.14190
# Shear Modulus (GPa) = 25.64104 29.91047 27.77576
#
# Velocity S-wave (km/s) = 3.33164 3.59834 3.46755
# Velocity P-wave (km/s) = 5.70566 6.28158 6.00053
#
# Compressibility (1/GPa) = 0.02438169
#
# Stress axis : x y z
#
# Youngs Moduli (GPa) = 72.90484 112.84663 58.11227
#
# Poissons Ratio (x) = 0.43826 -0.00681
# Poissons Ratio (y) = 0.28314 0.22871
# Poissons Ratio (z) = -0.00854 0.44413
#
# Static dielectric constant tensor:
#      x y z
#    x 1.928140 0.000000 -0.031800 
#    y 0.000000 1.906590 0.000000 
#    z -0.031800 0.000000 2.023580 
# 
# From -- ./inp_files/7239.got.cif
#   From: 2010.05.17/outbox.cif.g08.bks.cpg/sg3_4_cif.got.tgz:7239.got - 2010.06.03 18:33:08.
