data_PCOD9114908
_publ_section_title
;
Structure prediction by ZEFSAII (Michael W. Deem and Ramdas Pophale) SiO2 
 PCOD9114908
Probable space group: P 21
;
_chemical_formula_sum "Si O2"
_cell_formula_units_Z 14
_cell_length_a 9.384555
_cell_length_b 14.155817
_cell_length_c 5.034299
_cell_angle_alpha 90.000000
_cell_angle_beta 71.285928
_cell_angle_gamma 90.000000
_cell_volume 633.428957
_symmetry_space_group_name_H-M "P 21"
_symmetry_group_IT_number 4
_symmetry_cell_setting 'monoclinic'
loop_
_space_group_symop_operation_xyz
x,y,z
-x,1/2+y,-z
loop_
_atom_site_type_symbol
_atom_site_label
_atom_site_fract_x
_atom_site_fract_y
_atom_site_fract_z
Si Si1 0.801205 0.152090 0.131770
Si Si2 0.809619 0.901082 0.517474
Si Si3 0.706639 0.621015 0.430299
Si Si4 0.533809 0.217623 0.042783
Si Si5 0.740726 0.787969 0.038343
Si Si6 0.981200 0.089777 0.503465
Si Si7 0.433030 0.542952 0.382598
O O1 0.692137 0.236642 0.094628
O O2 0.913761 0.157622 0.313927
O O3 0.677390 0.076841 0.313574
O O4 0.894513 0.115593 0.826583
O O5 0.792091 0.857709 0.238663
O O6 0.933130 0.983071 0.457363
O O7 0.650888 0.952577 0.679684
O O8 0.828554 0.819103 0.722490
O O9 0.588951 0.686179 0.663994
O O10 0.762894 0.683871 0.149047
O O11 0.602519 0.536067 0.386193
O O12 0.844029 0.594987 0.534244
O O13 0.438733 0.290166 0.921012
O O14 0.565528 0.128330 0.830231
#
# Coordination Sequence:
#
# PCOD9114908 Si02
#       7
#     2   2   2   2   2   2   2
#     4  10  19  36  61  92 114 151 212 249 285 351
#     4  11  21  39  63  92 119 157 211 255 308 354
#     4  10  23  40  65  91 127 163 207 245 307 372
#     4  10  19  41  61  93 116 160 206 252 289 374
#     4  11  23  38  63  89 124 161 203 252 316 360
#     4  11  23  37  65  92 122 163 208 249 299 369
#     4   9  20  37  66  89 118 155 211 250 290 364
#
# _framework density 22.101925000000001
#
# number of rings (size 3 to 8) (size 9 to 14) (size 15 to 20)
#    0.000    1.714    4.286    1.714    6.000    0.000 
#    0.000    0.000    9.429    0.000    0.000    0.000 
#    0.000    0.000    0.000    0.000    0.000    0.000 
#
# Total GULP energy -78096.900591 kJ/mol
# GULP energy per Si atom -5578.350042 kJ/mol
# Density = 2.205162 g / cm^3
# Si number density = 22.101925 Si / 1000 Ang^3
#
#
#
# Elastic Constant Matrix: (Units=GPa)
#
#
# Indices 1 2 3 4 5 6 
#
# 1 175.9969 26.2803 8.6702 0.0000 16.4433 0.0000
# 2 26.2803 27.6811 -2.3804 0.0000 4.9227 0.0000
# 3 8.6702 -2.3804 96.6562 0.0000 15.9081 0.0000
# 4 0.0000 0.0000 0.0000 18.2047 0.0000 10.7157
# 5 16.4433 4.9227 15.9081 0.0000 33.0559 0.0000
# 6 0.0000 0.0000 0.0000 10.7157 0.0000 31.3985
#
#
#
# Elastic Compliance Matrix: (Units=1/GPa)
#
#
# Indices 1 2 3 4 5 6 
#
# 1 0.006828 -0.006106 -0.000384 0.000000 -0.002302 0.000000
# 2 -0.006106 0.042921 0.002342 0.000000 -0.004482 0.000000
# 3 -0.000384 0.002342 0.011364 0.000000 -0.005627 0.000000
# 4 0.000000 0.000000 0.000000 0.068740 0.000000 -0.023460
# 5 -0.002302 -0.004482 -0.005627 0.000000 0.034772 0.000000
# 6 0.000000 0.000000 0.000000 -0.023460 0.000000 0.039855
#
#
# Mechanical properties :
#
#
# Convention : Reuss Voigt Hill
#
# Bulk Modulus (GPa) = 18.93283 40.60827 29.77055
# Shear Modulus (GPa) = 21.70323 34.38276 28.04299
#
# Velocity S-wave (km/s) = 3.13703 3.94845 3.56589
# Velocity P-wave (km/s) = 4.65897 6.26099 5.51842
#
# Compressibility (1/GPa) = 0.05281829
#
# Stress axis : x y z
#
# Youngs Moduli (GPa) = 146.46308 23.29865 87.99591
#
# Poissons Ratio (x) = 0.14226 0.03378
# Poissons Ratio (y) = 0.89426 -0.20612
# Poissons Ratio (z) = 0.05623 -0.05457
#
# Static dielectric constant tensor:
#      x y z
#    x 1.900710 0.000000 0.040360 
#    y 0.000000 1.860720 0.000000 
#    z 0.040360 0.000000 1.848510 
# 
# From -- ./inp_files/1777.got.cif
#   From: 2010.05.17/outbox.cif.g08.bks.cpg/sg4_1_cif.got.tgz:1777.got - 2010.06.03 18:43:04.
