data_PCOD9114275
_publ_section_title
;
Structure prediction by ZEFSAII (Michael W. Deem and Ramdas Pophale) SiO2 
 PCOD9114275
Probable space group: P 2
;
_chemical_formula_sum "Si O2"
_cell_formula_units_Z 12
_cell_length_a 8.426884
_cell_length_b 8.287336
_cell_length_c 8.300090
_cell_angle_alpha 90.000000
_cell_angle_beta 58.033424
_cell_angle_gamma 90.000000
_cell_volume 491.748966
_symmetry_space_group_name_H-M "P 2"
_symmetry_group_IT_number 3
_symmetry_cell_setting 'monoclinic'
loop_
_space_group_symop_operation_xyz
x,y,z
-x,y,-z
loop_
_atom_site_type_symbol
_atom_site_label
_atom_site_fract_x
_atom_site_fract_y
_atom_site_fract_z
Si Si1 0.684367 0.034850 0.509016
Si Si2 0.200204 0.769888 0.972489
Si Si3 0.636589 0.259995 0.812484
Si Si4 0.210770 0.743977 0.340092
Si Si5 0.065074 0.119304 0.128620
Si Si6 0.496287 0.527216 0.318963
O O1 0.500000 0.017320 0.500000
O O2 0.679741 0.197549 0.612056
O O3 0.880875 0.038336 0.308564
O O4 0.684691 0.900295 0.648117
O O5 0.228139 0.713805 0.141852
O O6 0.190534 0.965556 0.001245
O O7 0.356249 0.673958 0.786188
O O8 0.000000 0.728824 0.000000
O O9 0.830542 0.239864 0.805737
O O10 0.492590 0.403576 0.836378
O O11 0.500000 0.156398 0.000000
O O12 0.290555 0.597300 0.398450
O O13 0.000000 0.772230 0.500000
O O14 0.000000 0.206067 0.000000
O O15 0.500000 0.467178 0.500000
#
# Coordination Sequence:
#
# PCOD9114275 Si02
#       6
#     2   2   2   2   2   2
#     4  12  25  45  76 113 152 197 257 317 382 453
#     4  11  24  46  76 114 155 199 260 316 379 455
#     4  12  26  49  74 114 154 203 254 310 394 459
#     4  12  23  43  72 113 147 199 253 311 381 447
#     4  11  25  46  79 119 152 201 257 324 381 454
#     4  12  29  49  75 113 158 207 253 314 391 464
#
# _framework density 24.402694
#
# number of rings (size 3 to 8) (size 9 to 14) (size 15 to 20)
#    0.000    0.333    3.333    5.000    9.333    1.333 
#    0.000   10.000    0.000    0.000    0.000    0.000 
#    0.000    0.000    0.000    0.000    0.000    0.000 
#
# Total GULP energy -66958.474095 kJ/mol
# GULP energy per Si atom -5579.872841 kJ/mol
# Density = 2.434715 g / cm^3
# Si number density = 24.402694 Si / 1000 Ang^3
#
#
#
# Elastic Constant Matrix: (Units=GPa)
#
#
# Indices 1 2 3 4 5 6 
#
# 1 202.8347 46.9819 57.4277 0.0000 32.8598 0.0000
# 2 46.9819 35.0127 19.1304 0.0000 3.3047 0.0000
# 3 57.4277 19.1304 113.7928 0.0000 25.9745 0.0000
# 4 0.0000 0.0000 0.0000 22.9776 0.0000 1.1886
# 5 32.8598 3.3047 25.9745 0.0000 52.1808 0.0000
# 6 0.0000 0.0000 0.0000 1.1886 0.0000 20.9713
#
#
#
# Elastic Compliance Matrix: (Units=1/GPa)
#
#
# Indices 1 2 3 4 5 6 
#
# 1 0.008299 -0.009869 -0.001669 0.000000 -0.003771 0.000000
# 2 -0.009869 0.043209 -0.003472 0.000000 0.005207 0.000000
# 3 -0.001669 -0.003472 0.011196 0.000000 -0.004302 0.000000
# 4 0.000000 0.000000 0.000000 0.043649 0.000000 -0.002474
# 5 -0.003771 0.005207 -0.004302 0.000000 0.023351 0.000000
# 6 0.000000 0.000000 0.000000 -0.002474 0.000000 0.047825
#
#
# Mechanical properties :
#
#
# Convention : Reuss Voigt Hill
#
# Bulk Modulus (GPa) = 30.59487 66.52445 48.55966
# Shear Modulus (GPa) = 22.88935 34.43261 28.66098
#
# Velocity S-wave (km/s) = 3.06598 3.76043 3.43082
# Velocity P-wave (km/s) = 5.00982 6.79520 5.96963
#
# Compressibility (1/GPa) = 0.03268522
#
# Stress axis : x y z
#
# Youngs Moduli (GPa) = 120.49226 23.14321 89.31949
#
# Poissons Ratio (x) = 0.22840 0.14904
# Poissons Ratio (y) = 1.18912 0.31013
# Poissons Ratio (z) = 0.20105 0.08036
#
# Static dielectric constant tensor:
#      x y z
#    x 1.980250 0.000000 0.058030 
#    y 0.000000 2.134430 0.000000 
#    z 0.058030 0.000000 2.019080 
# 
# From -- ./inp_files/5469.got.cif
#   From: 2010.05.17/outbox.cif.g08.bks.cpg/sg3_3_cif.got.tgz:5469.got - 2010.06.03 18:33:08.
