data_PCOD9114011
_publ_section_title
;
Structure prediction by ZEFSAII (Michael W. Deem and Ramdas Pophale) SiO2 
 PCOD9114011
Probable space group: P 2
;
_chemical_formula_sum "Si O2"
_cell_formula_units_Z 12
_cell_length_a 21.369085
_cell_length_b 5.230383
_cell_length_c 5.084098
_cell_angle_alpha 90.000000
_cell_angle_beta 67.881972
_cell_angle_gamma 90.000000
_cell_volume 526.425190
_symmetry_space_group_name_H-M "P 2"
_symmetry_group_IT_number 3
_symmetry_cell_setting 'monoclinic'
loop_
_space_group_symop_operation_xyz
x,y,z
-x,y,-z
loop_
_atom_site_type_symbol
_atom_site_label
_atom_site_fract_x
_atom_site_fract_y
_atom_site_fract_z
Si Si1 0.379680 0.546380 0.319855
Si Si2 0.925109 0.270728 0.724114
Si Si3 0.144488 0.453403 0.682749
Si Si4 0.566839 0.042350 0.556772
Si Si5 0.682574 0.774044 0.097515
Si Si6 0.816131 0.957319 0.117108
O O1 0.434645 0.770265 0.290994
O O2 0.337994 0.632291 0.133685
O O3 0.413380 0.270635 0.279833
O O4 0.329695 0.574263 0.646854
O O5 0.885734 0.007465 0.849499
O O6 0.000000 0.238433 0.500000
O O7 0.880412 0.409157 0.571699
O O8 0.918001 0.417710 0.012418
O O9 0.175646 0.725815 0.694454
O O10 0.192454 0.220790 0.705793
O O11 0.500000 0.099012 0.500000
O O12 0.627734 0.992891 0.253929
O O13 0.756004 0.892703 0.014811
#
# Coordination Sequence:
#
# PCOD9114011 Si02
#       6
#     2   2   2   2   2   2
#     4  10  25  40  69  94 136 170 223 265 337 390
#     4  10  24  45  67 101 130 177 218 277 327 399
#     4  10  25  41  67  96 134 173 219 269 333 393
#     4  10  24  46  66 101 130 177 217 278 327 398
#     4  10  26  44  67 101 130 177 217 279 325 401
#     4  10  26  43  70  97 134 173 222 272 333 392
#
# _framework density 22.795262999999998
#
# number of rings (size 3 to 8) (size 9 to 14) (size 15 to 20)
#    2.000    0.000    0.000    1.000    9.333    1.333 
#    3.000    0.000    0.000    0.000    0.000    0.000 
#    0.000    0.000    0.000    0.000    0.000    0.000 
#
# Total GULP energy -66969.089590 kJ/mol
# GULP energy per Si atom -5580.757466 kJ/mol
# Density = 2.274338 g / cm^3
# Si number density = 22.795263 Si / 1000 Ang^3
#
#
#
# Elastic Constant Matrix: (Units=GPa)
#
#
# Indices 1 2 3 4 5 6 
#
# 1 77.8205 21.0274 -3.3768 0.0000 12.9991 0.0000
# 2 21.0274 136.3528 10.5804 0.0000 11.3465 0.0000
# 3 -3.3768 10.5804 67.3435 0.0000 29.9604 0.0000
# 4 0.0000 0.0000 0.0000 12.9019 0.0000 9.1090
# 5 12.9991 11.3465 29.9604 0.0000 37.8887 0.0000
# 6 0.0000 0.0000 0.0000 9.1090 0.0000 14.4703
#
#
#
# Elastic Compliance Matrix: (Units=1/GPa)
#
#
# Indices 1 2 3 4 5 6 
#
# 1 0.014982 -0.001988 0.004760 0.000000 -0.008309 0.000000
# 2 -0.001988 0.007789 -0.000909 0.000000 -0.000932 0.000000
# 3 0.004760 -0.000909 0.024431 0.000000 -0.020679 0.000000
# 4 0.000000 0.000000 0.000000 0.139513 0.000000 -0.087824
# 5 -0.008309 -0.000932 -0.020679 0.000000 0.045875 0.000000
# 6 0.000000 0.000000 0.000000 -0.087824 0.000000 0.124392
#
#
# Mechanical properties :
#
#
# Convention : Reuss Voigt Hill
#
# Bulk Modulus (GPa) = 19.63614 37.55321 28.59467
# Shear Modulus (GPa) = 13.50506 29.93790 21.72148
#
# Velocity S-wave (km/s) = 2.43667 3.62793 3.09025
# Velocity P-wave (km/s) = 4.06809 5.83602 5.03033
#
# Compressibility (1/GPa) = 0.05092650
#
# Stress axis : x y z
#
# Youngs Moduli (GPa) = 66.74795 128.39292 40.93196
#
# Poissons Ratio (x) = 0.25529 -0.19484
# Poissons Ratio (y) = 0.13272 0.03720
# Poissons Ratio (z) = -0.31772 0.11670
#
# Static dielectric constant tensor:
#      x y z
#    x 1.821600 0.000000 -0.042230 
#    y 0.000000 1.851870 0.000000 
#    z -0.042230 0.000000 1.864020 
# 
# From -- ./inp_files/3405.got.cif
#   From: 2010.05.17/outbox.cif.g08.bks.cpg/sg3_2_cif.got.tgz:3405.got - 2010.06.03 18:33:08.
