data_PCOD9114209
_publ_section_title
;
Structure prediction by ZEFSAII (Michael W. Deem and Ramdas Pophale) SiO2 
 PCOD9114209
Probable space group: P 2
;
_chemical_formula_sum "Si O2"
_cell_formula_units_Z 10
_cell_length_a 8.532388
_cell_length_b 10.998438
_cell_length_c 8.123279
_cell_angle_alpha 90.000000
_cell_angle_beta 146.901572
_cell_angle_gamma 90.000000
_cell_volume 416.282768
_symmetry_space_group_name_H-M "P 2"
_symmetry_group_IT_number 3
_symmetry_cell_setting 'monoclinic'
loop_
_space_group_symop_operation_xyz
x,y,z
-x,y,-z
loop_
_atom_site_type_symbol
_atom_site_label
_atom_site_fract_x
_atom_site_fract_y
_atom_site_fract_z
Si Si1 0.618766 0.274350 0.428131
Si Si2 0.218058 0.863398 0.840638
Si Si3 0.287682 0.676163 0.176254
Si Si4 0.711520 0.509683 0.331826
Si Si5 0.872980 0.141208 0.202016
O O1 0.500000 0.312391 0.500000
O O2 0.787201 0.388190 0.498395
O O3 0.842938 0.165575 0.653951
O O4 0.373664 0.228551 0.086395
O O5 0.000000 0.860561 0.500000
O O6 0.243707 0.004439 0.912502
O O7 0.500000 0.815219 0.000000
O O8 0.161863 0.778658 0.945516
O O9 0.500000 0.730851 0.500000
O O10 0.508505 0.591028 0.269954
O O11 0.000000 0.614913 0.000000
O O12 0.000000 0.562594 0.500000
O O13 0.500000 0.473971 0.000000
O O14 0.000000 0.160151 0.500000
#
# Coordination Sequence:
#
# PCOD9114209 Si02
#       5
#     2   2   2   2   2
#     4  12  25  42  68 103 140 176 225 288 350 405
#     4  11  24  45  71  99 136 183 234 280 333 411
#     4  12  27  46  70 103 143 180 228 291 352 408
#     4  12  26  46  73 100 136 185 236 282 340 419
#     4  11  23  43  69  99 136 182 231 279 336 411
#
# _framework density 24.022134000000001
#
# number of rings (size 3 to 8) (size 9 to 14) (size 15 to 20)
#    0.000    0.400    0.000   10.200    0.000    5.600 
#    0.000    0.000    0.000    0.000    0.000    0.000 
#    0.000    0.000    0.000    0.000    0.000    0.000 
#
# Total GULP energy -55948.078971 kJ/mol
# GULP energy per Si atom -5594.807897 kJ/mol
# Density = 2.396746 g / cm^3
# Si number density = 24.022134 Si / 1000 Ang^3
#
#
#
# Elastic Constant Matrix: (Units=GPa)
#
#
# Indices 1 2 3 4 5 6 
#
# 1 124.4409 41.4863 26.9237 0.0000 19.3773 0.0000
# 2 41.4863 87.2305 13.8122 0.0000 -9.8442 0.0000
# 3 26.9237 13.8122 98.6676 0.0000 10.8567 0.0000
# 4 0.0000 0.0000 0.0000 32.5173 0.0000 4.9588
# 5 19.3773 -9.8442 10.8567 0.0000 51.4065 0.0000
# 6 0.0000 0.0000 0.0000 4.9588 0.0000 23.3645
#
#
#
# Elastic Compliance Matrix: (Units=1/GPa)
#
#
# Indices 1 2 3 4 5 6 
#
# 1 0.010992 -0.005505 -0.001696 0.000000 -0.004839 0.000000
# 2 -0.005505 0.014845 -0.001144 0.000000 0.005160 0.000000
# 3 -0.001696 -0.001144 0.010967 0.000000 -0.001896 0.000000
# 4 0.000000 0.000000 0.000000 0.031781 0.000000 -0.006745
# 5 -0.004839 0.005160 -0.001896 0.000000 0.022665 0.000000
# 6 0.000000 0.000000 0.000000 -0.006745 0.000000 0.044231
#
#
# Mechanical properties :
#
#
# Convention : Reuss Voigt Hill
#
# Bulk Modulus (GPa) = 49.71741 52.75373 51.23557
# Shear Modulus (GPa) = 31.47092 36.66546 34.06819
#
# Velocity S-wave (km/s) = 3.62343 3.91105 3.76999
# Velocity P-wave (km/s) = 6.18442 6.51178 6.35021
#
# Compressibility (1/GPa) = 0.02011368
#
# Stress axis : x y z
#
# Youngs Moduli (GPa) = 90.97687 67.36061 91.18604
#
# Poissons Ratio (x) = 0.37083 0.15467
# Poissons Ratio (y) = 0.50084 0.10429
# Poissons Ratio (z) = 0.15432 0.07704
#
# Static dielectric constant tensor:
#      x y z
#    x 1.991400 0.000000 0.005970 
#    y 0.000000 1.884580 0.000000 
#    z 0.005970 0.000000 1.873370 
# 
# From -- ./inp_files/5692.got.cif
#   From: 2010.05.17/outbox.cif.g08.bks.cpg/sg3_3_cif.got.tgz:5692.got - 2010.06.03 18:33:08.
