data_PCOD9114137
_publ_section_title
;
Structure prediction by ZEFSAII (Michael W. Deem and Ramdas Pophale) SiO2 
 PCOD9114137
Probable space group: P 2
;
_chemical_formula_sum "Si O2"
_cell_formula_units_Z 13
_cell_length_a 8.259991
_cell_length_b 15.694088
_cell_length_c 5.411575
_cell_angle_alpha 90.000000
_cell_angle_beta 126.509187
_cell_angle_gamma 90.000000
_cell_volume 563.853818
_symmetry_space_group_name_H-M "P 2"
_symmetry_group_IT_number 3
_symmetry_cell_setting 'monoclinic'
loop_
_space_group_symop_operation_xyz
x,y,z
-x,y,-z
loop_
_atom_site_type_symbol
_atom_site_label
_atom_site_fract_x
_atom_site_fract_y
_atom_site_fract_z
Si Si1 0.622373 0.521220 0.366594
Si Si2 0.500000 0.973236 0.500000
Si Si3 0.875367 0.361208 0.630302
Si Si4 0.784586 0.121008 0.950091
Si Si5 0.846296 0.872212 0.641683
Si Si6 0.879060 0.679562 0.628505
Si Si7 0.500000 0.263666 0.500000
Si Si8 0.000000 0.030541 0.500000
O O1 0.500000 0.494532 0.500000
O O2 0.816382 0.459769 0.536688
O O3 0.686980 0.618665 0.466638
O O4 0.500000 0.511253 0.000000
O O5 0.620142 0.907779 0.438738
O O6 0.665276 0.037438 0.753385
O O7 0.658744 0.315332 0.475729
O O8 0.000000 0.331357 0.500000
O O9 0.000000 0.350871 0.000000
O O10 0.645359 0.201848 0.789045
O O11 0.000000 0.130264 0.000000
O O12 0.825566 0.095239 0.269714
O O13 0.828446 0.777952 0.512390
O O14 0.954000 0.960391 0.660713
O O15 0.000000 0.849661 0.000000
O O16 0.000000 0.646631 0.500000
O O17 0.000000 0.672016 0.000000
#
# Coordination Sequence:
#
# PCOD9114137 Si02
#       8
#     2   1   2   2   2   2   1   1
#     4  12  25  47  78 117 158 200 257 310 381 468
#     4  11  20  42  65  92 136 184 243 306 368 443
#     4  12  27  54  86 115 157 205 253 318 395 474
#     4  11  24  48  68 101 144 188 246 314 384 456
#     4  11  23  42  66  99 147 191 256 311 375 447
#     4  11  24  44  69 106 151 204 253 316 379 446
#     4  11  28  54  73 118 150 196 259 324 394 465
#     4  12  20  46  70  96 138 202 244 306 376 450
#
# _framework density 23.055624000000002
#
# number of rings (size 3 to 8) (size 9 to 14) (size 15 to 20)
#    0.000    0.615    4.615    3.231    1.077    0.615 
#   11.077    0.000    0.000    0.000    0.000    0.000 
#    0.000    0.000    0.000    0.000    0.000    0.000 
#
# Total GULP energy -72401.215354 kJ/mol
# GULP energy per Si atom -5569.324258 kJ/mol
# Density = 2.300315 g / cm^3
# Si number density = 23.055624 Si / 1000 Ang^3
#
#
#
# Elastic Constant Matrix: (Units=GPa)
#
#
# Indices 1 2 3 4 5 6 
#
# 1 121.4316 44.8613 46.4754 0.0000 5.9737 0.0000
# 2 44.8613 129.8832 36.6661 0.0000 10.7836 0.0000
# 3 46.4754 36.6661 117.3340 0.0000 -5.0126 0.0000
# 4 0.0000 0.0000 0.0000 23.0101 0.0000 16.5098
# 5 5.9737 10.7836 -5.0126 0.0000 33.4457 0.0000
# 6 0.0000 0.0000 0.0000 16.5098 0.0000 53.8283
#
#
#
# Elastic Compliance Matrix: (Units=1/GPa)
#
#
# Indices 1 2 3 4 5 6 
#
# 1 0.010579 -0.002544 -0.003463 0.000000 -0.001588 0.000000
# 2 -0.002544 0.009397 -0.002052 0.000000 -0.002883 0.000000
# 3 -0.003463 -0.002052 0.010658 0.000000 0.002877 0.000000
# 4 0.000000 0.000000 0.000000 0.055722 0.000000 -0.017090
# 5 -0.001588 -0.002883 0.002877 0.000000 0.031544 0.000000
# 6 0.000000 0.000000 0.000000 -0.017090 0.000000 0.023819
#
#
# Mechanical properties :
#
#
# Convention : Reuss Voigt Hill
#
# Bulk Modulus (GPa) = 68.89132 69.40604 69.14868
# Shear Modulus (GPa) = 30.73626 38.09990 34.41808
#
# Velocity S-wave (km/s) = 3.65517 4.06953 3.86790
# Velocity P-wave (km/s) = 6.91079 7.22845 7.07141
#
# Compressibility (1/GPa) = 0.01451562
#
# Stress axis : x y z
#
# Youngs Moduli (GPa) = 94.53118 106.42166 93.82314
#
# Poissons Ratio (x) = 0.27078 0.32489
# Poissons Ratio (y) = 0.24052 0.19250
# Poissons Ratio (z) = 0.32735 0.21835
#
# Static dielectric constant tensor:
#      x y z
#    x 2.015960 0.000000 -0.144270 
#    y 0.000000 1.808820 0.000000 
#    z -0.144270 0.000000 2.005220 
# 
# From -- ./inp_files/1649.got.cif
#   From: 2010.05.17/outbox.cif.g08.bks.cpg/sg3_1_cif.got.tgz:1649.got - 2010.06.03 18:33:08.
