data_PCOD9114776
_publ_section_title
;
Structure prediction by ZEFSAII (Michael W. Deem and Ramdas Pophale) SiO2 
 PCOD9114776
Probable space group: P 21
;
_chemical_formula_sum "Si O2"
_cell_formula_units_Z 16
_cell_length_a 9.727503
_cell_length_b 18.099535
_cell_length_c 8.908477
_cell_angle_alpha 90.000000
_cell_angle_beta 148.700968
_cell_angle_gamma 90.000000
_cell_volume 814.820065
_symmetry_space_group_name_H-M "P 21"
_symmetry_group_IT_number 4
_symmetry_cell_setting 'monoclinic'
loop_
_space_group_symop_operation_xyz
x,y,z
-x,1/2+y,-z
loop_
_atom_site_type_symbol
_atom_site_label
_atom_site_fract_x
_atom_site_fract_y
_atom_site_fract_z
Si Si1 0.374221 0.034450 0.438030
Si Si2 0.277187 0.413126 0.749728
Si Si3 0.243764 0.204187 0.329988
Si Si4 0.281655 0.760370 0.022830
Si Si5 0.396528 0.327841 0.258699
Si Si6 0.435457 0.909849 0.280299
Si Si7 0.846236 0.975857 0.079828
Si Si8 0.244420 0.822364 0.684655
O O1 0.323058 0.120635 0.372056
O O2 0.352433 0.990357 0.260205
O O3 0.141277 0.999425 0.320279
O O4 0.645203 0.019224 0.782798
O O5 0.331236 0.420702 0.623607
O O6 0.202891 0.481483 0.787427
O O7 0.053608 0.351004 0.571468
O O8 0.560480 0.387431 0.077785
O O9 0.447281 0.236432 0.644553
O O10 0.263590 0.254375 0.199404
O O11 0.953352 0.213106 0.127569
O O12 0.241668 0.847680 0.028568
O O13 0.290321 0.758405 0.850762
O O14 0.489965 0.370783 0.494174
O O15 0.637296 0.308275 0.370380
O O16 0.204459 0.389015 0.005535
#
# Coordination Sequence:
#
# PCOD9114776 Si02
#       8
#     2   2   2   2   2   2   2   2
#     4  11  22  37  55  80 112 149 185 225 275 328
#     4  10  19  33  56  85 108 136 180 229 273 322
#     4  11  22  37  55  80 112 149 185 225 275 328
#     4  10  20  37  57  80 109 145 184 227 273 325
#     4   9  19  35  59  83 109 140 183 229 274 323
#     4   9  19  35  59  83 109 140 183 229 274 323
#     4  10  20  37  57  80 109 145 184 227 273 325
#     4  10  19  33  56  85 108 136 180 229 273 322
#
# _framework density 19.636234999999999
#
# number of rings (size 3 to 8) (size 9 to 14) (size 15 to 20)
#    0.000    2.000    0.000    6.000    0.000    6.000 
#    0.000    2.500    0.000    0.000    0.000    0.000 
#    0.000    0.000    0.000    0.000    0.000    0.000 
#
# Total GULP energy -89137.271150 kJ/mol
# GULP energy per Si atom -5571.079447 kJ/mol
# Density = 1.959154 g / cm^3
# Si number density = 19.636235 Si / 1000 Ang^3
#
#
#
# Elastic Constant Matrix: (Units=GPa)
#
#
# Indices 1 2 3 4 5 6 
#
# 1 129.2615 18.4060 -4.6257 0.0000 -9.1520 0.0000
# 2 18.4060 73.3207 -13.1668 0.0000 -8.4241 0.0000
# 3 -4.6257 -13.1668 43.4629 0.0000 -2.7526 0.0000
# 4 0.0000 0.0000 0.0000 20.1937 0.0000 3.6137
# 5 -9.1520 -8.4241 -2.7526 0.0000 23.6964 0.0000
# 6 0.0000 0.0000 0.0000 3.6137 0.0000 9.8937
#
#
#
# Elastic Compliance Matrix: (Units=1/GPa)
#
#
# Indices 1 2 3 4 5 6 
#
# 1 0.008177 -0.001654 0.000536 0.000000 0.002632 0.000000
# 2 -0.001654 0.015558 0.004883 0.000000 0.005459 0.000000
# 3 0.000536 0.004883 0.024850 0.000000 0.004830 0.000000
# 4 0.000000 0.000000 0.000000 0.052984 0.000000 -0.019353
# 5 0.002632 0.005459 0.004830 0.000000 0.045719 0.000000
# 6 0.000000 0.000000 0.000000 -0.019353 0.000000 0.108144
#
#
# Mechanical properties :
#
#
# Convention : Reuss Voigt Hill
#
# Bulk Modulus (GPa) = 17.82051 27.47470 22.64760
# Shear Modulus (GPa) = 18.75417 27.11887 22.93652
#
# Velocity S-wave (km/s) = 3.09379 3.72030 3.42141
# Velocity P-wave (km/s) = 4.67515 5.69880 5.21217
#
# Compressibility (1/GPa) = 0.05611511
#
# Stress axis : x y z
#
# Youngs Moduli (GPa) = 122.28902 64.27546 40.24101
#
# Poissons Ratio (x) = 0.10632 -0.02157
# Poissons Ratio (y) = 0.20228 -0.19649
# Poissons Ratio (z) = -0.06554 -0.31385
#
# Static dielectric constant tensor:
#      x y z
#    x 1.767940 0.000000 -0.036180 
#    y 0.000000 1.708520 0.000000 
#    z -0.036180 0.000000 1.726620 
# 
# From -- ./inp_files/1980.got.cif
#   From: 2010.05.17/outbox.cif.g08.bks.cpg/sg4_1_cif.got.tgz:1980.got - 2010.06.03 18:43:04.
