data_PCOD9114826
_publ_section_title
;
Structure prediction by ZEFSAII (Michael W. Deem and Ramdas Pophale) SiO2 
 PCOD9114826
Probable space group: P 21
;
_chemical_formula_sum "Si O2"
_cell_formula_units_Z 14
_cell_length_a 9.772791
_cell_length_b 7.539124
_cell_length_c 12.225723
_cell_angle_alpha 90.000000
_cell_angle_beta 145.784125
_cell_angle_gamma 90.000000
_cell_volume 506.514403
_symmetry_space_group_name_H-M "P 21"
_symmetry_group_IT_number 4
_symmetry_cell_setting 'monoclinic'
loop_
_space_group_symop_operation_xyz
x,y,z
-x,1/2+y,-z
loop_
_atom_site_type_symbol
_atom_site_label
_atom_site_fract_x
_atom_site_fract_y
_atom_site_fract_z
Si Si1 0.937780 0.407080 0.446366
Si Si2 0.973844 0.510472 0.224003
Si Si3 0.032781 0.384823 0.833778
Si Si4 0.500633 0.209606 0.102596
Si Si5 0.407618 0.238558 0.793828
Si Si6 0.271748 0.214502 0.328830
Si Si7 0.665433 0.374273 0.752160
O O1 0.001720 0.420376 0.359411
O O2 0.747711 0.244073 0.329061
O O3 0.769028 0.575949 0.357275
O O4 0.192747 0.383710 0.675229
O O5 0.059424 0.714022 0.293994
O O6 0.575663 0.284817 0.802865
O O7 0.110951 0.394147 0.225067
O O8 0.898157 0.567771 0.721398
O O9 0.940817 0.337888 0.895526
O O10 0.320891 0.374732 0.014999
O O11 0.535074 0.210846 0.994563
O O12 0.309445 0.049392 0.992786
O O13 0.355516 0.089214 0.281833
O O14 0.499954 0.280105 0.549957
#
# Coordination Sequence:
#
# PCOD9114826 Si02
#       7
#     2   2   2   2   2   2   2
#     4  11  24  43  72 108 152 196 245 314 380 440
#     4   9  19  41  65 100 137 195 240 298 371 446
#     4   8  21  38  67  99 141 202 247 287 388 439
#     4   9  23  45  68 104 151 196 249 311 380 441
#     4  11  25  41  75 111 148 191 264 304 370 459
#     4  10  19  34  67 100 151 189 246 300 375 442
#     4  10  21  36  68 108 148 193 253 312 372 443
#
# _framework density 27.639887000000002
#
# number of rings (size 3 to 8) (size 9 to 14) (size 15 to 20)
#    1.714    0.571    1.429    0.857    2.000    4.571 
#    0.000    1.429    3.143    0.000    0.000    0.000 
#    0.000    0.000    0.000    0.000    0.000    0.000 
#
# Total GULP energy -78188.970905 kJ/mol
# GULP energy per Si atom -5584.926493 kJ/mol
# Density = 2.757698 g / cm^3
# Si number density = 27.639887 Si / 1000 Ang^3
#
#
#
# Elastic Constant Matrix: (Units=GPa)
#
#
# Indices 1 2 3 4 5 6 
#
# 1 127.4019 -11.2297 32.4576 0.0000 11.0762 0.0000
# 2 -11.2297 113.4262 -13.1070 0.0000 9.8835 0.0000
# 3 32.4576 -13.1070 87.3045 0.0000 5.6500 0.0000
# 4 0.0000 0.0000 0.0000 53.3512 0.0000 21.8439
# 5 11.0762 9.8835 5.6500 0.0000 38.3798 0.0000
# 6 0.0000 0.0000 0.0000 21.8439 0.0000 48.9221
#
#
#
# Elastic Compliance Matrix: (Units=1/GPa)
#
#
# Indices 1 2 3 4 5 6 
#
# 1 0.008890 0.000729 -0.003046 0.000000 -0.002305 0.000000
# 2 0.000729 0.009282 0.001303 0.000000 -0.002793 0.000000
# 3 -0.003046 0.001303 0.012870 0.000000 -0.001351 0.000000
# 4 0.000000 0.000000 0.000000 0.022937 0.000000 -0.010241
# 5 -0.002305 -0.002793 -0.001351 0.000000 0.027639 0.000000
# 6 0.000000 0.000000 0.000000 -0.010241 0.000000 0.025013
#
#
# Mechanical properties :
#
#
# Convention : Reuss Voigt Hill
#
# Bulk Modulus (GPa) = 34.46638 38.26382 36.36510
# Shear Modulus (GPa) = 42.25440 49.46474 45.85957
#
# Velocity S-wave (km/s) = 3.91416 4.23497 4.07772
# Velocity P-wave (km/s) = 5.73798 6.14712 5.94607
#
# Compressibility (1/GPa) = 0.02901378
#
# Stress axis : x y z
#
# Youngs Moduli (GPa) = 112.48667 107.73056 77.70095
#
# Poissons Ratio (x) = -0.07853 0.23671
# Poissons Ratio (y) = -0.08200 -0.10127
# Poissons Ratio (z) = 0.34269 -0.14040
#
# Static dielectric constant tensor:
#      x y z
#    x 2.143240 0.000000 0.029770 
#    y 0.000000 2.342020 0.000000 
#    z 0.029770 0.000000 2.183980 
# 
# From -- ./inp_files/16161.got.cif
#   From: 2010.05.17/outbox.cif.g08.bks.cpg/sg4_9_cif.got.tgz:16161.got - 2010.06.03 18:43:04.
