data_PCOD9114571
_publ_section_title
;
Structure prediction by ZEFSAII (Michael W. Deem and Ramdas Pophale) SiO2 
 PCOD9114571
Probable space group: P 21
;
_chemical_formula_sum "Si O2"
_cell_formula_units_Z 12
_cell_length_a 17.888281
_cell_length_b 4.999919
_cell_length_c 10.964889
_cell_angle_alpha 90.000000
_cell_angle_beta 28.025595
_cell_angle_gamma 90.000000
_cell_volume 460.797150
_symmetry_space_group_name_H-M "P 21"
_symmetry_group_IT_number 4
_symmetry_cell_setting 'monoclinic'
loop_
_space_group_symop_operation_xyz
x,y,z
-x,1/2+y,-z
loop_
_atom_site_type_symbol
_atom_site_label
_atom_site_fract_x
_atom_site_fract_y
_atom_site_fract_z
Si Si1 0.425255 0.589360 0.164512
Si Si2 0.028156 0.557209 0.897774
Si Si3 0.833426 0.947615 0.641164
Si Si4 0.294417 0.138632 0.765045
Si Si5 0.789977 0.449756 0.857193
Si Si6 0.366824 0.647583 0.507600
O O1 0.249133 0.520621 0.366857
O O2 0.462486 0.541631 0.253252
O O3 0.533890 0.393508 0.926584
O O4 0.895202 0.610827 0.988707
O O5 0.200821 0.683960 0.670719
O O6 0.051460 0.239514 0.878267
O O7 0.766568 0.151511 0.840560
O O8 0.023461 0.963203 0.370544
O O9 0.787331 0.652273 0.748178
O O10 0.339129 0.431387 0.653615
O O11 0.388218 0.928643 0.544193
O O12 0.311302 0.055148 0.881562
#
# Coordination Sequence:
#
# PCOD9114571 Si02
#       6
#     2   2   2   2   2   2
#     4  12  25  42  63  83 116 162 207 250 284 339
#     4   8  15  26  45  76 111 140 167 218 288 347
#     4  10  22  39  60  91 122 158 201 234 291 355
#     4  10  18  32  56  86 116 144 181 237 307 353
#     4  10  20  37  64  92 124 154 185 243 301 367
#     4  10  20  34  54  82 113 146 193 244 289 343
#
# _framework density 26.041830000000001
#
# number of rings (size 3 to 8) (size 9 to 14) (size 15 to 20)
#    0.000    2.000    0.000    4.000    0.000    0.000 
#    0.000   13.333    0.000   20.000    0.000    0.000 
#    0.000    0.000    0.000    0.000    0.000    0.000 
#
# Total GULP energy -67028.338820 kJ/mol
# GULP energy per Si atom -5585.694902 kJ/mol
# Density = 2.598256 g / cm^3
# Si number density = 26.041830 Si / 1000 Ang^3
#
#
#
# Elastic Constant Matrix: (Units=GPa)
#
#
# Indices 1 2 3 4 5 6 
#
# 1 152.5553 -6.6854 4.3800 0.0000 6.4728 0.0000
# 2 -6.6854 88.7241 -14.0533 0.0000 -10.2467 0.0000
# 3 4.3800 -14.0533 31.9698 0.0000 4.6322 0.0000
# 4 0.0000 0.0000 0.0000 18.6773 0.0000 -10.3525
# 5 6.4728 -10.2467 4.6322 0.0000 39.7366 0.0000
# 6 0.0000 0.0000 0.0000 -10.3525 0.0000 17.1283
#
#
#
# Elastic Compliance Matrix: (Units=1/GPa)
#
#
# Indices 1 2 3 4 5 6 
#
# 1 0.006626 0.000290 -0.000646 0.000000 -0.000929 0.000000
# 2 0.000290 0.012386 0.005034 0.000000 0.002560 0.000000
# 3 -0.000646 0.005034 0.033951 0.000000 -0.002554 0.000000
# 4 0.000000 0.000000 0.000000 0.080514 0.000000 0.048663
# 5 -0.000929 0.002560 -0.002554 0.000000 0.026275 0.000000
# 6 0.000000 0.000000 0.000000 0.048663 0.000000 0.087795
#
#
# Mechanical properties :
#
#
# Convention : Reuss Voigt Hill
#
# Bulk Modulus (GPa) = 16.04676 26.72574 21.38625
# Shear Modulus (GPa) = 19.30772 34.41564 26.86168
#
# Velocity S-wave (km/s) = 2.72584 3.63926 3.21515
# Velocity P-wave (km/s) = 4.01027 5.28619 4.69181
#
# Compressibility (1/GPa) = 0.06231789
#
# Stress axis : x y z
#
# Youngs Moduli (GPa) = 150.92825 80.73835 29.45425
#
# Poissons Ratio (x) = -0.02338 0.01902
# Poissons Ratio (y) = -0.04371 -0.14827
# Poissons Ratio (z) = 0.09746 -0.40643
#
# Static dielectric constant tensor:
#      x y z
#    x 2.088320 0.000000 -0.114860 
#    y 0.000000 1.943430 0.000000 
#    z -0.114860 0.000000 2.299210 
# 
# From -- ./inp_files/5152.got.cif
#   From: 2010.05.17/outbox.cif.g08.bks.cpg/sg4_3_cif.got.tgz:5152.got - 2010.06.03 18:43:04.
