data_PCOD9114076
_publ_section_title
;
Structure prediction by ZEFSAII (Michael W. Deem and Ramdas Pophale) SiO2 
 PCOD9114076
Probable space group: P 2
;
_chemical_formula_sum "Si O2"
_cell_formula_units_Z 12
_cell_length_a 8.867476
_cell_length_b 5.187810
_cell_length_c 19.733820
_cell_angle_alpha 90.000000
_cell_angle_beta 147.413891
_cell_angle_gamma 90.000000
_cell_volume 488.916394
_symmetry_space_group_name_H-M "P 2"
_symmetry_group_IT_number 3
_symmetry_cell_setting 'monoclinic'
loop_
_space_group_symop_operation_xyz
x,y,z
-x,y,-z
loop_
_atom_site_type_symbol
_atom_site_label
_atom_site_fract_x
_atom_site_fract_y
_atom_site_fract_z
Si Si1 0.109401 0.552010 0.224868
Si Si2 0.782145 0.055402 0.150781
Si Si3 0.744574 0.690402 0.862378
Si Si4 0.353880 0.381738 0.512719
Si Si5 0.738724 0.354435 0.269808
Si Si6 0.706433 0.014418 0.386984
O O1 0.113484 0.529736 0.144848
O O2 0.429870 0.579484 0.371567
O O3 0.985554 0.284858 0.204537
O O4 0.926488 0.784773 0.186239
O O5 0.720654 0.128668 0.206326
O O6 0.500000 0.071759 0.000000
O O7 0.533891 0.534935 0.831818
O O8 0.552077 0.877815 0.745844
O O9 0.000000 0.813652 0.000000
O O10 0.500000 0.291462 0.500000
O O11 0.341230 0.144053 0.559299
O O12 0.044654 0.484155 0.377784
O O13 0.755503 0.244338 0.351930
O O14 0.000000 0.859491 0.500000
#
# Coordination Sequence:
#
# PCOD9114076 Si02
#       6
#     2   2   2   2   2   2
#     4  12  27  50  78 118 157 212 269 338 396 491
#     4  12  28  51  79 114 164 210 274 330 412 479
#     4  12  28  47  77 111 162 210 272 328 410 483
#     4  11  23  51  77 111 155 206 275 336 415 471
#     4  11  26  47  77 111 156 212 263 338 400 487
#     4  10  25  46  75 112 153 206 269 335 397 483
#
# _framework density 24.544076
#
# number of rings (size 3 to 8) (size 9 to 14) (size 15 to 20)
#    0.000    0.667    3.333    2.500    7.000    0.667 
#    6.000    0.000    0.000    0.000    0.000    0.000 
#    0.000    0.000    0.000    0.000    0.000    0.000 
#
# Total GULP energy -67149.803229 kJ/mol
# GULP energy per Si atom -5595.816936 kJ/mol
# Density = 2.448821 g / cm^3
# Si number density = 24.544076 Si / 1000 Ang^3
#
#
#
# Elastic Constant Matrix: (Units=GPa)
#
#
# Indices 1 2 3 4 5 6 
#
# 1 137.5511 23.9919 49.9990 0.0000 -10.3859 0.0000
# 2 23.9919 61.6122 22.3793 0.0000 13.9345 0.0000
# 3 49.9990 22.3793 192.9639 0.0000 22.0499 0.0000
# 4 0.0000 0.0000 0.0000 27.4327 0.0000 9.2410
# 5 -10.3859 13.9345 22.0499 0.0000 37.6104 0.0000
# 6 0.0000 0.0000 0.0000 9.2410 0.0000 32.7523
#
#
#
# Elastic Compliance Matrix: (Units=1/GPa)
#
#
# Indices 1 2 3 4 5 6 
#
# 1 0.009319 -0.003944 -0.002592 0.000000 0.005554 0.000000
# 2 -0.003944 0.019743 -0.000330 0.000000 -0.008210 0.000000
# 3 -0.002592 -0.000330 0.006388 0.000000 -0.004339 0.000000
# 4 0.000000 0.000000 0.000000 0.040281 0.000000 -0.011365
# 5 0.005554 -0.008210 -0.004339 0.000000 0.033708 0.000000
# 6 0.000000 0.000000 0.000000 -0.011365 0.000000 0.033739
#
#
# Mechanical properties :
#
#
# Convention : Reuss Voigt Hill
#
# Bulk Modulus (GPa) = 46.04165 64.98529 55.51347
# Shear Modulus (GPa) = 30.46010 39.27621 34.86815
#
# Velocity S-wave (km/s) = 3.52666 4.00463 3.77322
# Velocity P-wave (km/s) = 5.94832 6.92222 6.45367
#
# Compressibility (1/GPa) = 0.02171946
#
# Stress axis : x y z
#
# Youngs Moduli (GPa) = 107.30207 50.65112 156.54414
#
# Poissons Ratio (x) = 0.19975 0.40578
# Poissons Ratio (y) = 0.42317 0.05161
# Poissons Ratio (z) = 0.27814 0.01670
#
# Static dielectric constant tensor:
#      x y z
#    x 2.071440 0.000000 0.030780 
#    y 0.000000 1.951900 0.000000 
#    z 0.030780 0.000000 1.956510 
# 
# From -- ./inp_files/14885.got.cif
#   From: 2010.05.17/outbox.cif.g08.bks.cpg/sg3_8_cif.got.tgz:14885.got - 2010.06.03 18:33:08.
