data_PCOD9114800
_publ_section_title
;
Structure prediction by ZEFSAII (Michael W. Deem and Ramdas Pophale) SiO2 
 PCOD9114800
Probable space group: P 21
;
_chemical_formula_sum "Si O2"
_cell_formula_units_Z 16
_cell_length_a 18.313907
_cell_length_b 5.106614
_cell_length_c 10.302517
_cell_angle_alpha 90.000000
_cell_angle_beta 125.589677
_cell_angle_gamma 90.000000
_cell_volume 783.533829
_symmetry_space_group_name_H-M "P 21"
_symmetry_group_IT_number 4
_symmetry_cell_setting 'monoclinic'
loop_
_space_group_symop_operation_xyz
x,y,z
-x,1/2+y,-z
loop_
_atom_site_type_symbol
_atom_site_label
_atom_site_fract_x
_atom_site_fract_y
_atom_site_fract_z
Si Si1 0.955577 0.781680 0.258531
Si Si2 0.111484 0.674570 0.615898
Si Si3 0.482063 0.566500 0.399475
Si Si4 0.706838 0.143203 0.715649
Si Si5 0.666874 0.644089 0.493770
Si Si6 0.876648 0.413159 0.990685
Si Si7 0.809145 0.689604 0.428249
Si Si8 0.937054 0.619794 0.799672
O O1 0.879884 0.594168 0.121499
O O2 0.018187 0.662825 0.436235
O O3 0.917186 0.056553 0.274159
O O4 0.024913 0.843410 0.214040
O O5 0.181901 0.458519 0.638760
O O6 0.155531 0.952839 0.625892
O O7 0.493221 0.266068 0.456497
O O8 0.376985 0.619929 0.271648
O O9 0.558200 0.637633 0.374147
O O10 0.691799 0.389745 0.604507
O O11 0.698766 0.893663 0.612113
O O12 0.797952 0.204267 0.887418
O O13 0.716412 0.639427 0.406959
O O14 0.974221 0.282428 0.082957
O O15 0.876789 0.596441 0.863503
O O16 0.879348 0.719454 0.619796
#
# Coordination Sequence:
#
# PCOD9114800 Si02
#       8
#     2   2   2   2   2   2   2   2
#     4  11  24  40  54  74 111 162 201 246 282 330
#     4  11  24  39  56  75 106 153 210 241 277 319
#     4   8  16  32  50  77 111 153 181 216 280 351
#     4  10  21  32  54  81 120 151 184 225 286 361
#     4  10  19  34  55  80 116 151 185 233 286 343
#     4  12  23  34  54  83 117 158 192 235 292 352
#     4  11  22  37  56  81 108 152 194 246 280 331
#     4  11  23  34  51  79 115 152 191 228 289 345
#
# _framework density 20.420304999999999
#
# number of rings (size 3 to 8) (size 9 to 14) (size 15 to 20)
#    0.000    1.500    3.750    2.250    7.000    0.000 
#    0.000    0.000    0.000    0.000    0.000    0.000 
#    3.750    0.000    1.000    0.000    0.000    0.000 
#
# Total GULP energy -89286.755239 kJ/mol
# GULP energy per Si atom -5580.422202 kJ/mol
# Density = 2.037383 g / cm^3
# Si number density = 20.420305 Si / 1000 Ang^3
#
#
#
# Elastic Constant Matrix: (Units=GPa)
#
#
# Indices 1 2 3 4 5 6 
#
# 1 138.0466 17.3905 21.3461 0.0000 -6.1790 0.0000
# 2 17.3905 109.4740 17.8714 0.0000 -7.5234 0.0000
# 3 21.3461 17.8714 41.3935 0.0000 -12.0226 0.0000
# 4 0.0000 0.0000 0.0000 17.6886 0.0000 -2.0733
# 5 -6.1790 -7.5234 -12.0226 0.0000 24.8626 0.0000
# 6 0.0000 0.0000 0.0000 -2.0733 0.0000 27.2528
#
#
#
# Elastic Compliance Matrix: (Units=1/GPa)
#
#
# Indices 1 2 3 4 5 6 
#
# 1 0.007913 -0.000637 -0.003828 0.000000 -0.000077 0.000000
# 2 -0.000637 0.009903 -0.003633 0.000000 0.001082 0.000000
# 3 -0.003828 -0.003633 0.031534 0.000000 0.013198 0.000000
# 4 0.000000 0.000000 0.000000 0.057042 0.000000 0.004340
# 5 -0.000077 0.001082 0.013198 0.000000 0.046911 0.000000
# 6 0.000000 0.000000 0.000000 0.004340 0.000000 0.037024
#
#
# Mechanical properties :
#
#
# Convention : Reuss Voigt Hill
#
# Bulk Modulus (GPa) = 30.16218 44.68114 37.42166
# Shear Modulus (GPa) = 22.98065 29.44787 26.21426
#
# Velocity S-wave (km/s) = 3.35831 3.80160 3.58681
# Velocity P-wave (km/s) = 5.46264 6.41855 5.95979
#
# Compressibility (1/GPa) = 0.03315411
#
# Stress axis : x y z
#
# Youngs Moduli (GPa) = 126.37996 100.97724 31.71169
#
# Poissons Ratio (x) = 0.06436 0.12138
# Poissons Ratio (y) = 0.08056 0.11520
# Poissons Ratio (z) = 0.48375 0.36683
#
# Static dielectric constant tensor:
#      x y z
#    x 1.780250 0.000000 -0.018720 
#    y 0.000000 1.796200 0.000000 
#    z -0.018720 0.000000 1.755330 
# 
# From -- ./inp_files/9409.got.cif
#   From: 2010.05.17/outbox.cif.g08.bks.cpg/sg4_5_cif.got.tgz:9409.got - 2010.06.03 18:43:04.
