data_PCOD9114707
_publ_section_title
;
Structure prediction by ZEFSAII (Michael W. Deem and Ramdas Pophale) SiO2 
 PCOD9114707
Probable space group: P 21
;
_chemical_formula_sum "Si O2"
_cell_formula_units_Z 14
_cell_length_a 8.621215
_cell_length_b 4.911319
_cell_length_c 20.701997
_cell_angle_alpha 90.000000
_cell_angle_beta 47.178649
_cell_angle_gamma 90.000000
_cell_volume 642.932141
_symmetry_space_group_name_H-M "P 21"
_symmetry_group_IT_number 4
_symmetry_cell_setting 'monoclinic'
loop_
_space_group_symop_operation_xyz
x,y,z
-x,1/2+y,-z
loop_
_atom_site_type_symbol
_atom_site_label
_atom_site_fract_x
_atom_site_fract_y
_atom_site_fract_z
Si Si1 0.095031 0.505630 0.940805
Si Si2 0.762933 0.721873 0.541782
Si Si3 0.751878 0.260746 0.225934
Si Si4 0.539795 0.781985 0.227732
Si Si5 0.812929 0.131785 0.356428
Si Si6 0.104257 0.475485 0.362953
Si Si7 0.483360 0.720480 0.438729
O O1 0.079845 0.637076 0.873211
O O2 0.329400 0.369450 0.873207
O O3 0.939101 0.259107 0.001948
O O4 0.589848 0.950291 0.576045
O O5 0.865510 0.799260 0.580237
O O6 0.645401 0.439904 0.566177
O O7 0.939157 0.704379 0.435470
O O8 0.687223 0.563382 0.223483
O O9 0.552218 0.064380 0.264028
O O10 0.315626 0.637508 0.283376
O O11 0.726625 0.817473 0.373027
O O12 0.627875 0.227384 0.459360
O O13 0.014268 0.266853 0.334893
O O14 0.817135 0.229564 0.281229
#
# Coordination Sequence:
#
# PCOD9114707 Si02
#       7
#     2   2   2   2   2   2   2
#     4  10  18  40  69 102 125 162 216 276 346 412
#     4  11  24  41  61  84 131 185 232 275 315 383
#     4  10  22  38  64  98 129 169 211 288 327 413
#     4  10  22  39  66  99 131 167 215 286 331 410
#     4  11  24  40  61  92 132 177 232 273 331 379
#     4  11  24  42  63  98 133 185 235 282 335 382
#     4  11  24  42  60  85 129 187 229 276 315 383
#
# _framework density 21.775237000000001
#
# number of rings (size 3 to 8) (size 9 to 14) (size 15 to 20)
#    0.857    0.571    1.429    4.286    0.000    9.143 
#    0.000    0.000    0.000    0.000    7.429    0.000 
#    0.000    0.000    0.000    0.000    0.000    0.000 
#
# Total GULP energy -78094.683073 kJ/mol
# GULP energy per Si atom -5578.191648 kJ/mol
# Density = 2.172568 g / cm^3
# Si number density = 21.775237 Si / 1000 Ang^3
#
#
#
# Elastic Constant Matrix: (Units=GPa)
#
#
# Indices 1 2 3 4 5 6 
#
# 1 114.7228 27.9876 22.3366 0.0000 3.6341 0.0000
# 2 27.9876 108.7942 5.5190 0.0000 2.7421 0.0000
# 3 22.3366 5.5190 99.3990 0.0000 15.0743 0.0000
# 4 0.0000 0.0000 0.0000 39.4897 0.0000 -4.2474
# 5 3.6341 2.7421 15.0743 0.0000 20.4793 0.0000
# 6 0.0000 0.0000 0.0000 -4.2474 0.0000 33.1680
#
#
#
# Elastic Compliance Matrix: (Units=1/GPa)
#
#
# Indices 1 2 3 4 5 6 
#
# 1 0.009699 -0.002393 -0.002065 0.000000 0.000119 0.000000
# 2 -0.002393 0.009825 0.000143 0.000000 -0.000996 0.000000
# 3 -0.002065 0.000143 0.011779 0.000000 -0.008323 0.000000
# 4 0.000000 0.000000 0.000000 0.025677 0.000000 0.003288
# 5 0.000119 -0.000996 -0.008323 0.000000 0.055068 0.000000
# 6 0.000000 0.000000 0.000000 0.003288 0.000000 0.030571
#
#
# Mechanical properties :
#
#
# Convention : Reuss Voigt Hill
#
# Bulk Modulus (GPa) = 44.10439 48.28915 46.19677
# Shear Modulus (GPa) = 31.48513 36.43223 33.95868
#
# Velocity S-wave (km/s) = 3.80664 4.09480 3.95335
# Velocity P-wave (km/s) = 6.29437 6.67689 6.48845
#
# Compressibility (1/GPa) = 0.02267348
#
# Stress axis : x y z
#
# Youngs Moduli (GPa) = 103.10617 101.77920 84.89938
#
# Poissons Ratio (x) = 0.24359 0.17529
# Poissons Ratio (y) = 0.24676 -0.01217
# Poissons Ratio (z) = 0.21288 -0.01459
#
# Static dielectric constant tensor:
#      x y z
#    x 1.851630 0.000000 -0.017830 
#    y 0.000000 1.939780 0.000000 
#    z -0.017830 0.000000 1.904640 
# 
# From -- ./inp_files/16031.got.cif
#   From: 2010.05.17/outbox.cif.g08.bks.cpg/sg4_9_cif.got.tgz:16031.got - 2010.06.03 18:43:04.
