data_PCOD9114831
_publ_section_title
;
Structure prediction by ZEFSAII (Michael W. Deem and Ramdas Pophale) SiO2 
 PCOD9114831
Probable space group: P 21
;
_chemical_formula_sum "Si O2"
_cell_formula_units_Z 16
_cell_length_a 8.716362
_cell_length_b 19.084119
_cell_length_c 9.993229
_cell_angle_alpha 90.000000
_cell_angle_beta 30.210237
_cell_angle_gamma 90.000000
_cell_volume 836.434072
_symmetry_space_group_name_H-M "P 21"
_symmetry_group_IT_number 4
_symmetry_cell_setting 'monoclinic'
loop_
_space_group_symop_operation_xyz
x,y,z
-x,1/2+y,-z
loop_
_atom_site_type_symbol
_atom_site_label
_atom_site_fract_x
_atom_site_fract_y
_atom_site_fract_z
Si Si1 0.327433 0.373950 0.525027
Si Si2 0.671554 0.314718 0.018283
Si Si3 0.203021 0.676653 0.480391
Si Si4 0.193060 0.821625 0.620405
Si Si5 0.489440 0.673986 0.977539
Si Si6 0.529310 0.875577 0.116498
Si Si7 0.141763 0.518060 0.553098
Si Si8 0.570290 0.016454 0.949537
O O1 0.582816 0.352575 0.438082
O O2 0.295467 0.456959 0.523005
O O3 0.999068 0.343915 0.814021
O O4 0.422433 0.338600 0.313135
O O5 0.664829 0.231765 0.998925
O O6 0.587339 0.347684 0.938289
O O7 0.245521 0.739257 0.552721
O O8 0.409496 0.687562 0.193746
O O9 0.247246 0.597716 0.501137
O O10 0.853858 0.679879 0.691396
O O11 0.277433 0.860156 0.417579
O O12 0.841758 0.836405 0.918310
O O13 0.385894 0.594739 0.028744
O O14 0.601030 0.956965 0.037188
O O15 0.215934 0.504869 0.340198
O O16 0.777405 0.513993 0.843323
#
# Coordination Sequence:
#
# PCOD9114831 Si02
#       8
#     2   2   2   2   2   2   2   2
#     4  12  24  38  57  89 120 152 190 235 289 342
#     4  12  21  38  63  84 114 148 197 239 280 333
#     4  10  19  35  56  82 113 149 190 231 283 345
#     4  12  24  38  57  89 120 152 190 235 289 342
#     4  10  20  34  58  88 111 142 193 243 281 326
#     4  12  21  38  63  84 114 148 197 239 280 333
#     4  10  19  35  56  82 113 149 190 231 283 345
#     4  10  20  34  58  88 111 142 193 243 281 326
#
# _framework density 19.128826
#
# number of rings (size 3 to 8) (size 9 to 14) (size 15 to 20)
#    0.000    1.000    5.000    3.000    0.000    0.000 
#    0.000    2.500    0.000    0.000    0.000    0.000 
#    0.000    0.000    0.000    0.000    0.000    0.000 
#
# Total GULP energy -89417.159670 kJ/mol
# GULP energy per Si atom -5588.572479 kJ/mol
# Density = 1.908529 g / cm^3
# Si number density = 19.128826 Si / 1000 Ang^3
#
#
#
# Elastic Constant Matrix: (Units=GPa)
#
#
# Indices 1 2 3 4 5 6 
#
# 1 35.0992 19.1304 -13.4876 0.0000 -2.9143 0.0000
# 2 19.1304 142.6676 -7.0851 0.0000 5.9063 0.0000
# 3 -13.4876 -7.0851 51.6800 0.0000 -6.8392 0.0000
# 4 0.0000 0.0000 0.0000 25.0311 0.0000 -1.9055
# 5 -2.9143 5.9063 -6.8392 0.0000 22.8012 0.0000
# 6 0.0000 0.0000 0.0000 -1.9055 0.0000 19.9210
#
#
#
# Elastic Compliance Matrix: (Units=1/GPa)
#
#
# Indices 1 2 3 4 5 6 
#
# 1 0.035491 -0.004632 0.009775 0.000000 0.008668 0.000000
# 2 -0.004632 0.007719 -0.000514 0.000000 -0.002746 0.000000
# 3 0.009775 -0.000514 0.022923 0.000000 0.008258 0.000000
# 4 0.000000 0.000000 0.000000 0.040243 0.000000 0.003849
# 5 0.008668 -0.002746 0.008258 0.000000 0.048154 0.000000
# 6 0.000000 0.000000 0.000000 0.003849 0.000000 0.050566
#
#
# Mechanical properties :
#
#
# Convention : Reuss Voigt Hill
#
# Bulk Modulus (GPa) = 13.26444 25.17357 19.21901
# Shear Modulus (GPa) = 22.62745 28.94327 25.78536
#
# Velocity S-wave (km/s) = 3.44306 3.89404 3.67547
# Velocity P-wave (km/s) = 4.77028 5.77985 5.29916
#
# Compressibility (1/GPa) = 0.07538953
#
# Stress axis : x y z
#
# Youngs Moduli (GPa) = 28.17576 129.55707 43.62374
#
# Poissons Ratio (x) = 0.60017 -0.42641
# Poissons Ratio (y) = 0.13052 0.02243
# Poissons Ratio (z) = -0.27541 0.06662
#
# Static dielectric constant tensor:
#      x y z
#    x 1.615640 0.000000 -0.000740 
#    y 0.000000 1.716050 0.000000 
#    z -0.000740 0.000000 1.652510 
# 
# From -- ./inp_files/2131.got.cif
#   From: 2010.05.17/outbox.cif.g08.bks.cpg/sg4_2_cif.got.tgz:2131.got - 2010.06.03 18:43:04.
