data_PCOD9114202
_publ_section_title
;
Structure prediction by ZEFSAII (Michael W. Deem and Ramdas Pophale) SiO2 
 PCOD9114202
Probable space group: P 2
;
_chemical_formula_sum "Si O2"
_cell_formula_units_Z 14
_cell_length_a 14.649777
_cell_length_b 5.012370
_cell_length_c 19.819989
_cell_angle_alpha 90.000000
_cell_angle_beta 157.914233
_cell_angle_gamma 90.000000
_cell_volume 547.215718
_symmetry_space_group_name_H-M "P 2"
_symmetry_group_IT_number 3
_symmetry_cell_setting 'monoclinic'
loop_
_space_group_symop_operation_xyz
x,y,z
-x,y,-z
loop_
_atom_site_type_symbol
_atom_site_label
_atom_site_fract_x
_atom_site_fract_y
_atom_site_fract_z
Si Si1 0.364509 0.086110 0.338207
Si Si2 0.904580 0.705810 0.553307
Si Si3 0.779841 0.963871 0.048842
Si Si4 0.039104 0.605697 0.124906
Si Si5 0.443972 0.385719 0.181152
Si Si6 0.560326 0.597700 0.115514
Si Si7 0.147608 0.222807 0.398454
O O1 0.500000 0.996904 0.500000
O O2 0.208809 0.349364 0.246568
O O3 0.574851 0.170521 0.431109
O O4 0.190183 0.846092 0.195158
O O5 0.679322 0.550275 0.365379
O O6 0.891591 0.015543 0.565719
O O7 0.154314 0.655592 0.685136
O O8 0.914746 0.526491 0.627509
O O9 0.949566 0.732869 0.133970
O O10 0.973791 0.146448 0.218454
O O11 0.593241 0.866143 0.977776
O O12 0.632185 0.075777 0.882177
O O13 0.775696 0.494521 0.922299
O O14 0.468712 0.433931 0.116792
O O15 0.500000 0.488182 0.000000
#
# Coordination Sequence:
#
# PCOD9114202 Si02
#       7
#     2   2   2   2   2   2   2
#     4  12  23  40  75 109 144 186 249 314 368 427
#     4  12  29  49  71 109 158 193 250 304 377 454
#     4  11  24  45  78 110 149 192 253 306 381 439
#     4  11  23  42  72 106 144 189 245 302 371 433
#     4  11  26  48  75 106 152 202 242 305 382 455
#     4  11  24  45  78 110 144 192 250 309 372 443
#     4  12  27  47  73 112 149 194 252 316 367 442
#
# _framework density 25.584061999999999
#
# number of rings (size 3 to 8) (size 9 to 14) (size 15 to 20)
#    0.000    0.571    4.286    2.571   10.000    0.571 
#    0.000    4.286    0.000    0.000    0.000    0.000 
#    0.000    0.000    0.000    0.000    0.000    0.000 
#
# Total GULP energy -78189.636055 kJ/mol
# GULP energy per Si atom -5584.974004 kJ/mol
# Density = 2.552583 g / cm^3
# Si number density = 25.584062 Si / 1000 Ang^3
#
#
#
# Elastic Constant Matrix: (Units=GPa)
#
#
# Indices 1 2 3 4 5 6 
#
# 1 37.4820 19.6974 27.2293 0.0000 28.3703 0.0000
# 2 19.6974 94.7512 27.7423 0.0000 4.5514 0.0000
# 3 27.2293 27.7423 150.9058 0.0000 34.5568 0.0000
# 4 0.0000 0.0000 0.0000 36.0531 0.0000 0.4656
# 5 28.3703 4.5514 34.5568 0.0000 62.8622 0.0000
# 6 0.0000 0.0000 0.0000 0.4656 0.0000 24.4563
#
#
#
# Elastic Compliance Matrix: (Units=1/GPa)
#
#
# Indices 1 2 3 4 5 6 
#
# 1 0.047621 -0.008195 -0.002632 0.000000 -0.019452 0.000000
# 2 -0.008195 0.012572 -0.001683 0.000000 0.003713 0.000000
# 3 -0.002632 -0.001683 0.008135 0.000000 -0.003162 0.000000
# 4 0.000000 0.000000 0.000000 0.027744 0.000000 -0.000528
# 5 -0.019452 0.003713 -0.003162 0.000000 0.026156 0.000000
# 6 0.000000 0.000000 0.000000 -0.000528 0.000000 0.040899
#
#
# Mechanical properties :
#
#
# Convention : Reuss Voigt Hill
#
# Bulk Modulus (GPa) = 23.08989 48.05302 35.57145
# Shear Modulus (GPa) = 24.68135 38.57232 31.62684
#
# Velocity S-wave (km/s) = 3.10936 3.88709 3.51977
# Velocity P-wave (km/s) = 4.68354 6.24252 5.51836
#
# Compressibility (1/GPa) = 0.04330900
#
# Stress axis : x y z
#
# Youngs Moduli (GPa) = 20.99919 79.54250 122.92416
#
# Poissons Ratio (x) = 0.65183 0.32351
# Poissons Ratio (y) = 0.17208 0.20686
# Poissons Ratio (z) = 0.05527 0.13386
#
# Static dielectric constant tensor:
#      x y z
#    x 2.015050 0.000000 -0.094260 
#    y 0.000000 2.198530 0.000000 
#    z -0.094260 0.000000 2.114380 
# 
# From -- ./inp_files/16041.got.cif
#   From: 2010.05.17/outbox.cif.g08.bks.cpg/sg3_9_cif.got.tgz:16041.got - 2010.06.03 18:33:08.
