data_PCOD9114452
_publ_section_title
;
Structure prediction by ZEFSAII (Michael W. Deem and Ramdas Pophale) SiO2 
 PCOD9114452
Probable space group: P 21
;
_chemical_formula_sum "Si O2"
_cell_formula_units_Z 16
_cell_length_a 21.451728
_cell_length_b 4.883241
_cell_length_c 9.155786
_cell_angle_alpha 90.000000
_cell_angle_beta 140.208118
_cell_angle_gamma 90.000000
_cell_volume 613.827888
_symmetry_space_group_name_H-M "P 21"
_symmetry_group_IT_number 4
_symmetry_cell_setting 'monoclinic'
loop_
_space_group_symop_operation_xyz
x,y,z
-x,1/2+y,-z
loop_
_atom_site_type_symbol
_atom_site_label
_atom_site_fract_x
_atom_site_fract_y
_atom_site_fract_z
Si Si1 0.163189 0.301730 0.357243
Si Si2 0.694325 0.466445 0.590312
Si Si3 0.617481 0.987497 0.610032
Si Si4 0.405896 0.846339 0.155597
Si Si5 0.071891 0.818477 0.306001
Si Si6 0.562059 0.189549 0.103534
Si Si7 0.215030 0.133379 0.758415
Si Si8 0.049949 0.341942 0.655111
O O1 0.223392 0.150286 0.340145
O O2 0.121949 0.606150 0.286349
O O3 0.224423 0.287925 0.619940
O O4 0.070068 0.109277 0.222993
O O5 0.702466 0.188316 0.699978
O O6 0.629569 0.335110 0.343623
O O7 0.641367 0.680474 0.602583
O O8 0.599853 0.102360 0.739230
O O9 0.507209 0.012669 0.346353
O O10 0.393687 0.721662 0.974591
O O11 0.314924 0.043742 0.005983
O O12 0.974533 0.755620 0.222273
O O13 0.148999 0.879405 0.578328
O O14 0.535986 0.874297 0.079481
O O15 0.155030 0.288141 0.776052
O O16 0.017740 0.653300 0.572123
#
# Coordination Sequence:
#
# PCOD9114452 Si02
#       8
#     2   2   2   2   2   2   2   2
#     4  10  19  33  60  90 120 161 203 264 312 389
#     4  12  23  45  61  94 122 172 218 283 324 382
#     4  12  28  44  62  86 135 177 220 268 332 380
#     4  12  25  48  63  94 129 181 224 266 331 392
#     4   9  17  33  54  94 129 155 194 262 343 380
#     4  12  23  40  68  92 116 158 225 279 322 374
#     4   9  21  34  60  93 123 167 209 265 318 397
#     4  10  16  31  52  89 138 155 189 255 348 390
#
# _framework density 26.065937999999999
#
# number of rings (size 3 to 8) (size 9 to 14) (size 15 to 20)
#    0.750    0.500    5.000    1.500    0.000    2.000 
#    6.750    0.000    0.000    0.000    0.000    3.500 
#    0.000    0.000    0.000    0.000    0.000    0.000 
#
# Total GULP energy -89393.188125 kJ/mol
# GULP energy per Si atom -5587.074258 kJ/mol
# Density = 2.600661 g / cm^3
# Si number density = 26.065938 Si / 1000 Ang^3
#
#
#
# Elastic Constant Matrix: (Units=GPa)
#
#
# Indices 1 2 3 4 5 6 
#
# 1 118.2210 1.9046 10.5305 0.0000 -8.9430 0.0000
# 2 1.9046 91.9361 -7.1178 0.0000 -2.1611 0.0000
# 3 10.5305 -7.1178 62.9998 0.0000 -0.4328 0.0000
# 4 0.0000 0.0000 0.0000 14.5848 0.0000 -1.4256
# 5 -8.9430 -2.1611 -0.4328 0.0000 30.3506 0.0000
# 6 0.0000 0.0000 0.0000 -1.4256 0.0000 46.0140
#
#
#
# Elastic Compliance Matrix: (Units=1/GPa)
#
#
# Indices 1 2 3 4 5 6 
#
# 1 0.008787 -0.000236 -0.001478 0.000000 0.002551 0.000000
# 2 -0.000236 0.010999 0.001287 0.000000 0.000732 0.000000
# 3 -0.001478 0.001287 0.016265 0.000000 -0.000112 0.000000
# 4 0.000000 0.000000 0.000000 0.068773 0.000000 0.002131
# 5 0.002551 0.000732 -0.000112 0.000000 0.033751 0.000000
# 6 0.000000 0.000000 0.000000 0.002131 0.000000 0.021799
#
#
# Mechanical properties :
#
#
# Convention : Reuss Voigt Hill
#
# Bulk Modulus (GPa) = 28.41205 31.53239 29.97222
# Shear Modulus (GPa) = 28.90853 36.04585 32.47719
#
# Velocity S-wave (km/s) = 3.33386 3.72273 3.53365
# Velocity P-wave (km/s) = 5.07378 5.53188 5.30778
#
# Compressibility (1/GPa) = 0.03519633
#
# Stress axis : x y z
#
# Youngs Moduli (GPa) = 113.80198 90.91831 61.48255
#
# Poissons Ratio (x) = 0.02150 0.09087
# Poissons Ratio (y) = 0.02691 -0.07914
# Poissons Ratio (z) = 0.16820 -0.11703
#
# Static dielectric constant tensor:
#      x y z
#    x 2.092920 0.000000 -0.006110 
#    y 0.000000 2.016770 0.000000 
#    z -0.006110 0.000000 2.100580 
# 
# From -- ./inp_files/8865.got.cif
#   From: 2010.05.17/outbox.cif.g08.bks.cpg/sg4_5_cif.got.tgz:8865.got - 2010.06.03 18:43:04.
