data_PCOD9114880
_publ_section_title
;
Structure prediction by ZEFSAII (Michael W. Deem and Ramdas Pophale) SiO2 
 PCOD9114880
Probable space group: P 21
;
_chemical_formula_sum "Si O2"
_cell_formula_units_Z 12
_cell_length_a 6.692735
_cell_length_b 15.827600
_cell_length_c 8.026694
_cell_angle_alpha 90.000000
_cell_angle_beta 138.438942
_cell_angle_gamma 90.000000
_cell_volume 564.082370
_symmetry_space_group_name_H-M "P 21"
_symmetry_group_IT_number 4
_symmetry_cell_setting 'monoclinic'
loop_
_space_group_symop_operation_xyz
x,y,z
-x,1/2+y,-z
loop_
_atom_site_type_symbol
_atom_site_label
_atom_site_fract_x
_atom_site_fract_y
_atom_site_fract_z
Si Si1 0.322274 0.175090 0.957623
Si Si2 0.925686 0.131733 0.037616
Si Si3 0.144192 0.592163 0.548280
Si Si4 0.515298 0.548659 0.467640
Si Si5 0.330918 0.806897 0.982193
Si Si6 0.764208 0.911404 0.494681
O O1 0.138853 0.149715 0.676493
O O2 0.624692 0.119602 0.166410
O O3 0.444035 0.270297 0.019068
O O4 0.124530 0.153202 0.995685
O O5 0.798999 0.222084 0.014066
O O6 0.145730 0.082150 0.303581
O O7 0.659641 0.070443 0.808757
O O8 0.345993 0.602238 0.505915
O O9 0.091592 0.491853 0.513081
O O10 0.436041 0.454556 0.482566
O O11 0.043397 0.857670 0.735967
O O12 0.534859 0.860721 0.235322
#
# Coordination Sequence:
#
# PCOD9114880 Si02
#       6
#     2   2   2   2   2   2
#     4  10  19  36  57  80 108 146 184 220 267 332
#     4  10  19  36  57  80 108 146 184 220 267 332
#     4   8  17  34  59  71 106 156 176 203 277 338
#     4   8  17  34  59  71 106 156 176 203 277 338
#     4  12  22  32  62  88 108 134 192 236 270 304
#     4  10  20  36  58  82 112 150 172 230 286 316
#
# _framework density 21.273489000000001
#
# number of rings (size 3 to 8) (size 9 to 14) (size 15 to 20)
#    1.000    1.333    0.000    4.000    0.000    0.000 
#    0.000    0.000   22.000    0.000    0.000    0.000 
#    0.000    0.000    0.000    0.000    0.000    0.000 
#
# Total GULP energy -66820.763937 kJ/mol
# GULP energy per Si atom -5568.396995 kJ/mol
# Density = 2.122507 g / cm^3
# Si number density = 21.273489 Si / 1000 Ang^3
#
#
#
# Elastic Constant Matrix: (Units=GPa)
#
#
# Indices 1 2 3 4 5 6 
#
# 1 42.2048 -4.1623 -2.7057 0.0000 13.0519 0.0000
# 2 -4.1623 86.8528 49.5984 0.0000 0.8057 0.0000
# 3 -2.7057 49.5984 166.9588 0.0000 12.0118 0.0000
# 4 0.0000 0.0000 0.0000 52.7382 0.0000 6.3754
# 5 13.0519 0.8057 12.0118 0.0000 21.3633 0.0000
# 6 0.0000 0.0000 0.0000 6.3754 0.0000 32.7935
#
#
#
# Elastic Compliance Matrix: (Units=1/GPa)
#
#
# Indices 1 2 3 4 5 6 
#
# 1 0.029792 0.000653 0.001667 0.000000 -0.019163 0.000000
# 2 0.000653 0.013952 -0.004239 0.000000 0.001458 0.000000
# 3 0.001667 -0.004239 0.007647 0.000000 -0.005158 0.000000
# 4 0.000000 0.000000 0.000000 0.019418 0.000000 -0.003775
# 5 -0.019163 0.001458 -0.005158 0.000000 0.061363 0.000000
# 6 0.000000 0.000000 0.000000 -0.003775 0.000000 0.031228
#
#
# Mechanical properties :
#
#
# Convention : Reuss Voigt Hill
#
# Bulk Modulus (GPa) = 21.02873 42.38634 31.70753
# Shear Modulus (GPa) = 27.30937 38.26473 32.78705
#
# Velocity S-wave (km/s) = 3.58680 4.24571 3.93009
# Velocity P-wave (km/s) = 5.20192 6.63344 5.96081
#
# Compressibility (1/GPa) = 0.04755400
#
# Stress axis : x y z
#
# Youngs Moduli (GPa) = 33.56653 71.67267 130.77086
#
# Poissons Ratio (x) = -0.04682 -0.21805
# Poissons Ratio (y) = -0.02193 0.55435
# Poissons Ratio (z) = -0.05597 0.30383
#
# Static dielectric constant tensor:
#      x y z
#    x 1.907650 0.000000 -0.005630 
#    y 0.000000 1.731760 0.000000 
#    z -0.005630 0.000000 1.784210 
# 
# From -- ./inp_files/1886.got.cif
#   From: 2010.05.17/outbox.cif.g08.bks.cpg/sg4_1_cif.got.tgz:1886.got - 2010.06.03 18:43:04.
