data_PCOD9114188
_publ_section_title
;
Structure prediction by ZEFSAII (Michael W. Deem and Ramdas Pophale) SiO2 
 PCOD9114188
Probable space group: P 2
;
_chemical_formula_sum "Si O2"
_cell_formula_units_Z 16
_cell_length_a 9.264734
_cell_length_b 10.560676
_cell_length_c 9.476285
_cell_angle_alpha 90.000000
_cell_angle_beta 128.954999
_cell_angle_gamma 90.000000
_cell_volume 721.010150
_symmetry_space_group_name_H-M "P 2"
_symmetry_group_IT_number 3
_symmetry_cell_setting 'monoclinic'
loop_
_space_group_symop_operation_xyz
x,y,z
-x,y,-z
loop_
_atom_site_type_symbol
_atom_site_label
_atom_site_fract_x
_atom_site_fract_y
_atom_site_fract_z
Si Si1 0.689261 0.098650 0.050818
Si Si2 0.972026 0.586094 0.649861
Si Si3 0.814494 0.682083 0.966536
Si Si4 0.220374 0.923426 0.651932
Si Si5 0.795917 0.971057 0.854939
Si Si6 0.998162 0.293817 0.669346
Si Si7 0.571868 0.702974 0.389915
Si Si8 0.313360 0.107929 0.468896
O O1 0.842390 0.204446 0.170538
O O2 0.742311 0.968463 0.165635
O O3 0.500000 0.146405 0.000000
O O4 0.670244 0.056981 0.877440
O O5 0.012389 0.440890 0.714752
O O6 0.755832 0.621310 0.539482
O O7 0.000000 0.600742 0.500000
O O8 0.118386 0.668428 0.830691
O O9 0.796836 0.827758 0.906300
O O10 0.606856 0.635601 0.795816
O O11 0.000000 0.629904 0.000000
O O12 0.348458 0.812696 0.665256
O O13 0.000000 0.897931 0.500000
O O14 0.275828 0.049966 0.599308
O O15 0.756848 0.988934 0.668354
O O16 0.000000 0.024737 0.000000
O O17 0.810780 0.232353 0.612169
O O18 0.000000 0.285438 0.500000
O O19 0.500000 0.748745 0.500000
O O20 0.500000 0.138147 0.500000
#
# Coordination Sequence:
#
# PCOD9114188 Si02
#       8
#     2   2   2   2   2   2   2   2
#     4  12  23  41  67 102 139 176 228 287 357 426
#     4  11  28  50  74  99 142 199 253 298 353 416
#     4  11  24  47  71 103 149 184 231 306 365 422
#     4  12  23  42  72  99 140 187 226 287 367 430
#     4  11  23  39  64 103 142 170 219 289 357 432
#     4  11  24  50  68  97 140 188 242 294 341 420
#     4  12  25  45  74 111 145 186 242 296 368 441
#     4  12  22  41  69 102 135 184 228 281 361 425
#
# _framework density 22.191089000000002
#
# number of rings (size 3 to 8) (size 9 to 14) (size 15 to 20)
#    0.000    0.500    5.000    3.750    5.250    1.000 
#    6.750    0.000    0.000    0.000    0.000    0.000 
#    0.000    0.000    0.000    0.000    0.000    0.000 
#
# Total GULP energy -89337.336760 kJ/mol
# GULP energy per Si atom -5583.583547 kJ/mol
# Density = 2.214058 g / cm^3
# Si number density = 22.191089 Si / 1000 Ang^3
#
#
#
# Elastic Constant Matrix: (Units=GPa)
#
#
# Indices 1 2 3 4 5 6 
#
# 1 114.6283 15.7212 23.2910 0.0000 26.9453 0.0000
# 2 15.7212 78.7839 13.8350 0.0000 2.2299 0.0000
# 3 23.2910 13.8350 101.7837 0.0000 8.6822 0.0000
# 4 0.0000 0.0000 0.0000 -214.7410 0.0000 -542.0779
# 5 26.9453 2.2299 8.6822 0.0000 49.0735 0.0000
# 6 0.0000 0.0000 0.0000 -542.0779 0.0000-1247.5431
#
#
#
# Elastic Compliance Matrix: (Units=1/GPa)
#
#
# Indices 1 2 3 4 5 6 
#
# 1 0.010578 -0.001653 -0.001733 0.000000 -0.005427 0.000000
# 2 -0.001653 0.013265 -0.001473 0.000000 0.000565 0.000000
# 3 -0.001733 -0.001473 0.010493 0.000000 -0.000838 0.000000
# 4 0.000000 0.000000 0.000000 0.048075 0.000000 -0.020890
# 5 -0.005427 0.000565 -0.000838 0.000000 0.023480 0.000000
# 6 0.000000 0.000000 0.000000 -0.020890 0.000000 0.008275
#
#
# Mechanical properties :
#
#
# Convention : Reuss Voigt Hill
#
# Bulk Modulus (GPa) = 40.61970 44.54337 42.58154
# Shear Modulus (GPa) = 37.85253 -266.48554 -114.31650
#
# Velocity S-wave (km/s) = 4.13456 -10.97030 -7.18515
# Velocity P-wave (km/s) = 6.41381 11.84681 7.04308
#
# Compressibility (1/GPa) = 0.02461860
#
# Stress axis : x y z
#
# Youngs Moduli (GPa) = 94.53316 75.38366 95.30126
#
# Poissons Ratio (x) = 0.12461 0.16516
# Poissons Ratio (y) = 0.15626 0.14039
# Poissons Ratio (z) = 0.16383 0.11105
#
# Static dielectric constant tensor:
#      x y z
#    x 9.531330 0.000000 -1.128240 
#    y 0.000000 1.780630 0.000000 
#    z -1.128240 0.000000 2.043870 
# 
# From -- ./inp_files/6087.got.cif
#   From: 2010.05.17/outbox.cif.g08.bks.cpg/sg3_4_cif.got.tgz:6087.got - 2010.06.03 18:33:08.
