data_PCOD9114101
_publ_section_title
;
Structure prediction by ZEFSAII (Michael W. Deem and Ramdas Pophale) SiO2 
 PCOD9114101
Probable space group: P 2
;
_chemical_formula_sum "Si O2"
_cell_formula_units_Z 8
_cell_length_a 5.167856
_cell_length_b 11.373713
_cell_length_c 7.364970
_cell_angle_alpha 90.000000
_cell_angle_beta 45.018721
_cell_angle_gamma 90.000000
_cell_volume 306.203753
_symmetry_space_group_name_H-M "P 2"
_symmetry_group_IT_number 3
_symmetry_cell_setting 'monoclinic'
loop_
_space_group_symop_operation_xyz
x,y,z
-x,y,-z
loop_
_atom_site_type_symbol
_atom_site_label
_atom_site_fract_x
_atom_site_fract_y
_atom_site_fract_z
Si Si1 0.000000 0.556461 0.000000
Si Si2 0.000000 0.174363 0.500000
Si Si3 0.929249 0.741274 0.321206
Si Si4 0.908732 0.412110 0.739610
Si Si5 0.926510 0.013191 0.831233
O O1 0.866978 0.650941 0.914648
O O2 0.161307 0.459719 0.776756
O O3 0.899152 0.273194 0.702280
O O4 0.162907 0.079072 0.560380
O O5 0.500000 0.718078 0.500000
O O6 0.000000 0.731157 0.500000
O O7 0.016076 0.874034 0.218520
O O8 0.000000 0.467791 0.500000
O O9 0.500000 0.442445 0.000000
O O10 0.500000 0.039619 0.000000
O O11 0.000000 0.050360 0.000000
#
# Coordination Sequence:
#
# PCOD9114101 Si02
#       5
#     1   1   2   2   2
#     4  12  28  44  78 104 156 202 264 316 388 462
#     4  10  26  46  76 106 154 198 262 318 382 468
#     4  12  28  47  75 115 153 202 258 320 393 464
#     4  10  26  50  72 112 147 211 256 321 381 457
#     4  12  26  48  76 114 154 200 256 320 393 463
#
# _framework density 26.126394999999999
#
# number of rings (size 3 to 8) (size 9 to 14) (size 15 to 20)
#    0.750    0.000    2.500    3.000    8.750    0.000 
#    4.500    0.000    0.000    0.000    0.000    0.000 
#    0.000    0.000    0.000    0.000    0.000    0.000 
#
# Total GULP energy -44560.811062 kJ/mol
# GULP energy per Si atom -5570.101383 kJ/mol
# Density = 2.606693 g / cm^3
# Si number density = 26.126395 Si / 1000 Ang^3
#
#
#
# Elastic Constant Matrix: (Units=GPa)
#
#
# Indices 1 2 3 4 5 6 
#
# 1 145.0979 14.4270 64.9951 0.0000 43.6470 0.0000
# 2 14.4270 188.3959 62.8138 0.0000 18.8339 0.0000
# 3 64.9951 62.8138 218.4136 0.0000 73.0278 0.0000
# 4 0.0000 0.0000 0.0000 37.8710 0.0000 47.4494
# 5 43.6470 18.8339 73.0278 0.0000 59.4262 0.0000
# 6 0.0000 0.0000 0.0000 47.4494 0.0000 -21.4673
#
#
#
# Elastic Compliance Matrix: (Units=1/GPa)
#
#
# Indices 1 2 3 4 5 6 
#
# 1 0.008930 0.000153 -0.000835 0.000000 -0.005580 0.000000
# 2 0.000153 0.005878 -0.001826 0.000000 0.000269 0.000000
# 3 -0.000835 -0.001826 0.008408 0.000000 -0.009141 0.000000
# 4 0.000000 0.000000 0.000000 0.007005 0.000000 0.015484
# 5 -0.005580 0.000269 -0.009141 0.000000 0.032074 0.000000
# 6 0.000000 0.000000 0.000000 0.015484 0.000000 -0.012358
#
#
# Mechanical properties :
#
#
# Convention : Reuss Voigt Hill
#
# Bulk Modulus (GPa) = 54.94737 92.93102 73.93920
# Shear Modulus (GPa) = 81.93978 42.47742 62.20860
#
# Velocity S-wave (km/s) = 5.60633 4.03655 4.88491
# Velocity P-wave (km/s) = 7.93630 7.57443 7.75748
#
# Compressibility (1/GPa) = 0.01819923
#
# Stress axis : x y z
#
# Youngs Moduli (GPa) = 111.98796 170.12146 118.92935
#
# Poissons Ratio (x) = -0.02595 0.09934
# Poissons Ratio (y) = -0.01708 0.21713
# Poissons Ratio (z) = 0.09354 0.31059
#
# Static dielectric constant tensor:
#      x y z
#    x 2.594160 0.000000 -0.368270 
#    y 0.000000 2.002080 0.000000 
#    z -0.368270 0.000000 2.377390 
# 
# From -- ./inp_files/250.got.cif
#   From: 2010.05.17/outbox.cif.g08.bks.cpg/sg3_1_cif.got.tgz:250.got - 2010.06.03 18:33:08.
