data_PCOD9114394
_publ_section_title
;
Structure prediction by ZEFSAII (Michael W. Deem and Ramdas Pophale) SiO2 
 PCOD9114394
Probable space group: P 2
;
_chemical_formula_sum "Si O2"
_cell_formula_units_Z 11
_cell_length_a 9.007401
_cell_length_b 5.226507
_cell_length_c 14.913462
_cell_angle_alpha 90.000000
_cell_angle_beta 37.709783
_cell_angle_gamma 90.000000
_cell_volume 429.438619
_symmetry_space_group_name_H-M "P 2"
_symmetry_group_IT_number 3
_symmetry_cell_setting 'monoclinic'
loop_
_space_group_symop_operation_xyz
x,y,z
-x,y,-z
loop_
_atom_site_type_symbol
_atom_site_label
_atom_site_fract_x
_atom_site_fract_y
_atom_site_fract_z
Si Si1 0.024862 0.387310 0.621374
Si Si2 0.452221 0.059923 0.126838
Si Si3 0.112206 0.748888 0.046434
Si Si4 0.419436 0.170913 0.326354
Si Si5 0.865700 0.243014 0.239256
Si Si6 0.000000 0.759923 0.500000
O O1 0.214740 0.377109 0.447710
O O2 0.165711 0.348293 0.645520
O O3 0.917440 0.652675 0.639826
O O4 0.820098 0.170898 0.726943
O O5 0.557183 0.200406 0.166732
O O6 0.500000 0.128825 0.000000
O O7 0.599823 0.793030 0.073141
O O8 0.014319 0.473592 0.122428
O O9 0.003811 0.973750 0.161897
O O10 0.000000 0.794032 0.000000
O O11 0.614736 0.189120 0.309991
O O12 0.245046 0.923439 0.408733
#
# Coordination Sequence:
#
# PCOD9114394 Si02
#       6
#     2   2   2   2   2   1
#     4  12  27  53  82 128 170 228 292 364 441 529
#     4  12  25  49  80 118 167 222 287 358 430 518
#     4  12  28  51  81 119 174 223 286 354 438 513
#     4  12  27  53  80 122 176 222 291 360 438 518
#     4  12  30  52  83 126 169 229 288 355 438 522
#     4  12  26  48  92 122 174 228 298 354 452 508
#
# _framework density 25.614833999999998
#
# number of rings (size 3 to 8) (size 9 to 14) (size 15 to 20)
#    0.000    0.000    7.273    1.091    7.636    1.455 
#    0.000    0.000    0.000    0.000    0.000    0.000 
#    0.000    0.000    0.000    0.000    0.000    0.000 
#
# Total GULP energy -61237.246721 kJ/mol
# GULP energy per Si atom -5567.022429 kJ/mol
# Density = 2.555653 g / cm^3
# Si number density = 25.614834 Si / 1000 Ang^3
#
#
#
# Elastic Constant Matrix: (Units=GPa)
#
#
# Indices 1 2 3 4 5 6 
#
# 1 201.0788 32.2364 60.1694 0.0000 14.0189 0.0000
# 2 32.2364 104.6792 42.5664 0.0000 -4.3477 0.0000
# 3 60.1694 42.5664 124.7295 0.0000 2.4025 0.0000
# 4 0.0000 0.0000 0.0000 -25.2734 0.0000 14.2543
# 5 14.0189 -4.3477 2.4025 0.0000 63.2079 0.0000
# 6 0.0000 0.0000 0.0000 14.2543 0.0000 20.9885
#
#
#
# Elastic Compliance Matrix: (Units=1/GPa)
#
#
# Indices 1 2 3 4 5 6 
#
# 1 0.005966 -0.000848 -0.002564 0.000000 -0.001284 0.000000
# 2 -0.000848 0.011265 -0.003456 0.000000 0.001094 0.000000
# 3 -0.002564 -0.003456 0.010435 0.000000 -0.000066 0.000000
# 4 0.000000 0.000000 0.000000 -0.028609 0.000000 0.019430
# 5 -0.001284 0.001094 -0.000066 0.000000 0.016183 0.000000
# 6 0.000000 0.000000 0.000000 0.019430 0.000000 0.034450
#
#
# Mechanical properties :
#
#
# Convention : Reuss Voigt Hill
#
# Bulk Modulus (GPa) = 71.79040 77.82578 74.80809
# Shear Modulus (GPa) = 73.45423 31.48560 52.46991
#
# Velocity S-wave (km/s) = 5.36085 3.50979 4.53086
# Velocity P-wave (km/s) = 8.14899 6.84645 7.52595
#
# Compressibility (1/GPa) = 0.01392944
#
# Stress axis : x y z
#
# Youngs Moduli (GPa) = 167.62179 88.76965 95.83171
#
# Poissons Ratio (x) = 0.07528 0.24569
# Poissons Ratio (y) = 0.14214 0.33124
# Poissons Ratio (z) = 0.42974 0.30683
#
# Static dielectric constant tensor:
#      x y z
#    x 2.122590 0.000000 -0.036300 
#    y 0.000000 2.270930 0.000000 
#    z -0.036300 0.000000 2.215630 
# 
# From -- ./inp_files/13173.got.cif
#   From: 2010.05.17/outbox.cif.g08.bks.cpg/sg3_7_cif.got.tgz:13173.got - 2010.06.03 18:33:08.
