data_PCOD9114830
_publ_section_title
;
Structure prediction by ZEFSAII (Michael W. Deem and Ramdas Pophale) SiO2 
 PCOD9114830
Probable space group: P 21
;
_chemical_formula_sum "Si O2"
_cell_formula_units_Z 16
_cell_length_a 7.647645
_cell_length_b 9.503259
_cell_length_c 17.061108
_cell_angle_alpha 90.000000
_cell_angle_beta 36.210542
_cell_angle_gamma 90.000000
_cell_volume 732.511228
_symmetry_space_group_name_H-M "P 21"
_symmetry_group_IT_number 4
_symmetry_cell_setting 'monoclinic'
loop_
_space_group_symop_operation_xyz
x,y,z
-x,1/2+y,-z
loop_
_atom_site_type_symbol
_atom_site_label
_atom_site_fract_x
_atom_site_fract_y
_atom_site_fract_z
Si Si1 0.463974 0.359120 0.229228
Si Si2 0.926409 0.101010 0.675538
Si Si3 0.337895 0.740096 0.088153
Si Si4 0.279718 0.853443 0.606290
Si Si5 0.807064 0.518735 0.890700
Si Si6 0.116424 0.355029 0.518705
Si Si7 0.083626 0.108581 0.319409
Si Si8 0.023405 0.297381 0.117497
O O1 0.361893 0.500186 0.222549
O O2 0.260320 0.359487 0.381443
O O3 0.359511 0.216612 0.224377
O O4 0.799871 0.359085 0.135882
O O5 0.899546 0.194436 0.762862
O O6 0.946659 0.209636 0.596906
O O7 0.194759 0.991767 0.588135
O O8 0.216445 0.858621 0.074085
O O9 0.492090 0.599994 0.001192
O O10 0.627473 0.815676 0.022473
O O11 0.608159 0.853091 0.520156
O O12 0.070447 0.847621 0.760750
O O13 0.192704 0.716773 0.587114
O O14 0.916137 0.523627 0.761929
O O15 0.008174 0.626632 0.866875
O O16 0.934553 0.495208 0.605126
#
# Coordination Sequence:
#
# PCOD9114830 Si02
#       8
#     2   2   2   2   2   2   2   2
#     4  10  22  38  55  77 121 159 185 221 300 349
#     4  11  21  35  61  87 110 154 192 240 283 346
#     4  10  19  36  61  87 110 142 196 242 287 338
#     4   9  19  35  58  83 110 149 191 236 299 329
#     4   9  19  35  61  80 111 142 190 245 282 333
#     4  11  20  36  56  82 116 143 198 243 272 344
#     4  10  19  35  56  82 111 152 186 230 294 337
#     4   8  19  36  58  78 113 151 182 229 287 342
#
# _framework density 21.842666999999999
#
# number of rings (size 3 to 8) (size 9 to 14) (size 15 to 20)
#    0.750    1.500    1.250    2.250    1.750    0.000 
#    2.250    0.000    8.250    0.000    0.000    0.000 
#    0.000    0.000    0.000    0.000    0.000    0.000 
#
# Total GULP energy -89192.605847 kJ/mol
# GULP energy per Si atom -5574.537865 kJ/mol
# Density = 2.179295 g / cm^3
# Si number density = 21.842667 Si / 1000 Ang^3
#
#
#
# Elastic Constant Matrix: (Units=GPa)
#
#
# Indices 1 2 3 4 5 6 
#
# 1 44.8277 11.6635 -14.8925 0.0000 -10.4729 0.0000
# 2 11.6635 129.1747 7.7700 0.0000 2.2533 0.0000
# 3 -14.8925 7.7700 34.4922 0.0000 5.3199 0.0000
# 4 0.0000 0.0000 0.0000 23.1305 0.0000 6.3909
# 5 -10.4729 2.2533 5.3199 0.0000 21.4323 0.0000
# 6 0.0000 0.0000 0.0000 6.3909 0.0000 20.1239
#
#
#
# Elastic Compliance Matrix: (Units=1/GPa)
#
#
# Indices 1 2 3 4 5 6 
#
# 1 0.030045 -0.003641 0.011926 0.000000 0.012104 0.000000
# 2 -0.003641 0.008292 -0.003152 0.000000 -0.001869 0.000000
# 3 0.011926 -0.003152 0.035251 0.000000 -0.002591 0.000000
# 4 0.000000 0.000000 0.000000 0.047391 0.000000 -0.015050
# 5 0.012104 -0.001869 -0.002591 0.000000 0.053413 0.000000
# 6 0.000000 0.000000 0.000000 -0.015050 0.000000 0.054472
#
#
# Mechanical properties :
#
#
# Convention : Reuss Voigt Hill
#
# Bulk Modulus (GPa) = 11.92566 24.17518 18.05042
# Shear Modulus (GPa) = 20.27985 26.53425 23.40705
#
# Velocity S-wave (km/s) = 3.05036 3.48917 3.27711
# Velocity P-wave (km/s) = 4.22822 5.22726 4.75406
#
# Compressibility (1/GPa) = 0.08385278
#
# Stress axis : x y z
#
# Youngs Moduli (GPa) = 33.28363 120.59185 28.36812
#
# Poissons Ratio (x) = 0.43911 -0.33831
# Poissons Ratio (y) = 0.12120 0.08942
# Poissons Ratio (z) = -0.39693 0.38010
#
# Static dielectric constant tensor:
#      x y z
#    x 1.776800 0.000000 0.012590 
#    y 0.000000 1.835750 0.000000 
#    z 0.012590 0.000000 1.804460 
# 
# From -- ./inp_files/7529.got.cif
#   From: 2010.05.17/outbox.cif.g08.bks.cpg/sg4_4_cif.got.tgz:7529.got - 2010.06.03 18:43:04.
