data_PCOD9114235
_publ_section_title
;
Structure prediction by ZEFSAII (Michael W. Deem and Ramdas Pophale) SiO2 
 PCOD9114235
Probable space group: P 2
;
_chemical_formula_sum "Si O2"
_cell_formula_units_Z 9
_cell_length_a 9.440595
_cell_length_b 8.476921
_cell_length_c 10.289410
_cell_angle_alpha 90.000000
_cell_angle_beta 28.687178
_cell_angle_gamma 90.000000
_cell_volume 395.269965
_symmetry_space_group_name_H-M "P 2"
_symmetry_group_IT_number 3
_symmetry_cell_setting 'monoclinic'
loop_
_space_group_symop_operation_xyz
x,y,z
-x,y,-z
loop_
_atom_site_type_symbol
_atom_site_label
_atom_site_fract_x
_atom_site_fract_y
_atom_site_fract_z
Si Si1 0.746587 0.450600 0.091919
Si Si2 0.839090 0.646448 0.389619
Si Si3 0.500000 0.861069 0.500000
Si Si4 0.735567 0.095685 0.109576
Si Si5 0.843888 0.936557 0.749409
O O1 0.477812 0.571989 0.323953
O O2 0.619449 0.273642 0.190701
O O3 0.000000 0.452575 0.000000
O O4 0.930921 0.506971 0.819395
O O5 0.776515 0.748507 0.308519
O O6 0.977980 0.774448 0.372656
O O7 0.530533 0.968835 0.347384
O O8 0.000000 0.104877 0.000000
O O9 0.840891 0.035412 0.885306
O O10 0.000000 0.017788 0.500000
O O11 0.500000 0.904604 0.000000
#
# Coordination Sequence:
#
# PCOD9114235 Si02
#       5
#     2   2   1   2   2
#     4  11  24  41  68 111 149 178 229 303 369 415
#     4  12  24  43  70 104 145 186 233 294 355 421
#     4  12  22  40  72 108 140 182 236 298 346 414
#     4  11  26  43  74 109 144 186 240 298 359 429
#     4  12  27  49  73 105 145 194 244 295 352 427
#
# _framework density 22.769245999999999
#
# number of rings (size 3 to 8) (size 9 to 14) (size 15 to 20)
#    0.000    0.444    4.444    4.000    6.222    0.000 
#    0.000    4.444    0.000    2.667    0.000    0.000 
#    0.000    0.000    0.000    0.000    0.000    0.000 
#
# Total GULP energy -50301.260516 kJ/mol
# GULP energy per Si atom -5589.028946 kJ/mol
# Density = 2.271742 g / cm^3
# Si number density = 22.769246 Si / 1000 Ang^3
#
#
#
# Elastic Constant Matrix: (Units=GPa)
#
#
# Indices 1 2 3 4 5 6 
#
# 1 107.3115 45.2753 50.0235 0.0000 8.1398 0.0000
# 2 45.2753 104.8178 32.3861 0.0000 -2.8813 0.0000
# 3 50.0235 32.3861 129.9038 0.0000 0.6003 0.0000
# 4 0.0000 0.0000 0.0000 27.3339 0.0000 -5.2489
# 5 8.1398 -2.8813 0.6003 0.0000 49.2474 0.0000
# 6 0.0000 0.0000 0.0000 -5.2489 0.0000 1.0583
#
#
#
# Elastic Compliance Matrix: (Units=1/GPa)
#
#
# Indices 1 2 3 4 5 6 
#
# 1 0.013280 -0.004579 -0.003961 0.000000 -0.002415 0.000000
# 2 -0.004579 0.011935 -0.001219 0.000000 0.001470 0.000000
# 3 -0.003961 -0.001219 0.009525 0.000000 0.000467 0.000000
# 4 0.000000 0.000000 0.000000 0.769616 0.000000 3.817285
# 5 -0.002415 0.001470 0.000467 0.000000 0.020785 0.000000
# 6 0.000000 0.000000 0.000000 3.817285 0.000000 19.878632
#
#
# Mechanical properties :
#
#
# Convention : Reuss Voigt Hill
#
# Bulk Modulus (GPa) = 65.69319 66.37810 66.03564
# Shear Modulus (GPa) = 0.24122 29.81779 15.02950
#
# Velocity S-wave (km/s) = 0.32584 3.62272 2.57199
# Velocity P-wave (km/s) = 5.39035 6.83481 6.15510
#
# Compressibility (1/GPa) = 0.01522228
#
# Stress axis : x y z
#
# Youngs Moduli (GPa) = 75.30035 83.78577 104.98463
#
# Poissons Ratio (x) = 0.38363 0.41587
# Poissons Ratio (y) = 0.34478 0.12799
# Poissons Ratio (z) = 0.29829 0.10215
#
# Static dielectric constant tensor:
#      x y z
#    x 1.908270 0.000000 0.014670 
#    y 0.000000 1.855730 0.000000 
#    z 0.014670 0.000000 1.854270 
# 
# From -- ./inp_files/871.got.cif
#   From: 2010.05.17/outbox.cif.g08.bks.cpg/sg3_1_cif.got.tgz:871.got - 2010.06.03 18:33:08.
