data_PCOD9114842
_publ_section_title
;
Structure prediction by ZEFSAII (Michael W. Deem and Ramdas Pophale) SiO2 
 PCOD9114842
Probable space group: P 21
;
_chemical_formula_sum "Si O2"
_cell_formula_units_Z 14
_cell_length_a 5.625600
_cell_length_b 5.229297
_cell_length_c 17.316552
_cell_angle_alpha 90.000000
_cell_angle_beta 103.322210
_cell_angle_gamma 90.000000
_cell_volume 495.708562
_symmetry_space_group_name_H-M "P 21"
_symmetry_group_IT_number 4
_symmetry_cell_setting 'monoclinic'
loop_
_space_group_symop_operation_xyz
x,y,z
-x,1/2+y,-z
loop_
_atom_site_type_symbol
_atom_site_label
_atom_site_fract_x
_atom_site_fract_y
_atom_site_fract_z
Si Si1 0.299863 0.364910 0.047610
Si Si2 0.374406 0.691063 0.186985
Si Si3 0.018906 0.087091 0.390575
Si Si4 0.609444 0.696182 0.470394
Si Si5 0.773993 0.087172 0.668543
Si Si6 0.662240 0.186423 0.245148
Si Si7 0.158267 0.621088 0.898370
O O1 0.310377 0.637598 0.093646
O O2 0.577174 0.261467 0.070491
O O3 0.084943 0.230756 0.080614
O O4 0.211998 0.369717 0.952874
O O5 0.177908 0.621099 0.237607
O O6 0.576601 0.473443 0.222064
O O7 0.458414 0.975663 0.211124
O O8 0.113627 0.134728 0.484304
O O9 0.170577 0.301847 0.354485
O O10 0.752242 0.150430 0.339077
O O11 0.078018 0.801662 0.367377
O O12 0.461875 0.481574 0.508947
O O13 0.504849 0.651834 0.377576
O O14 0.862779 0.111227 0.195237
#
# Coordination Sequence:
#
# PCOD9114842 Si02
#       7
#     2   2   2   2   2   2   2
#     4  11  24  43  68 100 136 177 223 274 332 394
#     4  11  24  41  61  91 129 168 214 269 329 391
#     4  10  19  35  59  85 117 162 215 269 327 391
#     4   8  16  30  52  82 114 154 208 266 324 386
#     4  10  19  35  59  85 117 162 215 269 327 391
#     4  11  24  41  61  91 129 168 214 269 329 391
#     4  11  24  43  68 100 136 177 223 274 332 394
#
# _framework density 28.242401999999998
#
# number of rings (size 3 to 8) (size 9 to 14) (size 15 to 20)
#    0.000    1.714    0.000    4.286    0.000    5.714 
#    0.000    1.429    0.000    0.000    0.000    0.000 
#    0.000    0.000    0.000    0.000    0.000    0.714 
#
# Total GULP energy -78333.679424 kJ/mol
# GULP energy per Si atom -5595.262816 kJ/mol
# Density = 2.817812 g / cm^3
# Si number density = 28.242402 Si / 1000 Ang^3
#
#
#
# Elastic Constant Matrix: (Units=GPa)
#
#
# Indices 1 2 3 4 5 6 
#
# 1 129.1826 66.5644 33.7742 0.0000 3.0992 0.0000
# 2 66.5644 102.5057 44.1196 0.0000 -2.9326 0.0000
# 3 33.7742 44.1196 76.0729 0.0000 5.2565 0.0000
# 4 0.0000 0.0000 0.0000 43.0381 0.0000 1.3021
# 5 3.0992 -2.9326 5.2565 0.0000 52.2191 0.0000
# 6 0.0000 0.0000 0.0000 1.3021 0.0000 60.3236
#
#
#
# Elastic Compliance Matrix: (Units=1/GPa)
#
#
# Indices 1 2 3 4 5 6 
#
# 1 0.011748 -0.007254 -0.000939 0.000000 -0.001010 0.000000
# 2 -0.007254 0.017597 -0.007133 0.000000 0.002137 0.000000
# 3 -0.000939 -0.007133 0.017847 0.000000 -0.002141 0.000000
# 4 0.000000 0.000000 0.000000 0.023250 0.000000 -0.000502
# 5 -0.001010 0.002137 -0.002141 0.000000 0.019546 0.000000
# 6 0.000000 0.000000 0.000000 -0.000502 0.000000 0.016588
#
#
# Mechanical properties :
#
#
# Convention : Reuss Voigt Hill
#
# Bulk Modulus (GPa) = 60.45642 66.29750 63.37696
# Shear Modulus (GPa) = 35.02818 42.00304 38.51561
#
# Velocity S-wave (km/s) = 3.52557 3.86065 3.69691
# Velocity P-wave (km/s) = 6.16649 6.58773 6.38059
#
# Compressibility (1/GPa) = 0.01654084
#
# Stress axis : x y z
#
# Youngs Moduli (GPa) = 85.11759 56.82736 56.03159
#
# Poissons Ratio (x) = 0.41221 0.05263
# Poissons Ratio (y) = 0.61742 0.39967
# Poissons Ratio (z) = 0.07995 0.40534
#
# Static dielectric constant tensor:
#      x y z
#    x 2.251410 0.000000 0.042510 
#    y 0.000000 2.176520 0.000000 
#    z 0.042510 0.000000 2.206460 
# 
# From -- ./inp_files/3851.got.cif
#   From: 2010.05.17/outbox.cif.g08.bks.cpg/sg4_2_cif.got.tgz:3851.got - 2010.06.03 18:43:04.
