data_PCOD9114068
_publ_section_title
;
Structure prediction by ZEFSAII (Michael W. Deem and Ramdas Pophale) SiO2 
 PCOD9114068
Probable space group: P 2
;
_chemical_formula_sum "Si O2"
_cell_formula_units_Z 14
_cell_length_a 17.047079
_cell_length_b 6.396364
_cell_length_c 8.818300
_cell_angle_alpha 90.000000
_cell_angle_beta 138.488603
_cell_angle_gamma 90.000000
_cell_volume 637.279883
_symmetry_space_group_name_H-M "P 2"
_symmetry_group_IT_number 3
_symmetry_cell_setting 'monoclinic'
loop_
_space_group_symop_operation_xyz
x,y,z
-x,y,-z
loop_
_atom_site_type_symbol
_atom_site_label
_atom_site_fract_x
_atom_site_fract_y
_atom_site_fract_z
Si Si1 0.500000 0.820580 0.000000
Si Si2 0.402770 0.148577 0.093861
Si Si3 0.107126 0.420231 0.265878
Si Si4 0.238322 0.494635 0.172800
Si Si5 0.790809 0.852126 0.057261
Si Si6 0.276983 0.551953 0.762275
Si Si7 0.954655 0.216606 0.274921
Si Si8 0.500000 0.391531 0.500000
O O1 0.614955 0.671675 0.164935
O O2 0.473364 0.979788 0.097974
O O3 0.492310 0.264326 0.333854
O O4 0.327849 0.322771 0.888588
O O5 0.314129 0.018957 0.073398
O O6 0.213877 0.398919 0.301956
O O7 0.165604 0.547699 0.487606
O O8 0.050180 0.228539 0.277644
O O9 0.000000 0.497705 0.000000
O O10 0.375127 0.505187 0.326222
O O11 0.200191 0.732882 0.089056
O O12 0.154540 0.355199 0.943920
O O13 0.762998 0.684039 0.148503
O O14 0.908300 0.986879 0.243085
O O15 0.000000 0.306274 0.500000
#
# Coordination Sequence:
#
# PCOD9114068 Si02
#       8
#     1   2   2   2   2   2   2   1
#     4  10  26  40  74 110 144 192 236 292 356 442
#     4  11  24  44  69 109 143 191 231 293 359 427
#     4  10  25  45  70  98 142 192 232 295 359 410
#     4  11  25  45  69 108 142 187 230 300 367 421
#     4  11  22  43  72 103 135 188 246 285 356 435
#     4  11  23  47  69 106 149 186 237 298 363 424
#     4  11  23  47  71  98 138 187 244 300 356 424
#     4  12  24  44  74 104 148 188 224 296 374 430
#
# _framework density 21.968371000000001
#
# number of rings (size 3 to 8) (size 9 to 14) (size 15 to 20)
#    0.000    1.143    2.857    2.143    4.000    4.571 
#    0.000   10.714    0.000    0.000    0.000    0.000 
#    0.000    0.000    0.000    0.000    0.000    0.000 
#
# Total GULP energy -78046.221439 kJ/mol
# GULP energy per Si atom -5574.730103 kJ/mol
# Density = 2.191837 g / cm^3
# Si number density = 21.968371 Si / 1000 Ang^3
#
#
#
# Elastic Constant Matrix: (Units=GPa)
#
#
# Indices 1 2 3 4 5 6 
#
# 1 127.9567 30.3855 11.1614 0.0000 8.6474 0.0000
# 2 30.3855 73.9613 20.2732 0.0000 5.9107 0.0000
# 3 11.1614 20.2732 105.4755 0.0000 -8.0900 0.0000
# 4 0.0000 0.0000 0.0000 -36.8360 0.0000 -13.9299
# 5 8.6474 5.9107 -8.0900 0.0000 25.0980 0.0000
# 6 0.0000 0.0000 0.0000 -13.9299 0.0000 23.4206
#
#
#
# Elastic Compliance Matrix: (Units=1/GPa)
#
#
# Indices 1 2 3 4 5 6 
#
# 1 0.008802 -0.003290 -0.000484 0.000000 -0.002414 0.000000
# 2 -0.003290 0.015982 -0.003000 0.000000 -0.003597 0.000000
# 3 -0.000484 -0.003000 0.010434 0.000000 0.004236 0.000000
# 4 0.000000 0.000000 0.000000 -0.022163 0.000000 -0.013182
# 5 -0.002414 -0.003597 0.004236 0.000000 0.042888 0.000000
# 6 0.000000 0.000000 0.000000 -0.013182 0.000000 0.034857
#
#
# Mechanical properties :
#
#
# Convention : Reuss Voigt Hill
#
# Bulk Modulus (GPa) = 46.14837 47.89261 47.02049
# Shear Modulus (GPa) = 44.81420 18.70807 31.76114
#
# Velocity S-wave (km/s) = 4.52147 2.92137 3.80645
# Velocity P-wave (km/s) = 6.95058 5.76431 6.38505
#
# Compressibility (1/GPa) = 0.02166924
#
# Stress axis : x y z
#
# Youngs Moduli (GPa) = 113.61215 62.57016 95.84448
#
# Poissons Ratio (x) = 0.20589 0.04640
# Poissons Ratio (y) = 0.37384 0.28749
# Poissons Ratio (z) = 0.05500 0.18768
#
# Static dielectric constant tensor:
#      x y z
#    x 1.878840 0.000000 0.020780 
#    y 0.000000 1.810700 0.000000 
#    z 0.020780 0.000000 1.793950 
# 
# From -- ./inp_files/8843.got.cif
#   From: 2010.05.17/outbox.cif.g08.bks.cpg/sg3_5_cif.got.tgz:8843.got - 2010.06.03 18:33:08.
