data_PCOD9114590
_publ_section_title
;
Structure prediction by ZEFSAII (Michael W. Deem and Ramdas Pophale) SiO2 
 PCOD9114590
Probable space group: P 21
;
_chemical_formula_sum "Si O2"
_cell_formula_units_Z 16
_cell_length_a 7.816456
_cell_length_b 8.208318
_cell_length_c 10.536493
_cell_angle_alpha 90.000000
_cell_angle_beta 64.277413
_cell_angle_gamma 90.000000
_cell_volume 609.031311
_symmetry_space_group_name_H-M "P 21"
_symmetry_group_IT_number 4
_symmetry_cell_setting 'monoclinic'
loop_
_space_group_symop_operation_xyz
x,y,z
-x,1/2+y,-z
loop_
_atom_site_type_symbol
_atom_site_label
_atom_site_fract_x
_atom_site_fract_y
_atom_site_fract_z
Si Si1 0.166891 0.491510 0.502448
Si Si2 0.614397 0.059598 0.079581
Si Si3 0.816307 0.395287 0.993431
Si Si4 0.072628 0.408226 0.165190
Si Si5 0.163559 0.073530 0.257571
Si Si6 0.601724 0.140626 0.349735
Si Si7 0.534910 0.511448 0.262752
Si Si8 0.230610 0.138319 0.601505
O O1 0.264302 0.611008 0.574258
O O2 0.307299 0.516704 0.338372
O O3 0.184405 0.310025 0.552365
O O4 0.944282 0.528251 0.577559
O O5 0.708346 0.227795 0.003146
O O6 0.389830 0.064331 0.173448
O O7 0.684409 0.047786 0.202295
O O8 0.713874 0.936298 0.953847
O O9 0.646773 0.514088 0.095641
O O10 0.955718 0.383159 0.069930
O O11 0.904737 0.457577 0.835441
O O12 0.092532 0.251491 0.245104
O O13 0.949931 0.540225 0.284933
O O14 0.579807 0.331607 0.313759
O O15 0.396605 0.069188 0.455160
O O16 0.635037 0.648611 0.315420
#
# Coordination Sequence:
#
# PCOD9114590 Si02
#       8
#     2   2   2   2   2   2   2   2
#     4  10  18  33  59  85 111 144 183 227 277 335
#     4  11  23  39  56  82 116 147 182 232 284 333
#     4  10  20  39  61  82 108 146 192 234 275 328
#     4  11  22  38  60  84 109 147 193 233 275 331
#     4  12  24  37  54  83 117 150 183 229 284 335
#     4   9  18  36  59  83 110 143 185 232 279 331
#     4   8  17  33  57  84 108 138 186 239 277 318
#     4   9  18  33  58  87 109 137 186 238 275 319
#
# _framework density 26.271227
#
# number of rings (size 3 to 8) (size 9 to 14) (size 15 to 20)
#    0.000    2.000    0.000    5.250    0.000    4.000 
#    0.000    5.000    0.000    0.000    0.000    0.000 
#    0.000    0.000    0.000    0.000    0.000    0.000 
#
# Total GULP energy -89420.883672 kJ/mol
# GULP energy per Si atom -5588.805229 kJ/mol
# Density = 2.621143 g / cm^3
# Si number density = 26.271227 Si / 1000 Ang^3
#
#
#
# Elastic Constant Matrix: (Units=GPa)
#
#
# Indices 1 2 3 4 5 6 
#
# 1 128.2874 4.6552 13.4959 0.0000 -39.5432 0.0000
# 2 4.6552 34.8419 -0.4500 0.0000 -14.6557 0.0000
# 3 13.4959 -0.4500 109.0999 0.0000 -34.7059 0.0000
# 4 0.0000 0.0000 0.0000 34.7553 0.0000 -10.3283
# 5 -39.5432 -14.6557 -34.7059 0.0000 47.6330 0.0000
# 6 0.0000 0.0000 0.0000 -10.3283 0.0000 17.8154
#
#
#
# Elastic Compliance Matrix: (Units=1/GPa)
#
#
# Indices 1 2 3 4 5 6 
#
# 1 0.011173 0.003696 0.002532 0.000000 0.012257 0.000000
# 2 0.003696 0.035878 0.005439 0.000000 0.018070 0.000000
# 3 0.002532 0.005439 0.013116 0.000000 0.013332 0.000000
# 4 0.000000 0.000000 0.000000 0.034761 0.000000 0.020152
# 5 0.012257 0.018070 0.013332 0.000000 0.046443 0.000000
# 6 0.000000 0.000000 0.000000 0.020152 0.000000 0.067814
#
#
# Mechanical properties :
#
#
# Convention : Reuss Voigt Hill
#
# Bulk Modulus (GPa) = 11.97576 34.18127 23.07852
# Shear Modulus (GPa) = 23.39885 37.00930 30.20408
#
# Velocity S-wave (km/s) = 2.98764 3.75739 3.39440
# Velocity P-wave (km/s) = 4.05829 5.64474 4.91594
#
# Compressibility (1/GPa) = 0.08350199
#
# Stress axis : x y z
#
# Youngs Moduli (GPa) = 89.50394 27.87190 76.24115
#
# Poissons Ratio (x) = -0.10301 -0.19307
# Poissons Ratio (y) = -0.33079 -0.41468
# Poissons Ratio (z) = -0.22666 -0.15160
#
# Static dielectric constant tensor:
#      x y z
#    x 2.168000 0.000000 0.019270 
#    y 0.000000 2.140020 0.000000 
#    z 0.019270 0.000000 2.042610 
# 
# From -- ./inp_files/9255.got.cif
#   From: 2010.05.17/outbox.cif.g08.bks.cpg/sg4_5_cif.got.tgz:9255.got - 2010.06.03 18:43:04.
