data_PCOD9114115
_publ_section_title
;
Structure prediction by ZEFSAII (Michael W. Deem and Ramdas Pophale) SiO2 
 PCOD9114115
Probable space group: P 2
;
_chemical_formula_sum "Si O2"
_cell_formula_units_Z 13
_cell_length_a 16.434272
_cell_length_b 5.046623
_cell_length_c 22.360849
_cell_angle_alpha 90.000000
_cell_angle_beta 162.349636
_cell_angle_gamma 90.000000
_cell_volume 562.315131
_symmetry_space_group_name_H-M "P 2"
_symmetry_group_IT_number 3
_symmetry_cell_setting 'monoclinic'
loop_
_space_group_symop_operation_xyz
x,y,z
-x,y,-z
loop_
_atom_site_type_symbol
_atom_site_label
_atom_site_fract_x
_atom_site_fract_y
_atom_site_fract_z
Si Si1 0.500000 0.864130 0.500000
Si Si2 0.081898 0.046012 0.923234
Si Si3 0.492847 0.077935 0.688306
Si Si4 0.984331 0.208317 0.560321
Si Si5 0.670403 0.576490 0.499836
Si Si6 0.310490 0.699719 0.811250
Si Si7 0.227396 0.548186 0.951095
O O1 0.546525 0.677049 0.475410
O O2 0.761673 0.042212 0.694654
O O3 0.197924 0.255442 0.956841
O O4 0.169517 0.753739 0.963675
O O5 0.208678 0.101137 0.076473
O O6 0.421525 0.290433 0.587282
O O7 0.297381 0.133296 0.607683
O O8 0.423612 0.790595 0.614426
O O9 0.061339 0.500975 0.635435
O O10 0.000000 0.193421 0.500000
O O11 0.205183 0.998319 0.737707
O O12 0.990381 0.582707 0.736166
O O13 0.500000 0.651298 0.000000
O O14 0.489470 0.622336 0.879210
#
# Coordination Sequence:
#
# PCOD9114115 Si02
#       7
#     1   2   2   2   2   2   2
#     4  10  26  50  70 100 124 180 220 280 342 412
#     4  11  25  44  71  93 132 167 224 270 339 402
#     4  12  24  44  67 102 133 176 214 281 333 384
#     4  12  25  41  65  98 140 179 222 267 323 393
#     4  11  25  44  71  95 136 167 225 276 338 398
#     4  12  24  39  64  96 133 177 228 268 313 389
#     4  11  22  43  65  95 131 182 216 271 327 390
#
# _framework density 23.11871
#
# number of rings (size 3 to 8) (size 9 to 14) (size 15 to 20)
#    0.000    0.615    0.000    9.231    0.000    6.154 
#    0.000    3.077    0.000    0.000    0.000    0.000 
#    0.000    0.000    0.000    0.000    0.000    0.000 
#
# Total GULP energy -72879.443376 kJ/mol
# GULP energy per Si atom -5606.111029 kJ/mol
# Density = 2.306609 g / cm^3
# Si number density = 23.118710 Si / 1000 Ang^3
#
#
#
# Elastic Constant Matrix: (Units=GPa)
#
#
# Indices 1 2 3 4 5 6 
#
# 1 79.7099 -7.3877 23.1072 0.0000 2.0142 0.0000
# 2 -7.3877 48.3371 9.3074 0.0000 -5.0812 0.0000
# 3 23.1072 9.3074 97.1623 0.0000 -0.0425 0.0000
# 4 0.0000 0.0000 0.0000 18.8133 0.0000 -11.0080
# 5 2.0142 -5.0812 -0.0425 0.0000 22.4535 0.0000
# 6 0.0000 0.0000 0.0000 -11.0080 0.0000 31.0851
#
#
#
# Elastic Compliance Matrix: (Units=1/GPa)
#
#
# Indices 1 2 3 4 5 6 
#
# 1 0.013845 0.002734 -0.003555 0.000000 -0.000630 0.000000
# 2 0.002734 0.022139 -0.002769 0.000000 0.004760 0.000000
# 3 -0.003555 -0.002769 0.011403 0.000000 -0.000286 0.000000
# 4 0.000000 0.000000 0.000000 0.067046 0.000000 0.023743
# 5 -0.000630 0.004760 -0.000286 0.000000 0.045670 0.000000
# 6 0.000000 0.000000 0.000000 0.023743 0.000000 0.040578
#
#
# Mechanical properties :
#
#
# Convention : Reuss Voigt Hill
#
# Bulk Modulus (GPa) = 24.87045 30.58477 27.72761
# Shear Modulus (GPa) = 22.59759 27.81588 25.20673
#
# Velocity S-wave (km/s) = 3.12983 3.47245 3.30558
# Velocity P-wave (km/s) = 4.88284 5.41621 5.15643
#
# Compressibility (1/GPa) = 0.04020836
#
# Stress axis : x y z
#
# Youngs Moduli (GPa) = 72.22623 45.16826 87.69925
#
# Poissons Ratio (x) = -0.12351 0.31176
# Poissons Ratio (y) = -0.19749 0.24284
# Poissons Ratio (z) = 0.25676 0.12507
#
# Static dielectric constant tensor:
#      x y z
#    x 1.859520 0.000000 0.022390 
#    y 0.000000 1.792840 0.000000 
#    z 0.022390 0.000000 1.852710 
# 
# From -- ./inp_files/16038.got.cif
#   From: 2010.05.17/outbox.cif.g08.bks.cpg/sg3_9_cif.got.tgz:16038.got - 2010.06.03 18:33:08.
