data_PCOD9114012
_publ_section_title
;
Structure prediction by ZEFSAII (Michael W. Deem and Ramdas Pophale) SiO2 
 PCOD9114012
Probable space group: P 2
;
_chemical_formula_sum "Si O2"
_cell_formula_units_Z 13
_cell_length_a 5.290392
_cell_length_b 5.698291
_cell_length_c 18.189186
_cell_angle_alpha 90.000000
_cell_angle_beta 76.197063
_cell_angle_gamma 90.000000
_cell_volume 532.499932
_symmetry_space_group_name_H-M "P 2"
_symmetry_group_IT_number 3
_symmetry_cell_setting 'monoclinic'
loop_
_space_group_symop_operation_xyz
x,y,z
-x,y,-z
loop_
_atom_site_type_symbol
_atom_site_label
_atom_site_fract_x
_atom_site_fract_y
_atom_site_fract_z
Si Si1 0.133818 0.544350 0.851105
Si Si2 0.177360 0.285816 0.704604
Si Si3 0.152498 0.678293 0.352484
Si Si4 0.561412 0.890847 0.066651
Si Si5 0.199572 0.915737 0.202327
Si Si6 0.412143 0.916487 0.587534
Si Si7 0.000000 0.233969 0.000000
O O1 0.264633 0.449738 0.766512
O O2 0.310583 0.728106 0.881213
O O3 0.889288 0.693502 0.839260
O O4 0.044254 0.370725 0.921295
O O5 0.386633 0.150954 0.639828
O O6 0.965212 0.430016 0.669578
O O7 0.035685 0.081821 0.759934
O O8 0.280842 0.813347 0.274480
O O9 0.376623 0.723933 0.397552
O O10 0.881132 0.809716 0.392694
O O11 0.386663 0.047181 0.133654
O O12 0.756547 0.061821 0.011182
O O13 0.500000 0.728976 0.000000
O O14 0.500000 0.982648 0.500000
#
# Coordination Sequence:
#
# PCOD9114012 Si02
#       7
#     2   2   2   2   2   2   1
#     4  11  24  45  66 101 141 187 252 315 371 458
#     4  10  24  48  77 109 147 202 257 308 390 462
#     4  10  25  44  78 113 153 200 256 313 386 463
#     4  12  25  42  66  95 142 188 241 311 381 447
#     4  10  24  45  68  99 137 188 246 310 373 450
#     4  11  25  50  78 117 160 203 251 324 385 469
#     4  12  26  40  68  96 140 190 246 306 388 452
#
# _framework density 24.413149000000001
#
# number of rings (size 3 to 8) (size 9 to 14) (size 15 to 20)
#    0.000    1.231    0.000    4.615    8.615    7.385 
#    2.769    4.615    0.000    0.000    0.000    0.000 
#    0.000    0.000    0.000    0.000    0.000    0.000 
#
# Total GULP energy -72548.776337 kJ/mol
# GULP energy per Si atom -5580.675103 kJ/mol
# Density = 2.435758 g / cm^3
# Si number density = 24.413149 Si / 1000 Ang^3
#
#
#
# Elastic Constant Matrix: (Units=GPa)
#
#
# Indices 1 2 3 4 5 6 
#
# 1 74.1662 2.8838 48.9891 0.0000 -4.2598 0.0000
# 2 2.8838 58.5525 33.5723 0.0000 -1.0006 0.0000
# 3 48.9891 33.5723 184.3393 0.0000 -16.4560 0.0000
# 4 0.0000 0.0000 0.0000 29.5547 0.0000 -1.5043
# 5 -4.2598 -1.0006 -16.4560 0.0000 37.9675 0.0000
# 6 0.0000 0.0000 0.0000 -1.5043 0.0000 28.0564
#
#
#
# Elastic Compliance Matrix: (Units=1/GPa)
#
#
# Indices 1 2 3 4 5 6 
#
# 1 0.016543 0.001911 -0.004758 0.000000 -0.000156 0.000000
# 2 0.001911 0.019331 -0.004123 0.000000 -0.001063 0.000000
# 3 -0.004758 -0.004123 0.007680 0.000000 0.002686 0.000000
# 4 0.000000 0.000000 0.000000 0.033928 0.000000 0.001819
# 5 -0.000156 -0.001063 0.002686 0.000000 0.027457 0.000000
# 6 0.000000 0.000000 0.000000 0.001819 0.000000 0.035740
#
#
# Mechanical properties :
#
#
# Convention : Reuss Voigt Hill
#
# Bulk Modulus (GPa) = 33.76990 54.21650 43.99320
# Shear Modulus (GPa) = 30.39678 34.55656 32.47667
#
# Velocity S-wave (km/s) = 3.53242 3.76638 3.65128
# Velocity P-wave (km/s) = 5.52269 6.41641 5.98625
#
# Compressibility (1/GPa) = 0.02961217
#
# Stress axis : x y z
#
# Youngs Moduli (GPa) = 60.44853 51.73148 130.20724
#
# Poissons Ratio (x) = -0.09885 0.61957
# Poissons Ratio (y) = -0.11551 0.53688
# Poissons Ratio (z) = 0.28763 0.21330
#
# Static dielectric constant tensor:
#      x y z
#    x 2.259230 0.000000 -0.007070 
#    y 0.000000 1.989110 0.000000 
#    z -0.007070 0.000000 1.940330 
# 
# From -- ./inp_files/14560.got.cif
#   From: 2010.05.17/outbox.cif.g08.bks.cpg/sg3_8_cif.got.tgz:14560.got - 2010.06.03 18:33:08.
