data_PCOD9114774
_publ_section_title
;
Structure prediction by ZEFSAII (Michael W. Deem and Ramdas Pophale) SiO2 
 PCOD9114774
Probable space group: P 21
;
_chemical_formula_sum "Si O2"
_cell_formula_units_Z 16
_cell_length_a 9.406318
_cell_length_b 7.987134
_cell_length_c 20.718584
_cell_angle_alpha 90.000000
_cell_angle_beta 158.522294
_cell_angle_gamma 90.000000
_cell_volume 569.923928
_symmetry_space_group_name_H-M "P 21"
_symmetry_group_IT_number 4
_symmetry_cell_setting 'monoclinic'
loop_
_space_group_symop_operation_xyz
x,y,z
-x,1/2+y,-z
loop_
_atom_site_type_symbol
_atom_site_label
_atom_site_fract_x
_atom_site_fract_y
_atom_site_fract_z
Si Si1 0.631303 0.764340 0.342012
Si Si2 0.551569 0.165219 0.995768
Si Si3 0.316743 0.159711 0.501299
Si Si4 0.541890 0.575492 0.174871
Si Si5 0.706002 0.719096 0.970445
Si Si6 0.239173 0.004857 0.334568
Si Si7 0.398524 0.119200 0.207785
Si Si8 0.667409 0.819111 0.701042
O O1 0.856057 0.713423 0.502004
O O2 0.706920 0.660683 0.308683
O O3 0.637595 0.962818 0.335727
O O4 0.169185 0.738394 0.159605
O O5 0.369155 0.178424 0.987883
O O6 0.843156 0.004579 0.125496
O O7 0.869631 0.308055 0.115224
O O8 0.297780 0.152121 0.824583
O O9 0.129980 0.085437 0.357323
O O10 0.545195 0.328768 0.576128
O O11 0.540679 0.992883 0.618720
O O12 0.545764 0.377890 0.161990
O O13 0.072720 0.604424 0.979108
O O14 0.589929 0.592683 0.864449
O O15 0.473497 0.154362 0.397923
O O16 0.457962 0.284850 0.277957
#
# Coordination Sequence:
#
# PCOD9114774 Si02
#       8
#     2   2   2   2   2   2   2   2
#     4  10  20  32  56  86 112 147 192 235 273 338
#     4   9  20  37  51  82 120 145 189 231 285 342
#     4  12  19  36  60  86 112 146 191 236 285 317
#     4   9  18  33  51  79 111 147 188 227 277 334
#     4  10  19  33  56  80 116 154 177 239 287 333
#     4  10  20  35  57  86 113 142 190 239 271 337
#     4   9  17  34  51  79 114 143 189 227 275 331
#     4   9  19  34  56  82 108 146 178 236 271 332
#
# _framework density 28.073922
#
# number of rings (size 3 to 8) (size 9 to 14) (size 15 to 20)
#    0.750    1.500    2.500    1.500    0.000    5.000 
#    0.000    1.250    0.000    3.000    3.250    0.000 
#    0.000    0.000    0.000    0.000    0.000    0.000 
#
# Total GULP energy -89447.943063 kJ/mol
# GULP energy per Si atom -5590.496441 kJ/mol
# Density = 2.801002 g / cm^3
# Si number density = 28.073922 Si / 1000 Ang^3
#
#
#
# Elastic Constant Matrix: (Units=GPa)
#
#
# Indices 1 2 3 4 5 6 
#
# 1 226.1431 38.4077 60.8111 0.0000 -51.5240 0.0000
# 2 38.4077 137.4546 37.4290 0.0000 -12.9205 0.0000
# 3 60.8111 37.4290 114.8063 0.0000 -35.2911 0.0000
# 4 0.0000 0.0000 0.0000 45.1326 0.0000 -17.9690
# 5 -51.5240 -12.9205 -35.2911 0.0000 55.7509 0.0000
# 6 0.0000 0.0000 0.0000 -17.9690 0.0000 22.2835
#
#
#
# Elastic Compliance Matrix: (Units=1/GPa)
#
#
# Indices 1 2 3 4 5 6 
#
# 1 0.005971 -0.000837 -0.001556 0.000000 0.004340 0.000000
# 2 -0.000837 0.008104 -0.002308 0.000000 -0.000357 0.000000
# 3 -0.001556 -0.002308 0.012019 0.000000 0.005635 0.000000
# 4 0.000000 0.000000 0.000000 0.032634 0.000000 0.026316
# 5 0.004340 -0.000357 0.005635 0.000000 0.025432 0.000000
# 6 0.000000 0.000000 0.000000 0.026316 0.000000 0.066096
#
#
# Mechanical properties :
#
#
# Convention : Reuss Voigt Hill
#
# Bulk Modulus (GPa) = 59.90868 83.52216 71.71542
# Shear Modulus (GPa) = 30.26191 47.41715 38.83953
#
# Velocity S-wave (km/s) = 3.28676 4.11422 3.72354
# Velocity P-wave (km/s) = 5.98244 7.23771 6.63981
#
# Compressibility (1/GPa) = 0.01669207
#
# Stress axis : x y z
#
# Youngs Moduli (GPa) = 167.46860 123.39534 83.19858
#
# Poissons Ratio (x) = 0.10326 0.12946
# Poissons Ratio (y) = 0.14015 0.19205
# Poissons Ratio (z) = 0.26059 0.28484
#
# Static dielectric constant tensor:
#      x y z
#    x 2.300340 0.000000 0.096820 
#    y 0.000000 2.208120 0.000000 
#    z 0.096820 0.000000 2.230170 
# 
# From -- ./inp_files/14900.got.cif
#   From: 2010.05.17/outbox.cif.g08.bks.cpg/sg4_8_cif.got.tgz:14900.got - 2010.06.03 18:43:04.
