data_PCOD9114753
_publ_section_title
;
Structure prediction by ZEFSAII (Michael W. Deem and Ramdas Pophale) SiO2 
 PCOD9114753
Probable space group: P 21
;
_chemical_formula_sum "Si O2"
_cell_formula_units_Z 12
_cell_length_a 11.199216
_cell_length_b 5.433180
_cell_length_c 17.656496
_cell_angle_alpha 90.000000
_cell_angle_beta 22.571687
_cell_angle_gamma 90.000000
_cell_volume 412.377925
_symmetry_space_group_name_H-M "P 21"
_symmetry_group_IT_number 4
_symmetry_cell_setting 'monoclinic'
loop_
_space_group_symop_operation_xyz
x,y,z
-x,1/2+y,-z
loop_
_atom_site_type_symbol
_atom_site_label
_atom_site_fract_x
_atom_site_fract_y
_atom_site_fract_z
Si Si1 0.422902 0.127700 0.634722
Si Si2 0.769077 0.640602 0.412074
Si Si3 0.596429 0.598584 0.906495
Si Si4 0.627878 0.465039 0.162818
Si Si5 0.355741 0.450491 0.891042
Si Si6 0.987409 0.927357 0.586127
O O1 0.533707 0.412879 0.571027
O O2 0.177282 0.089452 0.709233
O O3 0.386123 0.029180 0.741382
O O4 0.672911 0.923183 0.462096
O O5 0.984067 0.623521 0.361981
O O6 0.428705 0.471283 0.935241
O O7 0.914722 0.687705 0.679905
O O8 0.564055 0.372716 0.985126
O O9 0.778854 0.201444 0.062531
O O10 0.301134 0.450538 0.304595
O O11 0.814706 0.694054 0.019981
O O12 0.690923 0.429205 0.649004
#
# Coordination Sequence:
#
# PCOD9114753 Si02
#       6
#     2   2   2   2   2   2
#     4  10  19  33  46  81 126 153 177 247 319 350
#     4  10  21  31  51  79 125 152 189 240 314 352
#     4  11  25  41  56  87 135 167 194 246 319 367
#     4  11  19  31  54  84 118 148 193 244 301 344
#     4  11  22  35  59  88 113 156 203 252 289 357
#     4  11  22  37  62  91 115 158 206 253 290 360
#
# _framework density 29.099522
#
# number of rings (size 3 to 8) (size 9 to 14) (size 15 to 20)
#    0.000    1.333    3.333    4.000    0.000    2.667 
#    0.000    0.000    0.000    0.000    0.000   14.000 
#    0.000    0.000    0.000    0.000    0.000    0.000 
#
# Total GULP energy -66943.203890 kJ/mol
# GULP energy per Si atom -5578.600324 kJ/mol
# Density = 2.903329 g / cm^3
# Si number density = 29.099522 Si / 1000 Ang^3
#
#
#
# Elastic Constant Matrix: (Units=GPa)
#
#
# Indices 1 2 3 4 5 6 
#
# 1 215.9601 22.4769 57.9638 0.0000 20.3041 0.0000
# 2 22.4769 200.3597 25.2038 0.0000 19.3645 0.0000
# 3 57.9638 25.2038 64.6477 0.0000 -2.7023 0.0000
# 4 0.0000 0.0000 0.0000 40.7526 0.0000 20.5427
# 5 20.3041 19.3645 -2.7023 0.0000 45.9026 0.0000
# 6 0.0000 0.0000 0.0000 20.5427 0.0000 49.8921
#
#
#
# Elastic Compliance Matrix: (Units=1/GPa)
#
#
# Indices 1 2 3 4 5 6 
#
# 1 0.006573 0.000372 -0.006182 0.000000 -0.003428 0.000000
# 2 0.000372 0.005533 -0.002601 0.000000 -0.002652 0.000000
# 3 -0.006182 -0.002601 0.022240 0.000000 0.005141 0.000000
# 4 0.000000 0.000000 0.000000 0.030965 0.000000 -0.012750
# 5 -0.003428 -0.002652 0.005141 0.000000 0.024723 0.000000
# 6 0.000000 0.000000 0.000000 -0.012750 0.000000 0.025293
#
#
# Mechanical properties :
#
#
# Convention : Reuss Voigt Hill
#
# Bulk Modulus (GPa) = 57.06595 76.91739 66.99167
# Shear Modulus (GPa) = 36.23418 52.33099 44.28258
#
# Velocity S-wave (km/s) = 3.53254 4.24529 3.90521
# Velocity P-wave (km/s) = 6.02425 7.10774 6.58831
#
# Compressibility (1/GPa) = 0.01752359
#
# Stress axis : x y z
#
# Youngs Moduli (GPa) = 152.12924 180.74036 44.96375
#
# Poissons Ratio (x) = -0.06716 0.27796
# Poissons Ratio (y) = -0.05652 0.11695
# Poissons Ratio (z) = 0.94045 0.47011
#
# Static dielectric constant tensor:
#      x y z
#    x 2.240930 0.000000 -0.107650 
#    y 0.000000 2.340010 0.000000 
#    z -0.107650 0.000000 2.449710 
# 
# From -- ./inp_files/15060.got.cif
#   From: 2010.05.17/outbox.cif.g08.bks.cpg/sg4_8_cif.got.tgz:15060.got - 2010.06.03 18:43:04.
