data_PCOD9114872
_publ_section_title
;
Structure prediction by ZEFSAII (Michael W. Deem and Ramdas Pophale) SiO2 
 PCOD9114872
Probable space group: P 21
;
_chemical_formula_sum "Si O2"
_cell_formula_units_Z 14
_cell_length_a 10.883758
_cell_length_b 8.635506
_cell_length_c 12.939650
_cell_angle_alpha 90.000000
_cell_angle_beta 138.889892
_cell_angle_gamma 90.000000
_cell_volume 799.632349
_symmetry_space_group_name_H-M "P 21"
_symmetry_group_IT_number 4
_symmetry_cell_setting 'monoclinic'
loop_
_space_group_symop_operation_xyz
x,y,z
-x,1/2+y,-z
loop_
_atom_site_type_symbol
_atom_site_label
_atom_site_fract_x
_atom_site_fract_y
_atom_site_fract_z
Si Si1 0.086543 0.963980 0.875603
Si Si2 0.894974 0.477988 0.873779
Si Si3 0.478961 0.067453 0.111221
Si Si4 0.444570 0.199111 0.303460
Si Si5 0.672229 0.037116 0.846430
Si Si6 0.369586 0.739437 0.985761
Si Si7 0.737164 0.180102 0.672330
O O1 0.160299 0.814727 0.859880
O O2 0.110642 0.918300 0.011096
O O3 0.886780 0.045018 0.738261
O O4 0.252210 0.089399 0.960185
O O5 0.744859 0.616337 0.776696
O O6 0.843013 0.339870 0.764404
O O7 0.105690 0.530891 0.993317
O O8 0.525433 0.099115 0.259412
O O9 0.584921 0.171328 0.096444
O O10 0.497982 0.888132 0.092594
O O11 0.399095 0.365666 0.225422
O O12 0.588226 0.204520 0.488356
O O13 0.643518 0.132843 0.722311
O O14 0.594829 0.115886 0.900745
#
# Coordination Sequence:
#
# PCOD9114872 Si02
#       7
#     2   2   2   2   2   2   2
#     4   8  19  33  58  79 108 148 192 238 276 331
#     4  10  19  36  53  87 113 148 195 228 282 341
#     4   9  19  35  57  81 107 145 197 241 277 329
#     4  11  22  33  56  87 119 152 186 234 300 338
#     4  11  20  33  61  84 114 155 190 236 280 344
#     4  10  19  36  62  83 107 143 208 241 272 331
#     4  11  20  36  55  83 126 147 182 242 291 348
#
# _framework density 17.508047000000001
#
# number of rings (size 3 to 8) (size 9 to 14) (size 15 to 20)
#    0.857    1.143    1.429    4.286    2.000    0.000 
#    0.000    0.000    6.286    0.000    0.000    0.000 
#    0.000    0.000    0.000    0.000    0.000    0.000 
#
# Total GULP energy -77961.896473 kJ/mol
# GULP energy per Si atom -5568.706891 kJ/mol
# Density = 1.746820 g / cm^3
# Si number density = 17.508047 Si / 1000 Ang^3
#
#
#
# Elastic Constant Matrix: (Units=GPa)
#
#
# Indices 1 2 3 4 5 6 
#
# 1 48.4712 9.2988 29.7947 0.0000 -5.7767 0.0000
# 2 9.2988 79.6318 40.4157 0.0000 -2.6288 0.0000
# 3 29.7947 40.4157 105.1022 0.0000 -3.1350 0.0000
# 4 0.0000 0.0000 0.0000 16.2971 0.0000 -5.9870
# 5 -5.7767 -2.6288 -3.1350 0.0000 14.6252 0.0000
# 6 0.0000 0.0000 0.0000 -5.9870 0.0000 41.0182
#
#
#
# Elastic Compliance Matrix: (Units=1/GPa)
#
#
# Indices 1 2 3 4 5 6 
#
# 1 0.026129 0.001077 -0.007556 0.000000 0.008894 0.000000
# 2 0.001077 0.015681 -0.006279 0.000000 0.001898 0.000000
# 3 -0.007556 -0.006279 0.014038 0.000000 -0.001104 0.000000
# 4 0.000000 0.000000 0.000000 0.064837 0.000000 0.009464
# 5 0.008894 0.001898 -0.001104 0.000000 0.071993 0.000000
# 6 0.000000 0.000000 0.000000 0.009464 0.000000 0.025761
#
#
# Mechanical properties :
#
#
# Convention : Reuss Voigt Hill
#
# Bulk Modulus (GPa) = 32.96712 43.58040 38.27376
# Shear Modulus (GPa) = 19.68001 24.63453 22.15727
#
# Velocity S-wave (km/s) = 3.35633 3.75512 3.56131
# Velocity P-wave (km/s) = 5.82156 6.61415 6.23047
#
# Compressibility (1/GPa) = 0.03033326
#
# Stress axis : x y z
#
# Youngs Moduli (GPa) = 38.27193 63.76990 71.23466
#
# Poissons Ratio (x) = -0.06871 0.53826
# Poissons Ratio (y) = -0.04124 0.44727
# Poissons Ratio (z) = 0.28919 0.40040
#
# Static dielectric constant tensor:
#      x y z
#    x 1.624700 0.000000 0.013190 
#    y 0.000000 1.652660 0.000000 
#    z 0.013190 0.000000 1.558830 
# 
# From -- ./inp_files/7639.got.cif
#   From: 2010.05.17/outbox.cif.g08.bks.cpg/sg4_4_cif.got.tgz:7639.got - 2010.06.03 18:43:04.
