data_PCOD9114232
_publ_section_title
;
Structure prediction by ZEFSAII (Michael W. Deem and Ramdas Pophale) SiO2 
 PCOD9114232
Probable space group: P 2
;
_chemical_formula_sum "Si O2"
_cell_formula_units_Z 14
_cell_length_a 17.374524
_cell_length_b 6.969890
_cell_length_c 13.392826
_cell_angle_alpha 90.000000
_cell_angle_beta 22.761007
_cell_angle_gamma 90.000000
_cell_volume 627.475043
_symmetry_space_group_name_H-M "P 2"
_symmetry_group_IT_number 3
_symmetry_cell_setting 'monoclinic'
loop_
_space_group_symop_operation_xyz
x,y,z
-x,y,-z
loop_
_atom_site_type_symbol
_atom_site_label
_atom_site_fract_x
_atom_site_fract_y
_atom_site_fract_z
Si Si1 0.350869 0.746410 0.520173
Si Si2 0.067683 0.438846 0.318209
Si Si3 0.515373 0.462329 0.768926
Si Si4 0.000000 0.508780 0.000000
Si Si5 0.274781 0.055818 0.459340
Si Si6 0.133127 0.243546 0.020660
Si Si7 0.284737 0.721103 0.311280
Si Si8 0.500000 0.022726 0.500000
O O1 0.488039 0.559919 0.337029
O O2 0.389259 0.903424 0.390216
O O3 0.366208 0.873884 0.599059
O O4 0.139369 0.647652 0.771049
O O5 0.089828 0.335149 0.182870
O O6 0.000000 0.325470 0.500000
O O7 0.912384 0.616595 0.495930
O O8 0.294300 0.490918 0.071559
O O9 0.669603 0.587209 0.647790
O O10 0.597352 0.249150 0.685746
O O11 0.112024 0.382485 0.949474
O O12 0.249105 0.942040 0.386063
O O13 0.055228 0.099469 0.764337
O O14 0.348997 0.145281 0.749359
O O15 0.500000 0.716378 0.000000
#
# Coordination Sequence:
#
# PCOD9114232 Si02
#       8
#     2   2   2   1   2   2   2   1
#     4  11  25  43  70 106 142 197 241 319 376 458
#     4  12  26  46  78 109 151 200 255 318 386 460
#     4  11  24  47  73 104 150 195 250 309 387 452
#     4  12  24  46  76 102 150 206 252 308 394 458
#     4  11  23  48  71 102 152 193 254 311 381 465
#     4  12  26  45  74 112 150 206 255 315 387 460
#     4  11  24  46  74 108 141 201 253 314 382 455
#     4  12  28  42  70 116 158 188 266 322 378 464
#
# _framework density 22.311643
#
# number of rings (size 3 to 8) (size 9 to 14) (size 15 to 20)
#    0.000    0.571    4.286    3.429    6.000    1.714 
#    0.000    0.714    0.000    0.000    0.000    0.000 
#    0.000    0.000    0.000    0.000    0.000    0.000 
#
# Total GULP energy -77963.536724 kJ/mol
# GULP energy per Si atom -5568.824052 kJ/mol
# Density = 2.226086 g / cm^3
# Si number density = 22.311643 Si / 1000 Ang^3
#
#
#
# Elastic Constant Matrix: (Units=GPa)
#
#
# Indices 1 2 3 4 5 6 
#
# 1 68.5268 35.0809 16.2037 0.0000 5.9227 0.0000
# 2 35.0809 142.6320 52.9841 0.0000 4.4734 0.0000
# 3 16.2037 52.9841 158.8668 0.0000 -0.3118 0.0000
# 4 0.0000 0.0000 0.0000 13.6888 0.0000 0.3978
# 5 5.9227 4.4734 -0.3118 0.0000 40.7529 0.0000
# 6 0.0000 0.0000 0.0000 0.3978 0.0000 15.2679
#
#
#
# Elastic Compliance Matrix: (Units=1/GPa)
#
#
# Indices 1 2 3 4 5 6 
#
# 1 0.016880 -0.003935 -0.000413 0.000000 -0.002024 0.000000
# 2 -0.003935 0.008953 -0.002585 0.000000 -0.000431 0.000000
# 3 -0.000413 -0.002585 0.007200 0.000000 0.000399 0.000000
# 4 0.000000 0.000000 0.000000 0.073108 0.000000 -0.001905
# 5 -0.002024 -0.000431 0.000399 0.000000 0.024883 0.000000
# 6 0.000000 0.000000 0.000000 -0.001905 0.000000 0.065547
#
#
# Mechanical properties :
#
#
# Convention : Reuss Voigt Hill
#
# Bulk Modulus (GPa) = 52.17696 64.28475 58.23085
# Shear Modulus (GPa) = 23.06011 31.65904 27.35957
#
# Velocity S-wave (km/s) = 3.21837 3.77098 3.50558
# Velocity P-wave (km/s) = 6.10302 6.91629 6.52234
#
# Compressibility (1/GPa) = 0.01916555
#
# Stress axis : x y z
#
# Youngs Moduli (GPa) = 59.24243 111.69836 138.89307
#
# Poissons Ratio (x) = 0.43949 0.05742
# Poissons Ratio (y) = 0.23309 0.35909
# Poissons Ratio (z) = 0.02449 0.28878
#
# Static dielectric constant tensor:
#      x y z
#    x 2.063860 0.000000 0.053810 
#    y 0.000000 1.839400 0.000000 
#    z 0.053810 0.000000 2.020680 
# 
# From -- ./inp_files/8105.got.cif
#   From: 2010.05.17/outbox.cif.g08.bks.cpg/sg3_5_cif.got.tgz:8105.got - 2010.06.03 18:33:08.
