data_PCOD9114155
_publ_section_title
;
Structure prediction by ZEFSAII (Michael W. Deem and Ramdas Pophale) SiO2 
 PCOD9114155
Probable space group: P 2
;
_chemical_formula_sum "Si O2"
_cell_formula_units_Z 15
_cell_length_a 19.821924
_cell_length_b 5.334640
_cell_length_c 8.073502
_cell_angle_alpha 90.000000
_cell_angle_beta 134.633910
_cell_angle_gamma 90.000000
_cell_volume 607.512393
_symmetry_space_group_name_H-M "P 2"
_symmetry_group_IT_number 3
_symmetry_cell_setting 'monoclinic'
loop_
_space_group_symop_operation_xyz
x,y,z
-x,y,-z
loop_
_atom_site_type_symbol
_atom_site_label
_atom_site_fract_x
_atom_site_fract_y
_atom_site_fract_z
Si Si1 0.761300 0.252020 0.224554
Si Si2 0.893402 0.085968 0.887915
Si Si3 0.283938 0.625629 0.084115
Si Si4 0.101996 0.922191 0.730465
Si Si5 0.500000 0.290366 0.500000
Si Si6 0.210354 0.578561 0.426880
Si Si7 0.399029 0.671988 0.580598
Si Si8 0.410905 0.939808 0.075709
O O1 0.726184 0.334869 0.979975
O O2 0.850052 0.078405 0.336035
O O3 0.795794 0.483386 0.394862
O O4 0.671970 0.104144 0.155158
O O5 0.840996 0.838446 0.715972
O O6 0.834772 0.340353 0.747675
O O7 0.000000 0.102577 0.000000
O O8 0.903494 0.061198 0.103042
O O9 0.176400 0.706008 0.891492
O O10 0.325757 0.769974 0.315226
O O11 0.352293 0.712964 0.053403
O O12 0.000000 0.832582 0.500000
O O13 0.444185 0.460927 0.537072
O O14 0.443201 0.109192 0.283805
O O15 0.324083 0.592156 0.589046
O O16 0.485920 0.833731 0.800662
#
# Coordination Sequence:
#
# PCOD9114155 Si02
#       8
#     2   2   2   2   1   2   2   2
#     4  11  26  47  73 106 162 201 262 329 400 477
#     4  12  28  53  80 116 158 207 264 329 409 484
#     4  11  21  42  70 106 140 194 258 322 383 462
#     4  11  26  45  78 113 149 202 267 329 393 481
#     4  12  20  38  70 106 146 194 256 328 378 466
#     4  12  30  49  79 114 163 213 254 333 407 481
#     4  12  22  42  72 109 146 201 266 319 389 471
#     4  11  22  39  72 104 144 195 261 321 385 458
#
# _framework density 24.690854000000002
#
# number of rings (size 3 to 8) (size 9 to 14) (size 15 to 20)
#    0.000    0.533    5.333    2.000    9.333    0.533 
#    0.000    4.000    0.000    0.000    0.000    0.000 
#    0.000    0.000    0.000    0.000    0.000    0.000 
#
# Total GULP energy -83646.997439 kJ/mol
# GULP energy per Si atom -5576.466496 kJ/mol
# Density = 2.463466 g / cm^3
# Si number density = 24.690854 Si / 1000 Ang^3
#
#
#
# Elastic Constant Matrix: (Units=GPa)
#
#
# Indices 1 2 3 4 5 6 
#
# 1 116.5011 36.8119 55.7939 0.0000 34.1381 0.0000
# 2 36.8119 68.3930 21.6550 0.0000 22.0641 0.0000
# 3 55.7939 21.6550 131.0192 0.0000 26.4647 0.0000
# 4 0.0000 0.0000 0.0000 87.7048 0.0000 22.1808
# 5 34.1381 22.0641 26.4647 0.0000 58.7801 0.0000
# 6 0.0000 0.0000 0.0000 22.1808 0.0000 29.0498
#
#
#
# Elastic Compliance Matrix: (Units=1/GPa)
#
#
# Indices 1 2 3 4 5 6 
#
# 1 0.013131 -0.004459 -0.004018 0.000000 -0.004143 0.000000
# 2 -0.004459 0.018475 -0.000305 0.000000 -0.004208 0.000000
# 3 -0.004018 -0.000305 0.009790 0.000000 -0.001960 0.000000
# 4 0.000000 0.000000 0.000000 0.014131 0.000000 -0.010789
# 5 -0.004143 -0.004208 -0.001960 0.000000 0.021881 0.000000
# 6 0.000000 0.000000 0.000000 -0.010789 0.000000 0.042662
#
#
# Mechanical properties :
#
#
# Convention : Reuss Voigt Hill
#
# Bulk Modulus (GPa) = 41.95850 60.49279 51.22565
# Shear Modulus (GPa) = 34.34631 48.55044 41.44838
#
# Velocity S-wave (km/s) = 3.73373 4.43915 4.10163
# Velocity P-wave (km/s) = 5.96809 7.12937 6.57442
#
# Compressibility (1/GPa) = 0.02383307
#
# Stress axis : x y z
#
# Youngs Moduli (GPa) = 76.15694 54.12611 102.14848
#
# Poissons Ratio (x) = 0.24133 0.41041
# Poissons Ratio (y) = 0.33956 0.03115
# Poissons Ratio (z) = 0.30598 0.01650
#
# Static dielectric constant tensor:
#      x y z
#    x 1.464960 0.000000 0.677310 
#    y 0.000000 2.060510 0.000000 
#    z 0.677310 0.000000 1.273360 
# 
# From -- ./inp_files/9385.got.cif
#   From: 2010.05.17/outbox.cif.g08.bks.cpg/sg3_5_cif.got.tgz:9385.got - 2010.06.03 18:33:08.
