data_PCOD9114426
_publ_section_title
;
Structure prediction by ZEFSAII (Michael W. Deem and Ramdas Pophale) SiO2 
 PCOD9114426
Probable space group: P 2
;
_chemical_formula_sum "Si O2"
_cell_formula_units_Z 16
_cell_length_a 9.000000
_cell_length_b 6.000000
_cell_length_c 21.000000
_cell_angle_alpha 90.000000
_cell_angle_beta 40.000000
_cell_angle_gamma 90.000000
_cell_volume 728.921149
_symmetry_space_group_name_H-M "P 2"
_symmetry_group_IT_number 3
_symmetry_cell_setting 'monoclinic'
loop_
_space_group_symop_operation_xyz
x,y,z
-x,y,-z
loop_
_atom_site_type_symbol
_atom_site_label
_atom_site_fract_x
_atom_site_fract_y
_atom_site_fract_z
Si Si1 0.717354 0.870400 0.194769
Si Si2 0.068600 0.433187 0.263190
Si Si3 0.540979 0.713682 0.916318
Si Si4 0.974352 0.695552 0.412891
Si Si5 0.949575 0.503728 0.947789
Si Si6 0.770527 0.247894 0.255845
Si Si7 0.353444 0.547430 0.376033
Si Si8 0.667070 0.040704 0.758434
O O1 0.532970 0.687658 0.275551
O O2 0.567643 0.051046 0.205308
O O3 0.922116 0.744132 0.093454
O O4 0.798644 0.989802 0.231452
O O5 0.228593 0.565393 0.161073
O O6 0.944029 0.596681 0.353222
O O7 0.880381 0.298876 0.286964
O O8 0.237422 0.269803 0.246273
O O9 0.589415 0.887181 0.843759
O O10 0.500000 0.812766 0.000000
O O11 0.319894 0.557742 0.973476
O O12 0.138982 0.524892 0.398567
O O13 0.128971 0.917504 0.349654
O O14 0.746156 0.689843 0.531470
O O15 0.074028 0.368931 0.850080
O O16 0.000000 0.396224 0.000000
O O17 0.504751 0.332953 0.344186
#
# Coordination Sequence:
#
# PCOD9114426 Si02
#       8
#     2   2   2   2   2   2   2   2
#     4  10  22  38  60  89 116 150 196 245 286 338
#     4  11  24  38  58  89 121 156 191 234 294 352
#     4  11  23  41  58  83 120 159 195 239 290 345
#     4   9  20  41  65  86 113 153 193 240 294 345
#     4  11  23  41  60  85 116 155 201 243 286 337
#     4  11  24  38  58  89 122 152 192 242 288 347
#     4   9  20  41  65  86 114 150 195 244 289 341
#     4  10  22  38  60  87 118 152 195 240 287 348
#
# _framework density 21.950247999999998
#
# number of rings (size 3 to 8) (size 9 to 14) (size 15 to 20)
#    0.000    1.750    2.500    0.750    5.250    4.500 
#    0.000    2.500    0.000    0.000    0.000    0.000 
#    0.000    0.000    0.000    0.000    0.000    0.000 
#
# Total GULP energy -89236.770059 kJ/mol
# GULP energy per Si atom -5577.298129 kJ/mol
# Density = 2.190029 g / cm^3
# Si number density = 21.950248 Si / 1000 Ang^3
#
#
#
# Elastic Constant Matrix: (Units=GPa)
#
#
# Indices 1 2 3 4 5 6 
#
# 1 42.4742 -12.5333 -3.3642 0.0000 8.0369 0.0000
# 2 -12.5333 3.9057 -24.6828 0.0000 -1.5794 0.0000
# 3 -3.3642 -24.6828 65.7661 0.0000 10.1130 0.0000
# 4 0.0000 0.0000 0.0000 13.5288 0.0000 4.3143
# 5 8.0369 -1.5794 10.1130 0.0000 22.8536 0.0000
# 6 0.0000 0.0000 0.0000 4.3143 0.0000 28.9019
#
#
#
# Elastic Compliance Matrix: (Units=1/GPa)
#
#
# Indices 1 2 3 4 5 6 
#
# 1 0.012910 -0.033925 -0.011818 0.000000 -0.001655 0.000000
# 2 -0.033925 -0.089783 -0.038964 0.000000 0.022968 0.000000
# 3 -0.011818 -0.038964 -0.000266 0.000000 0.001581 0.000000
# 4 0.000000 0.000000 0.000000 0.077611 0.000000 -0.011585
# 5 -0.001655 0.022968 0.001581 0.000000 0.045227 0.000000
# 6 0.000000 0.000000 0.000000 -0.011585 0.000000 0.036329
#
#
# Mechanical properties :
#
#
# Convention : Reuss Voigt Hill
#
# Bulk Modulus (GPa) = -4.05593 3.44280 -0.30657
# Shear Modulus (GPa) = 29.54068 23.23860 26.38964
#
# Velocity S-wave (km/s) = 3.67250 3.25729 3.47111
# Velocity P-wave (km/s) = 4.01636 3.96465 3.99059
#
# Compressibility (1/GPa) = -0.24655246
#
# Stress axis : x y z
#
# Youngs Moduli (GPa) = 77.45846 -11.13798 -3761.94270
#
# Poissons Ratio (x) = -0.37786 -44.45746
# Poissons Ratio (y) = 2.62781 -146.57983
# Poissons Ratio (z) = 0.91538 -0.43398
#
# Static dielectric constant tensor:
#      x y z
#    x 1.845850 0.000000 0.011830 
#    y 0.000000 1.822780 0.000000 
#    z 0.011830 0.000000 1.769620 
# 
# From -- ./inp_files/9326.got.cif
#   From: 2010.05.17/outbox.ucp.g08.bks.cvg/sg3_5_cif.got.tgz:9326.got - 2010.06.11 12:50:29.
