data_PCOD9114384
_publ_section_title
;
Structure prediction by ZEFSAII (Michael W. Deem and Ramdas Pophale) SiO2 
 PCOD9114384
Probable space group: P 2
;
_chemical_formula_sum "Si O2"
_cell_formula_units_Z 9
_cell_length_a 5.095437
_cell_length_b 5.720256
_cell_length_c 12.511220
_cell_angle_alpha 90.000000
_cell_angle_beta 100.857633
_cell_angle_gamma 90.000000
_cell_volume 358.138911
_symmetry_space_group_name_H-M "P 2"
_symmetry_group_IT_number 3
_symmetry_cell_setting 'monoclinic'
loop_
_space_group_symop_operation_xyz
x,y,z
-x,y,-z
loop_
_atom_site_type_symbol
_atom_site_label
_atom_site_fract_x
_atom_site_fract_y
_atom_site_fract_z
Si Si1 0.024839 0.782280 0.187351
Si Si2 0.409845 0.146440 0.283903
Si Si3 0.838548 0.775382 0.395465
Si Si4 0.501083 0.516644 0.116585
Si Si5 0.500000 0.403978 0.500000
O O1 0.225542 0.637461 0.129426
O O2 0.027433 0.701972 0.312124
O O3 0.728426 0.716777 0.128177
O O4 0.145533 0.042577 0.206520
O O5 0.546354 0.330315 0.214297
O O6 0.359625 0.253828 0.396581
O O7 0.612370 0.934918 0.324676
O O8 0.702176 0.565767 0.448930
O O9 0.000000 0.908985 0.500000
O O10 0.500000 0.402109 0.000000
#
# Coordination Sequence:
#
# PCOD9114384 Si02
#       5
#     2   2   2   2   1
#     4  12  26  54  78 116 161 206 270 334 399 481
#     4  12  26  49  82 121 159 219 265 330 411 491
#     4  12  25  46  76 121 160 213 264 328 403 487
#     4  12  29  55  82 115 161 212 271 340 405 475
#     4  12  24  48  76 120 166 216 262 332 406 492
#
# _framework density 25.129915
#
# number of rings (size 3 to 8) (size 9 to 14) (size 15 to 20)
#    0.000    0.000    4.444    5.333    3.111    3.556 
#    8.000    0.000    0.000    0.000    0.000    0.000 
#    0.000    0.000    0.000    0.000    0.000    0.000 
#
# Total GULP energy -50399.242821 kJ/mol
# GULP energy per Si atom -5599.915869 kJ/mol
# Density = 2.507272 g / cm^3
# Si number density = 25.129915 Si / 1000 Ang^3
#
#
#
# Elastic Constant Matrix: (Units=GPa)
#
#
# Indices 1 2 3 4 5 6 
#
# 1 135.2731 30.1338 26.8708 0.0000 -26.5728 0.0000
# 2 30.1338 80.2628 29.9876 0.0000 -14.9524 0.0000
# 3 26.8708 29.9876 158.6096 0.0000 -40.8070 0.0000
# 4 0.0000 0.0000 0.0000 25.0253 0.0000 -9.7919
# 5 -26.5728 -14.9524 -40.8070 0.0000 45.8096 0.0000
# 6 0.0000 0.0000 0.0000 -9.7919 0.0000 27.8000
#
#
#
# Elastic Compliance Matrix: (Units=1/GPa)
#
#
# Indices 1 2 3 4 5 6 
#
# 1 0.008793 -0.002529 0.000115 0.000000 0.004377 0.000000
# 2 -0.002529 0.014405 -0.001898 0.000000 0.001545 0.000000
# 3 0.000115 -0.001898 0.008435 0.000000 0.006961 0.000000
# 4 0.000000 0.000000 0.000000 0.046347 0.000000 0.016325
# 5 0.004377 0.001545 0.006961 0.000000 0.031074 0.000000
# 6 0.000000 0.000000 0.000000 0.016325 0.000000 0.041721
#
#
# Mechanical properties :
#
#
# Convention : Reuss Voigt Hill
#
# Bulk Modulus (GPa) = 43.45994 60.90333 52.18163
# Shear Modulus (GPa) = 29.92790 38.87054 34.39922
#
# Velocity S-wave (km/s) = 3.45473 3.93718 3.70382
# Velocity P-wave (km/s) = 5.76586 6.70496 6.25307
#
# Compressibility (1/GPa) = 0.02300970
#
# Stress axis : x y z
#
# Youngs Moduli (GPa) = 113.72931 69.41955 118.55240
#
# Poissons Ratio (x) = 0.17553 -0.01359
# Poissons Ratio (y) = 0.28757 0.22498
# Poissons Ratio (z) = -0.01303 0.13174
#
# Static dielectric constant tensor:
#      x y z
#    x 2.025460 0.000000 0.066550 
#    y 0.000000 2.010140 0.000000 
#    z 0.066550 0.000000 1.991440 
# 
# From -- ./inp_files/1833.got.cif
#   From: 2010.05.17/outbox.cif.g08.bks.cpg/sg3_1_cif.got.tgz:1833.got - 2010.06.03 18:33:08.
