data_PCOD9114366
_publ_section_title
;
Structure prediction by ZEFSAII (Michael W. Deem and Ramdas Pophale) SiO2 
 PCOD9114366
Probable space group: P 2
;
_chemical_formula_sum "Si O2"
_cell_formula_units_Z 13
_cell_length_a 11.129989
_cell_length_b 9.508939
_cell_length_c 8.276600
_cell_angle_alpha 90.000000
_cell_angle_beta 41.628177
_cell_angle_gamma 90.000000
_cell_volume 581.887487
_symmetry_space_group_name_H-M "P 2"
_symmetry_group_IT_number 3
_symmetry_cell_setting 'monoclinic'
loop_
_space_group_symop_operation_xyz
x,y,z
-x,y,-z
loop_
_atom_site_type_symbol
_atom_site_label
_atom_site_fract_x
_atom_site_fract_y
_atom_site_fract_z
Si Si1 0.916717 0.997850 0.259174
Si Si2 0.859317 0.276560 0.493813
Si Si3 0.758214 0.750820 0.575791
Si Si4 0.036468 0.547597 0.155195
Si Si5 0.423418 0.658706 0.755028
Si Si6 0.285075 0.927572 0.054743
Si Si7 0.500000 0.178671 0.000000
O O1 0.771629 0.875458 0.430242
O O2 0.083067 0.969832 0.212935
O O3 0.845059 0.147324 0.384486
O O4 0.000000 0.996681 0.000000
O O5 0.658732 0.276398 0.770364
O O6 0.000000 0.251650 0.500000
O O7 0.941801 0.406291 0.311718
O O8 0.592906 0.647800 0.704476
O O9 0.725546 0.831923 0.773959
O O10 0.941668 0.666195 0.360765
O O11 0.251501 0.560395 0.962035
O O12 0.000000 0.572133 0.000000
O O13 0.500000 0.633576 0.500000
O O14 0.356888 0.819967 0.847258
O O15 0.403222 0.066738 0.973528
#
# Coordination Sequence:
#
# PCOD9114366 Si02
#       7
#     2   2   2   2   2   2   1
#     4  12  23  44  76 108 150 195 239 305 375 435
#     4  12  27  48  74 101 147 198 250 303 369 441
#     4  12  23  44  73 109 143 190 242 305 366 437
#     4  12  28  48  68 105 151 197 245 305 372 438
#     4  12  24  42  71 107 146 188 241 301 370 437
#     4  12  23  43  78 111 147 187 243 305 370 438
#     4  12  24  48  72 112 140 188 254 304 358 444
#
# _framework density 22.341087000000002
#
# number of rings (size 3 to 8) (size 9 to 14) (size 15 to 20)
#    0.000    0.000    7.692    2.308    2.154    1.231 
#    0.000    0.000    0.000    0.000    0.000    0.000 
#    0.000    0.000    0.000    0.000    0.000    0.000 
#
# Total GULP energy -72712.566674 kJ/mol
# GULP energy per Si atom -5593.274360 kJ/mol
# Density = 2.229024 g / cm^3
# Si number density = 22.341087 Si / 1000 Ang^3
#
#
#
# Elastic Constant Matrix: (Units=GPa)
#
#
# Indices 1 2 3 4 5 6 
#
# 1 85.2305 -6.4940 56.0771 0.0000 -6.7462 0.0000
# 2 -6.4940 61.0648 60.8217 0.0000 -8.1172 0.0000
# 3 56.0771 60.8217 179.3640 0.0000 -23.5218 0.0000
# 4 0.0000 0.0000 0.0000 43.6239 0.0000 -3.2545
# 5 -6.7462 -8.1172 -23.5218 0.0000 42.7305 0.0000
# 6 0.0000 0.0000 0.0000 -3.2545 0.0000 3.7951
#
#
#
# Elastic Compliance Matrix: (Units=1/GPa)
#
#
# Indices 1 2 3 4 5 6 
#
# 1 0.019380 0.012224 -0.010237 0.000000 -0.000254 0.000000
# 2 0.012224 0.032438 -0.014831 0.000000 -0.000072 0.000000
# 3 -0.010237 -0.014831 0.014252 0.000000 0.003412 0.000000
# 4 0.000000 0.000000 0.000000 0.024490 0.000000 0.021001
# 5 -0.000254 -0.000072 0.003412 0.000000 0.025227 0.000000
# 6 0.000000 0.000000 0.000000 0.021001 0.000000 0.281504
#
#
# Mechanical properties :
#
#
# Convention : Reuss Voigt Hill
#
# Bulk Modulus (GPa) = 24.76367 60.71877 42.74122
# Shear Modulus (GPa) = 11.45631 32.38021 21.91826
#
# Velocity S-wave (km/s) = 2.26695 3.81117 3.13561
# Velocity P-wave (km/s) = 4.23798 6.82670 5.68174
#
# Compressibility (1/GPa) = 0.04038174
#
# Stress axis : x y z
#
# Youngs Moduli (GPa) = 51.60023 30.82786 70.16366
#
# Poissons Ratio (x) = -0.37683 0.71828
# Poissons Ratio (y) = -0.63075 1.04058
# Poissons Ratio (z) = 0.52825 0.45720
#
# Static dielectric constant tensor:
#      x y z
#    x 1.873090 0.000000 -0.034650 
#    y 0.000000 1.847670 0.000000 
#    z -0.034650 0.000000 1.846640 
# 
# From -- ./inp_files/7309.got.cif
#   From: 2010.05.17/outbox.cif.g08.bks.cpg/sg3_4_cif.got.tgz:7309.got - 2010.06.03 18:33:08.
