data_PCOD9114180
_publ_section_title
;
Structure prediction by ZEFSAII (Michael W. Deem and Ramdas Pophale) SiO2 
 PCOD9114180
Probable space group: P 2
;
_chemical_formula_sum "Si O2"
_cell_formula_units_Z 13
_cell_length_a 11.696861
_cell_length_b 5.267841
_cell_length_c 8.511699
_cell_angle_alpha 90.000000
_cell_angle_beta 106.220321
_cell_angle_gamma 90.000000
_cell_volume 503.590511
_symmetry_space_group_name_H-M "P 2"
_symmetry_group_IT_number 3
_symmetry_cell_setting 'monoclinic'
loop_
_space_group_symop_operation_xyz
x,y,z
-x,y,-z
loop_
_atom_site_type_symbol
_atom_site_label
_atom_site_fract_x
_atom_site_fract_y
_atom_site_fract_z
Si Si1 0.098888 0.258460 0.257689
Si Si2 0.865644 0.524917 0.226953
Si Si3 0.621164 0.600639 0.946638
Si Si4 0.379782 0.879330 0.536922
Si Si5 0.304561 0.098185 0.186205
Si Si6 0.718624 0.372212 0.417142
Si Si7 0.000000 0.907024 0.500000
O O1 0.161481 0.149485 0.124625
O O2 0.205689 0.402272 0.392713
O O3 0.986361 0.440250 0.189498
O O4 0.055915 0.061778 0.375732
O O5 0.751361 0.591513 0.080833
O O6 0.810945 0.302855 0.315868
O O7 0.905483 0.727432 0.374280
O O8 0.500000 0.561391 0.000000
O O9 0.633941 0.369435 0.825626
O O10 0.625607 0.888312 0.885922
O O11 0.500000 0.801399 0.500000
O O12 0.339776 0.646346 0.625878
O O13 0.303451 0.962993 0.356811
O O14 0.378858 0.150631 0.621383
#
# Coordination Sequence:
#
# PCOD9114180 Si02
#       7
#     2   2   2   2   2   2   1
#     4  11  24  45  76 110 153 183 241 318 379 442
#     4  12  26  43  78 108 148 200 242 309 374 438
#     4  12  31  53  75 104 154 209 253 298 363 458
#     4  11  25  41  75 105 144 193 247 314 368 431
#     4  11  27  51  71 107 150 196 252 305 367 442
#     4  11  22  42  70 111 143 182 241 310 379 430
#     4  12  22  46  78 116 150 182 250 316 384 432
#
# _framework density 25.814623000000001
#
# number of rings (size 3 to 8) (size 9 to 14) (size 15 to 20)
#    0.000    0.615    3.077    4.615    8.615    0.615 
#    0.000    0.000    0.000    0.000    0.000    0.000 
#    0.000    0.000    0.000    0.000    0.000    0.000 
#
# Total GULP energy -72526.078987 kJ/mol
# GULP energy per Si atom -5578.929153 kJ/mol
# Density = 2.575587 g / cm^3
# Si number density = 25.814623 Si / 1000 Ang^3
#
#
#
# Elastic Constant Matrix: (Units=GPa)
#
#
# Indices 1 2 3 4 5 6 
#
# 1 171.5951 59.1032 14.0081 0.0000 -31.1717 0.0000
# 2 59.1032 143.0750 22.1593 0.0000 -12.9484 0.0000
# 3 14.0081 22.1593 33.6074 0.0000 8.5823 0.0000
# 4 0.0000 0.0000 0.0000 23.7875 0.0000 -12.1764
# 5 -31.1717 -12.9484 8.5823 0.0000 54.8118 0.0000
# 6 0.0000 0.0000 0.0000 -12.1764 0.0000 47.2505
#
#
#
# Elastic Compliance Matrix: (Units=1/GPa)
#
#
# Indices 1 2 3 4 5 6 
#
# 1 0.007621 -0.002350 -0.002700 0.000000 0.004202 0.000000
# 2 -0.002350 0.008929 -0.005318 0.000000 0.001606 0.000000
# 3 -0.002700 -0.005318 0.036562 0.000000 -0.008517 0.000000
# 4 0.000000 0.000000 0.000000 0.048427 0.000000 0.012480
# 5 0.004202 0.001606 -0.008517 0.000000 0.022347 0.000000
# 6 0.000000 0.000000 0.000000 0.012480 0.000000 0.024380
#
#
# Mechanical properties :
#
#
# Convention : Reuss Voigt Hill
#
# Bulk Modulus (GPa) = 30.88689 59.86875 45.37782
# Shear Modulus (GPa) = 27.80977 42.03708 34.92343
#
# Velocity S-wave (km/s) = 3.28577 4.03975 3.68211
# Velocity P-wave (km/s) = 5.13672 6.70832 5.97442
#
# Compressibility (1/GPa) = 0.03237620
#
# Stress axis : x y z
#
# Youngs Moduli (GPa) = 131.22268 111.99571 27.35058
#
# Poissons Ratio (x) = 0.26314 0.07385
# Poissons Ratio (y) = 0.30832 0.14545
# Poissons Ratio (z) = 0.35432 0.59560
#
# Static dielectric constant tensor:
#      x y z
#    x 2.105940 0.000000 0.083500 
#    y 0.000000 2.100270 0.000000 
#    z 0.083500 0.000000 2.191860 
# 
# From -- ./inp_files/6723.got.cif
#   From: 2010.05.17/outbox.cif.g08.bks.cpg/sg3_4_cif.got.tgz:6723.got - 2010.06.03 18:33:08.
