data_PCOD9114292
_publ_section_title
;
Structure prediction by ZEFSAII (Michael W. Deem and Ramdas Pophale) SiO2 
 PCOD9114292
Probable space group: P 2
;
_chemical_formula_sum "Si O2"
_cell_formula_units_Z 15
_cell_length_a 23.688722
_cell_length_b 6.662115
_cell_length_c 7.166084
_cell_angle_alpha 90.000000
_cell_angle_beta 144.514746
_cell_angle_gamma 90.000000
_cell_volume 656.497302
_symmetry_space_group_name_H-M "P 2"
_symmetry_group_IT_number 3
_symmetry_cell_setting 'monoclinic'
loop_
_space_group_symop_operation_xyz
x,y,z
-x,y,-z
loop_
_atom_site_type_symbol
_atom_site_label
_atom_site_fract_x
_atom_site_fract_y
_atom_site_fract_z
Si Si1 0.826592 0.373680 0.157912
Si Si2 0.102730 0.843455 0.287060
Si Si3 0.609079 0.287834 0.449830
Si Si4 0.114591 0.825767 0.746042
Si Si5 0.775083 0.461953 0.420677
Si Si6 0.500000 0.908336 0.000000
Si Si7 0.854493 0.137550 0.906834
Si Si8 0.568147 0.529357 0.960576
O O1 0.847203 0.601254 0.158442
O O2 0.831946 0.373498 0.394947
O O3 0.819079 0.943220 0.926980
O O4 0.894387 0.250607 0.197917
O O5 0.124065 0.901451 0.558118
O O6 0.180762 0.682305 0.427169
O O7 0.090527 0.029350 0.114223
O O8 0.000000 0.730195 0.000000
O O9 0.716593 0.302650 0.819214
O O10 0.602758 0.422195 0.245665
O O11 0.526486 0.400245 0.350534
O O12 0.575440 0.063715 0.300716
O O13 0.000000 0.832111 0.500000
O O14 0.791722 0.303785 0.631308
O O15 0.661040 0.501227 0.079198
O O16 0.457398 0.756807 0.043970
#
# Coordination Sequence:
#
# PCOD9114292 Si02
#       8
#     2   2   2   2   2   1   2   2
#     4  11  25  43  69 102 139 179 228 286 343 405
#     4  11  25  45  66 100 136 180 233 282 340 412
#     4   9  19  37  63 101 131 175 228 276 336 410
#     4  11  25  47  66  98 139 182 231 282 343 409
#     4  11  25  43  69 102 138 180 229 284 344 406
#     4   8  18  34  66 100 130 174 232 268 346 400
#     4  12  24  43  69  96 132 181 225 282 335 410
#     4   9  19  37  64  97 132 178 219 280 342 402
#
# _framework density 22.848533
#
# number of rings (size 3 to 8) (size 9 to 14) (size 15 to 20)
#    0.000    1.867    2.667    1.600    1.867    2.667 
#    4.800    0.000    0.000    6.400    0.000    0.000 
#    0.000    0.000    0.000    0.000    0.000    0.000 
#
# Total GULP energy -83540.579497 kJ/mol
# GULP energy per Si atom -5569.371966 kJ/mol
# Density = 2.279653 g / cm^3
# Si number density = 22.848533 Si / 1000 Ang^3
#
#
#
# Elastic Constant Matrix: (Units=GPa)
#
#
# Indices 1 2 3 4 5 6 
#
# 1 111.9831 71.3369 44.5421 0.0000 -14.2236 0.0000
# 2 71.3369 131.1801 31.3415 0.0000 2.0301 0.0000
# 3 44.5421 31.3415 82.7937 0.0000 18.9258 0.0000
# 4 0.0000 0.0000 0.0000 21.1777 0.0000 -8.1761
# 5 -14.2236 2.0301 18.9258 0.0000 46.2266 0.0000
# 6 0.0000 0.0000 0.0000 -8.1761 0.0000 46.9631
#
#
#
# Elastic Compliance Matrix: (Units=1/GPa)
#
#
# Indices 1 2 3 4 5 6 
#
# 1 0.019428 -0.008428 -0.009613 0.000000 0.010284 0.000000
# 2 -0.008428 0.012081 0.000744 0.000000 -0.003429 0.000000
# 3 -0.009613 0.000744 0.019474 0.000000 -0.010963 0.000000
# 4 0.000000 0.000000 0.000000 0.050622 0.000000 0.008813
# 5 0.010284 -0.003429 -0.010963 0.000000 0.029436 0.000000
# 6 0.000000 0.000000 0.000000 0.008813 0.000000 0.022828
#
#
# Mechanical properties :
#
#
# Convention : Reuss Voigt Hill
#
# Bulk Modulus (GPa) = 61.00651 68.93309 64.96980
# Shear Modulus (GPa) = 25.78305 34.78922 30.28613
#
# Velocity S-wave (km/s) = 3.36286 3.90629 3.64472
# Velocity P-wave (km/s) = 6.46814 7.11200 6.79770
#
# Compressibility (1/GPa) = 0.01639169
#
# Stress axis : x y z
#
# Youngs Moduli (GPa) = 51.47097 82.77149 51.35029
#
# Poissons Ratio (x) = 0.69758 0.49361
# Poissons Ratio (y) = 0.43379 -0.03822
# Poissons Ratio (z) = 0.49477 -0.06161
#
# Static dielectric constant tensor:
#      x y z
#    x 1.930530 0.000000 0.000600 
#    y 0.000000 1.882580 0.000000 
#    z 0.000600 0.000000 1.798640 
# 
# From -- ./inp_files/9531.got.cif
#   From: 2010.05.17/outbox.cif.g08.bks.cpg/sg3_5_cif.got.tgz:9531.got - 2010.06.03 18:33:08.
