data_PCOD9114837
_publ_section_title
;
Structure prediction by ZEFSAII (Michael W. Deem and Ramdas Pophale) SiO2 
 PCOD9114837
Probable space group: P 21
;
_chemical_formula_sum "Si O2"
_cell_formula_units_Z 16
_cell_length_a 7.467134
_cell_length_b 16.996358
_cell_length_c 8.054839
_cell_angle_alpha 90.000000
_cell_angle_beta 53.424800
_cell_angle_gamma 90.000000
_cell_volume 820.961972
_symmetry_space_group_name_H-M "P 21"
_symmetry_group_IT_number 4
_symmetry_cell_setting 'monoclinic'
loop_
_space_group_symop_operation_xyz
x,y,z
-x,1/2+y,-z
loop_
_atom_site_type_symbol
_atom_site_label
_atom_site_fract_x
_atom_site_fract_y
_atom_site_fract_z
Si Si1 0.724958 0.612380 0.056978
Si Si2 0.104113 0.328130 0.797353
Si Si3 0.701908 0.352462 0.781358
Si Si4 0.477892 0.738940 0.396405
Si Si5 0.493081 0.954695 0.827232
Si Si6 0.989139 0.749535 0.795106
Si Si7 0.951102 0.912508 0.631659
Si Si8 0.034285 0.974015 0.938252
O O1 0.595436 0.659069 0.272834
O O2 0.559786 0.543877 0.085656
O O3 0.932195 0.562382 0.017220
O O4 0.824059 0.675393 0.874508
O O5 0.339974 0.292874 0.611304
O O6 0.911625 0.318558 0.768321
O O7 0.039284 0.281031 0.001326
O O8 0.104223 0.418587 0.860450
O O9 0.579074 0.287696 0.740303
O O10 0.817184 0.415009 0.594046
O O11 0.546518 0.396192 0.997542
O O12 0.245579 0.728058 0.618144
O O13 0.744220 0.939719 0.634260
O O14 0.290770 0.940395 0.809930
O O15 0.932355 0.822142 0.705091
O O16 0.952842 0.964099 0.797218
#
# Coordination Sequence:
#
# PCOD9114837 Si02
#       8
#     2   2   2   2   2   2   2   2
#     4   9  19  37  55  76 114 144 174 217 279 320
#     4   9  18  36  56  78 105 138 183 220 264 315
#     4  10  20  33  58  83 104 135 187 225 257 316
#     4  10  20  37  57  79 108 146 179 223 268 316
#     4   9  19  35  54  79 108 143 174 220 273 313
#     4   9  19  36  58  76 109 145 179 221 266 319
#     4  10  19  35  58  79 102 140 185 223 258 314
#     4   8  18  35  54  78 108 139 175 225 263 317
#
# _framework density 19.489329999999999
#
# number of rings (size 3 to 8) (size 9 to 14) (size 15 to 20)
#    0.750    2.000    0.000    2.250    0.000    5.000 
#    4.500    1.250    0.000    0.000    0.000    0.000 
#    0.000    0.000    0.000    0.000    0.000    0.000 
#
# Total GULP energy -89101.306898 kJ/mol
# GULP energy per Si atom -5568.831681 kJ/mol
# Density = 1.944497 g / cm^3
# Si number density = 19.489330 Si / 1000 Ang^3
#
#
#
# Elastic Constant Matrix: (Units=GPa)
#
#
# Indices 1 2 3 4 5 6 
#
# 1 45.9862 8.8560 -0.0533 0.0000 -2.1975 0.0000
# 2 8.8560 58.3701 9.5077 0.0000 -15.7518 0.0000
# 3 -0.0533 9.5077 44.6724 0.0000 -17.8225 0.0000
# 4 0.0000 0.0000 0.0000 14.2843 0.0000 -6.9858
# 5 -2.1975 -15.7518 -17.8225 0.0000 31.6140 0.0000
# 6 0.0000 0.0000 0.0000 -6.9858 0.0000 17.0890
#
#
#
# Elastic Compliance Matrix: (Units=1/GPa)
#
#
# Indices 1 2 3 4 5 6 
#
# 1 0.022429 -0.003457 0.000900 0.000000 0.000344 0.000000
# 2 -0.003457 0.020331 -0.000497 0.000000 0.009609 0.000000
# 3 0.000900 -0.000497 0.028923 0.000000 0.016120 0.000000
# 4 0.000000 0.000000 0.000000 0.087500 0.000000 0.035769
# 5 0.000344 0.009609 0.016120 0.000000 0.045531 0.000000
# 6 0.000000 0.000000 0.000000 0.035769 0.000000 0.073139
#
#
# Mechanical properties :
#
#
# Convention : Reuss Voigt Hill
#
# Bulk Modulus (GPa) = 15.24993 20.62770 17.93882
# Shear Modulus (GPa) = 16.34948 21.31203 18.83075
#
# Velocity S-wave (km/s) = 2.89951 3.31043 3.11176
# Velocity P-wave (km/s) = 4.36478 5.02186 4.70480
#
# Compressibility (1/GPa) = 0.06557407
#
# Stress axis : x y z
#
# Youngs Moduli (GPa) = 44.58553 49.18685 34.57397
#
# Poissons Ratio (x) = 0.17002 -0.03111
# Poissons Ratio (y) = 0.15412 0.01720
# Poissons Ratio (z) = -0.04011 0.02447
#
# Static dielectric constant tensor:
#      x y z
#    x 1.687790 0.000000 -0.021910 
#    y 0.000000 1.702410 0.000000 
#    z -0.021910 0.000000 1.704520 
# 
# From -- ./inp_files/6586.got.cif
#   From: 2010.05.17/outbox.cif.g08.bks.cpg/sg4_4_cif.got.tgz:6586.got - 2010.06.03 18:43:04.
