data_PCOD9114862
_publ_section_title
;
Structure prediction by ZEFSAII (Michael W. Deem and Ramdas Pophale) SiO2 
 PCOD9114862
Probable space group: P 21
;
_chemical_formula_sum "Si O2"
_cell_formula_units_Z 14
_cell_length_a 11.883126
_cell_length_b 7.816264
_cell_length_c 11.987891
_cell_angle_alpha 90.000000
_cell_angle_beta 37.352110
_cell_angle_gamma 90.000000
_cell_volume 675.546151
_symmetry_space_group_name_H-M "P 21"
_symmetry_group_IT_number 4
_symmetry_cell_setting 'monoclinic'
loop_
_space_group_symop_operation_xyz
x,y,z
-x,1/2+y,-z
loop_
_atom_site_type_symbol
_atom_site_label
_atom_site_fract_x
_atom_site_fract_y
_atom_site_fract_z
Si Si1 0.608592 0.922590 0.107610
Si Si2 0.926058 0.083546 0.954105
Si Si3 0.881142 0.214307 0.233204
Si Si4 0.500223 0.392928 0.565156
Si Si5 0.268484 0.237679 0.572930
Si Si6 0.805789 0.551680 0.585241
Si Si7 0.916797 0.748876 0.717846
O O1 0.603269 0.843678 0.237883
O O2 0.397441 0.964216 0.242149
O O3 0.724592 0.816819 0.924909
O O4 0.735542 0.089338 0.034249
O O5 0.076522 0.213409 0.788803
O O6 0.897828 0.112934 0.106235
O O7 0.011618 0.895577 0.868193
O O8 0.671432 0.265887 0.418733
O O9 0.975250 0.144101 0.270716
O O10 0.378743 0.386338 0.548804
O O11 0.598249 0.574528 0.507161
O O12 0.223483 0.208886 0.478974
O O13 0.877967 0.631327 0.642612
O O14 0.950037 0.410836 0.421181
#
# Coordination Sequence:
#
# PCOD9114862 Si02
#       7
#     2   2   2   2   2   2   2
#     4  10  20  42  62  90 124 156 202 268 302 358
#     4  10  19  35  64  86 124 151 194 253 318 354
#     4  10  19  38  59  92 120 158 195 254 308 364
#     4  10  19  35  64  86 124 151 194 253 318 354
#     4  10  19  38  59  92 120 158 195 254 308 364
#     4  11  23  44  63  87 129 170 209 258 302 368
#     4  11  23  44  63  87 129 170 209 258 302 368
#
# _framework density 20.723973000000001
#
# number of rings (size 3 to 8) (size 9 to 14) (size 15 to 20)
#    0.000    1.714    5.714    3.429    0.000    1.143 
#    7.714    2.857    0.000    0.000    0.000    0.000 
#    0.000    0.000    0.000    0.000    0.000    0.000 
#
# Total GULP energy -78100.110563 kJ/mol
# GULP energy per Si atom -5578.579326 kJ/mol
# Density = 2.067680 g / cm^3
# Si number density = 20.723973 Si / 1000 Ang^3
#
#
#
# Elastic Constant Matrix: (Units=GPa)
#
#
# Indices 1 2 3 4 5 6 
#
# 1 83.3804 3.1448 20.2572 0.0000 6.3479 0.0000
# 2 3.1448 29.6695 9.8082 0.0000 1.3910 0.0000
# 3 20.2572 9.8082 131.0350 0.0000 -10.9006 0.0000
# 4 0.0000 0.0000 0.0000 22.3823 0.0000 10.7604
# 5 6.3479 1.3910 -10.9006 0.0000 36.8490 0.0000
# 6 0.0000 0.0000 0.0000 10.7604 0.0000 33.9288
#
#
#
# Elastic Compliance Matrix: (Units=1/GPa)
#
#
# Indices 1 2 3 4 5 6 
#
# 1 0.012754 -0.000503 -0.002169 0.000000 -0.002820 0.000000
# 2 -0.000503 0.034742 -0.002691 0.000000 -0.002021 0.000000
# 3 -0.002169 -0.002691 0.008415 0.000000 0.002964 0.000000
# 4 0.000000 0.000000 0.000000 0.052716 0.000000 -0.016719
# 5 -0.002820 -0.002021 0.002964 0.000000 0.028577 0.000000
# 6 0.000000 0.000000 0.000000 -0.016719 0.000000 0.034776
#
#
# Mechanical properties :
#
#
# Convention : Reuss Voigt Hill
#
# Bulk Modulus (GPa) = 22.13058 34.50060 28.31559
# Shear Modulus (GPa) = 25.28245 32.69032 28.98638
#
# Velocity S-wave (km/s) = 3.49658 3.97598 3.74396
# Velocity P-wave (km/s) = 5.19648 6.14505 5.69057
#
# Compressibility (1/GPa) = 0.04518634
#
# Stress axis : x y z
#
# Youngs Moduli (GPa) = 78.40862 28.78335 118.83799
#
# Poissons Ratio (x) = 0.01447 0.25771
# Poissons Ratio (y) = 0.03942 0.31978
# Poissons Ratio (z) = 0.17003 0.07745
#
# Static dielectric constant tensor:
#      x y z
#    x 1.768210 0.000000 -0.011880 
#    y 0.000000 1.799000 0.000000 
#    z -0.011880 0.000000 1.771100 
# 
# From -- ./inp_files/11827.got.cif
#   From: 2010.05.17/outbox.cif.g08.bks.cpg/sg4_6_cif.got.tgz:11827.got - 2010.06.03 18:43:04.
