data_PCOD9114427
_publ_section_title
;
Structure prediction by ZEFSAII (Michael W. Deem and Ramdas Pophale) SiO2 
 PCOD9114427
Probable space group: P 2
;
_chemical_formula_sum "Si O2"
_cell_formula_units_Z 14
_cell_length_a 6.000000
_cell_length_b 6.000000
_cell_length_c 18.000000
_cell_angle_alpha 90.000000
_cell_angle_beta 80.000000
_cell_angle_gamma 90.000000
_cell_volume 638.155424
_symmetry_space_group_name_H-M "P 2"
_symmetry_group_IT_number 3
_symmetry_cell_setting 'monoclinic'
loop_
_space_group_symop_operation_xyz
x,y,z
-x,y,-z
loop_
_atom_site_type_symbol
_atom_site_label
_atom_site_fract_x
_atom_site_fract_y
_atom_site_fract_z
Si Si1 0.559545 0.478190 0.356064
Si Si2 0.742726 0.117187 0.711587
Si Si3 0.100275 0.252610 0.069595
Si Si4 0.040348 0.476707 0.782148
Si Si5 0.500000 0.211456 0.500000
Si Si6 0.327580 0.849969 0.146735
Si Si7 0.801614 0.851703 0.568270
Si Si8 0.500000 0.591545 0.000000
O O1 0.425621 0.284604 0.320302
O O2 0.627353 0.362902 0.430740
O O3 0.382419 0.668036 0.393803
O O4 0.755590 0.548434 0.285435
O O5 0.915102 0.278586 0.744649
O O6 0.603735 0.967506 0.779419
O O7 0.871267 0.965783 0.642778
O O8 0.922266 0.367602 0.137639
O O9 0.282668 0.435357 0.029522
O O10 0.218840 0.051623 0.106169
O O11 0.000000 0.157085 0.000000
O O12 0.861686 0.672661 0.813195
O O13 0.675546 0.047634 0.530341
O O14 0.500852 0.735952 0.077397
O O15 0.000000 0.771351 0.500000
#
# Coordination Sequence:
#
# PCOD9114427 Si02
#       8
#     2   2   2   2   1   2   2   1
#     4  11  24  41  65  92 123 163 207 254 305 364
#     4  10  23  42  63  90 124 162 203 255 309 361
#     4  10  23  41  62  90 125 162 202 251 306 363
#     4  10  23  42  61  89 125 160 203 253 304 364
#     4  10  24  42  62  90 124 162 204 256 308 362
#     4  10  22  41  65  90 124 163 203 253 305 363
#     4  11  24  41  64  92 123 163 206 252 308 365
#     4  10  22  42  64  90 124 162 204 254 304 362
#
# _framework density 21.938229
#
# number of rings (size 3 to 8) (size 9 to 14) (size 15 to 20)
#    0.000    1.714    0.000    2.571    0.000   19.429 
#    0.000    2.857    0.000    0.000    0.000    0.000 
#    0.000    0.000    0.000    0.000    0.000    0.000 
#
# Total GULP energy -78139.667945 kJ/mol
# GULP energy per Si atom -5581.404853 kJ/mol
# Density = 2.188830 g / cm^3
# Si number density = 21.938229 Si / 1000 Ang^3
#
#
#
# Elastic Constant Matrix: (Units=GPa)
#
#
# Indices 1 2 3 4 5 6 
#
# 1 39.8559 22.6956 54.1603 0.0000 -26.1290 0.0000
# 2 22.6956 110.1430 70.2057 0.0000 -15.1485 0.0000
# 3 54.1603 70.2057 224.7922 0.0000 -33.8459 0.0000
# 4 0.0000 0.0000 0.0000 58.0360 0.0000 -0.7074
# 5 -26.1290 -15.1485 -33.8459 0.0000 57.9306 0.0000
# 6 0.0000 0.0000 0.0000 -0.7074 0.0000 23.8422
#
#
#
# Elastic Compliance Matrix: (Units=1/GPa)
#
#
# Indices 1 2 3 4 5 6 
#
# 1 0.048807 -0.002347 -0.008557 0.000000 0.016401 0.000000
# 2 -0.002347 0.011500 -0.002996 0.000000 0.000198 0.000000
# 3 -0.008557 -0.002996 0.007398 0.000000 -0.000321 0.000000
# 4 0.000000 0.000000 0.000000 0.017237 0.000000 0.000511
# 5 0.016401 0.000198 -0.000321 0.000000 0.024524 0.000000
# 6 0.000000 0.000000 0.000000 0.000511 0.000000 0.041958
#
#
# Mechanical properties :
#
#
# Convention : Reuss Voigt Hill
#
# Bulk Modulus (GPa) = 25.06011 74.32380 49.69195
# Shear Modulus (GPa) = 25.97070 43.14371 34.55720
#
# Velocity S-wave (km/s) = 3.44439 4.43945 3.97319
# Velocity P-wave (km/s) = 5.22171 7.76083 6.61425
#
# Compressibility (1/GPa) = 0.03990406
#
# Stress axis : x y z
#
# Youngs Moduli (GPa) = 20.48883 86.95822 135.17785
#
# Poissons Ratio (x) = 0.20410 1.15671
# Poissons Ratio (y) = 0.04809 0.40503
# Poissons Ratio (z) = 0.17532 0.26055
#
# Static dielectric constant tensor:
#      x y z
#    x 1.835580 0.000000 0.039420 
#    y 0.000000 1.824610 0.000000 
#    z 0.039420 0.000000 1.824320 
# 
# From -- ./inp_files/14576.got.cif
#   From: 2010.05.17/outbox.ucp.g08.bks.cvg/sg3_8_cif.got.tgz:14576.got - 2010.06.11 12:50:29.
