data_PCOD9114614
_publ_section_title
;
Structure prediction by ZEFSAII (Michael W. Deem and Ramdas Pophale) SiO2 
 PCOD9114614
Probable space group: P 21
;
_chemical_formula_sum "Si O2"
_cell_formula_units_Z 10
_cell_length_a 18.082018
_cell_length_b 4.924491
_cell_length_c 13.814351
_cell_angle_alpha 90.000000
_cell_angle_beta 25.812989
_cell_angle_gamma 90.000000
_cell_volume 535.626748
_symmetry_space_group_name_H-M "P 21"
_symmetry_group_IT_number 4
_symmetry_cell_setting 'monoclinic'
loop_
_space_group_symop_operation_xyz
x,y,z
-x,1/2+y,-z
loop_
_atom_site_type_symbol
_atom_site_label
_atom_site_fract_x
_atom_site_fract_y
_atom_site_fract_z
Si Si1 0.965187 0.185420 0.604439
Si Si2 0.241315 0.919109 0.996544
Si Si3 0.542771 0.065497 0.513270
Si Si4 0.098812 0.805353 0.845147
Si Si5 0.979172 0.951723 0.782970
O O1 0.790765 0.296598 0.858673
O O2 0.052303 0.435422 0.447698
O O3 0.059793 0.074239 0.589646
O O4 0.157279 0.685412 0.028173
O O5 0.125442 0.185412 0.123668
O O6 0.427594 0.983916 0.740814
O O7 0.446064 0.299453 0.566791
O O8 0.721805 0.185426 0.334586
O O9 0.096001 0.886932 0.735592
O O10 0.958922 0.571394 0.028221
#
# Coordination Sequence:
#
# PCOD9114614 Si02
#       5
#     2   2   2   2   2
#     4  10  18  34  60  92 112 150 200 256 292 342
#     4  10  20  35  58  86 120 149 201 241 295 347
#     4  12  24  38  58  87 126 164 199 238 293 355
#     4  12  24  38  58  87 126 164 199 238 293 355
#     4  10  20  35  58  86 120 149 201 241 295 347
#
# _framework density 18.669719000000001
#
# number of rings (size 3 to 8) (size 9 to 14) (size 15 to 20)
#    1.200    0.000    2.000    7.200    0.000    0.000 
#    0.000    0.000    0.000    0.000   10.400    0.000 
#    0.000    0.000    0.000    0.000    0.000    0.000 
#
# Total GULP energy -55755.992198 kJ/mol
# GULP energy per Si atom -5575.599220 kJ/mol
# Density = 1.862723 g / cm^3
# Si number density = 18.669719 Si / 1000 Ang^3
#
#
#
# Elastic Constant Matrix: (Units=GPa)
#
#
# Indices 1 2 3 4 5 6 
#
# 1 89.7119 36.6308 61.2494 0.0000 20.3868 0.0000
# 2 36.6308 133.8905 36.4773 0.0000 13.0043 0.0000
# 3 61.2494 36.4773 89.2285 0.0000 20.1549 0.0000
# 4 0.0000 0.0000 0.0000 23.7821 0.0000 -2.7745
# 5 20.3868 13.0043 20.1549 0.0000 33.7084 0.0000
# 6 0.0000 0.0000 0.0000 -2.7745 0.0000 23.7448
#
#
#
# Elastic Compliance Matrix: (Units=1/GPa)
#
#
# Indices 1 2 3 4 5 6 
#
# 1 0.022095 -0.001967 -0.013314 0.000000 -0.004644 0.000000
# 2 -0.001967 0.008635 -0.001961 0.000000 -0.000969 0.000000
# 3 -0.013314 -0.001961 0.022150 0.000000 -0.004435 0.000000
# 4 0.000000 0.000000 0.000000 0.042630 0.000000 0.004981
# 5 -0.004644 -0.000969 -0.004435 0.000000 0.035500 0.000000
# 6 0.000000 0.000000 0.000000 0.004981 0.000000 0.042696
#
#
# Mechanical properties :
#
#
# Convention : Reuss Voigt Hill
#
# Bulk Modulus (GPa) = 54.35792 64.61621 59.48707
# Shear Modulus (GPa) = 23.32940 28.14527 25.73733
#
# Velocity S-wave (km/s) = 3.53878 3.88691 3.71692
# Velocity P-wave (km/s) = 6.77319 7.40469 7.09597
#
# Compressibility (1/GPa) = 0.01839658
#
# Stress axis : x y z
#
# Youngs Moduli (GPa) = 45.25951 115.80351 45.14727
#
# Poissons Ratio (x) = 0.22774 0.60108
# Poissons Ratio (y) = 0.08901 0.08855
# Poissons Ratio (z) = 0.60257 0.22712
#
# Static dielectric constant tensor:
#      x y z
#    x 1.669320 0.000000 0.031750 
#    y 0.000000 1.683680 0.000000 
#    z 0.031750 0.000000 1.668950 
# 
# From -- ./inp_files/14352.got.cif
#   From: 2010.05.17/outbox.cif.g08.bks.cpg/sg4_8_cif.got.tgz:14352.got - 2010.06.03 18:43:04.
