data_PCOD9114415
_publ_section_title
;
Structure prediction by ZEFSAII (Michael W. Deem and Ramdas Pophale) SiO2 
 PCOD9114415
Probable space group: P 2
;
_chemical_formula_sum "Si O2"
_cell_formula_units_Z 13
_cell_length_a 16.978689
_cell_length_b 6.007937
_cell_length_c 4.560537
_cell_angle_alpha 90.000000
_cell_angle_beta 86.717038
_cell_angle_gamma 90.000000
_cell_volume 464.442759
_symmetry_space_group_name_H-M "P 2"
_symmetry_group_IT_number 3
_symmetry_cell_setting 'monoclinic'
loop_
_space_group_symop_operation_xyz
x,y,z
-x,y,-z
loop_
_atom_site_type_symbol
_atom_site_label
_atom_site_fract_x
_atom_site_fract_y
_atom_site_fract_z
Si Si1 0.250633 0.060140 0.425161
Si Si2 0.620200 0.533832 0.582391
Si Si3 0.758732 0.746303 0.137134
Si Si4 0.500000 0.879937 0.500000
Si Si5 0.000000 0.714854 0.500000
Si Si6 0.609956 0.214196 0.153188
Si Si7 0.000000 0.062784 0.000000
Si Si8 0.870216 0.401850 0.803307
O O1 0.368479 0.344678 0.158839
O O2 0.197042 0.261893 0.342535
O O3 0.198637 0.907227 0.646726
O O4 0.271564 0.899132 0.137099
O O5 0.693133 0.631663 0.366097
O O6 0.566679 0.744406 0.666417
O O7 0.571716 0.417031 0.335165
O O8 0.683664 0.142713 0.350157
O O9 0.818571 0.565074 0.011956
O O10 0.548516 0.021236 0.246993
O O11 0.071824 0.553924 0.399460
O O12 0.979916 0.888376 0.253826
O O13 0.072898 0.224412 0.054145
#
# Coordination Sequence:
#
# PCOD9114415 Si02
#       8
#     2   2   2   1   1   2   1   2
#     4  12  30  57  89 136 184 241 315 395 477 567
#     4  12  30  57  87 135 182 245 320 392 482 569
#     4  12  30  57  89 136 184 241 315 395 477 567
#     4  12  30  58  92 124 188 246 314 410 480 568
#     4  12  30  60  84 130 182 236 316 380 468 562
#     4  12  30  57  87 135 182 245 320 392 482 569
#     4  12  30  60  84 130 182 236 316 380 468 562
#     4  12  32  56  96 130 185 250 308 389 472 562
#
# _framework density 27.990534
#
# number of rings (size 3 to 8) (size 9 to 14) (size 15 to 20)
#    0.000    0.000    1.538    4.154    6.462   16.000 
#    5.538    0.000    0.000    0.000    0.000    0.000 
#    0.000    0.000    0.000    0.000    0.000    0.000 
#
# Total GULP energy -72658.160803 kJ/mol
# GULP energy per Si atom -5589.089293 kJ/mol
# Density = 2.792683 g / cm^3
# Si number density = 27.990534 Si / 1000 Ang^3
#
#
#
# Elastic Constant Matrix: (Units=GPa)
#
#
# Indices 1 2 3 4 5 6 
#
# 1 198.0940 103.5474 115.2720 0.0000 -36.9930 0.0000
# 2 103.5474 209.9735 140.3137 0.0000 -27.0823 0.0000
# 3 115.2720 140.3137 244.4874 0.0000 -19.9231 0.0000
# 4 0.0000 0.0000 0.0000 88.9718 0.0000 5.2817
# 5 -36.9930 -27.0823 -19.9231 0.0000 41.6268 0.0000
# 6 0.0000 0.0000 0.0000 5.2817 0.0000 57.0958
#
#
#
# Elastic Compliance Matrix: (Units=1/GPa)
#
#
# Indices 1 2 3 4 5 6 
#
# 1 0.008406 -0.001813 -0.002508 0.000000 0.005090 0.000000
# 2 -0.001813 0.008500 -0.003854 0.000000 0.002074 0.000000
# 3 -0.002508 -0.003854 0.007387 0.000000 -0.001201 0.000000
# 4 0.000000 0.000000 0.000000 0.011302 0.000000 -0.001045
# 5 0.005090 0.002074 -0.001201 0.000000 0.029321 0.000000
# 6 0.000000 0.000000 0.000000 -0.001045 0.000000 0.017611
#
#
# Mechanical properties :
#
#
# Convention : Reuss Voigt Hill
#
# Bulk Modulus (GPa) = 125.91243 152.31343 139.11293
# Shear Modulus (GPa) = 49.24975 57.10034 53.17505
#
# Velocity S-wave (km/s) = 4.19921 4.52152 4.36334
# Velocity P-wave (km/s) = 8.28207 9.04395 8.67138
#
# Compressibility (1/GPa) = 0.00794203
#
# Stress axis : x y z
#
# Youngs Moduli (GPa) = 118.96773 117.65297 135.37608
#
# Poissons Ratio (x) = 0.21327 0.33952
# Poissons Ratio (y) = 0.21565 0.52178
# Poissons Ratio (z) = 0.29837 0.45347
#
# Static dielectric constant tensor:
#      x y z
#    x 2.210610 0.000000 0.002840 
#    y 0.000000 2.329890 0.000000 
#    z 0.002840 0.000000 2.204400 
# 
# From -- ./inp_files/3479.got.cif
#   From: 2010.05.17/outbox.cif.g08.bks.cpg/sg3_2_cif.got.tgz:3479.got - 2010.06.03 18:33:08.
