data_PCOD9114993
_publ_section_title
;
Structure prediction by ZEFSAII (Michael W. Deem and Ramdas Pophale) SiO2 
 PCOD9114993
Probable space group: P 21
;
_chemical_formula_sum "Si O2"
_cell_formula_units_Z 16
_cell_length_a 9.111505
_cell_length_b 10.845536
_cell_length_c 8.928002
_cell_angle_alpha 90.000000
_cell_angle_beta 132.401673
_cell_angle_gamma 90.000000
_cell_volume 651.490479
_symmetry_space_group_name_H-M "P 21"
_symmetry_group_IT_number 4
_symmetry_cell_setting 'monoclinic'
loop_
_space_group_symop_operation_xyz
x,y,z
-x,1/2+y,-z
loop_
_atom_site_type_symbol
_atom_site_label
_atom_site_fract_x
_atom_site_fract_y
_atom_site_fract_z
Si Si1 0.030219 0.550460 0.603746
Si Si2 0.139578 0.263481 0.313958
Si Si3 0.602300 0.472169 0.189154
Si Si4 0.276349 0.316394 0.878106
Si Si5 0.021857 0.161036 0.926663
Si Si6 0.503432 0.712165 0.261025
Si Si7 0.252663 0.539803 0.460407
Si Si8 0.667060 0.464340 0.877666
O O1 0.992303 0.670619 0.677651
O O2 0.818003 0.488730 0.412243
O O3 0.160845 0.444017 0.770423
O O4 0.148613 0.591029 0.537561
O O5 0.068803 0.246395 0.097800
O O6 0.365199 0.217210 0.499233
O O7 0.147223 0.406189 0.365037
O O8 0.467110 0.575917 0.176673
O O9 0.477521 0.345908 0.109838
O O10 0.628515 0.491088 0.027872
O O11 0.344015 0.263329 0.764537
O O12 0.135515 0.223960 0.866929
O O13 0.137174 0.033445 0.039218
O O14 0.803441 0.124514 0.719360
O O15 0.337954 0.817155 0.145319
O O16 0.480660 0.514842 0.654583
#
# Coordination Sequence:
#
# PCOD9114993 Si02
#       8
#     2   2   2   2   2   2   2   2
#     4  11  21  41  69  97 124 167 218 271 313 377
#     4  10  24  43  64  94 135 168 211 268 326 395
#     4  10  19  38  64  99 118 163 218 265 318 368
#     4  11  22  39  65  92 131 167 214 268 314 382
#     4  12  25  43  61  94 142 170 207 268 332 386
#     4   9  18  41  61  92 122 157 223 265 302 377
#     4  11  23  44  70  95 128 169 223 271 317 381
#     4  10  20  39  66  95 124 169 210 268 324 376
#
# _framework density 24.559069000000001
#
# number of rings (size 3 to 8) (size 9 to 14) (size 15 to 20)
#    0.000    1.500    6.250    0.750    1.750    2.000 
#    9.000    2.500    0.000    0.000    0.000    0.000 
#    0.000    0.000    0.000    0.000    0.000    0.000 
#
# Total GULP energy -89551.491581 kJ/mol
# GULP energy per Si atom -5596.968224 kJ/mol
# Density = 2.450317 g / cm^3
# Si number density = 24.559069 Si / 1000 Ang^3
#
#
#
# Elastic Constant Matrix: (Units=GPa)
#
#
# Indices 1 2 3 4 5 6 
#
# 1 33.9230 6.5652 21.0813 0.0000 15.4235 0.0000
# 2 6.5652 30.1666 12.4956 0.0000 -2.8603 0.0000
# 3 21.0813 12.4956 106.2468 0.0000 18.8816 0.0000
# 4 0.0000 0.0000 0.0000 46.1067 0.0000 8.0058
# 5 15.4235 -2.8603 18.8816 0.0000 27.8632 0.0000
# 6 0.0000 0.0000 0.0000 8.0058 0.0000 26.9512
#
#
#
# Elastic Compliance Matrix: (Units=1/GPa)
#
#
# Indices 1 2 3 4 5 6 
#
# 1 0.044160 -0.010394 -0.003418 0.000000 -0.023196 0.000000
# 2 -0.010394 0.038621 -0.004783 0.000000 0.012960 0.000000
# 3 -0.003418 -0.004783 0.011828 0.000000 -0.006615 0.000000
# 4 0.000000 0.000000 0.000000 0.022868 0.000000 -0.006793
# 5 -0.023196 0.012960 -0.006615 0.000000 0.054542 0.000000
# 6 0.000000 0.000000 0.000000 -0.006793 0.000000 0.039122
#
#
# Mechanical properties :
#
#
# Convention : Reuss Voigt Hill
#
# Bulk Modulus (GPa) = 17.41553 27.84675 22.63114
# Shear Modulus (GPa) = 18.69355 28.86385 23.77870
#
# Velocity S-wave (km/s) = 2.76192 3.43196 3.11501
# Velocity P-wave (km/s) = 4.15663 5.20267 4.70879
#
# Compressibility (1/GPa) = 0.05742003
#
# Stress axis : x y z
#
# Youngs Moduli (GPa) = 22.64482 25.89243 84.54392
#
# Poissons Ratio (x) = 0.26914 0.28893
# Poissons Ratio (y) = 0.23538 0.40436
# Poissons Ratio (z) = 0.07739 0.12384
#
# Static dielectric constant tensor:
#      x y z
#    x 1.952400 0.000000 0.020500 
#    y 0.000000 1.950470 0.000000 
#    z 0.020500 0.000000 1.939800 
# 
# From -- ./inp_files/8479.got.cif
#   From: 2010.05.17/outbox.cif.g08.bks.cpg/sg4_5_cif.got.tgz:8479.got - 2010.06.03 18:43:04.
