data_PCOD9114976
_publ_section_title
;
Structure prediction by ZEFSAII (Michael W. Deem and Ramdas Pophale) SiO2 
 PCOD9114976
Probable space group: P 21
;
_chemical_formula_sum "Si O2"
_cell_formula_units_Z 14
_cell_length_a 7.448818
_cell_length_b 10.628087
_cell_length_c 9.212818
_cell_angle_alpha 90.000000
_cell_angle_beta 59.971092
_cell_angle_gamma 90.000000
_cell_volume 631.450055
_symmetry_space_group_name_H-M "P 21"
_symmetry_group_IT_number 4
_symmetry_cell_setting 'monoclinic'
loop_
_space_group_symop_operation_xyz
x,y,z
-x,1/2+y,-z
loop_
_atom_site_type_symbol
_atom_site_label
_atom_site_fract_x
_atom_site_fract_y
_atom_site_fract_z
Si Si1 0.344206 0.756410 0.318164
Si Si2 0.799006 0.899322 0.824655
Si Si3 0.952918 0.910152 0.455739
Si Si4 0.581792 0.501040 0.174414
Si Si5 0.419848 0.500466 0.841330
Si Si6 0.485434 0.408517 0.506935
Si Si7 0.807328 0.610438 0.830085
O O1 0.109800 0.793192 0.380013
O O2 0.429733 0.621733 0.247153
O O3 0.478061 0.861393 0.179832
O O4 0.400993 0.793192 0.460519
O O5 0.860989 0.755495 0.830696
O O6 0.937744 0.942822 0.632333
O O7 0.566018 0.902888 0.848698
O O8 0.781194 0.986897 0.975051
O O9 0.730821 0.874491 0.481452
O O10 0.039983 0.029386 0.332187
O O11 0.625403 0.461895 0.321006
O O12 0.772413 0.540101 0.997102
O O13 0.422751 0.503529 0.664969
O O14 0.582675 0.598245 0.841300
#
# Coordination Sequence:
#
# PCOD9114976 Si02
#       7
#     2   2   2   2   2   2   2
#     4   9  19  40  60  83 122 158 196 253 296 358
#     4  10  20  35  63  90 120 165 202 249 303 363
#     4  10  22  36  61  87 120 162 206 244 310 350
#     4  10  20  37  66  89 120 164 204 245 311 361
#     4   8  18  38  60  84 119 156 196 248 303 352
#     4   9  20  38  57  91 117 154 201 249 293 365
#     4  10  19  38  61  88 124 161 203 254 296 365
#
# _framework density 22.171192999999999
#
# number of rings (size 3 to 8) (size 9 to 14) (size 15 to 20)
#    0.857    1.714    1.429    0.000    4.000    2.286 
#    2.571    0.000    9.429    0.000    0.000    0.000 
#    0.000    0.000    0.000    0.000    0.000    0.000 
#
# Total GULP energy -77984.946322 kJ/mol
# GULP energy per Si atom -5570.353309 kJ/mol
# Density = 2.212073 g / cm^3
# Si number density = 22.171193 Si / 1000 Ang^3
#
#
#
# Elastic Constant Matrix: (Units=GPa)
#
#
# Indices 1 2 3 4 5 6 
#
# 1 55.9580 1.5183 9.2656 0.0000 11.1233 0.0000
# 2 1.5183 51.7113 9.8469 0.0000 -1.9946 0.0000
# 3 9.2656 9.8469 180.0163 0.0000 16.3811 0.0000
# 4 0.0000 0.0000 0.0000 28.9449 0.0000 -0.5739
# 5 11.1233 -1.9946 16.3811 0.0000 25.3881 0.0000
# 6 0.0000 0.0000 0.0000 -0.5739 0.0000 15.5426
#
#
#
# Elastic Compliance Matrix: (Units=1/GPa)
#
#
# Indices 1 2 3 4 5 6 
#
# 1 0.019624 -0.000871 -0.000185 0.000000 -0.008547 0.000000
# 2 -0.000871 0.019715 -0.001285 0.000000 0.002759 0.000000
# 3 -0.000185 -0.001285 0.005988 0.000000 -0.003884 0.000000
# 4 0.000000 0.000000 0.000000 0.034574 0.000000 0.001277
# 5 -0.008547 0.002759 -0.003884 0.000000 0.045856 0.000000
# 6 0.000000 0.000000 0.000000 0.001277 0.000000 0.064387
#
#
# Mechanical properties :
#
#
# Convention : Reuss Voigt Hill
#
# Bulk Modulus (GPa) = 24.60225 36.54967 30.57596
# Shear Modulus (GPa) = 23.99557 31.77877 27.88717
#
# Velocity S-wave (km/s) = 3.29338 3.79005 3.55041
# Velocity P-wave (km/s) = 5.05790 5.97274 5.53426
#
# Compressibility (1/GPa) = 0.04064670
#
# Stress axis : x y z
#
# Youngs Moduli (GPa) = 50.95878 50.72347 166.99382
#
# Poissons Ratio (x) = 0.04416 0.03084
# Poissons Ratio (y) = 0.04437 0.21453
# Poissons Ratio (z) = 0.00941 0.06516
#
# Static dielectric constant tensor:
#      x y z
#    x 1.820140 0.000000 -0.004930 
#    y 0.000000 1.803550 0.000000 
#    z -0.004930 0.000000 1.931670 
# 
# From -- ./inp_files/6214.got.cif
#   From: 2010.05.17/outbox.cif.g08.bks.cpg/sg4_4_cif.got.tgz:6214.got - 2010.06.03 18:43:04.
