data_PCOD9114807
_publ_section_title
;
Structure prediction by ZEFSAII (Michael W. Deem and Ramdas Pophale) SiO2 
 PCOD9114807
Probable space group: P 21
;
_chemical_formula_sum "Si O2"
_cell_formula_units_Z 16
_cell_length_a 18.405058
_cell_length_b 5.590300
_cell_length_c 6.931858
_cell_angle_alpha 90.000000
_cell_angle_beta 124.631971
_cell_angle_gamma 90.000000
_cell_volume 586.849146
_symmetry_space_group_name_H-M "P 21"
_symmetry_group_IT_number 4
_symmetry_cell_setting 'monoclinic'
loop_
_space_group_symop_operation_xyz
x,y,z
-x,1/2+y,-z
loop_
_atom_site_type_symbol
_atom_site_label
_atom_site_fract_x
_atom_site_fract_y
_atom_site_fract_z
Si Si1 0.953099 0.250000 0.880896
Si Si2 0.514614 0.340546 0.916911
Si Si3 0.868515 0.211877 0.122243
Si Si4 0.061587 0.438008 0.457901
Si Si5 0.671250 0.282356 0.771887
Si Si6 0.697103 0.259500 0.340508
Si Si7 0.777534 0.758389 0.517790
Si Si8 0.365333 0.281145 0.369003
O O1 0.934398 0.202171 0.631010
O O2 0.869262 0.208601 0.890402
O O3 0.990793 0.511451 0.977444
O O4 0.445036 0.304041 0.640823
O O5 0.509634 0.616201 0.978501
O O6 0.618478 0.293098 0.071510
O O7 0.891134 0.963617 0.264680
O O8 0.959557 0.358273 0.302334
O O9 0.770104 0.298166 0.009832
O O10 0.121405 0.290439 0.398313
O O11 0.669990 0.267029 0.528760
O O12 0.623393 0.534554 0.727364
O O13 0.634918 0.018223 0.758733
O O14 0.753961 0.497997 0.406175
O O15 0.735909 0.997431 0.364142
O O16 0.730531 0.764212 0.660671
#
# Coordination Sequence:
#
# PCOD9114807 Si02
#       8
#     2   2   2   2   2   2   2   2
#     4  10  22  40  64  90 118 158 210 274 332 378
#     4  12  16  30  58  94 138 166 208 268 310 392
#     4  11  25  43  66  93 128 175 229 281 330 394
#     4  11  25  43  66  93 128 175 229 281 330 394
#     4  10  20  34  54  84 126 164 206 269 318 371
#     4  10  19  34  56  94 131 166 210 258 322 393
#     4  10  20  34  54  84 126 164 206 269 318 371
#     4  10  19  34  56  94 131 166 210 258 322 393
#
# _framework density 27.264247000000001
#
# number of rings (size 3 to 8) (size 9 to 14) (size 15 to 20)
#    0.000    1.500    5.000    2.250    0.000   14.000 
#    0.000    0.000    0.000    0.000    0.000    5.250 
#    0.000    0.000    0.000    0.000    0.000    0.000 
#
# Total GULP energy -89334.312467 kJ/mol
# GULP energy per Si atom -5583.394529 kJ/mol
# Density = 2.720219 g / cm^3
# Si number density = 27.264247 Si / 1000 Ang^3
#
#
#
# Elastic Constant Matrix: (Units=GPa)
#
#
# Indices 1 2 3 4 5 6 
#
# 1 58.1785 23.8500 25.1723 0.0000 0.0455 0.0000
# 2 23.8500 190.6548 48.5187 0.0000 8.4235 0.0000
# 3 25.1723 48.5187 115.1389 0.0000 15.0682 0.0000
# 4 0.0000 0.0000 0.0000 50.6695 0.0000 7.8997
# 5 0.0455 8.4235 15.0682 0.0000 36.4064 0.0000
# 6 0.0000 0.0000 0.0000 7.8997 0.0000 34.7469
#
#
#
# Elastic Compliance Matrix: (Units=1/GPa)
#
#
# Indices 1 2 3 4 5 6 
#
# 1 0.019491 -0.001540 -0.003865 0.000000 0.001932 0.000000
# 2 -0.001540 0.006001 -0.002126 0.000000 -0.000507 0.000000
# 3 -0.003865 -0.002126 0.010954 0.000000 -0.004037 0.000000
# 4 0.000000 0.000000 0.000000 0.020461 0.000000 -0.004652
# 5 0.001932 -0.000507 -0.004037 0.000000 0.029253 0.000000
# 6 0.000000 0.000000 0.000000 -0.004652 0.000000 0.029837
#
#
# Mechanical properties :
#
#
# Convention : Reuss Voigt Hill
#
# Bulk Modulus (GPa) = 46.76305 62.11712 54.44009
# Shear Modulus (GPa) = 36.18280 42.12664 39.15472
#
# Velocity S-wave (km/s) = 3.64691 3.93507 3.79373
# Velocity P-wave (km/s) = 5.90951 6.59388 6.26105
#
# Compressibility (1/GPa) = 0.02138440
#
# Stress axis : x y z
#
# Youngs Moduli (GPa) = 51.30695 166.63610 91.28829
#
# Poissons Ratio (x) = 0.25661 0.35283
# Poissons Ratio (y) = 0.07901 0.19406
# Poissons Ratio (z) = 0.19830 0.35424
#
# Static dielectric constant tensor:
#      x y z
#    x 2.295070 0.000000 -0.048840 
#    y 0.000000 2.106230 0.000000 
#    z -0.048840 0.000000 2.120590 
# 
# From -- ./inp_files/10032.got.cif
#   From: 2010.05.17/outbox.cif.g08.bks.cpg/sg4_6_cif.got.tgz:10032.got - 2010.06.03 18:43:04.
