data_PCOD9114743
_publ_section_title
;
Structure prediction by ZEFSAII (Michael W. Deem and Ramdas Pophale) SiO2 
 PCOD9114743
Probable space group: P 21
;
_chemical_formula_sum "Si O2"
_cell_formula_units_Z 14
_cell_length_a 10.195510
_cell_length_b 4.926321
_cell_length_c 10.448578
_cell_angle_alpha 90.000000
_cell_angle_beta 103.401167
_cell_angle_gamma 90.000000
_cell_volume 510.504455
_symmetry_space_group_name_H-M "P 21"
_symmetry_group_IT_number 4
_symmetry_cell_setting 'monoclinic'
loop_
_space_group_symop_operation_xyz
x,y,z
-x,1/2+y,-z
loop_
_atom_site_type_symbol
_atom_site_label
_atom_site_fract_x
_atom_site_fract_y
_atom_site_fract_z
Si Si1 0.176861 0.147870 0.073855
Si Si2 0.434537 0.517713 0.417722
Si Si3 0.079559 0.630178 0.172266
Si Si4 0.794720 0.310916 0.493863
Si Si5 0.600721 0.512063 0.223593
Si Si6 0.287692 0.525952 0.885516
Si Si7 0.028681 0.518477 0.666100
O O1 0.139563 0.333992 0.185454
O O2 0.185565 0.848191 0.136129
O O3 0.273667 0.336546 0.008344
O O4 0.045126 0.123934 0.954777
O O5 0.540100 0.730334 0.508013
O O6 0.294545 0.653403 0.423454
O O7 0.462862 0.498122 0.272794
O O8 0.006778 0.718106 0.286194
O O9 0.701820 0.418318 0.358034
O O10 0.877479 0.554538 0.576656
O O11 0.887879 0.101247 0.438097
O O12 0.641066 0.815498 0.195008
O O13 0.626578 0.304171 0.110495
O O14 0.135061 0.603515 0.803676
#
# Coordination Sequence:
#
# PCOD9114743 Si02
#       7
#     2   2   2   2   2   2   2
#     4   9  17  31  48  71  98 133 170 215 259 301
#     4  10  20  36  54  74 104 144 186 222 254 296
#     4   9  18  30  47  69 102 136 171 206 253 316
#     4  10  21  34  52  78 114 147 175 214 259 317
#     4  10  19  33  52  77 103 136 177 217 256 304
#     4  10  19  32  54  78 105 134 172 219 266 314
#     4  10  20  32  49  77 110 144 173 205 263 324
#
# _framework density 27.423853000000001
#
# number of rings (size 3 to 8) (size 9 to 14) (size 15 to 20)
#    0.000    2.286    0.000    4.286    0.000    9.143 
#    0.000    0.000    0.000    0.000    0.000    4.000 
#    0.000    0.000    0.000    0.000    0.000    0.000 
#
# Total GULP energy -78128.261386 kJ/mol
# GULP energy per Si atom -5580.590099 kJ/mol
# Density = 2.736144 g / cm^3
# Si number density = 27.423853 Si / 1000 Ang^3
#
#
#
# Elastic Constant Matrix: (Units=GPa)
#
#
# Indices 1 2 3 4 5 6 
#
# 1 100.1569 13.2817 32.4755 0.0000 -16.2790 0.0000
# 2 13.2817 143.6182 30.7851 0.0000 -14.6877 0.0000
# 3 32.4755 30.7851 119.9643 0.0000 -14.2507 0.0000
# 4 0.0000 0.0000 0.0000 54.8782 0.0000 -16.7265
# 5 -16.2790 -14.6877 -14.2507 0.0000 37.5157 0.0000
# 6 0.0000 0.0000 0.0000 -16.7265 0.0000 34.1529
#
#
#
# Elastic Compliance Matrix: (Units=1/GPa)
#
#
# Indices 1 2 3 4 5 6 
#
# 1 0.011488 -0.000098 -0.002615 0.000000 0.003953 0.000000
# 2 -0.000098 0.007558 -0.001641 0.000000 0.002294 0.000000
# 3 -0.002615 -0.001641 0.009691 0.000000 0.001904 0.000000
# 4 0.000000 0.000000 0.000000 0.021420 0.000000 0.010490
# 5 0.003953 0.002294 0.001904 0.000000 0.029992 0.000000
# 6 0.000000 0.000000 0.000000 0.010490 0.000000 0.034418
#
#
# Mechanical properties :
#
#
# Convention : Reuss Voigt Hill
#
# Bulk Modulus (GPa) = 49.92496 57.42491 53.67493
# Shear Modulus (GPa) = 38.47634 44.45582 41.46608
#
# Velocity S-wave (km/s) = 3.74976 4.03061 3.89272
# Velocity P-wave (km/s) = 6.08211 6.53042 6.31025
#
# Compressibility (1/GPa) = 0.02003006
#
# Stress axis : x y z
#
# Youngs Moduli (GPa) = 87.04903 132.30700 103.18850
#
# Poissons Ratio (x) = 0.01290 0.26986
# Poissons Ratio (y) = 0.00849 0.16930
# Poissons Ratio (z) = 0.22765 0.21708
#
# Static dielectric constant tensor:
#      x y z
#    x 2.323880 0.000000 -0.015820 
#    y 0.000000 2.103270 0.000000 
#    z -0.015820 0.000000 2.196440 
# 
# From -- ./inp_files/11696.got.cif
#   From: 2010.05.17/outbox.cif.g08.bks.cpg/sg4_6_cif.got.tgz:11696.got - 2010.06.03 18:43:04.
