data_PCOD9114711
_publ_section_title
;
Structure prediction by ZEFSAII (Michael W. Deem and Ramdas Pophale) SiO2 
 PCOD9114711
Probable space group: P 21
;
_chemical_formula_sum "Si O2"
_cell_formula_units_Z 14
_cell_length_a 6.073039
_cell_length_b 13.065543
_cell_length_c 8.238356
_cell_angle_alpha 90.000000
_cell_angle_beta 62.255193
_cell_angle_gamma 90.000000
_cell_volume 578.538146
_symmetry_space_group_name_H-M "P 21"
_symmetry_group_IT_number 4
_symmetry_cell_setting 'monoclinic'
loop_
_space_group_symop_operation_xyz
x,y,z
-x,1/2+y,-z
loop_
_atom_site_type_symbol
_atom_site_label
_atom_site_fract_x
_atom_site_fract_y
_atom_site_fract_z
Si Si1 0.927783 0.807610 0.934704
Si Si2 0.440262 0.136864 0.861043
Si Si3 0.335675 0.318752 0.505628
Si Si4 0.173366 0.470042 0.293670
Si Si5 0.669781 0.602709 0.485779
Si Si6 0.188215 0.812762 0.148799
Si Si7 0.506532 0.422483 0.731363
O O1 0.811488 0.692269 0.981131
O O2 0.739153 0.883046 0.097242
O O3 0.175837 0.812935 0.958767
O O4 0.930013 0.871090 0.768832
O O5 0.394723 0.119260 0.683241
O O6 0.634175 0.225670 0.842822
O O7 0.593922 0.034848 0.860612
O O8 0.282556 0.416309 0.415542
O O9 0.368012 0.210613 0.410714
O O10 0.544886 0.344865 0.566314
O O11 0.085425 0.293645 0.692139
O O12 0.942234 0.548121 0.399301
O O13 0.489454 0.528528 0.647028
O O14 0.279438 0.914345 0.208743
#
# Coordination Sequence:
#
# PCOD9114711 Si02
#       7
#     2   2   2   2   2   2   2
#     4  10  24  42  62  94 134 175 216 263 336 387
#     4  11  21  41  68  88 129 175 214 266 331 382
#     4  11  21  38  65 100 124 166 225 262 317 387
#     4  12  25  39  67 100 133 168 219 273 328 388
#     4  12  22  38  70  98 126 174 223 268 326 380
#     4  10  18  41  65  88 130 166 212 271 314 385
#     4  10  21  39  67  92 126 172 215 265 322 383
#
# _framework density 24.198924000000002
#
# number of rings (size 3 to 8) (size 9 to 14) (size 15 to 20)
#    0.000    1.143    8.571    0.000    0.000    3.429 
#    0.000    1.429    3.143    0.000    0.000    0.000 
#    0.000    0.000    0.000    0.000    0.000    0.000 
#
# Total GULP energy -78013.012841 kJ/mol
# GULP energy per Si atom -5572.358060 kJ/mol
# Density = 2.414385 g / cm^3
# Si number density = 24.198924 Si / 1000 Ang^3
#
#
#
# Elastic Constant Matrix: (Units=GPa)
#
#
# Indices 1 2 3 4 5 6 
#
# 1 91.9502 23.7690 32.8177 0.0000 24.5676 0.0000
# 2 23.7690 82.9521 13.3052 0.0000 1.3738 0.0000
# 3 32.8177 13.3052 33.5883 0.0000 6.3915 0.0000
# 4 0.0000 0.0000 0.0000 41.0318 0.0000 9.7827
# 5 24.5676 1.3738 6.3915 0.0000 35.5703 0.0000
# 6 0.0000 0.0000 0.0000 9.7827 0.0000 36.3097
#
#
#
# Elastic Compliance Matrix: (Units=1/GPa)
#
#
# Indices 1 2 3 4 5 6 
#
# 1 0.020643 -0.003027 -0.016855 0.000000 -0.011112 0.000000
# 2 -0.003027 0.013324 -0.002713 0.000000 0.002064 0.000000
# 3 -0.016855 -0.002713 0.046676 0.000000 0.003359 0.000000
# 4 0.000000 0.000000 0.000000 0.026044 0.000000 -0.007017
# 5 -0.011112 0.002064 0.003359 0.000000 0.035105 0.000000
# 6 0.000000 0.000000 0.000000 -0.007017 0.000000 0.029431
#
#
# Mechanical properties :
#
#
# Convention : Reuss Voigt Hill
#
# Bulk Modulus (GPa) = 28.20738 38.69716 33.45227
# Shear Modulus (GPa) = 21.90765 31.82228 26.86496
#
# Velocity S-wave (km/s) = 3.01211 3.63027 3.33554
# Velocity P-wave (km/s) = 4.87635 5.79636 5.35615
#
# Compressibility (1/GPa) = 0.03545172
#
# Stress axis : x y z
#
# Youngs Moduli (GPa) = 48.44311 75.05528 21.42421
#
# Poissons Ratio (x) = 0.22722 0.36111
# Poissons Ratio (y) = 0.14666 0.05811
# Poissons Ratio (z) = 0.81653 0.20359
#
# Static dielectric constant tensor:
#      x y z
#    x 1.978900 0.000000 0.013970 
#    y 0.000000 2.036010 0.000000 
#    z 0.013970 0.000000 1.992900 
# 
# From -- ./inp_files/1114.got.cif
#   From: 2010.05.17/outbox.cif.g08.bks.cpg/sg4_1_cif.got.tgz:1114.got - 2010.06.03 18:43:04.
