data_PCOD9114030
_publ_section_title
;
Structure prediction by ZEFSAII (Michael W. Deem and Ramdas Pophale) SiO2 
 PCOD9114030
Probable space group: P 2
;
_chemical_formula_sum "Si O2"
_cell_formula_units_Z 10
_cell_length_a 14.864616
_cell_length_b 5.460707
_cell_length_c 5.136222
_cell_angle_alpha 90.000000
_cell_angle_beta 97.496950
_cell_angle_gamma 90.000000
_cell_volume 413.350022
_symmetry_space_group_name_H-M "P 2"
_symmetry_group_IT_number 3
_symmetry_cell_setting 'monoclinic'
loop_
_space_group_symop_operation_xyz
x,y,z
-x,y,-z
loop_
_atom_site_type_symbol
_atom_site_label
_atom_site_fract_x
_atom_site_fract_y
_atom_site_fract_z
Si Si1 0.411078 0.892460 0.779197
Si Si2 0.820718 0.001729 0.201208
Si Si3 0.608265 0.403086 0.007673
Si Si4 0.304466 0.065696 0.343219
Si Si5 0.936176 0.501639 0.226034
O O1 0.392467 0.894947 0.459382
O O2 0.500000 0.901324 0.000000
O O3 0.357991 0.654298 0.858665
O O4 0.375499 0.168537 0.806630
O O5 0.878693 0.752198 0.231105
O O6 0.770139 0.037367 0.458664
O O7 0.876499 0.254359 0.179984
O O8 0.753378 0.982999 0.929066
O O9 0.649573 0.319282 0.747615
O O10 0.500000 0.427795 0.000000
O O11 0.000000 0.474690 0.500000
O O12 0.000000 0.523822 0.000000
#
# Coordination Sequence:
#
# PCOD9114030 Si02
#       5
#     2   2   2   2   2
#     4  10  24  46  72 105 147 212 265 320 382 446
#     4  12  28  45  79 116 149 202 241 324 391 457
#     4  10  24  46  72 105 147 212 265 320 382 446
#     4  12  26  50  74 114 161 194 269 324 390 447
#     4  12  26  52  80 112 151 194 247 302 388 496
#
# _framework density 24.192568999999999
#
# number of rings (size 3 to 8) (size 9 to 14) (size 15 to 20)
#    0.000    0.800    2.000    3.600    2.800    8.000 
#    0.000    8.000    0.000    0.000    0.000    0.000 
#    0.000    0.000    0.000    0.000    0.000    0.000 
#
# Total GULP energy -55681.521268 kJ/mol
# GULP energy per Si atom -5568.152127 kJ/mol
# Density = 2.413751 g / cm^3
# Si number density = 24.192569 Si / 1000 Ang^3
#
#
#
# Elastic Constant Matrix: (Units=GPa)
#
#
# Indices 1 2 3 4 5 6 
#
# 1 85.3689 40.7502 56.4693 0.0000 0.2199 0.0000
# 2 40.7502 214.7092 54.8254 0.0000 10.2716 0.0000
# 3 56.4693 54.8254 180.8457 0.0000 -2.6281 0.0000
# 4 0.0000 0.0000 0.0000 35.9644 0.0000 -4.5557
# 5 0.2199 10.2716 -2.6281 0.0000 56.1069 0.0000
# 6 0.0000 0.0000 0.0000 -4.5557 0.0000 52.0598
#
#
#
# Elastic Compliance Matrix: (Units=1/GPa)
#
#
# Indices 1 2 3 4 5 6 
#
# 1 0.015405 -0.001842 -0.004251 0.000000 0.000078 0.000000
# 2 -0.001842 0.005325 -0.001054 0.000000 -0.001017 0.000000
# 3 -0.004251 -0.001054 0.007184 0.000000 0.000546 0.000000
# 4 0.000000 0.000000 0.000000 0.028117 0.000000 0.002461
# 5 0.000078 -0.001017 0.000546 0.000000 0.018035 0.000000
# 6 0.000000 0.000000 0.000000 0.002461 0.000000 0.019424
#
#
# Mechanical properties :
#
#
# Convention : Reuss Voigt Hill
#
# Bulk Modulus (GPa) = 73.41744 87.22372 80.32058
# Shear Modulus (GPa) = 44.51475 50.75146 47.63310
#
# Velocity S-wave (km/s) = 4.29420 4.58516 4.44206
# Velocity P-wave (km/s) = 7.41619 8.01023 7.71892
#
# Compressibility (1/GPa) = 0.01362074
#
# Stress axis : x y z
#
# Youngs Moduli (GPa) = 64.91586 187.79968 139.19356
#
# Poissons Ratio (x) = 0.34593 0.59165
# Poissons Ratio (y) = 0.11958 0.14669
# Poissons Ratio (z) = 0.27593 0.19792
#
# Static dielectric constant tensor:
#      x y z
#    x 1.903570 0.000000 -0.372280 
#    y 0.000000 1.939400 0.000000 
#    z -0.372280 0.000000 1.435640 
# 
# From -- ./inp_files/2723.got.cif
#   From: 2010.05.17/outbox.cif.g08.bks.cpg/sg3_2_cif.got.tgz:2723.got - 2010.06.03 18:33:08.
