data_PCOD9114818
_publ_section_title
;
Structure prediction by ZEFSAII (Michael W. Deem and Ramdas Pophale) SiO2 
 PCOD9114818
Probable space group: P 21
;
_chemical_formula_sum "Si O2"
_cell_formula_units_Z 16
_cell_length_a 11.292260
_cell_length_b 8.457283
_cell_length_c 9.781261
_cell_angle_alpha 90.000000
_cell_angle_beta 138.121885
_cell_angle_gamma 90.000000
_cell_volume 623.575743
_symmetry_space_group_name_H-M "P 21"
_symmetry_group_IT_number 4
_symmetry_cell_setting 'monoclinic'
loop_
_space_group_symop_operation_xyz
x,y,z
-x,1/2+y,-z
loop_
_atom_site_type_symbol
_atom_site_label
_atom_site_fract_x
_atom_site_fract_y
_atom_site_fract_z
Si Si1 0.326786 0.213850 0.627346
Si Si2 0.366410 0.868592 0.751291
Si Si3 0.179081 0.962089 0.090845
Si Si4 0.300033 0.388357 0.320964
Si Si5 0.741423 0.240531 0.068365
Si Si6 0.005659 0.281502 0.862905
Si Si7 0.780872 0.891584 0.196361
Si Si8 0.543896 0.157827 0.392772
O O1 0.278389 0.279854 0.437030
O O2 0.539926 0.224635 0.837431
O O3 0.232814 0.321348 0.662849
O O4 0.296708 0.027802 0.622210
O O5 0.349229 0.707541 0.649583
O O6 0.273102 0.858258 0.816888
O O7 0.579703 0.868408 0.964136
O O8 0.040954 0.101595 0.938390
O O9 0.370610 0.044731 0.225585
O O10 0.150353 0.819247 0.960122
O O11 0.160231 0.881553 0.223231
O O12 0.153357 0.371297 0.081340
O O13 0.470709 0.317947 0.392403
O O14 0.336126 0.563015 0.400838
O O15 0.810748 0.076501 0.190004
O O16 0.070334 0.300980 0.763632
#
# Coordination Sequence:
#
# PCOD9114818 Si02
#       8
#     2   2   2   2   2   2   2   2
#     4  10  20  34  61  91 124 154 197 257 317 354
#     4  10  19  34  58  94 120 155 202 258 301 366
#     4  11  22  40  58  90 121 169 207 252 299 376
#     4  11  22  36  59  90 123 158 196 266 313 366
#     4  10  20  32  62  90 120 153 207 254 304 356
#     4  11  24  39  62  86 126 162 212 252 306 371
#     4  10  19  36  57  92 119 162 203 250 299 371
#     4  11  22  37  59  91 127 155 210 255 319 362
#
# _framework density 25.658470999999999
#
# number of rings (size 3 to 8) (size 9 to 14) (size 15 to 20)
#    0.000    1.500    3.750    3.000    5.250    1.000 
#    0.000    0.000    0.000   13.500    0.000    0.000 
#    0.000    0.000    0.000    0.000    0.000    0.000 
#
# Total GULP energy -89576.444616 kJ/mol
# GULP energy per Si atom -5598.527788 kJ/mol
# Density = 2.560007 g / cm^3
# Si number density = 25.658471 Si / 1000 Ang^3
#
#
#
# Elastic Constant Matrix: (Units=GPa)
#
#
# Indices 1 2 3 4 5 6 
#
# 1 88.6451 8.6500 18.9991 0.0000 -10.5370 0.0000
# 2 8.6500 74.8938 -10.9377 0.0000 10.1714 0.0000
# 3 18.9991 -10.9377 60.5095 0.0000 0.7140 0.0000
# 4 0.0000 0.0000 0.0000 -224.3040 0.0000 -41.1511
# 5 -10.5370 10.1714 0.7140 0.0000 44.0333 0.0000
# 6 0.0000 0.0000 0.0000 -41.1511 0.0000 39.1848
#
#
#
# Elastic Compliance Matrix: (Units=1/GPa)
#
#
# Indices 1 2 3 4 5 6 
#
# 1 0.012983 -0.002689 -0.004607 0.000000 0.003803 0.000000
# 2 -0.002689 0.014740 0.003557 0.000000 -0.004106 0.000000
# 3 -0.004607 0.003557 0.018642 0.000000 -0.002226 0.000000
# 4 0.000000 0.000000 0.000000 -0.003738 0.000000 -0.003926
# 5 0.003803 -0.004106 -0.002226 0.000000 0.024605 0.000000
# 6 0.000000 0.000000 0.000000 -0.003926 0.000000 0.021397
#
#
# Mechanical properties :
#
#
# Convention : Reuss Voigt Hill
#
# Bulk Modulus (GPa) = 25.71558 28.60789 27.16174
# Shear Modulus (GPa) = 45.84249 -14.39472 15.72388
#
# Velocity S-wave (km/s) = 4.23145 -2.37114 2.47819
# Velocity P-wave (km/s) = 5.82388 1.91763 4.33560
#
# Compressibility (1/GPa) = 0.03888693
#
# Stress axis : x y z
#
# Youngs Moduli (GPa) = 77.02518 67.84304 53.64177
#
# Poissons Ratio (x) = 0.18241 0.24714
# Poissons Ratio (y) = 0.20710 -0.19081
# Poissons Ratio (z) = 0.35488 -0.24132
#
# Static dielectric constant tensor:
#      x y z
#    x 6.982530 0.000000 0.954190 
#    y 0.000000 1.976010 0.000000 
#    z 0.954190 0.000000 2.164650 
# 
# From -- ./inp_files/7754.got.cif
#   From: 2010.05.17/outbox.cif.g08.bks.cpg/sg4_4_cif.got.tgz:7754.got - 2010.06.03 18:43:04.
