data_PCOD9114681
_publ_section_title
;
Structure prediction by ZEFSAII (Michael W. Deem and Ramdas Pophale) SiO2 
 PCOD9114681
Probable space group: P 21
;
_chemical_formula_sum "Si O2"
_cell_formula_units_Z 16
_cell_length_a 9.686557
_cell_length_b 9.556588
_cell_length_c 11.883195
_cell_angle_alpha 90.000000
_cell_angle_beta 144.216026
_cell_angle_gamma 90.000000
_cell_volume 643.222889
_symmetry_space_group_name_H-M "P 21"
_symmetry_group_IT_number 4
_symmetry_cell_setting 'monoclinic'
loop_
_space_group_symop_operation_xyz
x,y,z
-x,1/2+y,-z
loop_
_atom_site_type_symbol
_atom_site_label
_atom_site_fract_x
_atom_site_fract_y
_atom_site_fract_z
Si Si1 0.824960 0.887870 0.139214
Si Si2 0.500150 0.060839 0.679310
Si Si3 0.331872 0.275705 0.753326
Si Si4 0.398641 0.776212 0.700719
Si Si5 0.778006 0.203466 0.184371
Si Si6 0.755644 0.764295 0.644033
Si Si7 0.946782 0.535394 0.908219
Si Si8 0.449673 0.480544 0.637221
O O1 0.857922 0.790419 0.271022
O O2 0.738295 0.037470 0.135538
O O3 0.639165 0.810199 0.932859
O O4 0.026877 0.944269 0.188914
O O5 0.382931 0.139066 0.711045
O O6 0.432917 0.155573 0.530160
O O7 0.382358 0.910199 0.611056
O O8 0.783794 0.048083 0.873759
O O9 0.327809 0.398006 0.659036
O O10 0.571999 0.285885 0.984843
O O11 0.220436 0.744801 0.684780
O O12 0.400473 0.641319 0.624509
O O13 0.018293 0.248106 0.286192
O O14 0.853648 0.694313 0.822247
O O15 0.645657 0.914132 0.542293
O O16 0.734747 0.464114 0.836113
#
# Coordination Sequence:
#
# PCOD9114681 Si02
#       8
#     2   2   2   2   2   2   2   2
#     4   9  18  36  65  91 126 174 211 273 324 388
#     4  10  21  40  66  93 127 182 208 274 332 395
#     4  10  18  38  67  94 122 171 224 267 330 389
#     4  10  20  35  61  99 131 162 224 274 323 394
#     4  10  18  38  65  90 135 169 212 278 334 380
#     4  10  23  42  66  89 130 177 217 268 338 392
#     4  10  22  45  63  92 136 175 218 278 339 385
#     4  11  24  38  67  98 127 172 232 276 322 409
#
# _framework density 24.874739000000002
#
# number of rings (size 3 to 8) (size 9 to 14) (size 15 to 20)
#    0.000    2.000    5.000    0.000    0.000    6.000 
#    4.500    0.000   11.000    0.000    0.000    0.000 
#    0.000    0.000    0.000    0.000    0.000    0.000 
#
# Total GULP energy -89338.064741 kJ/mol
# GULP energy per Si atom -5583.629046 kJ/mol
# Density = 2.481812 g / cm^3
# Si number density = 24.874739 Si / 1000 Ang^3
#
#
#
# Elastic Constant Matrix: (Units=GPa)
#
#
# Indices 1 2 3 4 5 6 
#
# 1 74.1754 15.3671 -6.3613 0.0000 -0.5880 0.0000
# 2 15.3671 132.3034 27.8347 0.0000 -4.8720 0.0000
# 3 -6.3613 27.8347 71.9472 0.0000 -14.1659 0.0000
# 4 0.0000 0.0000 0.0000 34.9071 0.0000 1.4637
# 5 -0.5880 -4.8720 -14.1659 0.0000 29.7606 0.0000
# 6 0.0000 0.0000 0.0000 1.4637 0.0000 25.4915
#
#
#
# Elastic Compliance Matrix: (Units=1/GPa)
#
#
# Indices 1 2 3 4 5 6 
#
# 1 0.014112 -0.002075 0.002249 0.000000 0.001010 0.000000
# 2 -0.002075 0.008534 -0.003551 0.000000 -0.000334 0.000000
# 3 0.002249 -0.003551 0.016955 0.000000 0.007534 0.000000
# 4 0.000000 0.000000 0.000000 0.028717 0.000000 -0.001649
# 5 0.001010 -0.000334 0.007534 0.000000 0.037153 0.000000
# 6 0.000000 0.000000 0.000000 -0.001649 0.000000 0.039324
#
#
# Mechanical properties :
#
#
# Convention : Reuss Voigt Hill
#
# Bulk Modulus (GPa) = 30.44304 39.12299 34.78302
# Shear Modulus (GPa) = 30.76973 34.13753 32.45363
#
# Velocity S-wave (km/s) = 3.52090 3.70858 3.61596
# Velocity P-wave (km/s) = 5.36601 5.83954 5.60778
#
# Compressibility (1/GPa) = 0.03284823
#
# Stress axis : x y z
#
# Youngs Moduli (GPa) = 70.85965 117.17579 58.97936
#
# Poissons Ratio (x) = 0.24317 -0.13267
# Poissons Ratio (y) = 0.14705 0.20943
# Poissons Ratio (z) = -0.15940 0.41609
#
# Static dielectric constant tensor:
#      x y z
#    x 2.023150 0.000000 -0.008890 
#    y 0.000000 1.986020 0.000000 
#    z -0.008890 0.000000 1.988540 
# 
# From -- ./inp_files/13979.got.cif
#   From: 2010.05.17/outbox.cif.g08.bks.cpg/sg4_7_cif.got.tgz:13979.got - 2010.06.03 18:43:04.
