data_PCOD9114658
_publ_section_title
;
Structure prediction by ZEFSAII (Michael W. Deem and Ramdas Pophale) SiO2 
 PCOD9114658
Probable space group: P 21
;
_chemical_formula_sum "Si O2"
_cell_formula_units_Z 14
_cell_length_a 16.030025
_cell_length_b 5.910180
_cell_length_c 11.820660
_cell_angle_alpha 90.000000
_cell_angle_beta 38.251754
_cell_angle_gamma 90.000000
_cell_volume 693.346068
_symmetry_space_group_name_H-M "P 21"
_symmetry_group_IT_number 4
_symmetry_cell_setting 'monoclinic'
loop_
_space_group_symop_operation_xyz
x,y,z
-x,1/2+y,-z
loop_
_atom_site_type_symbol
_atom_site_label
_atom_site_fract_x
_atom_site_fract_y
_atom_site_fract_z
Si Si1 0.614755 0.479480 0.451092
Si Si2 0.352971 0.967416 0.223430
Si Si3 0.680240 0.784993 0.200309
Si Si4 0.413045 0.167345 0.933076
Si Si5 0.348135 0.356744 0.406644
Si Si6 0.034619 0.407883 0.020623
Si Si7 0.184449 0.745037 0.590720
O O1 0.671997 0.536864 0.267315
O O2 0.461872 0.398834 0.615810
O O3 0.623313 0.708736 0.514663
O O4 0.709618 0.318313 0.423721
O O5 0.498500 0.855434 0.095065
O O6 0.241005 0.820369 0.408428
O O7 0.347190 0.199851 0.298151
O O8 0.341410 0.013970 0.103365
O O9 0.681258 0.767444 0.063683
O O10 0.807941 0.908974 0.117033
O O11 0.528672 0.026879 0.744601
O O12 0.203155 0.476460 0.572614
O O13 0.950846 0.361726 0.225145
O O14 0.993991 0.659683 0.013888
#
# Coordination Sequence:
#
# PCOD9114658 Si02
#       7
#     2   2   2   2   2   2   2
#     4  11  22  38  59 101 126 165 210 286 337 389
#     4  10  20  35  64  93 130 170 218 273 340 392
#     4  12  24  39  67 100 136 165 232 278 340 399
#     4  11  20  36  60  99 124 169 217 283 328 391
#     4  10  18  36  65  87 132 164 215 268 333 401
#     4  12  28  48  70  99 141 189 223 273 344 427
#     4  10  22  42  63  93 131 180 219 265 346 407
#
# _framework density 20.191935999999998
#
# number of rings (size 3 to 8) (size 9 to 14) (size 15 to 20)
#    0.000    1.143    7.143    1.714    4.000    1.143 
#    0.000    0.000    3.143    0.000    0.000    0.000 
#    0.000    0.000    0.000    0.000    0.000    0.000 
#
# Total GULP energy -78056.915578 kJ/mol
# GULP energy per Si atom -5575.493970 kJ/mol
# Density = 2.014598 g / cm^3
# Si number density = 20.191936 Si / 1000 Ang^3
#
#
#
# Elastic Constant Matrix: (Units=GPa)
#
#
# Indices 1 2 3 4 5 6 
#
# 1 67.9824 5.2621 17.0246 0.0000 11.9178 0.0000
# 2 5.2621 60.1047 -2.9412 0.0000 6.8391 0.0000
# 3 17.0246 -2.9412 68.1193 0.0000 11.2338 0.0000
# 4 0.0000 0.0000 0.0000 28.1808 0.0000 4.7937
# 5 11.9178 6.8391 11.2338 0.0000 39.3970 0.0000
# 6 0.0000 0.0000 0.0000 4.7937 0.0000 13.8513
#
#
#
# Elastic Compliance Matrix: (Units=1/GPa)
#
#
# Indices 1 2 3 4 5 6 
#
# 1 0.016336 -0.001177 -0.003518 0.000000 -0.003734 0.000000
# 2 -0.001177 0.017165 0.001540 0.000000 -0.003063 0.000000
# 3 -0.003518 0.001540 0.016259 0.000000 -0.003839 0.000000
# 4 0.000000 0.000000 0.000000 0.037705 0.000000 -0.013049
# 5 -0.003734 -0.003063 -0.003839 0.000000 0.028139 0.000000
# 6 0.000000 0.000000 0.000000 -0.013049 0.000000 0.076712
#
#
# Mechanical properties :
#
#
# Convention : Reuss Voigt Hill
#
# Bulk Modulus (GPa) = 23.01477 26.09973 24.55725
# Shear Modulus (GPa) = 23.46223 28.07653 25.76938
#
# Velocity S-wave (km/s) = 3.41245 3.73296 3.57630
# Velocity P-wave (km/s) = 5.19126 5.61550 5.40754
#
# Compressibility (1/GPa) = 0.04345036
#
# Stress axis : x y z
#
# Youngs Moduli (GPa) = 61.21281 58.25948 61.50437
#
# Poissons Ratio (x) = 0.06860 0.21636
# Poissons Ratio (y) = 0.07208 -0.09475
# Poissons Ratio (z) = 0.21534 -0.08975
#
# Static dielectric constant tensor:
#      x y z
#    x 1.727870 0.000000 0.024810 
#    y 0.000000 1.811980 0.000000 
#    z 0.024810 0.000000 1.762530 
# 
# From -- ./inp_files/7283.got.cif
#   From: 2010.05.17/outbox.cif.g08.bks.cpg/sg4_4_cif.got.tgz:7283.got - 2010.06.03 18:43:04.
