data_PCOD9114930
_publ_section_title
;
Structure prediction by ZEFSAII (Michael W. Deem and Ramdas Pophale) SiO2 
 PCOD9114930
Probable space group: P 21
;
_chemical_formula_sum "Si O2"
_cell_formula_units_Z 16
_cell_length_a 12.860237
_cell_length_b 8.181018
_cell_length_c 15.286071
_cell_angle_alpha 90.000000
_cell_angle_beta 152.334206
_cell_angle_gamma 90.000000
_cell_volume 746.729637
_symmetry_space_group_name_H-M "P 21"
_symmetry_group_IT_number 4
_symmetry_cell_setting 'monoclinic'
loop_
_space_group_symop_operation_xyz
x,y,z
-x,1/2+y,-z
loop_
_atom_site_type_symbol
_atom_site_label
_atom_site_fract_x
_atom_site_fract_y
_atom_site_fract_z
Si Si1 0.306172 0.482120 0.968177
Si Si2 0.750640 0.317289 0.299610
Si Si3 0.797193 0.839439 0.916915
Si Si4 0.249794 0.680505 0.202862
Si Si5 0.286007 0.293668 0.471481
Si Si6 0.529187 0.081179 0.273840
Si Si7 0.944275 0.573850 0.572106
Si Si8 0.211127 0.814246 0.976067
O O1 0.100787 0.464509 0.749853
O O2 0.330322 0.675947 0.005436
O O3 0.521358 0.390962 0.091176
O O4 0.250308 0.409434 0.021681
O O5 0.682902 0.187214 0.324267
O O6 0.911811 0.228251 0.352651
O O7 0.864661 0.469955 0.431635
O O8 0.610961 0.700175 0.767190
O O9 0.775103 0.986137 0.830614
O O10 0.040703 0.756865 0.097489
O O11 0.492031 0.742025 0.416627
O O12 0.225934 0.754458 0.087188
O O13 0.338146 0.452518 0.568280
O O14 0.253382 0.143722 0.515451
O O15 0.049951 0.316455 0.246301
O O16 0.348373 0.982454 0.079541
#
# Coordination Sequence:
#
# PCOD9114930 Si02
#       8
#     2   2   2   2   2   2   2   2
#     4   9  22  41  60  85 119 154 193 247 295 341
#     4  11  23  38  59  86 116 156 195 240 292 345
#     4  10  20  38  61  85 118 158 198 240 292 349
#     4  10  19  37  59  82 115 152 194 241 290 344
#     4  10  20  37  59  85 117 151 190 243 294 343
#     4  10  20  36  57  82 118 153 189 242 294 342
#     4  11  23  39  61  89 119 154 199 241 291 354
#     4   9  19  36  58  84 114 150 194 238 290 350
#
# _framework density 21.426765
#
# number of rings (size 3 to 8) (size 9 to 14) (size 15 to 20)
#    0.000    2.000    0.000    5.250    0.000    5.000 
#    0.000   13.750    0.000    0.000    0.000    0.000 
#    0.000    0.000    0.000    0.000    0.000    0.000 
#
# Total GULP energy -89390.439350 kJ/mol
# GULP energy per Si atom -5586.902459 kJ/mol
# Density = 2.137800 g / cm^3
# Si number density = 21.426765 Si / 1000 Ang^3
#
#
#
# Elastic Constant Matrix: (Units=GPa)
#
#
# Indices 1 2 3 4 5 6 
#
# 1 23.0033 1.8437 3.3145 0.0000 11.7112 0.0000
# 2 1.8437 74.0838 31.2650 0.0000 8.8360 0.0000
# 3 3.3145 31.2650 81.4676 0.0000 10.1890 0.0000
# 4 0.0000 0.0000 0.0000 39.2806 0.0000 16.9435
# 5 11.7112 8.8360 10.1890 0.0000 21.3639 0.0000
# 6 0.0000 0.0000 0.0000 16.9435 0.0000 19.8412
#
#
#
# Elastic Compliance Matrix: (Units=1/GPa)
#
#
# Indices 1 2 3 4 5 6 
#
# 1 0.060839 0.002197 0.001028 0.000000 -0.034750 0.000000
# 2 0.002197 0.016506 -0.005763 0.000000 -0.005282 0.000000
# 3 0.001028 -0.005763 0.015119 0.000000 -0.005390 0.000000
# 4 0.000000 0.000000 0.000000 0.040304 0.000000 -0.034418
# 5 -0.034750 -0.005282 -0.005390 0.000000 0.070612 0.000000
# 6 0.000000 0.000000 0.000000 -0.034418 0.000000 0.079791
#
#
# Mechanical properties :
#
#
# Convention : Reuss Voigt Hill
#
# Bulk Modulus (GPa) = 11.44338 27.93346 19.68842
# Shear Modulus (GPa) = 15.75409 25.57255 20.66332
#
# Velocity S-wave (km/s) = 2.71450 3.45844 3.10880
# Velocity P-wave (km/s) = 3.89576 5.38635 4.70051
#
# Compressibility (1/GPa) = 0.08738673
#
# Stress axis : x y z
#
# Youngs Moduli (GPa) = 16.43672 60.58485 66.14230
#
# Poissons Ratio (x) = -0.13309 -0.06798
# Poissons Ratio (y) = -0.03611 0.38119
# Poissons Ratio (z) = -0.01689 0.34916
#
# Static dielectric constant tensor:
#      x y z
#    x 1.764430 0.000000 0.005410 
#    y 0.000000 1.803750 0.000000 
#    z 0.005410 0.000000 1.773290 
# 
# From -- ./inp_files/12675.got.cif
#   From: 2010.05.17/outbox.cif.g08.bks.cpg/sg4_7_cif.got.tgz:12675.got - 2010.06.03 18:43:04.
