data_PCOD9114201
_publ_section_title
;
Structure prediction by ZEFSAII (Michael W. Deem and Ramdas Pophale) SiO2 
 PCOD9114201
Probable space group: P 2
;
_chemical_formula_sum "Si O2"
_cell_formula_units_Z 12
_cell_length_a 9.779840
_cell_length_b 10.228443
_cell_length_c 11.856982
_cell_angle_alpha 90.000000
_cell_angle_beta 25.749729
_cell_angle_gamma 90.000000
_cell_volume 515.283506
_symmetry_space_group_name_H-M "P 2"
_symmetry_group_IT_number 3
_symmetry_cell_setting 'monoclinic'
loop_
_space_group_symop_operation_xyz
x,y,z
-x,y,-z
loop_
_atom_site_type_symbol
_atom_site_label
_atom_site_fract_x
_atom_site_fract_y
_atom_site_fract_z
Si Si1 0.155380 0.901020 0.217314
Si Si2 0.155887 0.171381 0.494399
Si Si3 0.844112 0.034050 0.005601
Si Si4 0.139438 0.564635 0.020041
Si Si5 0.860563 0.640796 0.479958
Si Si6 0.155380 0.304411 0.717314
O O1 0.906422 0.797854 0.445427
O O2 0.500000 0.859562 0.000000
O O3 0.079570 0.048606 0.311304
O O4 0.147060 0.918778 0.090506
O O5 0.499999 0.102716 0.250001
O O6 0.147059 0.286654 0.590507
O O7 0.000000 0.230495 0.500000
O O8 0.000000 0.974937 0.000000
O O9 0.079569 0.156826 0.811304
O O10 0.500000 0.602716 0.749999
O O11 0.000000 0.608695 0.000000
O O12 0.000001 0.602716 0.249999
O O13 0.093578 0.407578 0.054572
O O14 0.000000 0.596736 0.500000
O O15 0.500000 0.345870 0.500000
#
# Coordination Sequence:
#
# PCOD9114201 Si02
#       6
#     2   2   2   2   2   2
#     4  11  24  44  73 104 151 202 246 317 395 464
#     4  11  23  42  71 113 150 192 250 309 392 473
#     4  11  23  42  71 113 150 192 250 309 392 473
#     4  12  28  52  78 110 150 207 267 325 389 459
#     4  12  28  52  78 110 150 207 267 325 389 459
#     4  11  24  44  73 104 151 202 246 317 395 464
#
# _framework density 23.288150999999999
#
# number of rings (size 3 to 8) (size 9 to 14) (size 15 to 20)
#    0.000    0.667    3.333    4.000    4.667    1.333 
#    6.000    0.000    0.000    0.000    0.000    0.000 
#    0.000    0.000    0.000    0.000    0.000    0.000 
#
# Total GULP energy -66964.741257 kJ/mol
# GULP energy per Si atom -5580.395105 kJ/mol
# Density = 2.323515 g / cm^3
# Si number density = 23.288151 Si / 1000 Ang^3
#
#
#
# Elastic Constant Matrix: (Units=GPa)
#
#
# Indices 1 2 3 4 5 6 
#
# 1 259.0393 31.2140 75.8187 0.0000 6.7954 0.0000
# 2 31.2140 77.9963 34.3830 0.0000 -5.2073 0.0000
# 3 75.8187 34.3830 152.5782 0.0000 -11.4603 0.0000
# 4 0.0000 0.0000 0.0000 54.3564 0.0000 12.5005
# 5 6.7954 -5.2073 -11.4603 0.0000 42.6079 0.0000
# 6 0.0000 0.0000 0.0000 12.5005 0.0000 24.1934
#
#
#
# Elastic Compliance Matrix: (Units=1/GPa)
#
#
# Indices 1 2 3 4 5 6 
#
# 1 0.004663 -0.000992 -0.002203 0.000000 -0.001458 0.000000
# 2 -0.000992 0.014480 -0.002679 0.000000 0.001207 0.000000
# 3 -0.002203 -0.002679 0.008424 0.000000 0.002290 0.000000
# 4 0.000000 0.000000 0.000000 0.020878 0.000000 -0.010787
# 5 -0.001458 0.001207 0.002290 0.000000 0.024466 0.000000
# 6 0.000000 0.000000 0.000000 -0.010787 0.000000 0.046907
#
#
# Mechanical properties :
#
#
# Convention : Reuss Voigt Hill
#
# Bulk Modulus (GPa) = 63.21770 85.82723 74.52246
# Shear Modulus (GPa) = 36.53896 47.44476 41.99186
#
# Velocity S-wave (km/s) = 3.96535 4.51853 4.25095
# Velocity P-wave (km/s) = 6.94047 8.00983 7.49425
#
# Compressibility (1/GPa) = 0.01581836
#
# Stress axis : x y z
#
# Youngs Moduli (GPa) = 214.45314 69.06119 118.70178
#
# Poissons Ratio (x) = 0.06853 0.26150
# Poissons Ratio (y) = 0.21280 0.31803
# Poissons Ratio (z) = 0.47244 0.18503
#
# Static dielectric constant tensor:
#      x y z
#    x 1.836680 0.000000 0.150060 
#    y 0.000000 1.834400 0.000000 
#    z 0.150060 0.000000 1.925380 
# 
# From -- ./inp_files/10912.got.cif
#   From: 2010.05.17/outbox.cif.g08.bks.cpg/sg3_6_cif.got.tgz:10912.got - 2010.06.03 18:33:08.
