data_PCOD9114702
_publ_section_title
;
Structure prediction by ZEFSAII (Michael W. Deem and Ramdas Pophale) SiO2 
 PCOD9114702
Probable space group: P 21
;
_chemical_formula_sum "Si O2"
_cell_formula_units_Z 12
_cell_length_a 10.113244
_cell_length_b 9.170465
_cell_length_c 4.634436
_cell_angle_alpha 90.000000
_cell_angle_beta 90.000467
_cell_angle_gamma 90.000000
_cell_volume 429.812194
_symmetry_space_group_name_H-M "P 21"
_symmetry_group_IT_number 4
_symmetry_cell_setting 'monoclinic'
loop_
_space_group_symop_operation_xyz
x,y,z
-x,1/2+y,-z
loop_
_atom_site_type_symbol
_atom_site_label
_atom_site_fract_x
_atom_site_fract_y
_atom_site_fract_z
Si Si1 0.739036 0.572570 0.270229
Si Si2 0.260962 0.281566 0.270226
Si Si3 0.603415 0.326759 0.892716
Si Si4 0.603421 0.027382 0.107276
Si Si5 0.000000 0.927071 0.684092
Si Si6 0.156332 0.677075 0.000012
O O1 0.669676 0.677068 0.500002
O O2 0.869990 0.509206 0.436294
O O3 0.775279 0.677068 0.000003
O O4 0.656358 0.436715 0.142687
O O5 0.343638 0.417423 0.142689
O O6 0.130008 0.344929 0.436288
O O7 0.741086 0.258268 0.782466
O O8 0.535483 0.177069 0.999997
O O9 0.499995 0.427071 0.726265
O O10 0.741093 0.095877 0.217516
O O11 0.932483 0.053818 0.867551
O O12 0.067517 0.800334 0.867581
#
# Coordination Sequence:
#
# PCOD9114702 Si02
#       6
#     2   2   2   2   2   2
#     4  11  24  43  69  99 139 183 231 291 351 418
#     4  11  24  43  69  99 139 183 231 291 351 418
#     4   9  19  39  69 101 138 184 235 289 349 417
#     4   9  19  39  69 101 138 184 235 289 349 417
#     4  10  18  40  64 100 136 180 234 284 356 416
#     4   8  18  32  66  94 136 182 228 288 348 414
#
# _framework density 27.919173000000001
#
# number of rings (size 3 to 8) (size 9 to 14) (size 15 to 20)
#    1.000    1.333    1.667    1.000    0.000    1.333 
#    0.000    6.667    0.000    0.000    0.000    0.000 
#    0.000    0.000    0.000    0.000    0.000    0.000 
#
# Total GULP energy -66945.599802 kJ/mol
# GULP energy per Si atom -5578.799983 kJ/mol
# Density = 2.785563 g / cm^3
# Si number density = 27.919173 Si / 1000 Ang^3
#
#
#
# Elastic Constant Matrix: (Units=GPa)
#
#
# Indices 1 2 3 4 5 6 
#
# 1 127.3527 77.1054 24.9051 0.0000 1.6790 0.0000
# 2 77.1054 256.1055 56.6043 0.0000 1.9011 0.0000
# 3 24.9051 56.6043 94.9193 0.0000 1.3126 0.0000
# 4 0.0000 0.0000 0.0000 54.0628 0.0000 3.7587
# 5 1.6790 1.9011 1.3126 0.0000 42.1857 0.0000
# 6 0.0000 0.0000 0.0000 3.7587 0.0000 94.9029
#
#
#
# Elastic Compliance Matrix: (Units=1/GPa)
#
#
# Indices 1 2 3 4 5 6 
#
# 1 0.009675 -0.002708 -0.000921 0.000000 -0.000234 0.000000
# 2 -0.002708 0.005256 -0.002423 0.000000 -0.000054 0.000000
# 3 -0.000921 -0.002423 0.012225 0.000000 -0.000235 0.000000
# 4 0.000000 0.000000 0.000000 0.018548 0.000000 -0.000735
# 5 -0.000234 -0.000054 -0.000235 0.000000 0.023724 0.000000
# 6 0.000000 0.000000 0.000000 -0.000735 0.000000 0.010566
#
#
# Mechanical properties :
#
#
# Convention : Reuss Voigt Hill
#
# Bulk Modulus (GPa) = 66.43189 88.40078 77.41633
# Shear Modulus (GPa) = 51.48621 59.54779 55.51700
#
# Velocity S-wave (km/s) = 4.29898 4.62330 4.46409
# Velocity P-wave (km/s) = 6.96331 7.76091 7.37290
#
# Compressibility (1/GPa) = 0.01505301
#
# Stress axis : x y z
#
# Youngs Moduli (GPa) = 103.36362 190.26847 81.79940
#
# Poissons Ratio (x) = 0.51515 0.07530
# Poissons Ratio (y) = 0.27986 0.19821
# Poissons Ratio (z) = 0.09516 0.46103
#
# Static dielectric constant tensor:
#      x y z
#    x 2.227420 0.000000 0.007770 
#    y 0.000000 2.111460 0.000000 
#    z 0.007770 0.000000 2.143050 
# 
# From -- ./inp_files/2650.got.cif
#   From: 2010.05.17/outbox.cif.g08.bks.cpg/sg4_2_cif.got.tgz:2650.got - 2010.06.03 18:43:04.
