data_PCOD9114004
_publ_section_title
;
Structure prediction by ZEFSAII (Michael W. Deem and Ramdas Pophale) SiO2 
 PCOD9114004
Probable space group: P 2
;
_chemical_formula_sum "Si O2"
_cell_formula_units_Z 11
_cell_length_a 8.334739
_cell_length_b 5.057885
_cell_length_c 10.986114
_cell_angle_alpha 90.000000
_cell_angle_beta 71.153431
_cell_angle_gamma 90.000000
_cell_volume 438.302381
_symmetry_space_group_name_H-M "P 2"
_symmetry_group_IT_number 3
_symmetry_cell_setting 'monoclinic'
loop_
_space_group_symop_operation_xyz
x,y,z
-x,y,-z
loop_
_atom_site_type_symbol
_atom_site_label
_atom_site_fract_x
_atom_site_fract_y
_atom_site_fract_z
Si Si1 0.715501 0.998050 0.789641
Si Si2 0.820206 0.345234 0.557876
Si Si3 0.500000 0.366630 0.000000
Si Si4 0.008287 0.720427 0.852192
Si Si5 0.800070 0.232569 0.288164
Si Si6 0.510413 0.610161 0.253101
O O1 0.543576 0.916027 0.757148
O O2 0.830344 0.786902 0.830906
O O3 0.834726 0.128271 0.659665
O O4 0.650828 0.188930 0.911424
O O5 0.783379 0.214634 0.437370
O O6 0.667684 0.521770 0.643200
O O7 0.000000 0.490919 0.500000
O O8 0.549279 0.535886 0.103981
O O9 0.053213 0.427834 0.795868
O O10 0.150811 0.941614 0.776178
O O11 0.000000 0.729610 0.000000
O O12 0.642894 0.425174 0.290262
#
# Coordination Sequence:
#
# PCOD9114004 Si02
#       6
#     2   2   1   2   2   2
#     4  11  25  45  77 109 148 210 253 319 384 470
#     4  11  24  48  72 105 147 203 254 313 383 460
#     4  10  24  44  74 104 150 192 262 300 398 442
#     4  12  28  48  79 112 158 200 259 316 390 459
#     4  12  28  49  74 114 155 198 259 322 381 462
#     4  11  26  44  76 106 153 199 259 319 385 459
#
# _framework density 25.096830000000001
#
# number of rings (size 3 to 8) (size 9 to 14) (size 15 to 20)
#    0.000    0.727    1.818    3.818   15.273    0.727 
#    0.000    0.000    0.000    0.000    0.000    0.000 
#    0.000    0.000    0.000    0.000    0.000    0.000 
#
# Total GULP energy -61419.004616 kJ/mol
# GULP energy per Si atom -5583.545874 kJ/mol
# Density = 2.503971 g / cm^3
# Si number density = 25.096830 Si / 1000 Ang^3
#
#
#
# Elastic Constant Matrix: (Units=GPa)
#
#
# Indices 1 2 3 4 5 6 
#
# 1 88.1631 2.8849 18.0907 0.0000 -6.8145 0.0000
# 2 2.8849 87.8231 26.0497 0.0000 -14.1241 0.0000
# 3 18.0907 26.0497 199.7271 0.0000 -6.6705 0.0000
# 4 0.0000 0.0000 0.0000 13.9315 0.0000 -1.2675
# 5 -6.8145 -14.1241 -6.6705 0.0000 20.5577 0.0000
# 6 0.0000 0.0000 0.0000 -1.2675 0.0000 32.9943
#
#
#
# Elastic Compliance Matrix: (Units=1/GPa)
#
#
# Indices 1 2 3 4 5 6 
#
# 1 0.011839 0.000550 -0.001011 0.000000 0.003974 0.000000
# 2 0.000550 0.013221 -0.001481 0.000000 0.008785 0.000000
# 3 -0.001011 -0.001481 0.005304 0.000000 0.000368 0.000000
# 4 0.000000 0.000000 0.000000 0.072032 0.000000 0.002767
# 5 0.003974 0.008785 0.000368 0.000000 0.056116 0.000000
# 6 0.000000 0.000000 0.000000 0.002767 0.000000 0.030415
#
#
# Mechanical properties :
#
#
# Convention : Reuss Voigt Hill
#
# Bulk Modulus (GPa) = 37.76435 52.19596 44.98015
# Shear Modulus (GPa) = 24.79706 35.40921 30.10314
#
# Velocity S-wave (km/s) = 3.14675 3.76027 3.46711
# Velocity P-wave (km/s) = 5.31816 6.30047 5.83004
#
# Compressibility (1/GPa) = 0.02648000
#
# Stress axis : x y z
#
# Youngs Moduli (GPa) = 84.46410 75.64001 188.54143
#
# Poissons Ratio (x) = -0.04162 0.19069
# Poissons Ratio (y) = -0.04648 0.27918
# Poissons Ratio (z) = 0.08543 0.11200
#
# Static dielectric constant tensor:
#      x y z
#    x 2.139030 0.000000 0.020820 
#    y 0.000000 2.033490 0.000000 
#    z 0.020820 0.000000 1.845950 
# 
# From -- ./inp_files/4845.got.cif
#   From: 2010.05.17/outbox.cif.g08.bks.cpg/sg3_3_cif.got.tgz:4845.got - 2010.06.03 18:33:08.
