data_PCOD9114588
_publ_section_title
;
Structure prediction by ZEFSAII (Michael W. Deem and Ramdas Pophale) SiO2 
 PCOD9114588
Probable space group: P 21
;
_chemical_formula_sum "Si O2"
_cell_formula_units_Z 16
_cell_length_a 8.660283
_cell_length_b 9.771378
_cell_length_c 7.371303
_cell_angle_alpha 90.000000
_cell_angle_beta 97.972046
_cell_angle_gamma 90.000000
_cell_volume 617.752715
_symmetry_space_group_name_H-M "P 21"
_symmetry_group_IT_number 4
_symmetry_cell_setting 'monoclinic'
loop_
_space_group_symop_operation_xyz
x,y,z
-x,1/2+y,-z
loop_
_atom_site_type_symbol
_atom_site_label
_atom_site_fract_x
_atom_site_fract_y
_atom_site_fract_z
Si Si1 0.562246 0.676400 0.533181
Si Si2 0.299250 0.360238 0.708622
Si Si3 0.799792 0.229491 0.578257
Si Si4 0.830852 0.530879 0.705953
Si Si5 0.909808 0.598821 0.298612
Si Si6 0.857771 0.144920 0.202288
Si Si7 0.394776 0.986333 0.810727
Si Si8 0.443824 0.733376 0.998751
O O1 0.652417 0.814533 0.485836
O O2 0.378800 0.695562 0.489810
O O3 0.666926 0.608113 0.706535
O O4 0.584386 0.560306 0.377661
O O5 0.166968 0.249521 0.742733
O O6 0.231582 0.508458 0.736568
O O7 0.458927 0.321436 0.839608
O O8 0.810742 0.368718 0.694294
O O9 0.869730 0.241452 0.383736
O O10 0.905729 0.114187 0.692326
O O11 0.887611 0.562060 0.507764
O O12 0.973843 0.596305 0.839963
O O13 0.789819 0.499834 0.175473
O O14 0.741241 0.207743 0.035341
O O15 0.459180 0.833232 0.827681
O O16 0.484778 0.084782 0.962858
#
# Coordination Sequence:
#
# PCOD9114588 Si02
#       8
#     2   2   2   2   2   2   2   2
#     4   9  21  35  50  77 116 144 168 231 286 329
#     4   9  18  35  53  77 107 137 185 228 261 318
#     4  11  20  32  56  79 111 148 173 224 290 340
#     4   9  19  34  49  79 111 138 185 224 270 332
#     4   8  17  33  51  75 103 141 175 225 267 314
#     4  11  19  31  58  83 103 146 189 220 275 328
#     4   9  18  35  56  78 110 140 186 231 268 321
#     4  10  18  33  59  82 103 140 189 235 265 308
#
# _framework density 25.900331999999999
#
# number of rings (size 3 to 8) (size 9 to 14) (size 15 to 20)
#    0.000    3.000    2.500    1.500    1.750    0.000 
#    0.000    0.000    0.000   18.000    0.000    0.000 
#    0.000    0.000    0.000    0.000    0.000    0.000 
#
# Total GULP energy -89223.135066 kJ/mol
# GULP energy per Si atom -5576.445942 kJ/mol
# Density = 2.584138 g / cm^3
# Si number density = 25.900332 Si / 1000 Ang^3
#
#
#
# Elastic Constant Matrix: (Units=GPa)
#
#
# Indices 1 2 3 4 5 6 
#
# 1 122.2500 23.5548 37.9387 0.0000 48.4615 0.0000
# 2 23.5548 110.3415 18.7191 0.0000 26.1383 0.0000
# 3 37.9387 18.7191 80.9351 0.0000 41.7035 0.0000
# 4 0.0000 0.0000 0.0000 32.0453 0.0000 11.8038
# 5 48.4615 26.1383 41.7035 0.0000 54.8387 0.0000
# 6 0.0000 0.0000 0.0000 11.8038 0.0000 27.8598
#
#
#
# Elastic Compliance Matrix: (Units=1/GPa)
#
#
# Indices 1 2 3 4 5 6 
#
# 1 0.012595 -0.000062 -0.000279 0.000000 -0.010888 0.000000
# 2 -0.000062 0.010219 0.000242 0.000000 -0.005000 0.000000
# 3 -0.000279 0.000242 0.020329 0.000000 -0.015328 0.000000
# 4 0.000000 0.000000 0.000000 0.036977 0.000000 -0.015667
# 5 -0.010888 -0.005000 -0.015328 0.000000 0.041897 0.000000
# 6 0.000000 0.000000 0.000000 -0.015667 0.000000 0.042532
#
#
# Mechanical properties :
#
#
# Convention : Reuss Voigt Hill
#
# Bulk Modulus (GPa) = 23.28593 52.66130 37.97361
# Shear Modulus (GPa) = 27.92335 38.50302 33.21319
#
# Velocity S-wave (km/s) = 3.28702 3.85981 3.58487
# Velocity P-wave (km/s) = 4.83902 6.34355 5.64166
#
# Compressibility (1/GPa) = 0.04294440
#
# Stress axis : x y z
#
# Youngs Moduli (GPa) = 79.39785 97.85281 49.19191
#
# Poissons Ratio (x) = 0.00607 0.01373
# Poissons Ratio (y) = 0.00492 -0.01190
# Poissons Ratio (z) = 0.02216 -0.02367
#
# Static dielectric constant tensor:
#      x y z
#    x 2.148140 0.000000 -0.048050 
#    y 0.000000 2.033370 0.000000 
#    z -0.048050 0.000000 2.144390 
# 
# From -- ./inp_files/11157.got.cif
#   From: 2010.05.17/outbox.cif.g08.bks.cpg/sg4_6_cif.got.tgz:11157.got - 2010.06.03 18:43:04.
