data_PCOD9114670
_publ_section_title
;
Structure prediction by ZEFSAII (Michael W. Deem and Ramdas Pophale) SiO2 
 PCOD9114670
Probable space group: P 21
;
_chemical_formula_sum "Si O2"
_cell_formula_units_Z 16
_cell_length_a 14.958927
_cell_length_b 7.378737
_cell_length_c 19.882952
_cell_angle_alpha 90.000000
_cell_angle_beta 162.574625
_cell_angle_gamma 90.000000
_cell_volume 657.214372
_symmetry_space_group_name_H-M "P 21"
_symmetry_group_IT_number 4
_symmetry_cell_setting 'monoclinic'
loop_
_space_group_symop_operation_xyz
x,y,z
-x,1/2+y,-z
loop_
_atom_site_type_symbol
_atom_site_label
_atom_site_fract_x
_atom_site_fract_y
_atom_site_fract_z
Si Si1 0.813432 0.526390 0.670183
Si Si2 0.386230 0.620982 0.606188
Si Si3 0.609910 0.264106 0.789935
Si Si4 0.448089 0.388248 0.815513
Si Si5 0.742810 0.789821 0.743189
Si Si6 0.825758 0.535078 0.378616
Si Si7 0.679981 0.739419 0.955650
Si Si8 0.841823 0.494397 0.544199
O O1 0.806431 0.681792 0.720223
O O2 0.469257 0.460951 0.420099
O O3 0.943674 0.572949 0.689081
O O4 0.016962 0.351629 0.833874
O O5 0.355922 0.404800 0.583305
O O6 0.555805 0.667631 0.659716
O O7 0.594202 0.663913 0.820309
O O8 0.136438 0.777295 0.434127
O O9 0.606786 0.289742 0.867652
O O10 0.506799 0.059473 0.704281
O O11 0.928270 0.320559 0.990534
O O12 0.316788 0.211902 0.758767
O O13 0.655836 0.557434 0.984500
O O14 0.135190 0.480300 0.566870
O O15 0.579978 0.377270 0.206650
O O16 0.930464 0.560522 0.533232
#
# Coordination Sequence:
#
# PCOD9114670 Si02
#       8
#     2   2   2   2   2   2   2   2
#     4  11  25  40  57  90 131 164 196 256 313 364
#     4   9  21  37  61  86 112 161 206 250 285 359
#     4  10  22  38  62  90 116 157 213 253 292 356
#     4  10  19  34  65  95 112 150 205 259 302 357
#     4  11  25  37  60  87 123 171 206 243 308 360
#     4  10  18  37  67  94 114 156 207 253 304 362
#     4  10  21  39  61  87 128 151 201 263 302 359
#     4   9  21  40  59  87 126 156 198 253 302 365
#
# _framework density 24.345177
#
# number of rings (size 3 to 8) (size 9 to 14) (size 15 to 20)
#    0.000    2.000    1.250    2.250   10.500    0.000 
#    0.000    0.000    5.500    0.000    0.000    0.000 
#    0.000    0.000    0.000    0.000    0.000    0.000 
#
# Total GULP energy -89097.416762 kJ/mol
# GULP energy per Si atom -5568.588548 kJ/mol
# Density = 2.428977 g / cm^3
# Si number density = 24.345177 Si / 1000 Ang^3
#
#
#
# Elastic Constant Matrix: (Units=GPa)
#
#
# Indices 1 2 3 4 5 6 
#
# 1 93.3025 7.5150 11.5175 0.0000 3.3504 0.0000
# 2 7.5150 99.6741 2.0525 0.0000 -6.4254 0.0000
# 3 11.5175 2.0525 35.1306 0.0000 12.3109 0.0000
# 4 0.0000 0.0000 0.0000 38.4588 0.0000 3.6036
# 5 3.3504 -6.4254 12.3109 0.0000 27.4540 0.0000
# 6 0.0000 0.0000 0.0000 3.6036 0.0000 32.4891
#
#
#
# Elastic Compliance Matrix: (Units=1/GPa)
#
#
# Indices 1 2 3 4 5 6 
#
# 1 0.011229 -0.000765 -0.003671 0.000000 0.000097 0.000000
# 2 -0.000765 0.010324 -0.001462 0.000000 0.003165 0.000000
# 3 -0.003671 -0.001462 0.035257 0.000000 -0.015704 0.000000
# 4 0.000000 0.000000 0.000000 0.026275 0.000000 -0.002914
# 5 0.000097 0.003165 -0.015704 0.000000 0.044196 0.000000
# 6 0.000000 0.000000 0.000000 -0.002914 0.000000 0.031103
#
#
# Mechanical properties :
#
#
# Convention : Reuss Voigt Hill
#
# Bulk Modulus (GPa) = 22.21397 30.03081 26.12239
# Shear Modulus (GPa) = 27.00021 33.48186 30.24103
#
# Velocity S-wave (km/s) = 3.33386 3.71252 3.52828
# Velocity P-wave (km/s) = 4.89530 5.54430 5.22988
#
# Compressibility (1/GPa) = 0.04501672
#
# Stress axis : x y z
#
# Youngs Moduli (GPa) = 89.05457 96.85707 28.36297
#
# Poissons Ratio (x) = 0.07408 0.10411
# Poissons Ratio (y) = 0.06811 0.04146
# Poissons Ratio (z) = 0.32688 0.14157
#
# Static dielectric constant tensor:
#      x y z
#    x 1.965200 0.000000 -0.049000 
#    y 0.000000 2.015780 0.000000 
#    z -0.049000 0.000000 1.987380 
# 
# From -- ./inp_files/15840.got.cif
#   From: 2010.05.17/outbox.cif.g08.bks.cpg/sg4_8_cif.got.tgz:15840.got - 2010.06.03 18:43:04.
