data_PCOD9114387
_publ_section_title
;
Structure prediction by ZEFSAII (Michael W. Deem and Ramdas Pophale) SiO2 
 PCOD9114387
Probable space group: P 2
;
_chemical_formula_sum "Si O2"
_cell_formula_units_Z 14
_cell_length_a 15.989891
_cell_length_b 5.268405
_cell_length_c 21.439810
_cell_angle_alpha 90.000000
_cell_angle_beta 19.780600
_cell_angle_gamma 90.000000
_cell_volume 611.224484
_symmetry_space_group_name_H-M "P 2"
_symmetry_group_IT_number 3
_symmetry_cell_setting 'monoclinic'
loop_
_space_group_symop_operation_xyz
x,y,z
-x,y,-z
loop_
_atom_site_type_symbol
_atom_site_label
_atom_site_fract_x
_atom_site_fract_y
_atom_site_fract_z
Si Si1 0.957411 0.507620 0.398659
Si Si2 0.139168 0.284949 0.841143
Si Si3 0.840334 0.005346 0.553476
Si Si4 0.500000 0.661795 0.000000
Si Si5 0.364570 0.890672 0.965531
Si Si6 0.370491 0.572601 0.490348
Si Si7 0.929233 0.381893 0.862521
Si Si8 0.500000 0.967125 0.500000
O O1 0.943490 0.736525 0.457733
O O2 0.779605 0.604835 0.467794
O O3 0.247988 0.497525 0.177967
O O4 0.859196 0.235102 0.490910
O O5 0.345326 0.491748 0.717072
O O6 0.942787 0.380987 0.927975
O O7 0.301439 0.095212 0.685500
O O8 0.000000 0.186223 0.000000
O O9 0.570905 0.939369 0.768355
O O10 0.000000 0.098967 0.500000
O O11 0.518463 0.835010 0.048920
O O12 0.202470 0.642429 0.064499
O O13 0.208001 0.145979 0.071806
O O14 0.356780 0.793317 0.550577
O O15 0.207907 0.362834 0.640418
#
# Coordination Sequence:
#
# PCOD9114387 Si02
#       8
#     2   2   2   1   2   2   2   1
#     4  12  30  47  80 115 157 208 263 326 393 477
#     4  12  29  47  79 118 157 206 273 330 402 481
#     4  12  28  51  75 110 164 205 258 327 399 463
#     4  12  28  50  80 118 150 206 280 314 394 482
#     4  12  29  47  80 112 155 205 264 324 395 474
#     4  12  27  49  77 111 159 207 267 322 407 468
#     4  12  26  51  77 112 155 210 259 329 396 472
#     4  12  24  54  80 108 162 212 264 336 400 482
#
# _framework density 22.904841999999999
#
# number of rings (size 3 to 8) (size 9 to 14) (size 15 to 20)
#    0.000    0.000    5.714    2.143   10.000    1.714 
#    0.000    0.000    0.000    0.000    0.000    0.000 
#    0.000    0.000    0.000    0.000    0.000    0.000 
#
# Total GULP energy -78272.080562 kJ/mol
# GULP energy per Si atom -5590.862897 kJ/mol
# Density = 2.285271 g / cm^3
# Si number density = 22.904842 Si / 1000 Ang^3
#
#
#
# Elastic Constant Matrix: (Units=GPa)
#
#
# Indices 1 2 3 4 5 6 
#
# 1 116.7426 21.1168 46.7346 0.0000 -6.0619 0.0000
# 2 21.1168 117.2241 63.5247 0.0000 1.2349 0.0000
# 3 46.7346 63.5247 112.2122 0.0000 23.1306 0.0000
# 4 0.0000 0.0000 0.0000 27.5702 0.0000 -11.6585
# 5 -6.0619 1.2349 23.1306 0.0000 36.8916 0.0000
# 6 0.0000 0.0000 0.0000 -11.6585 0.0000 149.7675
#
#
#
# Elastic Compliance Matrix: (Units=1/GPa)
#
#
# Indices 1 2 3 4 5 6 
#
# 1 0.011364 0.001646 -0.006934 0.000000 0.006160 0.000000
# 2 0.001646 0.013245 -0.009357 0.000000 0.005694 0.000000
# 3 -0.006934 -0.009357 0.019830 0.000000 -0.013260 0.000000
# 4 0.000000 0.000000 0.000000 0.037506 0.000000 0.002920
# 5 0.006160 0.005694 -0.013260 0.000000 0.036242 0.000000
# 6 0.000000 0.000000 0.000000 0.002920 0.000000 0.006904
#
#
# Mechanical properties :
#
#
# Convention : Reuss Voigt Hill
#
# Bulk Modulus (GPa) = 66.01783 67.65902 66.83842
# Shear Modulus (GPa) = 31.36135 57.16606 44.26371
#
# Velocity S-wave (km/s) = 3.70429 5.00123 4.40080
# Velocity P-wave (km/s) = 6.86883 7.93429 7.42071
#
# Compressibility (1/GPa) = 0.01514742
#
# Stress axis : x y z
#
# Youngs Moduli (GPa) = 87.99715 75.50000 50.42789
#
# Poissons Ratio (x) = -0.12426 0.34969
# Poissons Ratio (y) = -0.14483 0.47187
# Poissons Ratio (z) = 0.61021 0.70648
#
# Static dielectric constant tensor:
#      x y z
#    x 1.097600 0.000000 0.247140 
#    y 0.000000 1.887710 0.000000 
#    z 0.247140 0.000000 1.838550 
# 
# From -- ./inp_files/16028.got.cif
#   From: 2010.05.17/outbox.cif.g08.bks.cpg/sg3_9_cif.got.tgz:16028.got - 2010.06.03 18:33:08.
