data_PCOD9114507
_publ_section_title
;
Structure prediction by ZEFSAII (Michael W. Deem and Ramdas Pophale) SiO2 
 PCOD9114507
Probable space group: P 21
;
_chemical_formula_sum "Si O2"
_cell_formula_units_Z 12
_cell_length_a 11.632715
_cell_length_b 5.292088
_cell_length_c 7.831711
_cell_angle_alpha 90.000000
_cell_angle_beta 104.600757
_cell_angle_gamma 90.000000
_cell_volume 466.560707
_symmetry_space_group_name_H-M "P 21"
_symmetry_group_IT_number 4
_symmetry_cell_setting 'monoclinic'
loop_
_space_group_symop_operation_xyz
x,y,z
-x,1/2+y,-z
loop_
_atom_site_type_symbol
_atom_site_label
_atom_site_fract_x
_atom_site_fract_y
_atom_site_fract_z
Si Si1 0.068727 0.694100 0.062356
Si Si2 0.252638 0.154636 0.329217
Si Si3 0.621067 0.152196 0.702517
Si Si4 0.605866 0.912614 0.341733
Si Si5 0.173404 0.636921 0.747359
Si Si6 0.961263 0.944786 0.621835
O O1 0.080773 0.670367 0.271303
O O2 0.156695 0.608803 0.942772
O O3 0.968885 0.475120 0.001011
O O4 0.314942 0.383142 0.243179
O O5 0.315722 0.197053 0.535856
O O6 0.117049 0.226177 0.315880
O O7 0.287272 0.886102 0.266552
O O8 0.510250 0.265047 0.765319
O O9 0.574663 0.101761 0.488888
O O10 0.692151 0.072858 0.252741
O O11 0.092939 0.471020 0.586317
O O12 0.101832 0.896758 0.678480
#
# Coordination Sequence:
#
# PCOD9114507 Si02
#       6
#     2   2   2   2   2   2
#     4  10  22  41  57  82 124 158 194 244 301 359
#     4   9  19  30  53  78 110 155 189 235 300 346
#     4  10  17  33  50  83 113 151 195 243 293 338
#     4   9  18  32  54  82 116 151 197 246 284 356
#     4  10  21  36  60  96 113 166 199 246 299 372
#     4  10  21  36  60  89 126 155 196 254 299 363
#
# _framework density 25.720126
#
# number of rings (size 3 to 8) (size 9 to 14) (size 15 to 20)
#    1.000    1.333    1.667    1.000    2.333    2.667 
#    3.000    0.000    0.000    2.000    0.000    0.000 
#    0.000    0.000    0.000    0.000    0.000    0.000 
#
# Total GULP energy -66806.123785 kJ/mol
# GULP energy per Si atom -5567.176982 kJ/mol
# Density = 2.566159 g / cm^3
# Si number density = 25.720126 Si / 1000 Ang^3
#
#
#
# Elastic Constant Matrix: (Units=GPa)
#
#
# Indices 1 2 3 4 5 6 
#
# 1 117.7239 34.5062 37.1097 0.0000 -39.7021 0.0000
# 2 34.5062 130.8993 36.2802 0.0000 -6.9452 0.0000
# 3 37.1097 36.2802 96.8464 0.0000 -16.6387 0.0000
# 4 0.0000 0.0000 0.0000 36.5363 0.0000 1.6139
# 5 -39.7021 -6.9452 -16.6387 0.0000 36.7212 0.0000
# 6 0.0000 0.0000 0.0000 1.6139 0.0000 45.6083
#
#
#
# Elastic Compliance Matrix: (Units=1/GPa)
#
#
# Indices 1 2 3 4 5 6 
#
# 1 0.014853 -0.002520 -0.002245 0.000000 0.014565 0.000000
# 2 -0.002520 0.008953 -0.002782 0.000000 -0.002292 0.000000
# 3 -0.002245 -0.002782 0.012710 0.000000 0.002806 0.000000
# 4 0.000000 0.000000 0.000000 0.027413 0.000000 -0.000970
# 5 0.014565 -0.002292 0.002806 0.000000 0.043817 0.000000
# 6 0.000000 0.000000 0.000000 -0.000970 0.000000 0.021960
#
#
# Mechanical properties :
#
#
# Convention : Reuss Voigt Hill
#
# Bulk Modulus (GPa) = 46.68214 62.36242 54.52228
# Shear Modulus (GPa) = 32.90747 39.61139 36.25943
#
# Velocity S-wave (km/s) = 3.58081 3.92866 3.75876
# Velocity P-wave (km/s) = 5.94018 6.69913 6.33104
#
# Compressibility (1/GPa) = 0.02142147
#
# Stress axis : x y z
#
# Youngs Moduli (GPa) = 67.32785 111.69040 78.67770
#
# Poissons Ratio (x) = 0.28150 0.17662
# Poissons Ratio (y) = 0.16969 0.21889
# Poissons Ratio (z) = 0.15114 0.31073
#
# Static dielectric constant tensor:
#      x y z
#    x 2.143890 0.000000 0.066020 
#    y 0.000000 2.112900 0.000000 
#    z 0.066020 0.000000 2.066920 
# 
# From -- ./inp_files/7327.got.cif
#   From: 2010.05.17/outbox.cif.g08.bks.cpg/sg4_4_cif.got.tgz:7327.got - 2010.06.03 18:43:04.
