data_PCOD9114853
_publ_section_title
;
Structure prediction by ZEFSAII (Michael W. Deem and Ramdas Pophale) SiO2 
 PCOD9114853
Probable space group: P 21
;
_chemical_formula_sum "Si O2"
_cell_formula_units_Z 16
_cell_length_a 7.640392
_cell_length_b 5.064350
_cell_length_c 18.303358
_cell_angle_alpha 90.000000
_cell_angle_beta 74.418547
_cell_angle_gamma 90.000000
_cell_volume 682.195657
_symmetry_space_group_name_H-M "P 21"
_symmetry_group_IT_number 4
_symmetry_cell_setting 'monoclinic'
loop_
_space_group_symop_operation_xyz
x,y,z
-x,1/2+y,-z
loop_
_atom_site_type_symbol
_atom_site_label
_atom_site_fract_x
_atom_site_fract_y
_atom_site_fract_z
Si Si1 0.373781 0.717510 0.202356
Si Si2 0.094278 0.348525 0.460375
Si Si3 0.478257 0.427296 0.958015
Si Si4 0.790088 0.745707 0.214210
Si Si5 0.291698 0.221660 0.294888
Si Si6 0.611765 0.141744 0.480123
Si Si7 0.920180 0.753247 0.044296
Si Si8 0.292170 0.752676 0.691266
O O1 0.383498 0.822188 0.118947
O O2 0.585148 0.715406 0.204770
O O3 0.294760 0.431567 0.228565
O O4 0.275324 0.930203 0.264559
O O5 0.141070 0.285708 0.371746
O O6 0.267732 0.495254 0.474197
O O7 0.944831 0.574596 0.493040
O O8 0.275523 0.377864 0.952029
O O9 0.501124 0.732601 0.975220
O O10 0.923901 0.710351 0.130969
O O11 0.796679 0.527291 0.276031
O O12 0.802161 0.029829 0.249392
O O13 0.492411 0.246532 0.310474
O O14 0.462269 0.916759 0.481069
O O15 0.715068 0.196420 0.393389
O O16 0.942374 0.474889 0.000778
#
# Coordination Sequence:
#
# PCOD9114853 Si02
#       8
#     2   2   2   2   2   2   2   2
#     4   9  19  34  61  90 115 154 212 253 292 356
#     4  12  26  42  63  91 131 168 200 250 319 382
#     4  11  22  39  65  96 125 159 206 264 306 353
#     4   9  19  34  58  92 119 153 203 252 304 350
#     4  10  19  37  61  88 115 160 208 253 295 361
#     4  12  24  40  67  97 119 159 214 259 307 360
#     4  11  22  39  65  93 126 168 205 245 307 386
#     4  10  19  35  62  91 116 149 208 272 288 340
#
# _framework density 23.453681
#
# number of rings (size 3 to 8) (size 9 to 14) (size 15 to 20)
#    0.000    1.500    1.250    4.500    3.500    4.000 
#    0.000    0.000   27.500    0.000    0.000    0.000 
#    0.000    0.000    0.000    0.000    0.000    0.000 
#
# Total GULP energy -89559.074131 kJ/mol
# GULP energy per Si atom -5597.442133 kJ/mol
# Density = 2.340030 g / cm^3
# Si number density = 23.453681 Si / 1000 Ang^3
#
#
#
# Elastic Constant Matrix: (Units=GPa)
#
#
# Indices 1 2 3 4 5 6 
#
# 1 35.6175 -0.8688 -8.1780 0.0000 -9.7940 0.0000
# 2 -0.8688 101.9117 23.2836 0.0000 -16.5707 0.0000
# 3 -8.1780 23.2836 138.4219 0.0000 -14.4104 0.0000
# 4 0.0000 0.0000 0.0000 39.3374 0.0000 5.2883
# 5 -9.7940 -16.5707 -14.4104 0.0000 16.0485 0.0000
# 6 0.0000 0.0000 0.0000 5.2883 0.0000 -6.1746
#
#
#
# Elastic Compliance Matrix: (Units=1/GPa)
#
#
# Indices 1 2 3 4 5 6 
#
# 1 0.038176 0.004462 0.004865 0.000000 0.032273 0.000000
# 2 0.004462 0.012392 -0.000227 0.000000 0.015315 0.000000
# 3 0.004865 -0.000227 0.008642 0.000000 0.010495 0.000000
# 4 0.000000 0.000000 0.000000 0.022796 0.000000 0.019524
# 5 0.032273 0.015315 0.010495 0.000000 0.107244 0.000000
# 6 0.000000 0.000000 0.000000 0.019524 0.000000 -0.145232
#
#
# Mechanical properties :
#
#
# Convention : Reuss Voigt Hill
#
# Bulk Modulus (GPa) = 12.91810 33.82496 23.37153
# Shear Modulus (GPa) = 96.85547 27.28988 62.07268
#
# Velocity S-wave (km/s) = 6.43321 3.41481 5.15010
# Velocity P-wave (km/s) = 7.79111 5.47734 6.73434
#
# Compressibility (1/GPa) = 0.07741079
#
# Stress axis : x y z
#
# Youngs Moduli (GPa) = 26.19429 80.69442 115.70846
#
# Poissons Ratio (x) = -0.36003 -0.56289
# Poissons Ratio (y) = -0.11687 0.02621
# Poissons Ratio (z) = -0.12743 0.01828
#
# Static dielectric constant tensor:
#      x y z
#    x 1.999600 0.000000 0.000750 
#    y 0.000000 1.800910 0.000000 
#    z 0.000750 0.000000 1.829200 
# 
# From -- ./inp_files/14786.got.cif
#   From: 2010.05.17/outbox.cif.g08.bks.cpg/sg4_8_cif.got.tgz:14786.got - 2010.06.03 18:43:04.
