data_PCOD9114509
_publ_section_title
;
Structure prediction by ZEFSAII (Michael W. Deem and Ramdas Pophale) SiO2 
 PCOD9114509
Probable space group: P 21
;
_chemical_formula_sum "Si O2"
_cell_formula_units_Z 14
_cell_length_a 12.590595
_cell_length_b 5.922335
_cell_length_c 11.345263
_cell_angle_alpha 90.000000
_cell_angle_beta 39.822721
_cell_angle_gamma 90.000000
_cell_volume 541.769840
_symmetry_space_group_name_H-M "P 21"
_symmetry_group_IT_number 4
_symmetry_cell_setting 'monoclinic'
loop_
_space_group_symop_operation_xyz
x,y,z
-x,1/2+y,-z
loop_
_atom_site_type_symbol
_atom_site_label
_atom_site_fract_x
_atom_site_fract_y
_atom_site_fract_z
Si Si1 0.677525 0.456420 0.409556
Si Si2 0.276195 0.897046 0.275894
Si Si3 0.663633 0.779583 0.237175
Si Si4 0.387999 0.126751 0.961766
Si Si5 0.384854 0.297084 0.353463
Si Si6 0.039877 0.503819 0.914926
Si Si7 0.102891 0.668905 0.618491
O O1 0.716896 0.534952 0.244448
O O2 0.531487 0.290367 0.570348
O O3 0.610021 0.689114 0.523416
O O4 0.834295 0.373572 0.350299
O O5 0.441582 0.734031 0.126475
O O6 0.113509 0.784828 0.477157
O O7 0.336091 0.091325 0.312313
O O8 0.259676 0.032979 0.167425
O O9 0.680740 0.793275 0.080724
O O10 0.762672 0.975219 0.220097
O O11 0.452411 0.912384 0.834290
O O12 0.243455 0.483371 0.474631
O O13 0.999661 0.537465 0.809619
O O14 0.004074 0.746865 0.007028
#
# Coordination Sequence:
#
# PCOD9114509 Si02
#       7
#     2   2   2   2   2   2   2
#     4  11  20  35  59  99 129 165 209 266 360 420
#     4  10  20  33  58  94 138 173 210 256 337 420
#     4  12  22  37  63  97 137 172 217 279 346 408
#     4  11  20  34  54  96 139 173 208 257 336 417
#     4  10  17  33  56  87 133 167 200 256 324 418
#     4  12  28  47  66  96 133 183 237 286 335 396
#     4  10  21  41  62  91 129 177 211 274 344 409
#
# _framework density 25.841232000000002
#
# number of rings (size 3 to 8) (size 9 to 14) (size 15 to 20)
#    0.000    1.143    7.143    2.571    2.000    1.143 
#    0.000    0.000    0.000    0.000    3.714    0.000 
#    0.000    0.000    0.000    0.000    0.000    0.000 
#
# Total GULP energy -77935.163423 kJ/mol
# GULP energy per Si atom -5566.797387 kJ/mol
# Density = 2.578242 g / cm^3
# Si number density = 25.841232 Si / 1000 Ang^3
#
#
#
# Elastic Constant Matrix: (Units=GPa)
#
#
# Indices 1 2 3 4 5 6 
#
# 1 37.7242 2.5085 14.5851 0.0000 27.1133 0.0000
# 2 2.5085 101.5214 48.9504 0.0000 2.5929 0.0000
# 3 14.5851 48.9504 123.4367 0.0000 35.2778 0.0000
# 4 0.0000 0.0000 0.0000 52.7472 0.0000 -4.7195
# 5 27.1133 2.5929 35.2778 0.0000 43.3252 0.0000
# 6 0.0000 0.0000 0.0000 -4.7195 0.0000 22.6401
#
#
#
# Elastic Compliance Matrix: (Units=1/GPa)
#
#
# Indices 1 2 3 4 5 6 
#
# 1 0.050265 -0.002951 0.005436 0.000000 -0.035706 0.000000
# 2 -0.002951 0.012961 -0.006643 0.000000 0.006480 0.000000
# 3 0.005436 -0.006643 0.014274 0.000000 -0.014626 0.000000
# 4 0.000000 0.000000 0.000000 0.019319 0.000000 0.004027
# 5 -0.035706 0.006480 -0.014626 0.000000 0.056948 0.000000
# 6 0.000000 0.000000 0.000000 0.004027 0.000000 0.045009
#
#
# Mechanical properties :
#
#
# Convention : Reuss Voigt Hill
#
# Bulk Modulus (GPa) = 14.45446 43.86339 29.15892
# Shear Modulus (GPa) = 21.72467 36.85174 29.28820
#
# Velocity S-wave (km/s) = 2.90262 3.78045 3.37024
# Velocity P-wave (km/s) = 4.10358 6.00556 5.14325
#
# Compressibility (1/GPa) = 0.06918281
#
# Stress axis : x y z
#
# Youngs Moduli (GPa) = 19.89437 77.15681 70.05932
#
# Poissons Ratio (x) = 0.22769 -0.38081
# Poissons Ratio (y) = 0.05871 0.46541
# Poissons Ratio (z) = -0.10814 0.51256
#
# Static dielectric constant tensor:
#      x y z
#    x 2.269330 0.000000 -0.104870 
#    y 0.000000 2.024720 0.000000 
#    z -0.104870 0.000000 2.280850 
# 
# From -- ./inp_files/12461.got.cif
#   From: 2010.05.17/outbox.cif.g08.bks.cpg/sg4_7_cif.got.tgz:12461.got - 2010.06.03 18:43:04.
