data_PCOD9114735
_publ_section_title
;
Structure prediction by ZEFSAII (Michael W. Deem and Ramdas Pophale) SiO2 
 PCOD9114735
Probable space group: P 21
;
_chemical_formula_sum "Si O2"
_cell_formula_units_Z 14
_cell_length_a 14.997097
_cell_length_b 5.252448
_cell_length_c 12.670580
_cell_angle_alpha 90.000000
_cell_angle_beta 121.486446
_cell_angle_gamma 90.000000
_cell_volume 851.126642
_symmetry_space_group_name_H-M "P 21"
_symmetry_group_IT_number 4
_symmetry_cell_setting 'monoclinic'
loop_
_space_group_symop_operation_xyz
x,y,z
-x,1/2+y,-z
loop_
_atom_site_type_symbol
_atom_site_label
_atom_site_fract_x
_atom_site_fract_y
_atom_site_fract_z
Si Si1 0.660086 0.928220 0.919666
Si Si2 0.927194 0.574688 0.578422
Si Si3 0.560548 0.420179 0.917882
Si Si4 0.930859 0.565919 0.832187
Si Si5 0.664024 0.103926 0.144963
Si Si6 0.141667 0.577489 0.582706
Si Si7 0.858906 0.063355 0.905532
O O1 0.611254 0.648761 0.882802
O O2 0.703911 0.949691 0.066798
O O3 0.572238 0.149759 0.866647
O O4 0.748911 0.008395 0.893321
O O5 0.927763 0.563086 0.704605
O O6 0.874344 0.321241 0.500788
O O7 0.045562 0.578747 0.606544
O O8 0.870351 0.821885 0.493938
O O9 0.627632 0.369282 0.067109
O O10 0.443503 0.485225 0.878488
O O11 0.871350 0.328657 0.850592
O O12 0.883069 0.829947 0.843140
O O13 0.049768 0.557734 0.949393
O O14 0.751270 0.105543 0.287135
#
# Coordination Sequence:
#
# PCOD9114735 Si02
#       7
#     2   2   2   2   2   2   2
#     4  10  19  32  49  79 108 134 164 214 267 325
#     4  10  21  38  48  82 103 146 176 218 241 328
#     4  10  20  31  52  77 116 129 172 212 276 309
#     4  10  20  35  52  74 108 132 181 224 249 320
#     4  10  20  34  52  81 111 139 165 223 260 328
#     4  10  22  33  57  73 111 141 182 200 270 308
#     4  10  20  33  54  78  99 143 172 213 283 302
#
# _framework density 16.448784
#
# number of rings (size 3 to 8) (size 9 to 14) (size 15 to 20)
#    0.857    1.143    1.429    2.571    2.000    0.000 
#    2.571    0.000    0.000    0.000    0.000   20.000 
#    0.000    0.000    0.000    0.000    0.000    0.000 
#
# Total GULP energy -77986.035953 kJ/mol
# GULP energy per Si atom -5570.431140 kJ/mol
# Density = 1.641135 g / cm^3
# Si number density = 16.448784 Si / 1000 Ang^3
#
#
#
# Elastic Constant Matrix: (Units=GPa)
#
#
# Indices 1 2 3 4 5 6 
#
# 1 47.2507 6.5312 24.6146 0.0000 -5.8097 0.0000
# 2 6.5312 86.2139 13.6221 0.0000 6.0172 0.0000
# 3 24.6146 13.6221 85.5337 0.0000 -1.4661 0.0000
# 4 0.0000 0.0000 0.0000 12.1777 0.0000 -1.8330
# 5 -5.8097 6.0172 -1.4661 0.0000 16.3204 0.0000
# 6 0.0000 0.0000 0.0000 -1.8330 0.0000 12.7616
#
#
#
# Elastic Compliance Matrix: (Units=1/GPa)
#
#
# Indices 1 2 3 4 5 6 
#
# 1 0.026234 -0.001503 -0.007152 0.000000 0.009251 0.000000
# 2 -0.001503 0.012334 -0.001621 0.000000 -0.005228 0.000000
# 3 -0.007152 -0.001621 0.013996 0.000000 -0.000691 0.000000
# 4 0.000000 0.000000 0.000000 0.083932 0.000000 0.012056
# 5 0.009251 -0.005228 -0.000691 0.000000 0.066432 0.000000
# 6 0.000000 0.000000 0.000000 0.012056 0.000000 0.080092
#
#
# Mechanical properties :
#
#
# Convention : Reuss Voigt Hill
#
# Bulk Modulus (GPa) = 31.23838 34.28157 32.75997
# Shear Modulus (GPa) = 15.91124 19.86727 17.88926
#
# Velocity S-wave (km/s) = 3.11355 3.47915 3.30142
# Velocity P-wave (km/s) = 5.65315 6.08490 5.87299
#
# Compressibility (1/GPa) = 0.03201191
#
# Stress axis : x y z
#
# Youngs Moduli (GPa) = 38.11781 81.07667 71.45009
#
# Poissons Ratio (x) = 0.12186 0.51099
# Poissons Ratio (y) = 0.05729 0.11585
# Poissons Ratio (z) = 0.27261 0.13146
#
# Static dielectric constant tensor:
#      x y z
#    x 1.539260 0.000000 -0.006170 
#    y 0.000000 1.578400 0.000000 
#    z -0.006170 0.000000 1.526560 
# 
# From -- ./inp_files/12397.got.cif
#   From: 2010.05.17/outbox.cif.g08.bks.cpg/sg4_7_cif.got.tgz:12397.got - 2010.06.03 18:43:04.
