data_PCOD9114989
_publ_section_title
;
Structure prediction by ZEFSAII (Michael W. Deem and Ramdas Pophale) SiO2 
 PCOD9114989
Probable space group: P 21
;
_chemical_formula_sum "Si O2"
_cell_formula_units_Z 14
_cell_length_a 13.264193
_cell_length_b 8.786930
_cell_length_c 5.234847
_cell_angle_alpha 90.000000
_cell_angle_beta 87.869462
_cell_angle_gamma 90.000000
_cell_volume 609.707686
_symmetry_space_group_name_H-M "P 21"
_symmetry_group_IT_number 4
_symmetry_cell_setting 'monoclinic'
loop_
_space_group_symop_operation_xyz
x,y,z
-x,1/2+y,-z
loop_
_atom_site_type_symbol
_atom_site_label
_atom_site_fract_x
_atom_site_fract_y
_atom_site_fract_z
Si Si1 0.031422 0.140060 0.194312
Si Si2 0.391683 0.069008 0.643246
Si Si3 0.681717 0.169323 0.588736
Si Si4 0.990328 0.984270 0.697997
Si Si5 0.191924 0.944342 0.411093
Si Si6 0.586533 0.880720 0.559994
Si Si7 0.577583 0.294840 0.084304
O O1 0.053700 0.317470 0.240861
O O2 0.965746 0.067025 0.432488
O O3 0.134666 0.041929 0.203025
O O4 0.980319 0.101083 0.931301
O O5 0.293840 0.023157 0.492802
O O6 0.492450 0.993927 0.504126
O O7 0.395778 0.248986 0.642016
O O8 0.389097 0.972399 0.905839
O O9 0.777715 0.271012 0.649099
O O10 0.682347 0.987566 0.592253
O O11 0.641514 0.220324 0.312812
O O12 0.602965 0.214557 0.820167
O O13 0.109377 0.947671 0.643654
O O14 0.538271 0.799602 0.812955
#
# Coordination Sequence:
#
# PCOD9114989 Si02
#       7
#     2   2   2   2   2   2   2
#     4  10  22  41  70  90 130 155 212 243 333 367
#     4   9  18  40  61  89 126 167 211 255 311 353
#     4  11  21  39  60  89 122 168 207 256 310 352
#     4  10  22  42  68  97 119 169 194 267 306 401
#     4   9  23  38  66  86 136 156 208 256 320 366
#     4  10  19  38  64  89 129 170 221 255 303 372
#     4   9  21  36  59  82 122 165 209 256 299 357
#
# _framework density 22.961822000000002
#
# number of rings (size 3 to 8) (size 9 to 14) (size 15 to 20)
#    1.714    0.571    1.429    0.857    4.000    3.429 
#    2.571    0.000    0.000    0.000    0.000    0.000 
#    0.000    0.000    0.000    0.000    0.000    0.000 
#
# Total GULP energy -77982.191479 kJ/mol
# GULP energy per Si atom -5570.156534 kJ/mol
# Density = 2.290956 g / cm^3
# Si number density = 22.961822 Si / 1000 Ang^3
#
#
#
# Elastic Constant Matrix: (Units=GPa)
#
#
# Indices 1 2 3 4 5 6 
#
# 1 39.1600 -6.5341 -3.3431 0.0000 4.2271 0.0000
# 2 -6.5341 92.1175 9.8872 0.0000 0.9577 0.0000
# 3 -3.3431 9.8872 98.8965 0.0000 -0.1039 0.0000
# 4 0.0000 0.0000 0.0000 25.8856 0.0000 1.6676
# 5 4.2271 0.9577 -0.1039 0.0000 12.8816 0.0000
# 6 0.0000 0.0000 0.0000 1.6676 0.0000 37.6446
#
#
#
# Elastic Compliance Matrix: (Units=1/GPa)
#
#
# Indices 1 2 3 4 5 6 
#
# 1 0.026885 0.001924 0.000707 0.000000 -0.008960 0.000000
# 2 0.001924 0.011120 -0.001048 0.000000 -0.001467 0.000000
# 3 0.000707 -0.001048 0.010240 0.000000 -0.000072 0.000000
# 4 0.000000 0.000000 0.000000 0.038742 0.000000 -0.001716
# 5 -0.008960 -0.001467 -0.000072 0.000000 0.080679 0.000000
# 6 0.000000 0.000000 0.000000 -0.001716 0.000000 0.026640
#
#
# Mechanical properties :
#
#
# Convention : Reuss Voigt Hill
#
# Bulk Modulus (GPa) = 19.45105 25.57712 22.51409
# Shear Modulus (GPa) = 24.00651 30.62663 27.31657
#
# Velocity S-wave (km/s) = 3.23692 3.65609 3.45287
# Velocity P-wave (km/s) = 4.73916 5.38385 5.07176
#
# Compressibility (1/GPa) = 0.05141111
#
# Stress axis : x y z
#
# Youngs Moduli (GPa) = 37.19571 89.92845 97.65435
#
# Poissons Ratio (x) = -0.17305 -0.06904
# Poissons Ratio (y) = -0.07157 0.10236
# Poissons Ratio (z) = -0.02630 0.09426
#
# Static dielectric constant tensor:
#      x y z
#    x 1.920000 0.000000 -0.004150 
#    y 0.000000 1.914600 0.000000 
#    z -0.004150 0.000000 1.882250 
# 
# From -- ./inp_files/3555.got.cif
#   From: 2010.05.17/outbox.cif.g08.bks.cpg/sg4_2_cif.got.tgz:3555.got - 2010.06.03 18:43:04.
