data_PCOD9114609
_publ_section_title
;
Structure prediction by ZEFSAII (Michael W. Deem and Ramdas Pophale) SiO2 
 PCOD9114609
Probable space group: P 21
;
_chemical_formula_sum "Si O2"
_cell_formula_units_Z 16
_cell_length_a 9.372406
_cell_length_b 8.796400
_cell_length_c 11.457794
_cell_angle_alpha 90.000000
_cell_angle_beta 123.132231
_cell_angle_gamma 90.000000
_cell_volume 791.035424
_symmetry_space_group_name_H-M "P 21"
_symmetry_group_IT_number 4
_symmetry_cell_setting 'monoclinic'
loop_
_space_group_symop_operation_xyz
x,y,z
-x,1/2+y,-z
loop_
_atom_site_type_symbol
_atom_site_label
_atom_site_fract_x
_atom_site_fract_y
_atom_site_fract_z
Si Si1 0.015301 0.060000 0.143311
Si Si2 0.865904 0.364775 0.012684
Si Si3 0.375378 0.235988 0.295563
Si Si4 0.827448 0.844567 0.459566
Si Si5 0.174363 0.495439 0.286926
Si Si6 0.517109 0.461556 0.771682
Si Si7 0.354261 0.798294 0.405349
Si Si8 0.891596 0.500993 0.562707
O O1 0.194670 0.151207 0.221804
O O2 0.882925 0.184351 0.037674
O O3 0.993790 0.019217 0.268507
O O4 0.046208 0.921016 0.069318
O O5 0.985982 0.449654 0.160532
O O6 0.669106 0.414940 0.926354
O O7 0.313987 0.410377 0.266935
O O8 0.487745 0.217385 0.461539
O O9 0.477581 0.144620 0.242093
O O10 0.801436 0.928472 0.572253
O O11 0.671320 0.893495 0.305372
O O12 0.841628 0.665437 0.490628
O O13 0.001740 0.905469 0.482217
O O14 0.216902 0.671926 0.308935
O O15 0.582535 0.389498 0.678005
O O16 0.271020 0.908449 0.463749
#
# Coordination Sequence:
#
# PCOD9114609 Si02
#       8
#     2   2   2   2   2   2   2   2
#     4  10  20  40  59  96 127 161 200 263 311 377
#     4  10  20  37  64  91 128 158 202 255 316 367
#     4  10  18  34  59  93 127 147 198 269 306 351
#     4  12  24  42  62  89 125 172 206 263 313 373
#     4  11  21  35  64  95 127 163 205 251 325 370
#     4  11  21  37  64  95 120 160 212 260 308 365
#     4  12  19  35  62  94 122 159 205 266 303 368
#     4  12  25  42  62  89 132 162 216 257 318 375
#
# _framework density 20.226654
#
# number of rings (size 3 to 8) (size 9 to 14) (size 15 to 20)
#    0.000    1.000    7.500    1.500    1.750    0.000 
#    0.000    0.000    5.500    0.000    0.000    0.000 
#    0.000    0.000    0.000    0.000    0.000    0.000 
#
# Total GULP energy -89273.372922 kJ/mol
# GULP energy per Si atom -5579.585808 kJ/mol
# Density = 2.018062 g / cm^3
# Si number density = 20.226654 Si / 1000 Ang^3
#
#
#
# Elastic Constant Matrix: (Units=GPa)
#
#
# Indices 1 2 3 4 5 6 
#
# 1 52.3355 16.9398 -3.3652 0.0000 4.8910 0.0000
# 2 16.9398 82.9447 5.3453 0.0000 -7.4985 0.0000
# 3 -3.3652 5.3453 82.9655 0.0000 23.7883 0.0000
# 4 0.0000 0.0000 0.0000 34.7465 0.0000 -1.4802
# 5 4.8910 -7.4985 23.7883 0.0000 25.2262 0.0000
# 6 0.0000 0.0000 0.0000 -1.4802 0.0000 18.3325
#
#
#
# Elastic Compliance Matrix: (Units=1/GPa)
#
#
# Indices 1 2 3 4 5 6 
#
# 1 0.022122 -0.005669 0.004078 0.000000 -0.009820 0.000000
# 2 -0.005669 0.014245 -0.003669 0.000000 0.008793 0.000000
# 3 0.004078 -0.003669 0.017810 0.000000 -0.018676 0.000000
# 4 0.000000 0.000000 0.000000 0.028879 0.000000 0.002332
# 5 -0.009820 0.008793 -0.018676 0.000000 0.061771 0.000000
# 6 0.000000 0.000000 0.000000 0.002332 0.000000 0.054736
#
#
# Mechanical properties :
#
#
# Convention : Reuss Voigt Hill
#
# Bulk Modulus (GPa) = 22.90502 28.45394 25.67948
# Shear Modulus (GPa) = 22.25830 28.94941 25.60386
#
# Velocity S-wave (km/s) = 3.32089 3.78729 3.56173
# Velocity P-wave (km/s) = 5.10423 5.76393 5.44408
#
# Compressibility (1/GPa) = 0.04365855
#
# Stress axis : x y z
#
# Youngs Moduli (GPa) = 45.20341 70.19856 56.14855
#
# Poissons Ratio (x) = 0.39793 -0.22898
# Poissons Ratio (y) = 0.25624 0.20601
# Poissons Ratio (z) = -0.18435 0.25756
#
# Static dielectric constant tensor:
#      x y z
#    x 1.716480 0.000000 0.021330 
#    y 0.000000 1.773280 0.000000 
#    z 0.021330 0.000000 1.765210 
# 
# From -- ./inp_files/8019.got.cif
#   From: 2010.05.17/outbox.cif.g08.bks.cpg/sg4_5_cif.got.tgz:8019.got - 2010.06.03 18:43:04.
