data_PCOD9114338
_publ_section_title
;
Structure prediction by ZEFSAII (Michael W. Deem and Ramdas Pophale) SiO2 
 PCOD9114338
Probable space group: P 2
;
_chemical_formula_sum "Si O2"
_cell_formula_units_Z 10
_cell_length_a 8.954122
_cell_length_b 6.636676
_cell_length_c 7.733159
_cell_angle_alpha 90.000000
_cell_angle_beta 107.166300
_cell_angle_gamma 90.000000
_cell_volume 439.075793
_symmetry_space_group_name_H-M "P 2"
_symmetry_group_IT_number 3
_symmetry_cell_setting 'monoclinic'
loop_
_space_group_symop_operation_xyz
x,y,z
-x,y,-z
loop_
_atom_site_type_symbol
_atom_site_label
_atom_site_fract_x
_atom_site_fract_y
_atom_site_fract_z
Si Si1 0.791982 0.604560 0.317945
Si Si2 0.379624 0.312874 0.320738
Si Si3 0.210071 0.936630 0.375998
Si Si4 0.000000 0.233900 0.500000
Si Si5 0.500000 0.461270 0.000000
Si Si6 0.089072 0.595820 0.190066
O O1 0.762539 0.770856 0.459701
O O2 0.854300 0.378795 0.395341
O O3 0.644843 0.583007 0.138260
O O4 0.952547 0.660121 0.274920
O O5 0.500000 0.406178 0.500000
O O6 0.436936 0.334770 0.143140
O O7 0.220731 0.438348 0.281279
O O8 0.346629 0.088406 0.374104
O O9 0.176434 0.805586 0.193892
O O10 0.067521 0.082787 0.380040
O O11 0.000000 0.506343 0.000000
#
# Coordination Sequence:
#
# PCOD9114338 Si02
#       6
#     2   2   2   1   1   2
#     4  12  24  48  78 110 147 201 254 315 385 450
#     4  12  28  51  76 113 157 206 254 318 383 454
#     4  12  24  44  78 111 150 192 253 313 379 457
#     4  12  20  42  82 104 142 190 252 306 378 454
#     4  12  28  50  80 108 162 208 254 314 384 456
#     4  12  24  46  76 110 149 199 254 317 381 451
#
# _framework density 22.775112
#
# number of rings (size 3 to 8) (size 9 to 14) (size 15 to 20)
#    0.000    0.000    8.000    2.400    0.000    4.800 
#    3.600    2.000    0.000    0.000    0.000    0.000 
#    0.000    0.000    0.000    0.000    0.000    0.000 
#
# Total GULP energy -55726.447125 kJ/mol
# GULP energy per Si atom -5572.644712 kJ/mol
# Density = 2.272328 g / cm^3
# Si number density = 22.775112 Si / 1000 Ang^3
#
#
#
# Elastic Constant Matrix: (Units=GPa)
#
#
# Indices 1 2 3 4 5 6 
#
# 1 119.5681 62.1900 80.2614 0.0000 14.3802 0.0000
# 2 62.1900 135.3534 57.8587 0.0000 11.3421 0.0000
# 3 80.2614 57.8587 152.1010 0.0000 22.4581 0.0000
# 4 0.0000 0.0000 0.0000 8.1290 0.0000 15.1893
# 5 14.3802 11.3421 22.4581 0.0000 61.4528 0.0000
# 6 0.0000 0.0000 0.0000 15.1893 0.0000 4.7463
#
#
#
# Elastic Compliance Matrix: (Units=1/GPa)
#
#
# Indices 1 2 3 4 5 6 
#
# 1 0.014637 -0.004077 -0.006108 0.000000 -0.000441 0.000000
# 2 -0.004077 0.009969 -0.001596 0.000000 -0.000303 0.000000
# 3 -0.006108 -0.001596 0.010729 0.000000 -0.002197 0.000000
# 4 0.000000 0.000000 0.000000 -0.024703 0.000000 0.079056
# 5 -0.000441 -0.000303 -0.002197 0.000000 0.017235 0.000000
# 6 0.000000 0.000000 0.000000 0.079056 0.000000 -0.042309
#
#
# Mechanical properties :
#
#
# Convention : Reuss Voigt Hill
#
# Bulk Modulus (GPa) = 84.93979 89.73807 87.33893
# Shear Modulus (GPa) = 383.33046 28.64644 205.98845
#
# Velocity S-wave (km/s) = 12.98755 3.55039 9.52055
# Velocity P-wave (km/s) = 16.19500 7.50296 12.62086
#
# Compressibility (1/GPa) = 0.01177305
#
# Stress axis : x y z
#
# Youngs Moduli (GPa) = 68.31992 100.31025 93.20554
#
# Poissons Ratio (x) = 0.40901 0.56926
# Poissons Ratio (y) = 0.27857 0.14875
# Poissons Ratio (z) = 0.41727 0.16009
#
# Static dielectric constant tensor:
#      x y z
#    x 1.890170 0.000000 -0.037120 
#    y 0.000000 1.844970 0.000000 
#    z -0.037120 0.000000 1.991390 
# 
# From -- ./inp_files/4859.got.cif
#   From: 2010.05.17/outbox.cif.g08.bks.cpg/sg3_3_cif.got.tgz:4859.got - 2010.06.03 18:33:08.
