data_PCOD9114398
_publ_section_title
;
Structure prediction by ZEFSAII (Michael W. Deem and Ramdas Pophale) SiO2 
 PCOD9114398
Probable space group: P 2
;
_chemical_formula_sum "Si O2"
_cell_formula_units_Z 13
_cell_length_a 9.458660
_cell_length_b 13.753265
_cell_length_c 5.974629
_cell_angle_alpha 90.000000
_cell_angle_beta 129.511000
_cell_angle_gamma 90.000000
_cell_volume 599.630449
_symmetry_space_group_name_H-M "P 2"
_symmetry_group_IT_number 3
_symmetry_cell_setting 'monoclinic'
loop_
_space_group_symop_operation_xyz
x,y,z
-x,y,-z
loop_
_atom_site_type_symbol
_atom_site_label
_atom_site_fract_x
_atom_site_fract_y
_atom_site_fract_z
Si Si1 0.000000 0.272171 0.000000
Si Si2 0.000000 0.627725 0.000000
Si Si3 0.500000 0.676051 0.000000
Si Si4 0.405301 0.962026 0.153957
Si Si5 0.801832 0.349614 0.414543
Si Si6 0.812290 0.152640 0.192680
Si Si7 0.362870 0.519419 0.544651
Si Si8 0.158096 0.787688 0.819173
O O1 0.146908 0.336121 0.275516
O O2 0.888157 0.204883 0.051329
O O3 0.170167 0.561778 0.256341
O O4 0.925234 0.701597 0.113985
O O5 0.475306 0.609701 0.758009
O O6 0.318095 0.738464 0.836796
O O7 0.500000 0.968555 0.500000
O O8 0.500000 0.938427 0.000000
O O9 0.254281 0.877638 0.038693
O O10 0.319380 0.066573 0.007724
O O11 0.734905 0.244488 0.258861
O O12 0.681618 0.445035 0.297769
O O13 0.000000 0.366305 0.500000
O O14 0.000000 0.115735 0.500000
O O15 0.500000 0.473895 0.500000
O O16 0.000000 0.826674 0.500000
#
# Coordination Sequence:
#
# PCOD9114398 Si02
#       8
#     1   1   1   2   2   2   2   2
#     4   8  17  39  70  96 138 182 249 311 352 466
#     4  12  27  43  76 106 146 208 249 315 386 466
#     4  12  26  46  66 104 148 188 254 310 374 468
#     4  12  30  48  76 113 159 197 255 330 390 468
#     4   9  21  40  69 100 142 193 256 306 375 451
#     4   9  21  45  73 101 142 194 258 307 383 458
#     4  12  26  43  68 106 150 194 252 313 379 454
#     4  12  27  49  77 104 151 201 252 314 394 461
#
# _framework density 21.680022000000001
#
# number of rings (size 3 to 8) (size 9 to 14) (size 15 to 20)
#    0.000    1.538    3.846    0.923   10.769    3.077 
#    4.154    0.000    0.000    0.000    0.000    0.000 
#    0.000    0.000    0.000    0.000    0.000    0.000 
#
# Total GULP energy -72471.882012 kJ/mol
# GULP energy per Si atom -5574.760155 kJ/mol
# Density = 2.163068 g / cm^3
# Si number density = 21.680022 Si / 1000 Ang^3
#
#
#
# Elastic Constant Matrix: (Units=GPa)
#
#
# Indices 1 2 3 4 5 6 
#
# 1 76.2649 30.7230 36.3720 0.0000 9.6285 0.0000
# 2 30.7230 124.2064 53.5358 0.0000 13.5997 0.0000
# 3 36.3720 53.5358 141.2184 0.0000 8.8845 0.0000
# 4 0.0000 0.0000 0.0000 -101.7481 0.0000 18.6778
# 5 9.6285 13.5997 8.8845 0.0000 28.4358 0.0000
# 6 0.0000 0.0000 0.0000 18.6778 0.0000 25.2245
#
#
#
# Elastic Compliance Matrix: (Units=1/GPa)
#
#
# Indices 1 2 3 4 5 6 
#
# 1 0.015888 -0.002259 -0.003025 0.000000 -0.003354 0.000000
# 2 -0.002259 0.010306 -0.003124 0.000000 -0.003188 0.000000
# 3 -0.003025 -0.003124 0.009064 0.000000 -0.000314 0.000000
# 4 0.000000 0.000000 0.000000 -0.008652 0.000000 0.006407
# 5 -0.003354 -0.003188 -0.000314 0.000000 0.037925 0.000000
# 6 0.000000 0.000000 0.000000 0.006407 0.000000 0.034900
#
#
# Mechanical properties :
#
#
# Convention : Reuss Voigt Hill
#
# Bulk Modulus (GPa) = 54.22426 64.77235 59.49831
# Shear Modulus (GPa) = 40.85120 5.11970 22.98545
#
# Velocity S-wave (km/s) = 4.34554 1.53838 3.25962
# Velocity P-wave (km/s) = 7.08828 5.75299 6.45525
#
# Compressibility (1/GPa) = 0.01844193
#
# Stress axis : x y z
#
# Youngs Moduli (GPa) = 62.93955 97.03415 110.32051
#
# Poissons Ratio (x) = 0.21920 0.33369
# Poissons Ratio (y) = 0.14218 0.34470
# Poissons Ratio (z) = 0.19037 0.30318
#
# Static dielectric constant tensor:
#      x y z
#    x 1.938000 0.000000 -0.029530 
#    y 0.000000 1.796820 0.000000 
#    z -0.029530 0.000000 1.725320 
# 
# From -- ./inp_files/1633.got.cif
#   From: 2010.05.17/outbox.cif.g08.bks.cpg/sg3_1_cif.got.tgz:1633.got - 2010.06.03 18:33:08.
