data_PCOD9114578
_publ_section_title
;
Structure prediction by ZEFSAII (Michael W. Deem and Ramdas Pophale) SiO2 
 PCOD9114578
Probable space group: P 21
;
_chemical_formula_sum "Si O2"
_cell_formula_units_Z 16
_cell_length_a 9.720516
_cell_length_b 20.445208
_cell_length_c 8.203441
_cell_angle_alpha 90.000000
_cell_angle_beta 30.435217
_cell_angle_gamma 90.000000
_cell_volume 825.868830
_symmetry_space_group_name_H-M "P 21"
_symmetry_group_IT_number 4
_symmetry_cell_setting 'monoclinic'
loop_
_space_group_symop_operation_xyz
x,y,z
-x,1/2+y,-z
loop_
_atom_site_type_symbol
_atom_site_label
_atom_site_fract_x
_atom_site_fract_y
_atom_site_fract_z
Si Si1 0.808333 0.597400 0.551254
Si Si2 0.330363 0.531014 0.888756
Si Si3 0.519328 0.619708 0.390624
Si Si4 0.321487 0.224432 0.529067
Si Si5 0.201029 0.811309 0.945631
Si Si6 0.038507 0.583863 0.663484
Si Si7 0.954601 0.942614 0.236906
Si Si8 0.442691 0.922526 0.535192
O O1 0.925895 0.609871 0.609022
O O2 0.520158 0.560776 0.836535
O O3 0.770453 0.664887 0.492449
O O4 0.024437 0.549801 0.242162
O O5 0.409954 0.570358 0.641865
O O6 0.417210 0.456716 0.761304
O O7 0.546464 0.689843 0.448099
O O8 0.317315 0.613530 0.445059
O O9 0.815726 0.600142 0.027761
O O10 0.056435 0.267369 0.835376
O O11 0.563452 0.269249 0.211341
O O12 0.082292 0.873968 0.166596
O O13 0.343962 0.847413 0.644256
O O14 0.060082 0.504820 0.632455
O O15 0.663609 0.929617 0.454084
O O16 0.167107 0.958987 0.873150
#
# Coordination Sequence:
#
# PCOD9114578 Si02
#       8
#     2   2   2   2   2   2   2   2
#     4  11  25  34  58  87 129 153 180 243 305 347
#     4  11  19  38  55  91 113 146 185 242 302 335
#     4  11  21  34  62  81 115 149 194 239 281 344
#     4  11  21  37  55  89 113 154 198 239 284 347
#     4  10  19  35  57  87 110 148 204 244 274 347
#     4  12  21  39  56  92 118 152 195 237 302 351
#     4  10  18  33  58  88 106 148 189 251 279 339
#     4  10  18  32  59  87 106 142 189 253 279 328
#
# _framework density 19.373536000000001
#
# number of rings (size 3 to 8) (size 9 to 14) (size 15 to 20)
#    0.750    0.500    3.750    5.250    0.000    0.000 
#    0.000    0.000    0.000    6.000    0.000    0.000 
#    0.000    0.000    0.000    0.000    0.000    0.000 
#
# Total GULP energy -89156.520718 kJ/mol
# GULP energy per Si atom -5572.282545 kJ/mol
# Density = 1.932944 g / cm^3
# Si number density = 19.373536 Si / 1000 Ang^3
#
#
#
# Elastic Constant Matrix: (Units=GPa)
#
#
# Indices 1 2 3 4 5 6 
#
# 1 58.8561 39.5554 10.2252 0.0000 -22.6378 0.0000
# 2 39.5554 102.4402 22.4798 0.0000 -15.4472 0.0000
# 3 10.2252 22.4798 70.0922 0.0000 -26.6112 0.0000
# 4 0.0000 0.0000 0.0000 31.0732 0.0000 -9.9623
# 5 -22.6378 -15.4472 -26.6112 0.0000 29.8836 0.0000
# 6 0.0000 0.0000 0.0000 -9.9623 0.0000 13.1756
#
#
#
# Elastic Compliance Matrix: (Units=1/GPa)
#
#
# Indices 1 2 3 4 5 6 
#
# 1 0.033264 -0.010652 0.009125 0.000000 0.027818 0.000000
# 2 -0.010652 0.014185 -0.004948 0.000000 -0.005143 0.000000
# 3 0.009125 -0.004948 0.024438 0.000000 0.026117 0.000000
# 4 0.000000 0.000000 0.000000 0.042480 0.000000 0.032120
# 5 0.027818 -0.005143 0.026117 0.000000 0.075135 0.000000
# 6 0.000000 0.000000 0.000000 0.032120 0.000000 0.100184
#
#
# Mechanical properties :
#
#
# Convention : Reuss Voigt Hill
#
# Bulk Modulus (GPa) = 16.96722 41.76771 29.36747
# Shear Modulus (GPa) = 15.51442 25.43503 20.47472
#
# Velocity S-wave (km/s) = 2.83292 3.62729 3.25443
# Velocity P-wave (km/s) = 4.41334 6.25691 5.41417
#
# Compressibility (1/GPa) = 0.05893716
#
# Stress axis : x y z
#
# Youngs Moduli (GPa) = 30.06284 70.49640 40.91964
#
# Poissons Ratio (x) = 0.75092 -0.37339
# Poissons Ratio (y) = 0.32022 0.20247
# Poissons Ratio (z) = -0.27432 0.34882
#
# Static dielectric constant tensor:
#      x y z
#    x 1.671750 0.000000 0.000630 
#    y 0.000000 1.738040 0.000000 
#    z 0.000630 0.000000 1.688840 
# 
# From -- ./inp_files/7003.got.cif
#   From: 2010.05.17/outbox.cif.g08.bks.cpg/sg4_4_cif.got.tgz:7003.got - 2010.06.03 18:43:04.
