data_PCOD9114642
_publ_section_title
;
Structure prediction by ZEFSAII (Michael W. Deem and Ramdas Pophale) SiO2 
 PCOD9114642
Probable space group: P 21
;
_chemical_formula_sum "Si O2"
_cell_formula_units_Z 14
_cell_length_a 9.418459
_cell_length_b 10.711028
_cell_length_c 9.828374
_cell_angle_alpha 90.000000
_cell_angle_beta 143.086620
_cell_angle_gamma 90.000000
_cell_volume 595.501744
_symmetry_space_group_name_H-M "P 21"
_symmetry_group_IT_number 4
_symmetry_cell_setting 'monoclinic'
loop_
_space_group_symop_operation_xyz
x,y,z
-x,1/2+y,-z
loop_
_atom_site_type_symbol
_atom_site_label
_atom_site_fract_x
_atom_site_fract_y
_atom_site_fract_z
Si Si1 0.457930 0.059020 0.091708
Si Si2 0.056018 0.559020 0.227933
Si Si3 0.316629 0.059020 0.284458
Si Si4 0.886394 0.329868 0.765445
Si Si5 0.123208 0.416931 0.683013
Si Si6 0.886393 0.788172 0.765443
Si Si7 0.123210 0.701110 0.683012
O O1 0.468869 0.059021 0.264014
O O2 0.602486 0.177101 0.145249
O O3 0.177658 0.059020 0.855518
O O4 0.602488 0.940939 0.145252
O O5 0.179285 0.691896 0.336188
O O6 0.179287 0.426144 0.336191
O O7 0.943562 0.559019 0.988830
O O8 0.315399 0.183801 0.373052
O O9 0.315402 0.934238 0.373054
O O10 0.075936 0.381667 0.802821
O O11 0.999999 0.309019 0.000000
O O12 0.999998 0.309020 0.500001
O O13 0.024424 0.559020 0.586123
O O14 0.075936 0.736375 0.802818
#
# Coordination Sequence:
#
# PCOD9114642 Si02
#       7
#     2   2   2   2   2   2   2
#     4   8  19  36  57  82 118 143 184 249 273 328
#     4   8  18  29  58  86 114 136 185 229 289 324
#     4   8  15  35  55  82 112 143 179 230 286 316
#     4  10  18  35  63  84 111 152 184 233 284 342
#     4  10  22  39  59  78 115 158 190 229 284 338
#     4  10  18  35  63  84 111 152 184 233 284 342
#     4  10  22  39  59  78 115 158 190 229 284 338
#
# _framework density 23.509588000000001
#
# number of rings (size 3 to 8) (size 9 to 14) (size 15 to 20)
#    1.714    1.143    1.429    0.000    2.000    1.143 
#    0.000    1.429    6.286    0.000    0.000    0.000 
#    0.000    0.000    0.000    0.000    0.000    0.000 
#
# Total GULP energy -77939.137525 kJ/mol
# GULP energy per Si atom -5567.081252 kJ/mol
# Density = 2.345608 g / cm^3
# Si number density = 23.509588 Si / 1000 Ang^3
#
#
#
# Elastic Constant Matrix: (Units=GPa)
#
#
# Indices 1 2 3 4 5 6 
#
# 1 210.1827 82.8751 38.1311 0.0000 3.0123 0.0000
# 2 82.8751 220.7888 38.7972 0.0000 2.0556 0.0000
# 3 38.1311 38.7972 41.1915 0.0000 -1.2287 0.0000
# 4 0.0000 0.0000 0.0000 14.5824 0.0000 -5.3676
# 5 3.0123 2.0556 -1.2287 0.0000 31.7142 0.0000
# 6 0.0000 0.0000 0.0000 -5.3676 0.0000 44.2920
#
#
#
# Elastic Compliance Matrix: (Units=1/GPa)
#
#
# Indices 1 2 3 4 5 6 
#
# 1 0.006151 -0.001557 -0.004248 0.000000 -0.000648 0.000000
# 2 -0.001557 0.005831 -0.004063 0.000000 -0.000387 0.000000
# 3 -0.004248 -0.004063 0.032092 0.000000 0.001910 0.000000
# 4 0.000000 0.000000 0.000000 0.071778 0.000000 0.008698
# 5 -0.000648 -0.000387 0.001910 0.000000 0.031692 0.000000
# 6 0.000000 0.000000 0.000000 0.008698 0.000000 0.023632
#
#
# Mechanical properties :
#
#
# Convention : Reuss Voigt Hill
#
# Bulk Modulus (GPa) = 41.08288 87.97441 64.52865
# Shear Modulus (GPa) = 25.12264 38.94169 32.03217
#
# Velocity S-wave (km/s) = 3.27251 4.07433 3.69523
# Velocity P-wave (km/s) = 5.63844 7.72240 6.76119
#
# Compressibility (1/GPa) = 0.02434104
#
# Stress axis : x y z
#
# Youngs Moduli (GPa) = 162.56452 171.49742 31.16002
#
# Poissons Ratio (x) = 0.26695 0.13236
# Poissons Ratio (y) = 0.25304 0.12659
# Poissons Ratio (z) = 0.69051 0.69674
#
# Static dielectric constant tensor:
#      x y z
#    x 1.905790 0.000000 0.077220 
#    y 0.000000 2.064600 0.000000 
#    z 0.077220 0.000000 1.949180 
# 
# From -- ./inp_files/11175.got.cif
#   From: 2010.05.17/outbox.cif.g08.bks.cpg/sg4_6_cif.got.tgz:11175.got - 2010.06.03 18:43:04.
