data_PCOD9114506
_publ_section_title
;
Structure prediction by ZEFSAII (Michael W. Deem and Ramdas Pophale) SiO2 
 PCOD9114506
Probable space group: P 21
;
_chemical_formula_sum "Si O2"
_cell_formula_units_Z 16
_cell_length_a 8.076578
_cell_length_b 12.340125
_cell_length_c 6.684915
_cell_angle_alpha 90.000000
_cell_angle_beta 100.635330
_cell_angle_gamma 90.000000
_cell_volume 654.813450
_symmetry_space_group_name_H-M "P 21"
_symmetry_group_IT_number 4
_symmetry_cell_setting 'monoclinic'
loop_
_space_group_symop_operation_xyz
x,y,z
-x,1/2+y,-z
loop_
_atom_site_type_symbol
_atom_site_label
_atom_site_fract_x
_atom_site_fract_y
_atom_site_fract_z
Si Si1 0.392678 0.061170 0.252875
Si Si2 0.127599 0.854744 0.653797
Si Si3 0.705991 0.927466 0.223571
Si Si4 0.445966 0.988481 0.723892
Si Si5 0.808493 0.949879 0.702266
Si Si6 0.933972 0.192703 0.688042
Si Si7 0.920182 0.421416 0.794297
Si Si8 0.679145 0.698539 0.082012
O O1 0.419348 0.032175 0.490370
O O2 0.567788 0.020302 0.198205
O O3 0.223381 0.996486 0.148987
O O4 0.348173 0.180270 0.161566
O O5 0.100236 0.736767 0.546606
O O6 0.095569 0.932561 0.452906
O O7 0.314001 0.893209 0.749349
O O8 0.982498 0.884198 0.780036
O O9 0.621652 0.814761 0.142164
O O10 0.880655 0.945715 0.139796
O O11 0.759194 0.911519 0.467375
O O12 0.634877 0.944156 0.782936
O O13 0.412236 0.097027 0.839361
O O14 0.853951 0.077195 0.704382
O O15 0.869914 0.294742 0.805443
O O16 0.129364 0.189310 0.793411
#
# Coordination Sequence:
#
# PCOD9114506 Si02
#       8
#     2   2   2   2   2   2   2   2
#     4  10  21  40  61  84 123 161 194 254 299 350
#     4   8  16  34  53  84 121 149 191 251 284 356
#     4   9  20  39  59  84 128 156 193 263 298 350
#     4  10  21  35  63  90 118 155 201 249 302 367
#     4  10  17  32  60  89 113 164 199 237 315 354
#     4   9  18  34  63  88 118 162 199 244 311 359
#     4   7  16  34  57  78 115 160 185 242 303 340
#     4  11  21  38  64  89 120 161 202 250 306 360
#
# _framework density 24.434442000000001
#
# number of rings (size 3 to 8) (size 9 to 14) (size 15 to 20)
#    0.750    2.000    2.500    0.000    1.750    0.000 
#    2.250    5.000    8.250    0.000    0.000    0.000 
#    0.000    0.000    0.000    0.000    0.000    0.000 
#
# Total GULP energy -89237.550420 kJ/mol
# GULP energy per Si atom -5577.346901 kJ/mol
# Density = 2.437883 g / cm^3
# Si number density = 24.434442 Si / 1000 Ang^3
#
#
#
# Elastic Constant Matrix: (Units=GPa)
#
#
# Indices 1 2 3 4 5 6 
#
# 1 116.3025 1.6677 15.0819 0.0000 1.5746 0.0000
# 2 1.6677 47.3333 13.1186 0.0000 4.1902 0.0000
# 3 15.0819 13.1186 64.4348 0.0000 3.5424 0.0000
# 4 0.0000 0.0000 0.0000 41.5394 0.0000 9.1027
# 5 1.5746 4.1902 3.5424 0.0000 32.1055 0.0000
# 6 0.0000 0.0000 0.0000 9.1027 0.0000 10.0068
#
#
#
# Elastic Compliance Matrix: (Units=1/GPa)
#
#
# Indices 1 2 3 4 5 6 
#
# 1 0.008873 0.000297 -0.002124 0.000000 -0.000240 0.000000
# 2 0.000297 0.022591 -0.004534 0.000000 -0.002463 0.000000
# 3 -0.002124 -0.004534 0.017005 0.000000 -0.001180 0.000000
# 4 0.000000 0.000000 0.000000 0.030067 0.000000 -0.027351
# 5 -0.000240 -0.002463 -0.001180 0.000000 0.031611 0.000000
# 6 0.000000 0.000000 0.000000 -0.027351 0.000000 0.124812
#
#
# Mechanical properties :
#
#
# Convention : Reuss Voigt Hill
#
# Bulk Modulus (GPa) = 27.97410 31.97856 29.97633
# Shear Modulus (GPa) = 19.26082 29.94383 24.60233
#
# Velocity S-wave (km/s) = 2.81065 3.50448 3.17657
# Velocity P-wave (km/s) = 4.69111 5.43057 5.07433
#
# Compressibility (1/GPa) = 0.03574735
#
# Stress axis : x y z
#
# Youngs Moduli (GPa) = 112.70517 44.26577 58.80741
#
# Poissons Ratio (x) = -0.01316 0.12492
# Poissons Ratio (y) = -0.03351 0.26661
# Poissons Ratio (z) = 0.23940 0.20068
#
# Static dielectric constant tensor:
#      x y z
#    x 1.954390 0.000000 0.031850 
#    y 0.000000 1.874830 0.000000 
#    z 0.031850 0.000000 2.112780 
# 
# From -- ./inp_files/6124.got.cif
#   From: 2010.05.17/outbox.cif.g08.bks.cpg/sg4_4_cif.got.tgz:6124.got - 2010.06.03 18:43:04.
