data_PCOD9114756
_publ_section_title
;
Structure prediction by ZEFSAII (Michael W. Deem and Ramdas Pophale) SiO2 
 PCOD9114756
Probable space group: P 21
;
_chemical_formula_sum "Si O2"
_cell_formula_units_Z 14
_cell_length_a 7.671141
_cell_length_b 4.934643
_cell_length_c 21.956308
_cell_angle_alpha 90.000000
_cell_angle_beta 123.661681
_cell_angle_gamma 90.000000
_cell_volume 691.779940
_symmetry_space_group_name_H-M "P 21"
_symmetry_group_IT_number 4
_symmetry_cell_setting 'monoclinic'
loop_
_space_group_symop_operation_xyz
x,y,z
-x,1/2+y,-z
loop_
_atom_site_type_symbol
_atom_site_label
_atom_site_fract_x
_atom_site_fract_y
_atom_site_fract_z
Si Si1 0.103404 0.603600 0.651924
Si Si2 0.587388 0.979626 0.811670
Si Si3 0.355276 0.102901 0.655501
Si Si4 0.371732 0.445874 0.956056
Si Si5 0.004915 0.685860 0.042407
Si Si6 0.127695 0.971835 0.501869
Si Si7 0.662619 0.979604 0.191470
O O1 0.560007 0.031760 0.734123
O O2 0.279103 0.405989 0.655059
O O3 0.893865 0.533817 0.573905
O O4 0.178757 0.906188 0.651741
O O5 0.516085 0.679592 0.816226
O O6 0.808934 0.062421 0.881469
O O7 0.416249 0.177536 0.809879
O O8 0.130945 0.544063 0.728499
O O9 0.336609 0.038261 0.580328
O O10 0.175513 0.313051 0.951466
O O11 0.319607 0.519666 0.876667
O O12 0.548110 0.212818 0.994104
O O13 0.077562 0.938123 0.014829
O O14 0.953743 0.172174 0.498842
#
# Coordination Sequence:
#
# PCOD9114756 Si02
#       7
#     2   2   2   2   2   2   2
#     4   8  14  23  39  62  91 123 153 190 235 279
#     4  10  19  33  51  72  99 130 163 202 247 293
#     4   8  14  23  39  62  91 123 153 190 235 279
#     4  12  24  38  55  75 100 132 168 209 253 301
#     4  12  24  38  55  75 100 132 168 209 253 301
#     4   8  12  20  34  58  90 120 150 186 230 276
#     4  10  19  33  51  72  99 130 163 202 247 293
#
# _framework density 20.237648
#
# number of rings (size 3 to 8) (size 9 to 14) (size 15 to 20)
#    0.000    2.286    0.000    5.143    0.000    0.000 
#    0.000    0.000    0.000    0.000    0.000    0.000 
#    0.000   38.857    0.000    0.286    0.000   56.286 
#
# Total GULP energy -78068.494515 kJ/mol
# GULP energy per Si atom -5576.321037 kJ/mol
# Density = 2.019159 g / cm^3
# Si number density = 20.237648 Si / 1000 Ang^3
#
#
#
# Elastic Constant Matrix: (Units=GPa)
#
#
# Indices 1 2 3 4 5 6 
#
# 1 31.5205 0.0703 30.7060 0.0000 -3.4690 0.0000
# 2 0.0703 88.1719 18.4131 0.0000 -2.2110 0.0000
# 3 30.7060 18.4131 216.6226 0.0000 2.3486 0.0000
# 4 0.0000 0.0000 0.0000 35.6221 0.0000 1.4445
# 5 -3.4690 -2.2110 2.3486 0.0000 9.9648 0.0000
# 6 0.0000 0.0000 0.0000 1.4445 0.0000 16.1496
#
#
#
# Elastic Compliance Matrix: (Units=1/GPa)
#
#
# Indices 1 2 3 4 5 6 
#
# 1 0.039102 0.001574 -0.005843 0.000000 0.015338 0.000000
# 2 0.001574 0.011688 -0.001254 0.000000 0.003437 0.000000
# 3 -0.005843 -0.001254 0.005590 0.000000 -0.003630 0.000000
# 4 0.000000 0.000000 0.000000 0.028175 0.000000 -0.002520
# 5 0.015338 0.003437 -0.003630 0.000000 0.107311 0.000000
# 6 0.000000 0.000000 0.000000 -0.002520 0.000000 0.062146
#
#
# Mechanical properties :
#
#
# Convention : Reuss Voigt Hill
#
# Bulk Modulus (GPa) = 22.05824 48.29930 35.17877
# Shear Modulus (GPa) = 17.84633 31.48901 24.66767
#
# Velocity S-wave (km/s) = 2.97280 3.94885 3.49506
# Velocity P-wave (km/s) = 4.76515 6.68648 5.80585
#
# Compressibility (1/GPa) = 0.04533454
#
# Stress axis : x y z
#
# Youngs Moduli (GPa) = 25.57435 85.55608 178.87660
#
# Poissons Ratio (x) = -0.13463 1.04512
# Poissons Ratio (y) = -0.04024 0.22428
# Poissons Ratio (z) = 0.14942 0.10727
#
# Static dielectric constant tensor:
#      x y z
#    x 1.671630 0.000000 0.012340 
#    y 0.000000 1.700510 0.000000 
#    z 0.012340 0.000000 1.841720 
# 
# From -- ./inp_files/15385.got.cif
#   From: 2010.05.17/outbox.cif.g08.bks.cpg/sg4_8_cif.got.tgz:15385.got - 2010.06.03 18:43:04.
