data_PCOD9114602
_publ_section_title
;
Structure prediction by ZEFSAII (Michael W. Deem and Ramdas Pophale) SiO2 
 PCOD9114602
Probable space group: P 21
;
_chemical_formula_sum "Si O2"
_cell_formula_units_Z 12
_cell_length_a 11.276600
_cell_length_b 8.395127
_cell_length_c 16.258179
_cell_angle_alpha 90.000000
_cell_angle_beta 159.860020
_cell_angle_gamma 90.000000
_cell_volume 529.947877
_symmetry_space_group_name_H-M "P 21"
_symmetry_group_IT_number 4
_symmetry_cell_setting 'monoclinic'
loop_
_space_group_symop_operation_xyz
x,y,z
-x,1/2+y,-z
loop_
_atom_site_type_symbol
_atom_site_label
_atom_site_fract_x
_atom_site_fract_y
_atom_site_fract_z
Si Si1 0.776384 0.396450 0.274613
Si Si2 0.396635 0.233092 0.611597
Si Si3 0.743097 0.096700 0.975492
Si Si4 0.211995 0.918927 0.404139
Si Si5 0.232249 0.138130 0.880001
Si Si6 0.834877 0.882822 0.701160
O O1 0.700461 0.501890 0.143124
O O2 0.170612 0.339688 0.527522
O O3 0.622579 0.511599 0.244261
O O4 0.556915 0.234049 0.125030
O O5 0.399174 0.338557 0.530631
O O6 0.209416 0.073022 0.459100
O O7 0.729616 0.161984 0.873845
O O8 0.852694 0.256922 0.094676
O O9 0.010281 0.971055 0.188818
O O10 0.593303 0.873622 0.623042
O O11 0.015769 0.774108 0.318272
O O12 0.002527 0.054900 0.800451
#
# Coordination Sequence:
#
# PCOD9114602 Si02
#       6
#     2   2   2   2   2   2
#     4  10  20  34  56  86 116 150 192 234 286 342
#     4  10  22  38  58  86 116 152 192 235 287 341
#     4  10  22  38  58  86 116 152 192 235 287 341
#     4  10  21  39  60  83 114 151 193 238 284 338
#     4  10  18  34  58  80 112 152 188 234 286 336
#     4  10  21  39  60  83 114 151 193 238 284 338
#
# _framework density 22.643735
#
# number of rings (size 3 to 8) (size 9 to 14) (size 15 to 20)
#    0.000    2.000    0.000    6.000    0.000    4.000 
#    0.000    6.667    0.000    0.000    0.000    0.000 
#    0.000    0.000    0.000    0.000    0.000    0.000 
#
# Total GULP energy -66839.799735 kJ/mol
# GULP energy per Si atom -5569.983311 kJ/mol
# Density = 2.259220 g / cm^3
# Si number density = 22.643735 Si / 1000 Ang^3
#
#
#
# Elastic Constant Matrix: (Units=GPa)
#
#
# Indices 1 2 3 4 5 6 
#
# 1 44.1125 9.3685 21.6806 0.0000 -0.8029 0.0000
# 2 9.3685 90.1841 19.8118 0.0000 3.7729 0.0000
# 3 21.6806 19.8118 45.7645 0.0000 -9.9080 0.0000
# 4 0.0000 0.0000 0.0000 17.7173 0.0000 1.2087
# 5 -0.8029 3.7729 -9.9080 0.0000 30.8363 0.0000
# 6 0.0000 0.0000 0.0000 1.2087 0.0000 18.0663
#
#
#
# Elastic Compliance Matrix: (Units=1/GPa)
#
#
# Indices 1 2 3 4 5 6 
#
# 1 0.030032 0.000420 -0.015317 0.000000 -0.004191 0.000000
# 2 0.000420 0.012610 -0.006437 0.000000 -0.003600 0.000000
# 3 -0.015317 -0.006437 0.034369 0.000000 0.011432 0.000000
# 4 0.000000 0.000000 0.000000 0.056701 0.000000 -0.003794
# 5 -0.004191 -0.003600 0.011432 0.000000 0.036434 0.000000
# 6 0.000000 0.000000 0.000000 -0.003794 0.000000 0.055606
#
#
# Mechanical properties :
#
#
# Convention : Reuss Voigt Hill
#
# Bulk Modulus (GPa) = 29.11807 31.30920 30.21363
# Shear Modulus (GPa) = 17.86574 21.93732 19.90153
#
# Velocity S-wave (km/s) = 2.81195 3.11594 2.96784
# Velocity P-wave (km/s) = 4.84044 5.17709 5.01160
#
# Compressibility (1/GPa) = 0.03434294
#
# Stress axis : x y z
#
# Youngs Moduli (GPa) = 33.29824 79.30486 29.09608
#
# Poissons Ratio (x) = -0.03334 0.44565
# Poissons Ratio (y) = -0.01400 0.18730
# Poissons Ratio (z) = 0.51001 0.51052
#
# Static dielectric constant tensor:
#      x y z
#    x 1.867850 0.000000 -0.002380 
#    y 0.000000 1.808040 0.000000 
#    z -0.002380 0.000000 1.904050 
# 
# From -- ./inp_files/12570.got.cif
#   From: 2010.05.17/outbox.cif.g08.bks.cpg/sg4_7_cif.got.tgz:12570.got - 2010.06.03 18:43:04.
