data_PCOD9114438
_publ_section_title
;
Structure prediction by ZEFSAII (Michael W. Deem and Ramdas Pophale) SiO2 
 PCOD9114438
Probable space group: P 21
;
_chemical_formula_sum "Si O2"
_cell_formula_units_Z 12
_cell_length_a 15.563527
_cell_length_b 5.077684
_cell_length_c 26.762602
_cell_angle_alpha 90.000000
_cell_angle_beta 159.598742
_cell_angle_gamma 90.000000
_cell_volume 737.259242
_symmetry_space_group_name_H-M "P 21"
_symmetry_group_IT_number 4
_symmetry_cell_setting 'monoclinic'
loop_
_space_group_symop_operation_xyz
x,y,z
-x,1/2+y,-z
loop_
_atom_site_type_symbol
_atom_site_label
_atom_site_fract_x
_atom_site_fract_y
_atom_site_fract_z
Si Si1 0.317889 0.885510 0.656346
Si Si2 0.153175 0.286423 0.094010
Si Si3 0.611786 0.898269 0.671463
Si Si4 0.061287 0.385213 0.467624
Si Si5 0.333370 0.289516 0.405427
Si Si6 0.265890 0.397642 0.475133
O O1 0.607461 0.843458 0.809345
O O2 0.184190 0.659095 0.551221
O O3 0.201675 0.868002 0.648278
O O4 0.232421 0.159078 0.585157
O O5 0.236138 0.344455 0.195917
O O6 0.939071 0.489370 0.962427
O O7 0.762276 0.856604 0.701904
O O8 0.391480 0.683548 0.548093
O O9 0.484136 0.183725 0.602805
O O10 0.072235 0.362611 0.414074
O O11 0.565821 0.491555 0.538005
O O12 0.177717 0.347098 0.370358
#
# Coordination Sequence:
#
# PCOD9114438 Si02
#       6
#     2   2   2   2   2   2
#     4  10  20  31  44  68  91 120 154 185 228 266
#     4  12  22  32  46  64  92 132 160 181 215 266
#     4  10  18  30  42  65  95 116 150 186 218 269
#     4  10  17  30  50  66  92 117 143 193 236 273
#     4   8  16  25  42  65  89 113 139 179 231 279
#     4  10  15  28  48  68  89 116 140 182 244 275
#
# _framework density 16.276499999999999
#
# number of rings (size 3 to 8) (size 9 to 14) (size 15 to 20)
#    0.000    2.000    3.333    2.000    0.000    0.000 
#    0.000    0.000    0.000    0.000    0.000    2.333 
#    0.000    0.000    0.000    0.000    0.000    0.000 
#
# Total GULP energy -66862.368055 kJ/mol
# GULP energy per Si atom -5571.864005 kJ/mol
# Density = 1.623945 g / cm^3
# Si number density = 16.276500 Si / 1000 Ang^3
#
#
#
# Elastic Constant Matrix: (Units=GPa)
#
#
# Indices 1 2 3 4 5 6 
#
# 1 168.3223 -9.5121 19.7707 0.0000 9.2086 0.0000
# 2 -9.5121 37.5672 -17.0420 0.0000 -12.8123 0.0000
# 3 19.7707 -17.0420 24.4175 0.0000 4.1419 0.0000
# 4 0.0000 0.0000 0.0000 10.2688 0.0000 -12.3892
# 5 9.2086 -12.8123 4.1419 0.0000 14.3990 0.0000
# 6 0.0000 0.0000 0.0000 -12.3892 0.0000 -1.1211
#
#
#
# Elastic Compliance Matrix: (Units=1/GPa)
#
#
# Indices 1 2 3 4 5 6 
#
# 1 0.006855 -0.003162 -0.006872 0.000000 -0.005221 0.000000
# 2 -0.003162 0.055554 0.034279 0.000000 0.041594 0.000000
# 3 -0.006872 0.034279 0.067833 0.000000 0.015383 0.000000
# 4 0.000000 0.000000 0.000000 0.006794 0.000000 -0.075084
# 5 -0.005221 0.041594 0.015383 0.000000 0.105374 0.000000
# 6 0.000000 0.000000 0.000000 -0.075084 0.000000 -0.062233
#
#
# Mechanical properties :
#
#
# Convention : Reuss Voigt Hill
#
# Bulk Modulus (GPa) = 5.59499 24.08222 14.83861
# Shear Modulus (GPa) = 26.14145 20.51536 23.32841
#
# Velocity S-wave (km/s) = 4.01195 3.55410 3.78995
# Velocity P-wave (km/s) = 4.99058 5.62761 5.31864
#
# Compressibility (1/GPa) = 0.17873126
#
# Stress axis : x y z
#
# Youngs Moduli (GPa) = 145.87727 18.00043 14.74198
#
# Poissons Ratio (x) = 0.05692 0.10131
# Poissons Ratio (y) = 0.46132 -0.50533
# Poissons Ratio (z) = 1.00247 -0.61703
#
# Static dielectric constant tensor:
#      x y z
#    x 1.630400 0.000000 0.002070 
#    y 0.000000 1.553630 0.000000 
#    z 0.002070 0.000000 1.491100 
# 
# From -- ./inp_files/8815.got.cif
#   From: 2010.05.17/outbox.cif.g08.bks.cpg/sg4_5_cif.got.tgz:8815.got - 2010.06.03 18:43:04.
