data_PCOD9114049
_publ_section_title
;
Structure prediction by ZEFSAII (Michael W. Deem and Ramdas Pophale) SiO2 
 PCOD9114049
Probable space group: P 2
;
_chemical_formula_sum "Si O2"
_cell_formula_units_Z 9
_cell_length_a 15.549436
_cell_length_b 5.283398
_cell_length_c 15.549405
_cell_angle_alpha 90.000000
_cell_angle_beta 162.022061
_cell_angle_gamma 90.000000
_cell_volume 394.283971
_symmetry_space_group_name_H-M "P 2"
_symmetry_group_IT_number 3
_symmetry_cell_setting 'monoclinic'
loop_
_space_group_symop_operation_xyz
x,y,z
-x,y,-z
loop_
_atom_site_type_symbol
_atom_site_label
_atom_site_fract_x
_atom_site_fract_y
_atom_site_fract_z
Si Si1 0.500000 0.735520 0.000000
Si Si2 0.824522 0.392431 0.175470
Si Si3 0.000000 0.892439 0.000000
Si Si4 0.614875 0.392438 0.385134
Si Si5 0.438690 0.892440 0.561312
Si Si6 0.000000 0.049344 0.500000
O O1 0.662919 0.588647 0.081557
O O2 0.731362 0.892432 0.268639
O O3 0.918440 0.196215 0.337078
O O4 0.101788 0.481159 0.391419
O O5 0.608571 0.303706 0.898201
O O6 0.731797 0.995327 0.799088
O O7 0.799086 0.789548 0.731796
O O8 0.498771 0.641687 0.323266
O O9 0.676737 0.143197 0.501236
#
# Coordination Sequence:
#
# PCOD9114049 Si02
#       6
#     1   2   1   2   2   1
#     4  12  26  46  72 100 140 204 254 304 370 432
#     4  12  27  46  66 105 143 190 249 307 352 442
#     4  10  24  48  76 100 150 176 242 284 356 468
#     4  12  27  45  74 106 149 182 243 302 370 423
#     4  11  26  46  72 110 135 194 227 296 370 436
#     4  12  26  46  72 100 140 204 254 304 370 432
#
# _framework density 22.826187000000001
#
# number of rings (size 3 to 8) (size 9 to 14) (size 15 to 20)
#    0.000    0.444    0.000    8.000    9.333    5.333 
#    0.000    0.000    0.000    0.000    0.000    0.000 
#    0.000    0.000    0.000    0.000    0.000    0.000 
#
# Total GULP energy -50167.814992 kJ/mol
# GULP energy per Si atom -5574.201666 kJ/mol
# Density = 2.277423 g / cm^3
# Si number density = 22.826187 Si / 1000 Ang^3
#
#
#
# Elastic Constant Matrix: (Units=GPa)
#
#
# Indices 1 2 3 4 5 6 
#
# 1 99.6309 39.9962 43.0480 0.0000 6.9943 0.0000
# 2 39.9962 104.0024 24.9926 0.0000 -2.7268 0.0000
# 3 43.0480 24.9926 167.3296 0.0000 5.3303 0.0000
# 4 0.0000 0.0000 0.0000 35.4669 0.0000 26.5546
# 5 6.9943 -2.7268 5.3303 0.0000 47.1940 0.0000
# 6 0.0000 0.0000 0.0000 26.5546 0.0000 -110.4896
#
#
#
# Elastic Compliance Matrix: (Units=1/GPa)
#
#
# Indices 1 2 3 4 5 6 
#
# 1 0.013101 -0.004452 -0.002645 0.000000 -0.001900 0.000000
# 2 -0.004452 0.011513 -0.000619 0.000000 0.001395 0.000000
# 3 -0.002645 -0.000619 0.006762 0.000000 -0.000408 0.000000
# 4 0.000000 0.000000 0.000000 0.023895 0.000000 0.005743
# 5 -0.001900 0.001395 -0.000408 0.000000 0.021597 0.000000
# 6 0.000000 0.000000 0.000000 0.005743 0.000000 -0.007670
#
#
# Mechanical properties :
#
#
# Convention : Reuss Voigt Hill
#
# Bulk Modulus (GPa) = 62.72011 65.22628 63.97320
# Shear Modulus (GPa) = 55.59043 11.96266 33.77654
#
# Velocity S-wave (km/s) = 4.94031 2.29175 3.85090
# Velocity P-wave (km/s) = 7.75107 5.96993 6.91806
#
# Compressibility (1/GPa) = 0.01594385
#
# Stress axis : x y z
#
# Youngs Moduli (GPa) = 76.33270 86.86125 147.88520
#
# Poissons Ratio (x) = 0.38674 0.39112
# Poissons Ratio (y) = 0.33986 0.09147
# Poissons Ratio (z) = 0.20188 0.05373
#
# Static dielectric constant tensor:
#      x y z
#    x 1.893430 0.000000 -0.009820 
#    y 0.000000 1.875220 0.000000 
#    z -0.009820 0.000000 1.839420 
# 
# From -- ./inp_files/13925.got.cif
#   From: 2010.05.17/outbox.cif.g08.bks.cpg/sg3_7_cif.got.tgz:13925.got - 2010.06.03 18:33:08.
