data_PCOD9114719
_publ_section_title
;
Structure prediction by ZEFSAII (Michael W. Deem and Ramdas Pophale) SiO2 
 PCOD9114719
Probable space group: P 21
;
_chemical_formula_sum "Si O2"
_cell_formula_units_Z 16
_cell_length_a 9.320606
_cell_length_b 5.476374
_cell_length_c 21.364825
_cell_angle_alpha 90.000000
_cell_angle_beta 37.788518
_cell_angle_gamma 90.000000
_cell_volume 668.219253
_symmetry_space_group_name_H-M "P 21"
_symmetry_group_IT_number 4
_symmetry_cell_setting 'monoclinic'
loop_
_space_group_symop_operation_xyz
x,y,z
-x,1/2+y,-z
loop_
_atom_site_type_symbol
_atom_site_label
_atom_site_fract_x
_atom_site_fract_y
_atom_site_fract_z
Si Si1 0.493974 0.137260 0.791230
Si Si2 0.030586 0.125287 0.874399
Si Si3 0.919124 0.121290 0.176898
Si Si4 0.029133 0.024536 0.615745
Si Si5 0.545281 0.753480 0.612513
Si Si6 0.591243 0.595925 0.436260
Si Si7 0.283455 0.636324 0.895278
Si Si8 0.922139 0.676614 0.560704
O O1 0.312780 0.134729 0.793797
O O2 0.775353 0.132265 0.686560
O O3 0.433375 0.389360 0.846642
O O4 0.424054 0.889748 0.851538
O O5 0.956369 0.364987 0.862513
O O6 0.965972 0.884496 0.858386
O O7 0.908559 0.126549 0.984096
O O8 0.702376 0.121751 0.299867
O O9 0.837045 0.130730 0.131770
O O10 0.245479 0.138444 0.500821
O O11 0.129500 0.072931 0.649790
O O12 0.006995 0.742486 0.600729
O O13 0.644992 0.711354 0.647898
O O14 0.498362 0.023154 0.601760
O O15 0.497960 0.355287 0.507493
O O16 0.993197 0.416253 0.508645
#
# Coordination Sequence:
#
# PCOD9114719 Si02
#       8
#     2   2   2   2   2   2   2   2
#     4  10  19  30  51  78 106 144 184 221 274 325
#     4  10  19  34  52  78 114 146 179 227 282 341
#     4  10  19  30  51  78 106 144 184 221 274 325
#     4  10  22  37  55  82 117 151 187 230 273 330
#     4  10  22  37  55  82 117 151 187 230 273 330
#     4  10  22  40  58  74 108 162 200 222 264 324
#     4  10  19  34  52  78 114 146 179 227 282 341
#     4  10  20  32  50  74 106 144 180 226 274 308
#
# _framework density 23.944236
#
# number of rings (size 3 to 8) (size 9 to 14) (size 15 to 20)
#    0.000    2.000    0.000    6.000    0.000   16.000 
#    0.000    0.000    0.000    0.000    0.000    5.250 
#    0.000    0.000    0.000    0.000    0.000    0.000 
#
# Total GULP energy -89189.887407 kJ/mol
# GULP energy per Si atom -5574.367963 kJ/mol
# Density = 2.388974 g / cm^3
# Si number density = 23.944236 Si / 1000 Ang^3
#
#
#
# Elastic Constant Matrix: (Units=GPa)
#
#
# Indices 1 2 3 4 5 6 
#
# 1 43.7995 8.6480 4.2360 0.0000 -7.5062 0.0000
# 2 8.6480 200.3851 45.3254 0.0000 -2.4112 0.0000
# 3 4.2360 45.3254 116.0342 0.0000 1.3491 0.0000
# 4 0.0000 0.0000 0.0000 40.1991 0.0000 0.5376
# 5 -7.5062 -2.4112 1.3491 0.0000 12.8511 0.0000
# 6 0.0000 0.0000 0.0000 0.5376 0.0000 25.4769
#
#
#
# Elastic Compliance Matrix: (Units=1/GPa)
#
#
# Indices 1 2 3 4 5 6 
#
# 1 0.025611 -0.000741 -0.000819 0.000000 0.014906 0.000000
# 2 -0.000741 0.005516 -0.002137 0.000000 0.000827 0.000000
# 3 -0.000819 -0.002137 0.009505 0.000000 -0.001877 0.000000
# 4 0.000000 0.000000 0.000000 0.024883 0.000000 -0.000525
# 5 0.014906 0.000827 -0.001877 0.000000 0.086873 0.000000
# 6 0.000000 0.000000 0.000000 -0.000525 0.000000 0.039262
#
#
# Mechanical properties :
#
#
# Convention : Reuss Voigt Hill
#
# Bulk Modulus (GPa) = 30.08584 52.95972 41.52278
# Shear Modulus (GPa) = 23.79552 35.83938 29.81745
#
# Velocity S-wave (km/s) = 3.15586 3.87303 3.53269
# Velocity P-wave (km/s) = 5.08641 6.49357 5.83258
#
# Compressibility (1/GPa) = 0.03323823
#
# Stress axis : x y z
#
# Youngs Moduli (GPa) = 39.04512 181.30058 105.21143
#
# Poissons Ratio (x) = 0.13429 0.08616
# Poissons Ratio (y) = 0.02892 0.22485
# Poissons Ratio (z) = 0.03198 0.38746
#
# Static dielectric constant tensor:
#      x y z
#    x 2.110150 0.000000 0.060650 
#    y 0.000000 2.054830 0.000000 
#    z 0.060650 0.000000 1.972960 
# 
# From -- ./inp_files/12486.got.cif
#   From: 2010.05.17/outbox.cif.g08.bks.cpg/sg4_7_cif.got.tgz:12486.got - 2010.06.03 18:43:04.
