data_PCOD9114440
_publ_section_title
;
Structure prediction by ZEFSAII (Michael W. Deem and Ramdas Pophale) SiO2 
 PCOD9114440
Probable space group: P 21
;
_chemical_formula_sum "Si O2"
_cell_formula_units_Z 12
_cell_length_a 7.591133
_cell_length_b 7.538930
_cell_length_c 7.591193
_cell_angle_alpha 90.000000
_cell_angle_beta 69.314781
_cell_angle_gamma 90.000000
_cell_volume 406.430669
_symmetry_space_group_name_H-M "P 21"
_symmetry_group_IT_number 4
_symmetry_cell_setting 'monoclinic'
loop_
_space_group_symop_operation_xyz
x,y,z
-x,1/2+y,-z
loop_
_atom_site_type_symbol
_atom_site_label
_atom_site_fract_x
_atom_site_fract_y
_atom_site_fract_z
Si Si1 0.105375 0.513160 0.761106
Si Si2 0.329900 0.085004 0.329898
Si Si3 0.435410 0.699920 0.435411
Si Si4 0.761104 0.513156 0.105379
Si Si5 0.336531 0.621492 0.999236
Si Si6 0.000764 0.121496 0.663467
O O1 0.248234 0.606303 0.575589
O O2 0.242703 0.495366 0.885088
O O3 0.046608 0.320027 0.712573
O O4 0.918001 0.596342 0.918004
O O5 0.377734 0.887929 0.377730
O O6 0.433831 0.213453 0.433832
O O7 0.439381 0.106556 0.107495
O O8 0.107497 0.106557 0.439379
O O9 0.575587 0.606300 0.248237
O O10 0.712573 0.320023 0.046611
O O11 0.885087 0.495367 0.242707
O O12 0.218287 0.588005 0.218288
#
# Coordination Sequence:
#
# PCOD9114440 Si02
#       6
#     2   2   2   2   2   2
#     4   9  15  21  27  32  37  43  49  55  60  65
#     4  10  16  20  26  32  38  44  48  54  60  66
#     4  10  16  20  26  32  38  44  48  54  60  66
#     4   9  15  21  27  32  37  43  49  55  60  65
#     4   9  15  21  27  32  37  43  49  55  60  65
#     4   9  15  21  27  32  37  43  49  55  60  65
#
# _framework density 29.525333
#
# number of rings (size 3 to 8) (size 9 to 14) (size 15 to 20)
#    0.000    2.667    0.000    9.000    0.000    4.000 
#    0.000    0.000    0.000    0.000    0.000    0.000 
#    0.000    0.000    0.000    0.000    0.000    0.000 
#
# Total GULP energy -67274.965984 kJ/mol
# GULP energy per Si atom -5606.247165 kJ/mol
# Density = 2.945813 g / cm^3
# Si number density = 29.525333 Si / 1000 Ang^3
#
#
#
# Elastic Constant Matrix: (Units=GPa)
#
#
# Indices 1 2 3 4 5 6 
#
# 1 121.0810 2.6376 85.6590 0.0000 -60.9003 0.0000
# 2 2.6376 89.7951 36.3019 0.0000 -14.1221 0.0000
# 3 85.6590 36.3019 403.1320 0.0000 -57.4368 0.0000
# 4 0.0000 0.0000 0.0000 50.6033 0.0000 -17.6955
# 5 -60.9003 -14.1221 -57.4368 0.0000 88.8298 0.0000
# 6 0.0000 0.0000 0.0000 -17.6955 0.0000 8.4277
#
#
#
# Elastic Compliance Matrix: (Units=1/GPa)
#
#
# Indices 1 2 3 4 5 6 
#
# 1 0.013852 0.001697 -0.001878 0.000000 0.008552 0.000000
# 2 0.001697 0.011899 -0.001098 0.000000 0.002345 0.000000
# 3 -0.001878 -0.001098 0.003051 0.000000 0.000511 0.000000
# 4 0.000000 0.000000 0.000000 0.074360 0.000000 0.156133
# 5 0.008552 0.002345 0.000511 0.000000 0.017824 0.000000
# 6 0.000000 0.000000 0.000000 0.156133 0.000000 0.446488
#
#
# Mechanical properties :
#
#
# Convention : Reuss Voigt Hill
#
# Bulk Modulus (GPa) = 38.10145 95.91167 67.00656
# Shear Modulus (GPa) = 8.63885 62.19945 35.41915
#
# Velocity S-wave (km/s) = 1.71239 4.59480 3.46731
# Velocity P-wave (km/s) = 4.10394 7.79132 6.22684
#
# Compressibility (1/GPa) = 0.02624572
#
# Stress axis : x y z
#
# Youngs Moduli (GPa) = 72.19221 84.03804 327.73631
#
# Poissons Ratio (x) = -0.14263 0.61537
# Poissons Ratio (y) = -0.12253 0.35986
# Poissons Ratio (z) = 0.13555 0.09227
#
# Static dielectric constant tensor:
#      x y z
#    x 2.402020 0.000000 0.054000 
#    y 0.000000 2.220750 0.000000 
#    z 0.054000 0.000000 2.273320 
# 
# From -- ./inp_files/11823.got.cif
#   From: 2010.05.17/outbox.cif.g08.bks.cpg/sg4_6_cif.got.tgz:11823.got - 2010.06.03 18:43:04.
