data_PCOD9114946
_publ_section_title
;
Structure prediction by ZEFSAII (Michael W. Deem and Ramdas Pophale) SiO2 
 PCOD9114946
Probable space group: P 21
;
_chemical_formula_sum "Si O2"
_cell_formula_units_Z 16
_cell_length_a 10.533075
_cell_length_b 8.596757
_cell_length_c 7.651331
_cell_angle_alpha 90.000000
_cell_angle_beta 60.129425
_cell_angle_gamma 90.000000
_cell_volume 600.789547
_symmetry_space_group_name_H-M "P 21"
_symmetry_group_IT_number 4
_symmetry_cell_setting 'monoclinic'
loop_
_space_group_symop_operation_xyz
x,y,z
-x,1/2+y,-z
loop_
_atom_site_type_symbol
_atom_site_label
_atom_site_fract_x
_atom_site_fract_y
_atom_site_fract_z
Si Si1 0.521129 0.199760 0.304425
Si Si2 0.767230 0.389695 0.015720
Si Si3 0.141564 0.701967 0.563786
Si Si4 0.987614 0.703286 0.286046
Si Si5 0.888812 0.881104 0.889587
Si Si6 0.606959 0.383888 0.755304
Si Si7 0.260587 0.378577 0.391157
Si Si8 0.362177 0.207307 0.780571
O O1 0.689168 0.243623 0.162978
O O2 0.430235 0.340011 0.276492
O O3 0.460671 0.205027 0.541184
O O4 0.476052 0.037952 0.248808
O O5 0.723608 0.547021 0.139745
O O6 0.935197 0.346488 0.866444
O O7 0.692308 0.404211 0.876626
O O8 0.065348 0.697210 0.423552
O O9 0.265257 0.834237 0.466992
O O10 0.220231 0.536367 0.518552
O O11 0.013038 0.748806 0.782691
O O12 0.027308 0.544586 0.162209
O O13 0.821663 0.739000 0.450189
O O14 0.802504 0.884103 0.761423
O O15 0.765008 0.836772 0.113108
O O16 0.485154 0.247406 0.842678
#
# Coordination Sequence:
#
# PCOD9114946 Si02
#       8
#     2   2   2   2   2   2   2   2
#     4  12  25  40  58  88 124 158 195 246 303 358
#     4  11  22  40  64  89 116 157 205 249 295 354
#     4   9  19  35  62  92 116 147 200 256 296 342
#     4   9  19  35  62  92 116 147 200 256 296 342
#     4  10  19  37  62  89 118 154 198 247 298 356
#     4  11  22  40  64  89 116 157 205 249 295 354
#     4  10  19  37  62  89 118 154 198 247 298 356
#     4  12  25  40  58  88 124 158 195 246 303 358
#
# _framework density 26.631623999999999
#
# number of rings (size 3 to 8) (size 9 to 14) (size 15 to 20)
#    0.000    1.500    0.000    6.000    0.000    6.000 
#    0.000    7.500    0.000    0.000    0.000    0.000 
#    0.000    0.000    0.000    0.000    0.000    0.000 
#
# Total GULP energy -89741.453666 kJ/mol
# GULP energy per Si atom -5608.840854 kJ/mol
# Density = 2.657101 g / cm^3
# Si number density = 26.631624 Si / 1000 Ang^3
#
#
#
# Elastic Constant Matrix: (Units=GPa)
#
#
# Indices 1 2 3 4 5 6 
#
# 1 71.2930 -2.0091 15.0517 0.0000 -3.0960 0.0000
# 2 -2.0091 90.3224 6.3393 0.0000 7.0031 0.0000
# 3 15.0517 6.3393 108.8430 0.0000 -0.3570 0.0000
# 4 0.0000 0.0000 0.0000 43.4722 0.0000 -6.6216
# 5 -3.0960 7.0031 -0.3570 0.0000 49.4461 0.0000
# 6 0.0000 0.0000 0.0000 -6.6216 0.0000 21.0711
#
#
#
# Elastic Compliance Matrix: (Units=1/GPa)
#
#
# Indices 1 2 3 4 5 6 
#
# 1 0.014502 0.000400 -0.002026 0.000000 0.000837 0.000000
# 2 0.000400 0.011253 -0.000716 0.000000 -0.001574 0.000000
# 3 -0.002026 -0.000716 0.009510 0.000000 0.000043 0.000000
# 4 0.000000 0.000000 0.000000 0.024160 0.000000 0.007592
# 5 0.000837 -0.001574 0.000043 0.000000 0.020500 0.000000
# 6 0.000000 0.000000 0.000000 0.007592 0.000000 0.049844
#
#
# Mechanical properties :
#
#
# Convention : Reuss Voigt Hill
#
# Bulk Modulus (GPa) = 32.70085 34.35802 33.52944
# Shear Modulus (GPa) = 34.56744 39.53632 37.05188
#
# Velocity S-wave (km/s) = 3.60666 3.85718 3.73402
# Velocity P-wave (km/s) = 5.44515 5.72419 5.58641
#
# Compressibility (1/GPa) = 0.03058025
#
# Stress axis : x y z
#
# Youngs Moduli (GPa) = 68.95612 88.86818 105.15746
#
# Poissons Ratio (x) = -0.03554 0.21305
# Poissons Ratio (y) = -0.02758 0.07528
# Poissons Ratio (z) = 0.13970 0.06362
#
# Static dielectric constant tensor:
#      x y z
#    x 2.099670 0.000000 0.070360 
#    y 0.000000 2.053720 0.000000 
#    z 0.070360 0.000000 2.005840 
# 
# From -- ./inp_files/5599.got.cif
#   From: 2010.05.17/outbox.cif.g08.bks.cpg/sg4_3_cif.got.tgz:5599.got - 2010.06.03 18:43:04.
