data_PCOD9114955
_publ_section_title
;
Structure prediction by ZEFSAII (Michael W. Deem and Ramdas Pophale) SiO2 
 PCOD9114955
Probable space group: P 21
;
_chemical_formula_sum "Si O2"
_cell_formula_units_Z 14
_cell_length_a 8.722074
_cell_length_b 14.069701
_cell_length_c 5.084079
_cell_angle_alpha 90.000000
_cell_angle_beta 109.307548
_cell_angle_gamma 90.000000
_cell_volume 588.812873
_symmetry_space_group_name_H-M "P 21"
_symmetry_group_IT_number 4
_symmetry_cell_setting 'monoclinic'
loop_
_space_group_symop_operation_xyz
x,y,z
-x,1/2+y,-z
loop_
_atom_site_type_symbol
_atom_site_label
_atom_site_fract_x
_atom_site_fract_y
_atom_site_fract_z
Si Si1 0.005775 0.941930 0.442539
Si Si2 0.210395 0.725463 0.817886
Si Si3 0.636107 0.137868 0.599822
Si Si4 0.405864 0.302609 0.452760
Si Si5 0.060104 0.327001 0.083443
Si Si6 0.646870 0.422814 0.260405
Si Si7 0.651648 0.968864 0.239256
O O1 0.966118 0.912252 0.720310
O O2 0.191005 0.979134 0.559195
O O3 0.837355 0.990619 0.253688
O O4 0.014693 0.854764 0.239213
O O5 0.243174 0.686965 0.545926
O O6 0.286307 0.832669 0.874087
O O7 0.029487 0.739746 0.823717
O O8 0.301120 0.658270 0.074718
O O9 0.468149 0.195810 0.494981
O O10 0.624818 0.032148 0.484302
O O11 0.251021 0.310261 0.177260
O O12 0.556118 0.366100 0.439146
O O13 0.351049 0.357001 0.684322
O O14 0.506146 0.480933 0.033024
#
# Coordination Sequence:
#
# PCOD9114955 Si02
#       7
#     2   2   2   2   2   2   2
#     4  10  22  36  63  94 118 167 211 255 319 379
#     4  10  21  40  60  90 123 166 211 260 320 378
#     4  11  24  39  62  92 130 170 213 268 319 375
#     4  10  21  40  66  92 127 171 214 262 326 375
#     4  10  19  37  64  89 120 162 214 256 314 385
#     4  10  20  39  66  87 126 166 212 260 320 380
#     4  11  23  41  63  94 132 168 219 265 318 380
#
# _framework density 23.776655000000002
#
# number of rings (size 3 to 8) (size 9 to 14) (size 15 to 20)
#    0.000    1.714    2.857    2.571    4.000    0.000 
#    2.571    1.429    0.000    0.000    0.000    0.000 
#    0.000    0.000    0.000    0.000    0.000    0.000 
#
# Total GULP energy -78083.589092 kJ/mol
# GULP energy per Si atom -5577.399221 kJ/mol
# Density = 2.372254 g / cm^3
# Si number density = 23.776655 Si / 1000 Ang^3
#
#
#
# Elastic Constant Matrix: (Units=GPa)
#
#
# Indices 1 2 3 4 5 6 
#
# 1 130.7010 26.5105 46.5490 0.0000 30.2375 0.0000
# 2 26.5105 57.2886 13.4906 0.0000 2.5340 0.0000
# 3 46.5490 13.4906 87.9638 0.0000 16.2203 0.0000
# 4 0.0000 0.0000 0.0000 32.0514 0.0000 -4.3996
# 5 30.2375 2.5340 16.2203 0.0000 52.9873 0.0000
# 6 0.0000 0.0000 0.0000 -4.3996 0.0000 32.6342
#
#
#
# Elastic Compliance Matrix: (Units=1/GPa)
#
#
# Indices 1 2 3 4 5 6 
#
# 1 0.011123 -0.003898 -0.004400 0.000000 -0.004814 0.000000
# 2 -0.003898 0.019476 -0.001232 0.000000 0.001670 0.000000
# 3 -0.004400 -0.001232 0.014214 0.000000 -0.001781 0.000000
# 4 0.000000 0.000000 0.000000 0.031788 0.000000 0.004286
# 5 -0.004814 0.001670 -0.001781 0.000000 0.022085 0.000000
# 6 0.000000 0.000000 0.000000 0.004286 0.000000 0.031220
#
#
# Mechanical properties :
#
#
# Convention : Reuss Voigt Hill
#
# Bulk Modulus (GPa) = 38.83266 49.89487 44.36376
# Shear Modulus (GPa) = 31.73587 36.16147 33.94867
#
# Velocity S-wave (km/s) = 3.65739 3.90408 3.78274
# Velocity P-wave (km/s) = 5.84833 6.43061 6.14637
#
# Compressibility (1/GPa) = 0.02575152
#
# Stress axis : x y z
#
# Youngs Moduli (GPa) = 89.90784 51.34655 70.35136
#
# Poissons Ratio (x) = 0.20014 0.30958
# Poissons Ratio (y) = 0.35045 0.08669
# Poissons Ratio (z) = 0.39563 0.06327
#
# Static dielectric constant tensor:
#      x y z
#    x 1.974800 0.000000 0.012450 
#    y 0.000000 1.931950 0.000000 
#    z 0.012450 0.000000 1.907070 
# 
# From -- ./inp_files/1500.got.cif
#   From: 2010.05.17/outbox.cif.g08.bks.cpg/sg4_1_cif.got.tgz:1500.got - 2010.06.03 18:43:04.
