data_PCOD9114335
_publ_section_title
;
Structure prediction by ZEFSAII (Michael W. Deem and Ramdas Pophale) SiO2 
 PCOD9114335
Probable space group: P 2
;
_chemical_formula_sum "Si O2"
_cell_formula_units_Z 10
_cell_length_a 10.797053
_cell_length_b 7.566840
_cell_length_c 8.672685
_cell_angle_alpha 90.000000
_cell_angle_beta 39.921861
_cell_angle_gamma 90.000000
_cell_volume 454.709491
_symmetry_space_group_name_H-M "P 2"
_symmetry_group_IT_number 3
_symmetry_cell_setting 'monoclinic'
loop_
_space_group_symop_operation_xyz
x,y,z
-x,y,-z
loop_
_atom_site_type_symbol
_atom_site_label
_atom_site_fract_x
_atom_site_fract_y
_atom_site_fract_z
Si Si1 0.500000 0.689541 0.000000
Si Si2 0.168433 0.212079 0.965919
Si Si3 0.747128 0.705766 0.490527
Si Si4 0.500000 0.444592 0.500000
Si Si5 0.281967 0.842317 0.780480
Si Si6 0.149020 0.549467 0.151151
O O1 0.399302 0.784338 0.242512
O O2 0.324177 0.575821 0.100794
O O3 0.352758 0.315364 0.724621
O O4 0.231222 0.011091 0.930423
O O5 0.111065 0.342916 0.157720
O O6 0.000000 0.217095 0.000000
O O7 0.627261 0.556366 0.506018
O O8 0.823848 0.836529 0.283989
O O9 0.939819 0.631075 0.383457
O O10 0.500000 0.857138 0.500000
O O11 0.226095 0.665027 0.928097
#
# Coordination Sequence:
#
# PCOD9114335 Si02
#       6
#     1   2   2   1   2   2
#     4  12  24  40  70  92 132 192 210 256 338 394
#     4  12  22  38  69  99 124 164 214 282 331 369
#     4  12  22  42  66  99 131 171 220 266 329 396
#     4  12  20  38  68  92 128 162 212 278 318 370
#     4  12  22  40  70  98 128 167 221 280 329 376
#     4  12  24  43  65  96 132 172 221 272 320 389
#
# _framework density 21.992063999999999
#
# number of rings (size 3 to 8) (size 9 to 14) (size 15 to 20)
#    0.000    0.000   10.000    2.400    0.000    0.000 
#    0.000    1.000    4.400    2.400    0.000    0.000 
#    0.000    0.000    0.000    0.000    0.000    0.000 
#
# Total GULP energy -55696.312800 kJ/mol
# GULP energy per Si atom -5569.631280 kJ/mol
# Density = 2.194201 g / cm^3
# Si number density = 21.992064 Si / 1000 Ang^3
#
#
#
# Elastic Constant Matrix: (Units=GPa)
#
#
# Indices 1 2 3 4 5 6 
#
# 1 122.5830 10.2977 19.4828 0.0000 -21.4214 0.0000
# 2 10.2977 109.4055 17.6284 0.0000 1.5833 0.0000
# 3 19.4828 17.6284 109.9337 0.0000 -3.9896 0.0000
# 4 0.0000 0.0000 0.0000 13.9710 0.0000 -13.3936
# 5 -21.4214 1.5833 -3.9896 0.0000 45.9864 0.0000
# 6 0.0000 0.0000 0.0000 -13.3936 0.0000 14.6156
#
#
#
# Elastic Compliance Matrix: (Units=1/GPa)
#
#
# Indices 1 2 3 4 5 6 
#
# 1 0.009162 -0.000704 -0.001359 0.000000 0.004174 0.000000
# 2 -0.000704 0.009446 -0.001418 0.000000 -0.000776 0.000000
# 3 -0.001359 -0.001418 0.009574 0.000000 0.000246 0.000000
# 4 0.000000 0.000000 0.000000 0.589195 0.000000 0.539933
# 5 0.004174 -0.000776 0.000246 0.000000 0.023738 0.000000
# 6 0.000000 0.000000 0.000000 0.539933 0.000000 0.563210
#
#
# Mechanical properties :
#
#
# Convention : Reuss Voigt Hill
#
# Bulk Modulus (GPa) = 47.12637 48.52663 47.82650
# Shear Modulus (GPa) = 4.10387 34.54883 19.32635
#
# Velocity S-wave (km/s) = 1.36752 3.96784 2.96765
# Velocity P-wave (km/s) = 4.89580 6.56545 5.79111
#
# Compressibility (1/GPa) = 0.02121954
#
# Stress axis : x y z
#
# Youngs Moduli (GPa) = 109.14186 105.86164 104.45317
#
# Poissons Ratio (x) = 0.07450 0.14200
# Poissons Ratio (y) = 0.07681 0.14814
# Poissons Ratio (z) = 0.14837 0.15013
#
# Static dielectric constant tensor:
#      x y z
#    x 1.931900 0.000000 0.010090 
#    y 0.000000 1.820390 0.000000 
#    z 0.010090 0.000000 1.932550 
# 
# From -- ./inp_files/6825.got.cif
#   From: 2010.05.17/outbox.cif.g08.bks.cpg/sg3_4_cif.got.tgz:6825.got - 2010.06.03 18:33:08.
