data_PCOD9114159
_publ_section_title
;
Structure prediction by ZEFSAII (Michael W. Deem and Ramdas Pophale) SiO2 
 PCOD9114159
Probable space group: P 2
;
_chemical_formula_sum "Si O2"
_cell_formula_units_Z 14
_cell_length_a 19.648190
_cell_length_b 6.163585
_cell_length_c 14.339569
_cell_angle_alpha 90.000000
_cell_angle_beta 159.611137
_cell_angle_gamma 90.000000
_cell_volume 605.003011
_symmetry_space_group_name_H-M "P 2"
_symmetry_group_IT_number 3
_symmetry_cell_setting 'monoclinic'
loop_
_space_group_symop_operation_xyz
x,y,z
-x,y,-z
loop_
_atom_site_type_symbol
_atom_site_label
_atom_site_fract_x
_atom_site_fract_y
_atom_site_fract_z
Si Si1 0.025923 0.545280 0.342406
Si Si2 0.326774 0.177451 0.733012
Si Si3 0.197854 0.843958 0.720186
Si Si4 0.212904 0.661707 0.270441
Si Si5 0.123942 0.939204 0.326671
Si Si6 0.697639 0.956968 0.787963
Si Si7 0.618442 0.662255 0.859074
O O1 0.141001 0.326887 0.483786
O O2 0.102480 0.656704 0.535168
O O3 0.080213 0.719202 0.331220
O O4 0.795786 0.508273 0.056403
O O5 0.307681 0.001685 0.790851
O O6 0.308706 0.053891 0.611723
O O7 0.500000 0.319854 0.000000
O O8 0.000000 0.965840 0.500000
O O9 0.331437 0.746559 0.973215
O O10 0.173812 0.869839 0.286723
O O11 0.405576 0.562709 0.566244
O O12 0.273829 0.750924 0.247173
O O13 0.000000 0.545996 0.000000
O O14 0.913213 0.059954 0.059678
O O15 0.500000 0.075010 0.500000
O O16 0.651363 0.865814 0.831109
#
# Coordination Sequence:
#
# PCOD9114159 Si02
#       7
#     2   2   2   2   2   2   2
#     4   9  20  35  51  76 109 143 178 213 258 320
#     4  11  22  34  52  80 112 143 176 216 263 316
#     4   9  19  35  54  78 107 140 179 217 257 313
#     4   9  16  28  54  83 102 134 180 221 266 313
#     4   9  18  34  54  77 107 139 174 218 266 314
#     4   8  15  29  53  78 100 135 178 217 263 314
#     4   9  16  31  52  76 107 140 176 218 261 310
#
# _framework density 23.140378999999999
#
# number of rings (size 3 to 8) (size 9 to 14) (size 15 to 20)
#    0.000    2.857    0.000    1.714    0.000    5.143 
#    0.000    0.000    0.000   21.429    0.000    6.000 
#    0.000    0.000    0.000    0.000    0.000    0.000 
#
# Total GULP energy -77973.575239 kJ/mol
# GULP energy per Si atom -5569.541089 kJ/mol
# Density = 2.308771 g / cm^3
# Si number density = 23.140379 Si / 1000 Ang^3
#
#
#
# Elastic Constant Matrix: (Units=GPa)
#
#
# Indices 1 2 3 4 5 6 
#
# 1 79.1030 -1.2963 13.2903 0.0000 -18.2553 0.0000
# 2 -1.2963 4.8174 18.3081 0.0000 -0.0611 0.0000
# 3 13.2903 18.3081 190.8389 0.0000 -2.5966 0.0000
# 4 0.0000 0.0000 0.0000 5.7951 0.0000 13.2399
# 5 -18.2553 -0.0611 -2.5966 0.0000 45.4011 0.0000
# 6 0.0000 0.0000 0.0000 13.2399 0.0000 -1.4450
#
#
#
# Elastic Compliance Matrix: (Units=1/GPa)
#
#
# Indices 1 2 3 4 5 6 
#
# 1 0.014505 0.011833 -0.002067 0.000000 0.005730 0.000000
# 2 0.011833 0.336425 -0.033054 0.000000 0.003320 0.000000
# 3 -0.002067 -0.033054 0.008550 0.000000 -0.000387 0.000000
# 4 0.000000 0.000000 0.000000 0.007867 0.000000 0.072086
# 5 0.005730 0.003320 -0.000387 0.000000 0.024312 0.000000
# 6 0.000000 0.000000 0.000000 0.072086 0.000000 -0.031552
#
#
# Mechanical properties :
#
#
# Convention : Reuss Voigt Hill
#
# Bulk Modulus (GPa) = 3.19587 37.26260 20.22923
# Shear Modulus (GPa) = 9.78500 26.24738 18.01619
#
# Velocity S-wave (km/s) = 2.05857 3.37154 2.79330
# Velocity P-wave (km/s) = 2.65224 5.59412 4.37770
#
# Compressibility (1/GPa) = 0.31290412
#
# Stress axis : x y z
#
# Youngs Moduli (GPa) = 68.93982 2.97243 116.96249
#
# Poissons Ratio (x) = -0.03517 0.24181
# Poissons Ratio (y) = -0.81577 3.86606
# Poissons Ratio (z) = 0.14253 0.09825
#
# Static dielectric constant tensor:
#      x y z
#    x 1.925470 0.000000 0.073610 
#    y 0.000000 1.840150 0.000000 
#    z 0.073610 0.000000 2.068900 
# 
# From -- ./inp_files/13260.got.cif
#   From: 2010.05.17/outbox.cif.g08.bks.cpg/sg3_7_cif.got.tgz:13260.got - 2010.06.03 18:33:08.
