data_PCOD9114554
_publ_section_title
;
Structure prediction by ZEFSAII (Michael W. Deem and Ramdas Pophale) SiO2 
 PCOD9114554
Probable space group: P 21
;
_chemical_formula_sum "Si O2"
_cell_formula_units_Z 14
_cell_length_a 13.804414
_cell_length_b 5.474280
_cell_length_c 28.839392
_cell_angle_alpha 90.000000
_cell_angle_beta 16.801279
_cell_angle_gamma 90.000000
_cell_volume 629.953966
_symmetry_space_group_name_H-M "P 21"
_symmetry_group_IT_number 4
_symmetry_cell_setting 'monoclinic'
loop_
_space_group_symop_operation_xyz
x,y,z
-x,1/2+y,-z
loop_
_atom_site_type_symbol
_atom_site_label
_atom_site_fract_x
_atom_site_fract_y
_atom_site_fract_z
Si Si1 0.199687 0.611160 0.303919
Si Si2 0.762481 0.458598 0.319804
Si Si3 0.041714 0.276061 0.680187
Si Si4 0.309919 0.117333 0.095047
Si Si5 0.455757 0.120771 0.329414
Si Si6 0.584541 0.623286 0.303959
Si Si7 0.773364 0.613680 0.670643
O O1 0.368026 0.360848 0.242487
O O2 0.138300 0.625059 0.277368
O O3 0.840882 0.615929 0.495896
O O4 0.365225 0.863730 0.244495
O O5 0.390989 0.367366 0.500003
O O6 0.878072 0.617372 0.310958
O O7 0.752352 0.609456 0.277292
O O8 0.999882 0.221996 0.207635
O O9 0.830275 0.512615 0.792415
O O10 0.527104 0.367350 0.000012
O O11 0.661784 0.873581 0.242575
O O12 0.656601 0.370716 0.244572
O O13 0.282652 0.117247 0.358657
O O14 0.175466 0.618509 0.495968
#
# Coordination Sequence:
#
# PCOD9114554 Si02
#       7
#     2   2   2   2   2   2   2
#     4  10  20  31  51  83 120 165 216 251 318 391
#     4  12  25  39  69  97 131 177 229 281 328 394
#     4  12  25  39  69  97 131 177 229 281 328 394
#     4  12  28  48  64  90 136 188 224 276 338 398
#     4  10  18  31  49  78 131 176 196 253 339 397
#     4  10  20  31  51  83 120 165 216 251 318 391
#     4  10  18  31  49  78 131 176 196 253 339 397
#
# _framework density 22.223848
#
# number of rings (size 3 to 8) (size 9 to 14) (size 15 to 20)
#    0.000    1.143    5.714    4.286    8.000    0.000 
#    0.000    0.000    0.000    0.000    0.000    0.000 
#    0.000    9.143    3.429    0.000    0.000    0.000 
#
# Total GULP energy -78161.642549 kJ/mol
# GULP energy per Si atom -5582.974468 kJ/mol
# Density = 2.217327 g / cm^3
# Si number density = 22.223848 Si / 1000 Ang^3
#
#
#
# Elastic Constant Matrix: (Units=GPa)
#
#
# Indices 1 2 3 4 5 6 
#
# 1 174.8051 67.3338 5.8229 0.0000 -16.4010 -0.0004
# 2 67.3338 232.2114 26.1897 0.0005 -3.4098 -0.0004
# 3 5.8229 26.1897 44.4271 0.0011 5.5014 -0.0008
# 4 0.0000 0.0005 0.0011 12.5971 0.0004 -2.5265
# 5 -16.4010 -3.4098 5.5014 0.0004 -11.5388 0.0002
# 6 -0.0004 -0.0004 -0.0008 -2.5265 0.0002 42.6915
#
#
#
# Elastic Compliance Matrix: (Units=1/GPa)
#
#
# Indices 1 2 3 4 5 6 
#
# 1 0.005757 -0.001913 0.001243 0.000000 -0.007025 0.000000
# 2 -0.001913 0.005173 -0.002782 0.000000 -0.000136 0.000000
# 3 0.001243 -0.002782 0.022759 -0.000002 0.009906 0.000000
# 4 0.000000 0.000000 -0.000002 0.080337 0.000002 0.004754
# 5 -0.007025 -0.000136 0.009906 0.000002 -0.071916 0.000000
# 6 0.000000 0.000000 0.000000 0.004754 0.000000 0.023705
#
#
# Mechanical properties :
#
#
# Convention : Reuss Voigt Hill
#
# Bulk Modulus (GPa) = 37.33352 72.23736 54.78544
# Shear Modulus (GPa) = 61.23932 32.22310 46.73121
#
# Velocity S-wave (km/s) = 5.25504 3.81193 4.59055
# Velocity P-wave (km/s) = 7.32502 7.20759 7.26655
#
# Compressibility (1/GPa) = 0.02678558
#
# Stress axis : x y z
#
# Youngs Moduli (GPa) = 173.70500 193.32025 43.93861
#
# Poissons Ratio (x) = 0.36975 -0.05461
# Poissons Ratio (y) = 0.33224 0.12223
# Poissons Ratio (z) = -0.21589 0.53777
#
# Static dielectric constant tensor:
#      x y z
#    x 1.788770 0.000000 0.023880 
#    y 0.000000 1.915390 0.000000 
#    z 0.023880 0.000000 2.075930 
# 
# From -- ./inp_files/16361.got.cif
#   From: 2010.05.17/outbox.cif.g08.bks.cpg/sg4_9_cif.got.tgz:16361.got - 2010.06.03 18:43:04.
