data_PCOD9114149
_publ_section_title
;
Structure prediction by ZEFSAII (Michael W. Deem and Ramdas Pophale) SiO2 
 PCOD9114149
Probable space group: P 2
;
_chemical_formula_sum "Si O2"
_cell_formula_units_Z 16
_cell_length_a 9.906731
_cell_length_b 11.834802
_cell_length_c 10.089635
_cell_angle_alpha 90.000000
_cell_angle_beta 135.255387
_cell_angle_gamma 90.000000
_cell_volume 832.736059
_symmetry_space_group_name_H-M "P 2"
_symmetry_group_IT_number 3
_symmetry_cell_setting 'monoclinic'
loop_
_space_group_symop_operation_xyz
x,y,z
-x,y,-z
loop_
_atom_site_type_symbol
_atom_site_label
_atom_site_fract_x
_atom_site_fract_y
_atom_site_fract_z
Si Si1 0.664653 0.010510 0.310617
Si Si2 0.534311 0.378169 0.869769
Si Si3 0.964992 0.763834 0.131647
Si Si4 0.221770 0.998241 0.908808
Si Si5 0.364449 0.792307 0.534482
Si Si6 0.169475 0.255400 0.508959
Si Si7 0.080844 0.239197 0.909528
Si Si8 0.577736 0.645782 0.908265
O O1 0.741132 0.129228 0.419433
O O2 0.772459 0.988817 0.246577
O O3 0.684467 0.911804 0.431216
O O4 0.439759 0.009695 0.113947
O O5 0.345879 0.336679 0.663452
O O6 0.554166 0.512454 0.871700
O O7 0.500000 0.348696 0.000000
O O8 0.724957 0.312216 0.959361
O O9 0.881526 0.888441 0.105270
O O10 0.163041 0.742691 0.345232
O O11 0.799927 0.677949 0.058021
O O12 0.000000 0.756015 0.000000
O O13 0.122895 0.113385 0.885192
O O14 0.500000 0.806328 0.500000
O O15 0.469241 0.716383 0.718487
O O16 0.000000 0.263732 0.500000
O O17 0.074959 0.284554 0.302974
O O18 0.000000 0.235070 0.000000
O O19 0.500000 0.677415 0.000000
#
# Coordination Sequence:
#
# PCOD9114149 Si02
#       8
#     2   2   2   2   2   2   2   2
#     4  11  22  38  70 101 134 178 224 275 330 413
#     4  11  24  48  73  96 136 181 233 286 330 400
#     4  12  24  43  68  97 138 183 218 279 347 405
#     4  11  21  40  67  97 143 178 215 275 344 404
#     4  12  25  45  69 102 142 180 224 282 345 404
#     4  12  23  43  74 100 135 180 225 270 345 409
#     4  12  26  43  66 106 138 178 224 281 346 405
#     4  11  26  47  70 101 132 180 237 285 332 399
#
# _framework density 19.213771000000001
#
# number of rings (size 3 to 8) (size 9 to 14) (size 15 to 20)
#    0.000    0.500    6.250    1.875    0.000    4.500 
#    2.250    0.000    0.000    0.000    0.000    0.000 
#    0.000    0.000    0.000    0.000    0.000    0.000 
#
# Total GULP energy -89514.446330 kJ/mol
# GULP energy per Si atom -5594.652896 kJ/mol
# Density = 1.917004 g / cm^3
# Si number density = 19.213771 Si / 1000 Ang^3
#
#
#
# Elastic Constant Matrix: (Units=GPa)
#
#
# Indices 1 2 3 4 5 6 
#
# 1 162.2803 62.6616 78.7877 0.0000 -8.9522 0.0000
# 2 62.6616 68.7112 41.3360 0.0000 -2.9190 0.0000
# 3 78.7877 41.3360 154.6284 0.0000 6.8987 0.0000
# 4 0.0000 0.0000 0.0000 30.2134 0.0000 -1.4424
# 5 -8.9522 -2.9190 6.8987 0.0000 38.1076 0.0000
# 6 0.0000 0.0000 0.0000 -1.4424 0.0000 -40.6262
#
#
#
# Elastic Compliance Matrix: (Units=1/GPa)
#
#
# Indices 1 2 3 4 5 6 
#
# 1 0.011118 -0.007799 -0.003700 0.000000 0.002684 0.000000
# 2 -0.007799 0.022997 -0.002188 0.000000 0.000325 0.000000
# 3 -0.003700 -0.002188 0.009057 0.000000 -0.002676 0.000000
# 4 0.000000 0.000000 0.000000 0.033042 0.000000 -0.001173
# 5 0.002684 0.000325 -0.002676 0.000000 0.027381 0.000000
# 6 0.000000 0.000000 0.000000 -0.001173 0.000000 -0.024573
#
#
# Mechanical properties :
#
#
# Convention : Reuss Voigt Hill
#
# Bulk Modulus (GPa) = 63.30415 83.46561 73.38488
# Shear Modulus (GPa) = 44.77809 19.06126 31.91967
#
# Velocity S-wave (km/s) = 4.83278 3.15312 4.08032
# Velocity P-wave (km/s) = 8.00999 7.53598 7.77660
#
# Compressibility (1/GPa) = 0.01579675
#
# Stress axis : x y z
#
# Youngs Moduli (GPa) = 89.94307 43.48473 110.41705
#
# Poissons Ratio (x) = 0.33916 0.40852
# Poissons Ratio (y) = 0.70151 0.24159
# Poissons Ratio (z) = 0.33277 0.09514
#
# Static dielectric constant tensor:
#      x y z
#    x 1.644430 0.000000 0.022380 
#    y 0.000000 1.647940 0.000000 
#    z 0.022380 0.000000 1.644400 
# 
# From -- ./inp_files/5961.got.cif
#   From: 2010.05.17/outbox.cif.g08.bks.cpg/sg3_3_cif.got.tgz:5961.got - 2010.06.03 18:33:08.
