data_PCOD9114694
_publ_section_title
;
Structure prediction by ZEFSAII (Michael W. Deem and Ramdas Pophale) SiO2 
 PCOD9114694
Probable space group: P 21
;
_chemical_formula_sum "Si O2"
_cell_formula_units_Z 14
_cell_length_a 15.109249
_cell_length_b 6.572214
_cell_length_c 13.035484
_cell_angle_alpha 90.000000
_cell_angle_beta 26.857470
_cell_angle_gamma 90.000000
_cell_volume 584.792287
_symmetry_space_group_name_H-M "P 21"
_symmetry_group_IT_number 4
_symmetry_cell_setting 'monoclinic'
loop_
_space_group_symop_operation_xyz
x,y,z
-x,1/2+y,-z
loop_
_atom_site_type_symbol
_atom_site_label
_atom_site_fract_x
_atom_site_fract_y
_atom_site_fract_z
Si Si1 0.423098 0.762810 0.919933
Si Si2 0.506900 0.743759 0.226487
Si Si3 0.868407 0.097161 0.307427
Si Si4 0.307513 0.284446 0.169590
Si Si5 0.960728 0.446912 0.655319
Si Si6 0.272500 0.100285 0.808876
Si Si7 0.450890 0.261053 0.421336
O O1 0.525127 0.725706 0.922982
O O2 0.513981 0.657404 0.724882
O O3 0.475099 0.004342 0.835199
O O4 0.188339 0.759264 0.173638
O O5 0.282032 0.766304 0.494490
O O6 0.638066 0.742483 0.193361
O O7 0.594934 0.858508 0.037072
O O8 0.721874 0.928175 0.413471
O O9 0.983589 0.022832 0.289333
O O10 0.040892 0.139746 0.048630
O O11 0.160110 0.419223 0.387902
O O12 0.167010 0.102212 0.279056
O O13 0.343531 0.873941 0.766636
O O14 0.380629 0.133404 0.589987
#
# Coordination Sequence:
#
# PCOD9114694 Si02
#       7
#     2   2   2   2   2   2   2
#     4   9  19  36  57  83 117 154 192 239 298 346
#     4   9  20  36  57  84 118 157 189 240 292 350
#     4  10  18  39  62  86 115 161 196 229 311 353
#     4  11  21  36  62  91 116 161 200 236 300 353
#     4  11  21  37  64  85 119 162 194 242 295 364
#     4  10  20  40  62  86 116 157 199 240 301 344
#     4  10  21  38  64  85 115 156 200 246 291 354
#
# _framework density 23.940125999999999
#
# number of rings (size 3 to 8) (size 9 to 14) (size 15 to 20)
#    0.000    2.286    7.143    0.000    2.000    2.286 
#    0.000    5.714    0.000    0.000    0.000    0.000 
#    0.000    0.000    0.000    0.000    0.000    0.000 
#
# Total GULP energy -78165.021277 kJ/mol
# GULP energy per Si atom -5583.215806 kJ/mol
# Density = 2.388564 g / cm^3
# Si number density = 23.940126 Si / 1000 Ang^3
#
#
#
# Elastic Constant Matrix: (Units=GPa)
#
#
# Indices 1 2 3 4 5 6 
#
# 1 82.4934 10.3457 33.1592 0.0000 10.9930 0.0000
# 2 10.3457 15.8439 14.4185 0.0000 5.9774 0.0000
# 3 33.1592 14.4185 207.9172 0.0000 10.3799 0.0000
# 4 0.0000 0.0000 0.0000 36.7646 0.0000 5.4022
# 5 10.9930 5.9774 10.3799 0.0000 56.4980 0.0000
# 6 0.0000 0.0000 0.0000 5.4022 0.0000 29.6982
#
#
#
# Elastic Compliance Matrix: (Units=1/GPa)
#
#
# Indices 1 2 3 4 5 6 
#
# 1 0.013876 -0.006932 -0.001649 0.000000 -0.001664 0.000000
# 2 -0.006932 0.073149 -0.003682 0.000000 -0.005714 0.000000
# 3 -0.001649 -0.003682 0.005341 0.000000 -0.000271 0.000000
# 4 0.000000 0.000000 0.000000 0.027947 0.000000 -0.005084
# 5 -0.001664 -0.005714 -0.000271 0.000000 0.018678 0.000000
# 6 0.000000 0.000000 0.000000 -0.005084 0.000000 0.034597
#
#
# Mechanical properties :
#
#
# Convention : Reuss Voigt Hill
#
# Bulk Modulus (GPa) = 14.74065 46.90015 30.82040
# Shear Modulus (GPa) = 22.65229 41.14757 31.89993
#
# Velocity S-wave (km/s) = 3.07938 4.15030 3.65429
# Velocity P-wave (km/s) = 4.33753 6.52685 5.54139
#
# Compressibility (1/GPa) = 0.06783962
#
# Stress axis : x y z
#
# Youngs Moduli (GPa) = 72.06586 13.67075 187.21400
#
# Poissons Ratio (x) = 0.09477 0.30876
# Poissons Ratio (y) = 0.49959 0.68929
# Poissons Ratio (z) = 0.11885 0.05033
#
# Static dielectric constant tensor:
#      x y z
#    x 1.863520 0.000000 0.045600 
#    y 0.000000 2.282480 0.000000 
#    z 0.045600 0.000000 1.974710 
# 
# From -- ./inp_files/12613.got.cif
#   From: 2010.05.17/outbox.cif.g08.bks.cpg/sg4_7_cif.got.tgz:12613.got - 2010.06.03 18:43:04.
