data_PCOD9114773
_publ_section_title
;
Structure prediction by ZEFSAII (Michael W. Deem and Ramdas Pophale) SiO2 
 PCOD9114773
Probable space group: P 21
;
_chemical_formula_sum "Si O2"
_cell_formula_units_Z 12
_cell_length_a 7.923693
_cell_length_b 4.547306
_cell_length_c 12.021087
_cell_angle_alpha 90.000000
_cell_angle_beta 62.879114
_cell_angle_gamma 90.000000
_cell_volume 385.512397
_symmetry_space_group_name_H-M "P 21"
_symmetry_group_IT_number 4
_symmetry_cell_setting 'monoclinic'
loop_
_space_group_symop_operation_xyz
x,y,z
-x,1/2+y,-z
loop_
_atom_site_type_symbol
_atom_site_label
_atom_site_fract_x
_atom_site_fract_y
_atom_site_fract_z
Si Si1 0.743526 0.391930 0.788968
Si Si2 0.308994 0.958387 0.961884
Si Si3 0.738890 0.872597 0.171947
Si Si4 0.955926 0.870132 0.831892
Si Si5 0.377240 0.712679 0.570389
Si Si6 0.133978 0.041536 0.473061
O O1 0.718202 0.471572 0.669274
O O2 0.937871 0.587926 0.755162
O O3 0.617195 0.481253 0.934367
O O4 0.806991 0.072185 0.809883
O O5 0.416208 0.153586 0.838767
O O6 0.113178 0.111103 0.825171
O O7 0.121698 0.174819 0.037792
O O8 0.739589 0.149386 0.080309
O O9 0.683607 0.056361 0.297926
O O10 0.455037 0.453114 0.467859
O O11 0.218257 0.914449 0.560998
O O12 0.938832 0.870062 0.504646
#
# Coordination Sequence:
#
# PCOD9114773 Si02
#       6
#     2   2   2   2   2   2
#     4  10  20  35  57  93 133 160 218 287 350 394
#     4  10  20  33  57  97 128 168 213 296 357 394
#     4  12  20  36  61  87 135 177 227 270 349 423
#     4  10  19  33  55  99 132 163 213 287 361 399
#     4  12  28  48  68 103 147 196 237 287 355 425
#     4  12  25  45  74 105 137 190 246 295 346 417
#
# _framework density 31.127399
#
# number of rings (size 3 to 8) (size 9 to 14) (size 15 to 20)
#    1.000    0.000    1.667    7.000    0.000    0.000 
#    0.000    0.000    0.000    4.000    0.000    0.000 
#    0.000    0.000    0.000    0.000    0.000    0.000 
#
# Total GULP energy -66867.765579 kJ/mol
# GULP energy per Si atom -5572.313798 kJ/mol
# Density = 3.105655 g / cm^3
# Si number density = 31.127399 Si / 1000 Ang^3
#
#
#
# Elastic Constant Matrix: (Units=GPa)
#
#
# Indices 1 2 3 4 5 6 
#
# 1 98.2461 15.4915 -3.3879 0.0000 16.5115 0.0000
# 2 15.4915 153.6641 31.7731 0.0000 9.0619 0.0000
# 3 -3.3879 31.7731 158.1661 0.0000 20.0187 0.0000
# 4 0.0000 0.0000 0.0000 122.1580 0.0000 57.6795
# 5 16.5115 9.0619 20.0187 0.0000 40.0855 0.0000
# 6 0.0000 0.0000 0.0000 57.6795 0.0000 113.7818
#
#
#
# Elastic Compliance Matrix: (Units=1/GPa)
#
#
# Indices 1 2 3 4 5 6 
#
# 1 0.011209 -0.001063 0.001076 0.000000 -0.004914 0.000000
# 2 -0.001063 0.006922 -0.001356 0.000000 -0.000450 0.000000
# 3 0.001076 -0.001356 0.007083 0.000000 -0.003674 0.000000
# 4 0.000000 0.000000 0.000000 0.010762 0.000000 -0.005456
# 5 -0.004914 -0.000450 -0.003674 0.000000 0.028907 0.000000
# 6 0.000000 0.000000 0.000000 -0.005456 0.000000 0.011554
#
#
# Mechanical properties :
#
#
# Convention : Reuss Voigt Hill
#
# Bulk Modulus (GPa) = 44.39142 55.31441 49.85292
# Shear Modulus (GPa) = 57.71463 79.61836 68.66650
#
# Velocity S-wave (km/s) = 4.31065 5.06298 4.70188
# Velocity P-wave (km/s) = 6.25042 7.21022 6.74741
#
# Compressibility (1/GPa) = 0.02252687
#
# Stress axis : x y z
#
# Youngs Moduli (GPa) = 89.21387 144.47116 141.18450
#
# Poissons Ratio (x) = 0.15352 -0.15185
# Poissons Ratio (y) = 0.09480 0.19149
# Poissons Ratio (z) = -0.09595 0.19595
#
# Static dielectric constant tensor:
#      x y z
#    x 2.639990 0.000000 0.363610 
#    y 0.000000 2.466900 0.000000 
#    z 0.363610 0.000000 -2.379210 
# 
# From -- ./inp_files/10646.got.cif
#   From: 2010.05.17/outbox.cif.g08.bks.cpg/sg4_6_cif.got.tgz:10646.got - 2010.06.03 18:43:04.
