data_PCOD9114732
_publ_section_title
;
Structure prediction by ZEFSAII (Michael W. Deem and Ramdas Pophale) SiO2 
 PCOD9114732
Probable space group: P 21
;
_chemical_formula_sum "Si O2"
_cell_formula_units_Z 16
_cell_length_a 11.054459
_cell_length_b 5.638236
_cell_length_c 14.465540
_cell_angle_alpha 90.000000
_cell_angle_beta 45.404078
_cell_angle_gamma 90.000000
_cell_volume 642.009943
_symmetry_space_group_name_H-M "P 21"
_symmetry_group_IT_number 4
_symmetry_cell_setting 'monoclinic'
loop_
_space_group_symop_operation_xyz
x,y,z
-x,1/2+y,-z
loop_
_atom_site_type_symbol
_atom_site_label
_atom_site_fract_x
_atom_site_fract_y
_atom_site_fract_z
Si Si1 0.013250 0.464030 0.790554
Si Si2 0.592495 0.964028 0.091935
Si Si3 0.529689 0.464030 0.431838
Si Si4 0.679416 0.964031 0.646245
Si Si5 0.374453 0.964030 0.955769
Si Si6 0.865722 0.464030 0.331036
Si Si7 0.259035 0.964031 0.395901
Si Si8 0.903709 0.964029 0.064208
O O1 0.033641 0.714207 0.726846
O O2 0.151157 0.464028 0.799132
O O3 0.033640 0.213853 0.726846
O O4 0.830025 0.464031 0.938043
O O5 0.591892 0.731048 0.030096
O O6 0.444420 0.964031 0.248139
O O7 0.758938 0.964023 0.065530
O O8 0.591895 0.197010 0.030096
O O9 0.500000 0.714030 0.500000
O O10 0.401743 0.464029 0.413381
O O11 0.735208 0.464031 0.314064
O O12 0.504823 0.964031 0.799049
O O13 0.792190 0.730677 0.604615
O O14 0.792190 0.197385 0.604615
O O15 0.761391 0.464030 0.482737
O O16 0.000002 0.714030 0.999999
#
# Coordination Sequence:
#
# PCOD9114732 Si02
#       8
#     2   2   2   2   2   2   2   2
#     4  12  24  31  40  52  64  71  76  84  95 108
#     4  10  19  32  44  50  57  67  81  92  95 101
#     4  12  21  32  41  49  58  66  76  83  95 104
#     4  10  19  32  44  50  57  67  81  92  95 101
#     4  10  20  33  41  51  59  70  79  87  97 103
#     4  12  24  31  40  52  64  71  76  84  95 108
#     4  10  20  33  41  51  59  70  79  87  97 103
#     4  12  21  32  41  49  58  66  76  83  95 104
#
# _framework density 24.921731000000001
#
# number of rings (size 3 to 8) (size 9 to 14) (size 15 to 20)
#    0.000    1.000    5.000    3.000    7.000    0.000 
#    0.000    0.000    0.000    0.000    0.000    0.000 
#    0.000    0.000    0.000    0.000    0.000    0.000 
#
# Total GULP energy -89073.727869 kJ/mol
# GULP energy per Si atom -5567.107992 kJ/mol
# Density = 2.486501 g / cm^3
# Si number density = 24.921731 Si / 1000 Ang^3
#
#
#
# Elastic Constant Matrix: (Units=GPa)
#
#
# Indices 1 2 3 4 5 6 
#
# 1 61.4706 20.7358 33.3816 0.0000 -1.6084 0.0000
# 2 20.7358 326.2371 34.9861 0.0000 -21.3017 0.0000
# 3 33.3816 34.9861 -16.7220 0.0000 -73.5026 0.0000
# 4 0.0000 0.0000 0.0000 43.0676 0.0000 -25.3659
# 5 -1.6084 -21.3017 -73.5026 0.0000 -37.2431 0.0000
# 6 0.0000 0.0000 0.0000 -25.3659 0.0000 -397.3556
#
#
#
# Elastic Compliance Matrix: (Units=1/GPa)
#
#
# Indices 1 2 3 4 5 6 
#
# 1 0.019559 0.000019 -0.005582 0.000000 0.010162 0.000000
# 2 0.000019 0.003422 -0.002059 0.000000 0.002106 0.000000
# 3 -0.005582 -0.002059 0.010618 0.000000 -0.019536 0.000000
# 4 0.000000 0.000000 0.000000 0.022378 0.000000 -0.001429
# 5 0.010162 0.002106 -0.019536 0.000000 0.010062 0.000000
# 6 0.000000 0.000000 0.000000 -0.001429 0.000000 -0.002425
#
#
# Mechanical properties :
#
#
# Convention : Reuss Voigt Hill
#
# Bulk Modulus (GPa) = 54.48579 61.02142 57.75360
# Shear Modulus (GPa) = 58.83927 -59.51408 -0.33740
#
# Velocity S-wave (km/s) = 4.86424 -4.89206 -0.36835
# Velocity P-wave (km/s) = 7.31150 2.71501 4.80035
#
# Compressibility (1/GPa) = 0.01835341
#
# Stress axis : x y z
#
# Youngs Moduli (GPa) = 51.12746 292.19022 94.18190
#
# Poissons Ratio (x) = -0.00555 0.52576
# Poissons Ratio (y) = -0.00097 0.19396
# Poissons Ratio (z) = 0.28542 0.60175
#
# Static dielectric constant tensor:
#      x y z
#    x 1.956480 0.000000 0.002260 
#    y 0.000000 2.090520 0.000000 
#    z 0.002260 0.000000 1.981890 
# 
# From -- ./inp_files/15873.got.cif
#   From: 2010.05.17/outbox.cif.g08.bks.cpg/sg4_8_cif.got.tgz:15873.got - 2010.06.03 18:43:04.
