data_PCOD9114582
_publ_section_title
;
Structure prediction by ZEFSAII (Michael W. Deem and Ramdas Pophale) SiO2 
 PCOD9114582
Probable space group: P 21
;
_chemical_formula_sum "Si O2"
_cell_formula_units_Z 8
_cell_length_a 10.734172
_cell_length_b 4.523590
_cell_length_c 8.675207
_cell_angle_alpha 90.000000
_cell_angle_beta 143.092654
_cell_angle_gamma 90.000000
_cell_volume 252.965384
_symmetry_space_group_name_H-M "P 21"
_symmetry_group_IT_number 4
_symmetry_cell_setting 'monoclinic'
loop_
_space_group_symop_operation_xyz
x,y,z
-x,1/2+y,-z
loop_
_atom_site_type_symbol
_atom_site_label
_atom_site_fract_x
_atom_site_fract_y
_atom_site_fract_z
Si Si1 0.126157 0.650800 0.558659
Si Si2 0.992677 0.362776 0.876564
Si Si3 0.618911 0.943416 0.930737
Si Si4 0.495621 0.399291 0.617303
O O1 0.928322 0.462993 0.418790
O O2 0.128219 0.677744 0.375836
O O3 0.328495 0.524541 0.842946
O O4 0.163366 0.528143 0.939677
O O5 0.908570 0.623480 0.905191
O O6 0.431990 0.140163 0.676422
O O7 0.602437 0.614285 0.848790
O O8 0.585962 0.159211 0.579028
#
# Coordination Sequence:
#
# PCOD9114582 Si02
#       4
#     2   2   2   2
#     4  10  19  32  50  74 106 142 172 202 247 308
#     4  11  21  32  49  80 114 141 165 195 250 325
#     4  10  18  33  52  74 107 137 166 216 256 294
#     4   9  18  31  51  78  97 126 179 229 259 283
#
# _framework density 31.624880999999998
#
# number of rings (size 3 to 8) (size 9 to 14) (size 15 to 20)
#    0.000    2.000    0.000    7.500    0.000    0.000 
#    0.000    0.000    0.000    0.000    0.000   98.000 
#    0.000    0.000    0.000    0.000    0.000    0.000 
#
# Total GULP energy -44613.463357 kJ/mol
# GULP energy per Si atom -5576.682920 kJ/mol
# Density = 3.155290 g / cm^3
# Si number density = 31.624881 Si / 1000 Ang^3
#
#
#
# Elastic Constant Matrix: (Units=GPa)
#
#
# Indices 1 2 3 4 5 6 
#
# 1 161.4296 23.6799 45.8183 0.0000 -54.8697 0.0000
# 2 23.6799 204.3961 68.6913 0.0000 -12.7654 0.0000
# 3 45.8183 68.6913 258.7398 0.0000 -59.0141 0.0000
# 4 0.0000 0.0000 0.0000 62.7715 0.0000 -3.4215
# 5 -54.8697 -12.7654 -59.0141 0.0000 50.0576 0.0000
# 6 0.0000 0.0000 0.0000 -3.4215 0.0000 38.9445
#
#
#
# Elastic Compliance Matrix: (Units=1/GPa)
#
#
# Indices 1 2 3 4 5 6 
#
# 1 0.010185 -0.000824 0.001249 0.000000 0.012427 0.000000
# 2 -0.000824 0.005445 -0.001626 0.000000 -0.001432 0.000000
# 3 0.001249 -0.001626 0.005872 0.000000 0.007878 0.000000
# 4 0.000000 0.000000 0.000000 0.016007 0.000000 0.001406
# 5 0.012427 -0.001432 0.007878 0.000000 0.042520 0.000000
# 6 0.000000 0.000000 0.000000 0.001406 0.000000 0.025801
#
#
# Mechanical properties :
#
#
# Convention : Reuss Voigt Hill
#
# Bulk Modulus (GPa) = 52.35363 100.10497 76.22930
# Shear Modulus (GPa) = 43.63052 62.77978 53.20515
#
# Velocity S-wave (km/s) = 3.71836 4.46032 4.10614
# Velocity P-wave (km/s) = 5.91823 7.63207 6.82913
#
# Compressibility (1/GPa) = 0.01910087
#
# Stress axis : x y z
#
# Youngs Moduli (GPa) = 98.18682 183.65453 170.29617
#
# Poissons Ratio (x) = 0.15128 -0.21278
# Poissons Ratio (y) = 0.08088 0.27694
# Poissons Ratio (z) = -0.12268 0.29866
#
# Static dielectric constant tensor:
#      x y z
#    x 2.549120 0.000000 0.199470 
#    y 0.000000 2.413450 0.000000 
#    z 0.199470 0.000000 2.573140 
# 
# From -- ./inp_files/8878.got.cif
#   From: 2010.05.17/outbox.cif.g08.bks.cpg/sg4_5_cif.got.tgz:8878.got - 2010.06.03 18:43:04.
