data_PCOD9114326
_publ_section_title
;
Structure prediction by ZEFSAII (Michael W. Deem and Ramdas Pophale) SiO2 
 PCOD9114326
Probable space group: P 2
;
_chemical_formula_sum "Si O2"
_cell_formula_units_Z 13
_cell_length_a 17.453108
_cell_length_b 5.772456
_cell_length_c 4.657893
_cell_angle_alpha 90.000000
_cell_angle_beta 91.728528
_cell_angle_gamma 90.000000
_cell_volume 469.056600
_symmetry_space_group_name_H-M "P 2"
_symmetry_group_IT_number 3
_symmetry_cell_setting 'monoclinic'
loop_
_space_group_symop_operation_xyz
x,y,z
-x,y,-z
loop_
_atom_site_type_symbol
_atom_site_label
_atom_site_fract_x
_atom_site_fract_y
_atom_site_fract_z
Si Si1 0.392201 0.858840 0.738057
Si Si2 0.500000 0.503237 0.500000
Si Si3 0.926775 0.258808 0.783386
Si Si4 0.623113 0.176329 0.802126
Si Si5 0.077013 0.757597 0.203900
Si Si6 0.225433 0.756628 0.799712
Si Si7 0.778332 0.260432 0.164349
O O1 0.456146 0.669771 0.714080
O O2 0.315690 0.764413 0.884687
O O3 0.371176 0.967591 0.427280
O O4 0.418198 0.076329 0.923934
O O5 0.569232 0.363874 0.651364
O O6 0.925713 0.510837 0.631045
O O7 0.853616 0.261237 0.980531
O O8 0.925664 0.005668 0.634526
O O9 0.000000 0.258882 0.000000
O O10 0.705312 0.254399 0.940513
O O11 0.156440 0.756057 0.026500
O O12 0.000000 0.757255 0.000000
O O13 0.222351 0.500517 0.659540
O O14 0.219816 0.016176 0.666483
#
# Coordination Sequence:
#
# PCOD9114326 Si02
#       7
#     2   1   2   2   2   2   2
#     4  11  28  50  72 106 144 191 250 312 383 457
#     4  12  30  50  80 104 152 200 258 330 390 470
#     4   8  13  24  48  86 129 169 223 276 345 416
#     4  11  28  50  72 106 144 191 250 312 383 457
#     4   8  13  24  48  86 129 169 223 276 345 416
#     4   9  19  37  62  95 138 179 236 288 359 433
#     4   9  19  37  62  95 138 179 236 288 359 433
#
# _framework density 27.715209000000002
#
# number of rings (size 3 to 8) (size 9 to 14) (size 15 to 20)
#    0.000    2.462    0.000    0.462    8.615    3.692 
#    0.000    0.000    0.000    0.000    0.000   38.769 
#    0.000    0.000    0.000    0.000    0.000    0.000 
#
# Total GULP energy -72628.295158 kJ/mol
# GULP energy per Si atom -5586.791935 kJ/mol
# Density = 2.765213 g / cm^3
# Si number density = 27.715209 Si / 1000 Ang^3
#
#
#
# Elastic Constant Matrix: (Units=GPa)
#
#
# Indices 1 2 3 4 5 6 
#
# 1 252.1059 20.1353 54.2399 0.0000 31.9742 0.0000
# 2 20.1353 300.9736 33.1338 0.0000 7.8819 0.0000
# 3 54.2399 33.1338 103.1157 0.0000 36.4061 0.0000
# 4 0.0000 0.0000 0.0000 21.2550 0.0000 -13.1184
# 5 31.9742 7.8819 36.4061 0.0000 45.8572 0.0000
# 6 0.0000 0.0000 0.0000 -13.1184 0.0000 38.4686
#
#
#
# Elastic Compliance Matrix: (Units=1/GPa)
#
#
# Indices 1 2 3 4 5 6 
#
# 1 0.004576 -0.000066 -0.001755 0.000000 -0.001786 0.000000
# 2 -0.000066 0.003451 -0.001224 0.000000 0.000425 0.000000
# 3 -0.001755 -0.001224 0.014600 0.000000 -0.010157 0.000000
# 4 0.000000 0.000000 0.000000 0.059590 0.000000 0.020321
# 5 -0.001786 0.000425 -0.010157 0.000000 0.031043 0.000000
# 6 0.000000 0.000000 0.000000 0.020321 0.000000 0.032925
#
#
# Mechanical properties :
#
#
# Convention : Reuss Voigt Hill
#
# Bulk Modulus (GPa) = 60.47278 96.80147 78.63712
# Shear Modulus (GPa) = 31.68822 57.69526 44.69174
#
# Velocity S-wave (km/s) = 3.38502 4.56753 4.01999
# Velocity P-wave (km/s) = 6.09463 7.92588 7.06980
#
# Compressibility (1/GPa) = 0.01653637
#
# Stress axis : x y z
#
# Youngs Moduli (GPa) = 218.53151 289.80522 68.49088
#
# Poissons Ratio (x) = 0.01917 0.12022
# Poissons Ratio (y) = 0.01445 0.08383
# Poissons Ratio (z) = 0.38359 0.35470
#
# Static dielectric constant tensor:
#      x y z
#    x 2.110190 0.000000 0.024860 
#    y 0.000000 2.231910 0.000000 
#    z 0.024860 0.000000 2.040700 
# 
# From -- ./inp_files/3522.got.cif
#   From: 2010.05.17/outbox.cif.g08.bks.cpg/sg3_2_cif.got.tgz:3522.got - 2010.06.03 18:33:08.
