data_PCOD9114218
_publ_section_title
;
Structure prediction by ZEFSAII (Michael W. Deem and Ramdas Pophale) SiO2 
 PCOD9114218
Probable space group: P 2
;
_chemical_formula_sum "Si O2"
_cell_formula_units_Z 13
_cell_length_a 10.990343
_cell_length_b 6.477623
_cell_length_c 11.160688
_cell_angle_alpha 90.000000
_cell_angle_beta 47.768346
_cell_angle_gamma 90.000000
_cell_volume 588.306805
_symmetry_space_group_name_H-M "P 2"
_symmetry_group_IT_number 3
_symmetry_cell_setting 'monoclinic'
loop_
_space_group_symop_operation_xyz
x,y,z
-x,y,-z
loop_
_atom_site_type_symbol
_atom_site_label
_atom_site_fract_x
_atom_site_fract_y
_atom_site_fract_z
Si Si1 0.677113 0.562260 0.383271
Si Si2 0.861902 0.873843 0.414006
Si Si3 0.357494 0.049793 0.240544
Si Si4 0.858332 0.176523 0.191472
Si Si5 0.500000 0.417652 0.000000
Si Si6 0.784223 0.752364 0.857147
Si Si7 0.662667 0.878528 0.175758
O O1 0.500000 0.453098 0.500000
O O2 0.725719 0.706106 0.462904
O O3 0.818890 0.398610 0.269666
O O4 0.659859 0.710264 0.280625
O O5 0.793778 0.017265 0.566551
O O6 0.032437 0.749516 0.319224
O O7 0.887951 0.023201 0.282487
O O8 0.300345 0.942976 0.155863
O O9 0.499715 0.915642 0.208144
O O10 0.434772 0.269892 0.151432
O O11 0.706039 0.088190 0.215814
O O12 0.000000 0.182883 0.000000
O O13 0.341262 0.560032 0.073851
O O14 0.794860 0.805609 0.990321
#
# Coordination Sequence:
#
# PCOD9114218 Si02
#       7
#     2   2   2   2   1   2   2
#     4  11  26  42  70 105 136 188 237 294 358 432
#     4  11  27  48  70 102 153 183 230 304 372 421
#     4  12  25  47  72 104 143 194 238 302 363 427
#     4  11  26  42  70 105 136 188 237 294 358 432
#     4  12  26  44  82 110 136 202 258 284 362 448
#     4  12  25  47  72 104 143 194 238 302 363 427
#     4  11  23  44  70  94 143 181 232 292 362 425
#
# _framework density 22.097314999999998
#
# number of rings (size 3 to 8) (size 9 to 14) (size 15 to 20)
#    0.000    0.615    6.154    0.462    6.462    2.462 
#    0.000    1.538    0.000    0.000    0.000    0.000 
#    0.000    0.000    0.000    0.000    0.000    0.000 
#
# Total GULP energy -72580.451947 kJ/mol
# GULP energy per Si atom -5583.111688 kJ/mol
# Density = 2.204702 g / cm^3
# Si number density = 22.097315 Si / 1000 Ang^3
#
#
#
# Elastic Constant Matrix: (Units=GPa)
#
#
# Indices 1 2 3 4 5 6 
#
# 1 63.6171 18.1761 25.6739 0.0000 -8.8855 0.0000
# 2 18.1761 85.4810 39.2919 0.0000 -5.8775 0.0000
# 3 25.6739 39.2919 133.0456 0.0000 -10.5651 0.0000
# 4 0.0000 0.0000 0.0000 11.0564 0.0000 6.4216
# 5 -8.8855 -5.8775 -10.5651 0.0000 32.2116 0.0000
# 6 0.0000 0.0000 0.0000 6.4216 0.0000 11.1235
#
#
#
# Elastic Compliance Matrix: (Units=1/GPa)
#
#
# Indices 1 2 3 4 5 6 
#
# 1 0.017917 -0.002431 -0.002446 0.000000 0.003697 0.000000
# 2 -0.002431 0.013910 -0.003584 0.000000 0.000692 0.000000
# 3 -0.002446 -0.003584 0.009180 0.000000 0.001682 0.000000
# 4 0.000000 0.000000 0.000000 0.136069 0.000000 -0.078552
# 5 0.003697 0.000692 0.001682 0.000000 0.032742 0.000000
# 6 0.000000 0.000000 0.000000 -0.078552 0.000000 0.135247
#
#
# Mechanical properties :
#
#
# Convention : Reuss Voigt Hill
#
# Bulk Modulus (GPa) = 41.51900 49.82526 45.67213
# Shear Modulus (GPa) = 13.51286 24.14509 18.82898
#
# Velocity S-wave (km/s) = 2.47557 3.30914 2.92223
# Velocity P-wave (km/s) = 5.19627 6.09899 5.66563
#
# Compressibility (1/GPa) = 0.02408536
#
# Stress axis : x y z
#
# Youngs Moduli (GPa) = 55.81264 71.88826 108.92946
#
# Poissons Ratio (x) = 0.17478 0.26643
# Poissons Ratio (y) = 0.13570 0.39040
# Poissons Ratio (z) = 0.13651 0.25765
#
# Static dielectric constant tensor:
#      x y z
#    x 1.846720 0.000000 -0.042090 
#    y 0.000000 1.783340 0.000000 
#    z -0.042090 0.000000 1.874670 
# 
# From -- ./inp_files/8805.got.cif
#   From: 2010.05.17/outbox.cif.g08.bks.cpg/sg3_5_cif.got.tgz:8805.got - 2010.06.03 18:33:08.
