data_PCOD9114656
_publ_section_title
;
Structure prediction by ZEFSAII (Michael W. Deem and Ramdas Pophale) SiO2 
 PCOD9114656
Probable space group: P 21
;
_chemical_formula_sum "Si O2"
_cell_formula_units_Z 16
_cell_length_a 8.680275
_cell_length_b 8.007800
_cell_length_c 11.027198
_cell_angle_alpha 90.000000
_cell_angle_beta 96.255878
_cell_angle_gamma 90.000000
_cell_volume 761.935119
_symmetry_space_group_name_H-M "P 21"
_symmetry_group_IT_number 4
_symmetry_cell_setting 'monoclinic'
loop_
_space_group_symop_operation_xyz
x,y,z
-x,1/2+y,-z
loop_
_atom_site_type_symbol
_atom_site_label
_atom_site_fract_x
_atom_site_fract_y
_atom_site_fract_z
Si Si1 0.703510 0.292590 0.328994
Si Si2 0.907162 0.632021 0.858932
Si Si3 0.464920 0.028942 0.533858
Si Si4 0.345861 0.265662 0.726627
Si Si5 0.807951 0.977569 0.468804
Si Si6 0.432250 0.084238 0.257197
Si Si7 0.004299 0.955784 0.716651
Si Si8 0.932933 0.769212 0.130843
O O1 0.635795 0.365162 0.448037
O O2 0.806503 0.134862 0.378207
O O3 0.555970 0.230514 0.240482
O O4 0.811676 0.422817 0.271507
O O5 0.726192 0.587880 0.827787
O O6 0.936584 0.788331 0.771334
O O7 0.003384 0.458935 0.848189
O O8 0.944215 0.708025 0.993720
O O9 0.439097 0.129445 0.656160
O O10 0.645033 0.990637 0.527536
O O11 0.403371 0.099035 0.400491
O O12 0.211213 0.318650 0.618668
O O13 0.468710 0.415884 0.750914
O O14 0.246279 0.253750 0.840225
O O15 0.944612 0.970579 0.574750
O O16 0.974401 0.128399 0.784064
#
# Coordination Sequence:
#
# PCOD9114656 Si02
#       8
#     2   2   2   2   2   2   2   2
#     4  10  21  39  63 101 142 165 223 275 339 411
#     4  12  26  50  70  94 133 186 236 286 340 398
#     4  10  18  36  63  97 138 171 218 266 335 414
#     4  10  21  42  63  99 137 170 223 278 336 404
#     4  10  22  37  64 104 133 178 208 272 348 413
#     4  10  22  42  67  96 130 181 217 284 332 408
#     4  12  25  43  70 100 139 179 222 282 347 404
#     4  12  27  47  68  97 134 180 235 289 337 402
#
# _framework density 20.999161999999998
#
# number of rings (size 3 to 8) (size 9 to 14) (size 15 to 20)
#    0.000    1.500    2.500    6.000    5.250    1.000 
#    2.250    0.000    0.000    0.000    0.000    0.000 
#    0.000    0.000    0.000    0.000    0.000    0.000 
#
# Total GULP energy -89234.295760 kJ/mol
# GULP energy per Si atom -5577.143485 kJ/mol
# Density = 2.095137 g / cm^3
# Si number density = 20.999162 Si / 1000 Ang^3
#
#
#
# Elastic Constant Matrix: (Units=GPa)
#
#
# Indices 1 2 3 4 5 6 
#
# 1 59.2553 15.8126 11.6645 0.0000 4.9334 0.0000
# 2 15.8126 94.0534 16.5650 0.0000 -6.4363 0.0000
# 3 11.6645 16.5650 20.0484 0.0000 -1.1837 0.0000
# 4 0.0000 0.0000 0.0000 24.3601 0.0000 -14.4122
# 5 4.9334 -6.4363 -1.1837 0.0000 25.6459 0.0000
# 6 0.0000 0.0000 0.0000 -14.4122 0.0000 26.6612
#
#
#
# Elastic Compliance Matrix: (Units=1/GPa)
#
#
# Indices 1 2 3 4 5 6 
#
# 1 0.019784 -0.001842 -0.010269 0.000000 -0.004742 0.000000
# 2 -0.001842 0.012798 -0.009317 0.000000 0.003136 0.000000
# 3 -0.010269 -0.009317 0.063704 0.000000 0.002577 0.000000
# 4 0.000000 0.000000 0.000000 0.060352 0.000000 0.032625
# 5 -0.004742 0.003136 0.002577 0.000000 0.040811 0.000000
# 6 0.000000 0.000000 0.000000 0.032625 0.000000 0.055144
#
#
# Mechanical properties :
#
#
# Convention : Reuss Voigt Hill
#
# Bulk Modulus (GPa) = 18.71601 29.04902 23.88251
# Shear Modulus (GPa) = 15.96130 23.95446 19.95788
#
# Velocity S-wave (km/s) = 2.75997 3.38114 3.08622
# Velocity P-wave (km/s) = 4.36906 5.39502 4.90892
#
# Compressibility (1/GPa) = 0.05343019
#
# Stress axis : x y z
#
# Youngs Moduli (GPa) = 50.54619 78.14017 15.69756
#
# Poissons Ratio (x) = 0.14394 0.16119
# Poissons Ratio (y) = 0.09311 0.14625
# Poissons Ratio (z) = 0.51904 0.72803
#
# Static dielectric constant tensor:
#      x y z
#    x 1.764560 0.000000 -0.043940 
#    y 0.000000 1.892300 0.000000 
#    z -0.043940 0.000000 1.748450 
# 
# From -- ./inp_files/5823.got.cif
#   From: 2010.05.17/outbox.cif.g08.bks.cpg/sg4_3_cif.got.tgz:5823.got - 2010.06.03 18:43:04.
