data_PCOD9114910
_publ_section_title
;
Structure prediction by ZEFSAII (Michael W. Deem and Ramdas Pophale) SiO2 
 PCOD9114910
Probable space group: P 21
;
_chemical_formula_sum "Si O2"
_cell_formula_units_Z 14
_cell_length_a 15.362973
_cell_length_b 6.833665
_cell_length_c 15.359168
_cell_angle_alpha 90.000000
_cell_angle_beta 161.543540
_cell_angle_gamma 90.000000
_cell_volume 510.487947
_symmetry_space_group_name_H-M "P 21"
_symmetry_group_IT_number 4
_symmetry_cell_setting 'monoclinic'
loop_
_space_group_symop_operation_xyz
x,y,z
-x,1/2+y,-z
loop_
_atom_site_type_symbol
_atom_site_label
_atom_site_fract_x
_atom_site_fract_y
_atom_site_fract_z
Si Si1 0.441010 0.615670 0.284286
Si Si2 0.178406 0.509735 0.556022
Si Si3 0.723765 0.024350 0.062545
Si Si4 0.481844 0.165484 0.381763
Si Si5 0.875957 0.809407 0.796563
Si Si6 0.176564 0.956655 0.612725
Si Si7 0.273831 0.069255 0.994781
O O1 0.347834 0.619642 0.096565
O O2 0.509970 0.392248 0.378845
O O3 0.730215 0.715264 0.575129
O O4 0.192015 0.731457 0.098293
O O5 0.997435 0.440023 0.465020
O O6 0.493808 0.458910 0.840822
O O7 0.198094 0.740561 0.595583
O O8 0.016770 0.490059 0.312169
O O9 0.736194 0.795249 0.045859
O O10 0.481540 0.041738 0.904595
O O11 0.005459 0.073862 0.377507
O O12 0.272943 0.195747 0.264092
O O13 0.350555 0.071901 0.169183
O O14 0.743022 0.032133 0.661801
#
# Coordination Sequence:
#
# PCOD9114910 Si02
#       7
#     2   2   2   2   2   2   2
#     4  11  26  47  73 105 150 193 249 317 382 458
#     4  10  20  38  60  93 124 178 228 287 361 440
#     4   9  19  39  64  90 127 184 224 290 370 439
#     4  11  26  50  74 108 152 198 251 321 380 460
#     4  12  27  45  76 109 145 197 257 307 386 462
#     4  10  19  36  62  88 128 169 231 284 358 439
#     4   9  21  39  65  89 134 183 230 288 373 440
#
# _framework density 27.424742999999999
#
# number of rings (size 3 to 8) (size 9 to 14) (size 15 to 20)
#    0.000    1.714    1.429    1.714    2.000    6.857 
#    7.714    0.000    0.000    0.000    0.000    0.000 
#    0.000    0.000    0.000    0.000    0.000    0.000 
#
# Total GULP energy -78303.133684 kJ/mol
# GULP energy per Si atom -5593.080977 kJ/mol
# Density = 2.736232 g / cm^3
# Si number density = 27.424743 Si / 1000 Ang^3
#
#
#
# Elastic Constant Matrix: (Units=GPa)
#
#
# Indices 1 2 3 4 5 6 
#
# 1 114.5469 29.8528 4.7837 0.0000 -1.2962 0.0000
# 2 29.8528 136.6295 8.8997 0.0000 -0.5017 0.0000
# 3 4.7837 8.8997 97.2261 0.0000 -4.4026 0.0000
# 4 0.0000 0.0000 0.0000 9.6704 0.0000 -4.2839
# 5 -1.2962 -0.5017 -4.4026 0.0000 39.7500 0.0000
# 6 0.0000 0.0000 0.0000 -4.2839 0.0000 49.1007
#
#
#
# Elastic Compliance Matrix: (Units=1/GPa)
#
#
# Indices 1 2 3 4 5 6 
#
# 1 0.009267 -0.002007 -0.000261 0.000000 0.000248 0.000000
# 2 -0.002007 0.007798 -0.000617 0.000000 -0.000035 0.000000
# 3 -0.000261 -0.000617 0.010406 0.000000 0.001136 0.000000
# 4 0.000000 0.000000 0.000000 0.107565 0.000000 0.009385
# 5 0.000248 -0.000035 0.001136 0.000000 0.025291 0.000000
# 6 0.000000 0.000000 0.000000 0.009385 0.000000 0.021185
#
#
# Mechanical properties :
#
#
# Convention : Reuss Voigt Hill
#
# Bulk Modulus (GPa) = 46.07985 48.38611 47.23298
# Shear Modulus (GPa) = 25.70503 40.02864 32.86683
#
# Velocity S-wave (km/s) = 3.06485 3.82459 3.46560
# Velocity P-wave (km/s) = 5.41878 6.09794 5.76836
#
# Compressibility (1/GPa) = 0.02170146
#
# Stress axis : x y z
#
# Youngs Moduli (GPa) = 107.91251 128.24494 96.09803
#
# Poissons Ratio (x) = 0.25737 0.02508
# Poissons Ratio (y) = 0.21656 0.05926
# Poissons Ratio (z) = 0.02817 0.07908
#
# Static dielectric constant tensor:
#      x y z
#    x 2.168690 0.000000 0.067080 
#    y 0.000000 2.246760 0.000000 
#    z 0.067080 0.000000 2.097400 
# 
# From -- ./inp_files/13325.got.cif
#   From: 2010.05.17/outbox.cif.g08.bks.cpg/sg4_7_cif.got.tgz:13325.got - 2010.06.03 18:43:04.
