data_PCOD9114504
_publ_section_title
;
Structure prediction by ZEFSAII (Michael W. Deem and Ramdas Pophale) SiO2 
 PCOD9114504
Probable space group: P 21
;
_chemical_formula_sum "Si O2"
_cell_formula_units_Z 16
_cell_length_a 15.730986
_cell_length_b 5.100941
_cell_length_c 17.816869
_cell_angle_alpha 90.000000
_cell_angle_beta 33.081835
_cell_angle_gamma 90.000000
_cell_volume 780.369130
_symmetry_space_group_name_H-M "P 21"
_symmetry_group_IT_number 4
_symmetry_cell_setting 'monoclinic'
loop_
_space_group_symop_operation_xyz
x,y,z
-x,1/2+y,-z
loop_
_atom_site_type_symbol
_atom_site_label
_atom_site_fract_x
_atom_site_fract_y
_atom_site_fract_z
Si Si1 0.875487 0.754210 0.464394
Si Si2 0.505894 0.386442 0.394824
Si Si3 0.956675 0.253895 0.308793
Si Si4 0.517626 0.258203 0.842835
Si Si5 0.813825 0.358844 0.704045
Si Si6 0.267309 0.359135 0.141607
Si Si7 0.318593 0.885383 0.584751
Si Si8 0.491361 0.260778 0.239073
O O1 0.901772 0.463869 0.412441
O O2 0.696038 0.783890 0.616132
O O3 0.000383 0.816498 0.437652
O O4 0.918697 0.965800 0.367996
O O5 0.425192 0.668641 0.463871
O O6 0.640393 0.365016 0.357863
O O7 0.555287 0.332766 0.273471
O O8 0.377623 0.167046 0.512286
O O9 0.856582 0.323549 0.309997
O O10 0.141355 0.294173 0.169871
O O11 0.703680 0.288242 0.716218
O O12 0.468668 0.472022 0.817878
O O13 0.466446 0.972948 0.854720
O O14 0.436419 0.326216 0.981487
O O15 0.770826 0.648558 0.765070
O O16 0.763252 0.148073 0.804868
#
# Coordination Sequence:
#
# PCOD9114504 Si02
#       8
#     2   2   2   2   2   2   2   2
#     4  10  20  33  53  79 104 138 166 214 271 299
#     4  10  20  31  52  80 108 133 164 212 251 319
#     4  10  17  33  57  78 103 129 174 225 256 293
#     4  12  24  35  54  75 105 150 172 208 264 311
#     4  10  21  38  57  75 100 132 186 234 248 288
#     4  10  21  37  57  77  99 134 186 227 249 289
#     4  10  17  32  55  80 102 131 173 208 261 295
#     4  12  22  35  51  76 117 137 165 208 264 336
#
# _framework density 20.503118000000001
#
# number of rings (size 3 to 8) (size 9 to 14) (size 15 to 20)
#    0.000    1.500    2.500    3.750    0.000    1.000 
#    0.000    0.000    0.000    1.500    0.000    0.000 
#    0.000    0.000    0.000    0.000    0.000    0.000 
#
# Total GULP energy -89436.144333 kJ/mol
# GULP energy per Si atom -5589.759021 kJ/mol
# Density = 2.045645 g / cm^3
# Si number density = 20.503118 Si / 1000 Ang^3
#
#
#
# Elastic Constant Matrix: (Units=GPa)
#
#
# Indices 1 2 3 4 5 6 
#
# 1 93.7128 2.9477 -0.3726 0.0000 -1.5041 0.0000
# 2 2.9477 61.1250 4.2531 0.0000 -4.7015 0.0000
# 3 -0.3726 4.2531 29.6010 0.0000 -1.3246 0.0000
# 4 0.0000 0.0000 0.0000 22.4894 0.0000 3.7111
# 5 -1.5041 -4.7015 -1.3246 0.0000 21.2179 0.0000
# 6 0.0000 0.0000 0.0000 3.7111 0.0000 25.4359
#
#
#
# Elastic Compliance Matrix: (Units=1/GPa)
#
#
# Indices 1 2 3 4 5 6 
#
# 1 0.010698 -0.000481 0.000234 0.000000 0.000666 0.000000
# 2 -0.000481 0.016814 -0.002263 0.000000 0.003550 0.000000
# 3 0.000234 -0.002263 0.034184 0.000000 0.001649 0.000000
# 4 0.000000 0.000000 0.000000 0.045562 0.000000 -0.006648
# 5 0.000666 0.003550 0.001649 0.000000 0.048067 0.000000
# 6 0.000000 0.000000 0.000000 -0.006648 0.000000 0.040284
#
#
# Mechanical properties :
#
#
# Convention : Reuss Voigt Hill
#
# Bulk Modulus (GPa) = 17.64441 22.01058 19.82749
# Shear Modulus (GPa) = 22.77679 25.66936 24.22308
#
# Velocity S-wave (km/s) = 3.33662 3.54216 3.44093
# Velocity P-wave (km/s) = 4.84443 5.24288 5.04759
#
# Compressibility (1/GPa) = 0.05667519
#
# Stress axis : x y z
#
# Youngs Moduli (GPa) = 93.47849 59.47554 29.25304
#
# Poissons Ratio (x) = 0.02860 -0.00683
# Poissons Ratio (y) = 0.04495 0.06620
# Poissons Ratio (z) = -0.02184 0.13459
#
# Static dielectric constant tensor:
#      x y z
#    x 1.774770 0.000000 -0.009400 
#    y 0.000000 1.727140 0.000000 
#    z -0.009400 0.000000 1.698540 
# 
# From -- ./inp_files/14132.got.cif
#   From: 2010.05.17/outbox.cif.g08.bks.cpg/sg4_8_cif.got.tgz:14132.got - 2010.06.03 18:43:04.
