data_PCOD9114625
_publ_section_title
;
Structure prediction by ZEFSAII (Michael W. Deem and Ramdas Pophale) SiO2 
 PCOD9114625
Probable space group: P 21
;
_chemical_formula_sum "Si O2"
_cell_formula_units_Z 14
_cell_length_a 7.132458
_cell_length_b 9.522183
_cell_length_c 10.565533
_cell_angle_alpha 90.000000
_cell_angle_beta 130.467633
_cell_angle_gamma 90.000000
_cell_volume 545.911309
_symmetry_space_group_name_H-M "P 21"
_symmetry_group_IT_number 4
_symmetry_cell_setting 'monoclinic'
loop_
_space_group_symop_operation_xyz
x,y,z
-x,1/2+y,-z
loop_
_atom_site_type_symbol
_atom_site_label
_atom_site_fract_x
_atom_site_fract_y
_atom_site_fract_z
Si Si1 0.124335 0.474170 0.860534
Si Si2 0.377386 0.294624 0.462326
Si Si3 0.588989 0.483460 0.762972
Si Si4 0.245929 0.274985 0.127764
Si Si5 0.243800 0.081940 0.601271
Si Si6 0.702469 0.220264 0.943732
Si Si7 0.117684 0.796568 0.446768
O O1 0.850859 0.482416 0.802913
O O2 0.087619 0.387607 0.717723
O O3 0.278312 0.382634 0.028867
O O4 0.241389 0.629082 0.907496
O O5 0.396474 0.411197 0.581462
O O6 0.263733 0.153089 0.470731
O O7 0.659193 0.261755 0.548986
O O8 0.010638 0.158769 0.559122
O O9 0.564138 0.645511 0.787470
O O10 0.628196 0.382980 0.901588
O O11 0.252631 0.336638 0.274522
O O12 0.966651 0.216042 0.987554
O O13 0.487825 0.139067 0.776075
O O14 0.221598 0.914865 0.587913
#
# Coordination Sequence:
#
# PCOD9114625 Si02
#       7
#     2   2   2   2   2   2   2
#     4   9  18  36  58  86 127 166 209 266 329 393
#     4  10  20  39  69  94 126 176 221 270 329 391
#     4   8  17  31  55  92 122 160 216 265 318 390
#     4  10  18  34  64  97 129 167 217 276 334 393
#     4  11  24  44  68  97 135 175 227 281 331 406
#     4   9  18  36  59  87 125 166 209 266 330 389
#     4  11  25  44  67  99 134 176 229 278 335 406
#
# _framework density 25.645189999999999
#
# number of rings (size 3 to 8) (size 9 to 14) (size 15 to 20)
#    0.000    2.286    0.000    4.286    0.000    4.571 
#    0.000   17.143    0.000    0.000    0.000    0.000 
#    0.000    0.000    0.000    0.000    0.000    0.000 
#
# Total GULP energy -78260.236859 kJ/mol
# GULP energy per Si atom -5590.016919 kJ/mol
# Density = 2.558682 g / cm^3
# Si number density = 25.645190 Si / 1000 Ang^3
#
#
#
# Elastic Constant Matrix: (Units=GPa)
#
#
# Indices 1 2 3 4 5 6 
#
# 1 83.1275 17.6352 11.1051 0.0000 12.3938 0.0000
# 2 17.6352 116.5077 12.7093 0.0000 -0.1789 0.0000
# 3 11.1051 12.7093 111.9548 0.0000 1.4161 0.0000
# 4 0.0000 0.0000 0.0000 37.9459 0.0000 -2.2869
# 5 12.3938 -0.1789 1.4161 0.0000 18.3127 0.0000
# 6 0.0000 0.0000 0.0000 -2.2869 0.0000 21.3505
#
#
#
# Elastic Compliance Matrix: (Units=1/GPa)
#
#
# Indices 1 2 3 4 5 6 
#
# 1 0.014001 -0.002020 -0.001040 0.000000 -0.009415 0.000000
# 2 -0.002020 0.008983 -0.000839 0.000000 0.001520 0.000000
# 3 -0.001040 -0.000839 0.009131 0.000000 -0.000010 0.000000
# 4 0.000000 0.000000 0.000000 0.026525 0.000000 0.002841
# 5 -0.009415 0.001520 -0.000010 0.000000 0.060994 0.000000
# 6 0.000000 0.000000 0.000000 0.002841 0.000000 0.047142
#
#
# Mechanical properties :
#
#
# Convention : Reuss Voigt Hill
#
# Bulk Modulus (GPa) = 41.12502 43.83213 42.47857
# Shear Modulus (GPa) = 27.37044 33.53118 30.45081
#
# Velocity S-wave (km/s) = 3.27046 3.61986 3.44959
# Velocity P-wave (km/s) = 5.50747 5.88218 5.69791
#
# Compressibility (1/GPa) = 0.02431610
#
# Stress axis : x y z
#
# Youngs Moduli (GPa) = 71.42354 111.32480 109.52064
#
# Poissons Ratio (x) = 0.22490 0.11394
# Poissons Ratio (y) = 0.14429 0.09184
# Poissons Ratio (z) = 0.07431 0.09335
#
# Static dielectric constant tensor:
#      x y z
#    x 2.014240 0.000000 -0.018930 
#    y 0.000000 2.054260 0.000000 
#    z -0.018930 0.000000 2.092970 
# 
# From -- ./inp_files/15131.got.cif
#   From: 2010.05.17/outbox.cif.g08.bks.cpg/sg4_8_cif.got.tgz:15131.got - 2010.06.03 18:43:04.
