data_PCOD9114618
_publ_section_title
;
Structure prediction by ZEFSAII (Michael W. Deem and Ramdas Pophale) SiO2 
 PCOD9114618
Probable space group: P 21
;
_chemical_formula_sum "Si O2"
_cell_formula_units_Z 12
_cell_length_a 7.486127
_cell_length_b 4.934105
_cell_length_c 17.748129
_cell_angle_alpha 90.000000
_cell_angle_beta 66.343523
_cell_angle_gamma 90.000000
_cell_volume 600.479649
_symmetry_space_group_name_H-M "P 21"
_symmetry_group_IT_number 4
_symmetry_cell_setting 'monoclinic'
loop_
_space_group_symop_operation_xyz
x,y,z
-x,1/2+y,-z
loop_
_atom_site_type_symbol
_atom_site_label
_atom_site_fract_x
_atom_site_fract_y
_atom_site_fract_z
Si Si1 0.387954 0.870420 0.715132
Si Si2 0.239317 0.751945 0.148993
Si Si3 0.152103 0.339217 0.710950
Si Si4 0.521282 0.746995 0.855304
Si Si5 0.558191 0.598832 0.444475
Si Si6 0.117782 0.902702 0.002295
O O1 0.248643 0.629053 0.709784
O O2 0.502628 0.781282 0.768824
O O3 0.249362 0.128891 0.754265
O O4 0.515901 0.971579 0.622253
O O5 0.308672 0.443819 0.143330
O O6 0.076563 0.825862 0.238501
O O7 0.425285 0.942670 0.131581
O O8 0.149999 0.825535 0.083582
O O9 0.233962 0.221311 0.618098
O O10 0.318306 0.838789 0.925740
O O11 0.560393 0.351620 0.502392
O O12 0.950977 0.709816 0.996057
#
# Coordination Sequence:
#
# PCOD9114618 Si02
#       6
#     2   2   2   2   2   2
#     4  10  20  36  60  88 116 152 206 240 296 345
#     4  12  24  39  60  90 126 161 197 242 304 352
#     4  10  20  36  60  88 116 152 206 240 296 345
#     4  12  24  39  60  90 126 161 197 242 304 352
#     4  10  18  34  62  92 110 148 204 256 288 346
#     4  12  24  42  64  86 124 160 210 248 280 344
#
# _framework density 19.984024000000002
#
# number of rings (size 3 to 8) (size 9 to 14) (size 15 to 20)
#    1.000    0.000    1.667    7.000    0.000    0.000 
#    0.000    0.000    0.000    4.000    0.000    0.000 
#    0.000    0.000    0.000    0.000    0.000    0.000 
#
# Total GULP energy -66967.826430 kJ/mol
# GULP energy per Si atom -5580.652202 kJ/mol
# Density = 1.993854 g / cm^3
# Si number density = 19.984024 Si / 1000 Ang^3
#
#
#
# Elastic Constant Matrix: (Units=GPa)
#
#
# Indices 1 2 3 4 5 6 
#
# 1 38.1105 -4.1134 22.6144 0.0000 -8.4242 0.0000
# 2 -4.1134 71.0111 12.6414 0.0000 -2.5244 0.0000
# 3 22.6144 12.6414 105.3985 0.0000 -19.7956 0.0000
# 4 0.0000 0.0000 0.0000 19.6054 0.0000 1.9846
# 5 -8.4242 -2.5244 -19.7956 0.0000 10.3560 0.0000
# 6 0.0000 0.0000 0.0000 1.9846 0.0000 42.7955
#
#
#
# Elastic Compliance Matrix: (Units=1/GPa)
#
#
# Indices 1 2 3 4 5 6 
#
# 1 0.033399 0.003326 -0.003604 0.000000 0.021091 0.000000
# 2 0.003326 0.014721 -0.002024 0.000000 0.002426 0.000000
# 3 -0.003604 -0.002024 0.015383 0.000000 0.025981 0.000000
# 4 0.000000 0.000000 0.000000 0.051247 0.000000 -0.002377
# 5 0.021091 0.002426 0.025981 0.000000 0.163972 0.000000
# 6 0.000000 0.000000 0.000000 -0.002377 0.000000 0.023477
#
#
# Mechanical properties :
#
#
# Convention : Reuss Voigt Hill
#
# Bulk Modulus (GPa) = 16.97769 30.75611 23.86690
# Shear Modulus (GPa) = 15.31689 26.77656 21.04672
#
# Velocity S-wave (km/s) = 2.77150 3.66443 3.24879
# Velocity P-wave (km/s) = 4.33078 5.77303 5.10311
#
# Compressibility (1/GPa) = 0.05890084
#
# Stress axis : x y z
#
# Youngs Moduli (GPa) = 29.94097 67.92806 65.00536
#
# Poissons Ratio (x) = -0.22593 0.23427
# Poissons Ratio (y) = -0.09958 0.13155
# Poissons Ratio (z) = 0.10790 0.13747
#
# Static dielectric constant tensor:
#      x y z
#    x 1.692400 0.000000 -0.012460 
#    y 0.000000 1.699480 0.000000 
#    z -0.012460 0.000000 1.735960 
# 
# From -- ./inp_files/3925.got.cif
#   From: 2010.05.17/outbox.cif.g08.bks.cpg/sg4_2_cif.got.tgz:3925.got - 2010.06.03 18:43:04.
