data_PCOD9114060
_publ_section_title
;
Structure prediction by ZEFSAII (Michael W. Deem and Ramdas Pophale) SiO2 
 PCOD9114060
Probable space group: P 2
;
_chemical_formula_sum "Si O2"
_cell_formula_units_Z 14
_cell_length_a 10.539790
_cell_length_b 8.100157
_cell_length_c 12.313477
_cell_angle_alpha 90.000000
_cell_angle_beta 141.315467
_cell_angle_gamma 90.000000
_cell_volume 657.064979
_symmetry_space_group_name_H-M "P 2"
_symmetry_group_IT_number 3
_symmetry_cell_setting 'monoclinic'
loop_
_space_group_symop_operation_xyz
x,y,z
-x,y,-z
loop_
_atom_site_type_symbol
_atom_site_label
_atom_site_fract_x
_atom_site_fract_y
_atom_site_fract_z
Si Si1 0.591106 0.225920 0.731738
Si Si2 0.000000 0.231730 0.500000
Si Si3 0.009050 0.673580 0.204731
Si Si4 0.273175 0.475845 0.545963
Si Si5 0.401774 0.062522 0.819895
Si Si6 0.566674 0.719498 0.855618
Si Si7 0.000000 0.424937 0.000000
Si Si8 0.676688 0.871802 0.696976
O O1 0.424883 0.357882 0.578985
O O2 0.506621 0.161058 0.790955
O O3 0.802584 0.316760 0.887952
O O4 0.631822 0.062947 0.689009
O O5 0.112686 0.351939 0.491812
O O6 0.168738 0.115745 0.665983
O O7 0.145890 0.612332 0.395749
O O8 0.110797 0.837055 0.220675
O O9 0.767927 0.688196 0.061857
O O10 0.035151 0.537319 0.128416
O O11 0.420061 0.566297 0.731412
O O12 0.439270 0.870621 0.818702
O O13 0.500000 0.104346 0.000000
O O14 0.656356 0.777996 0.798178
O O15 0.500000 0.805982 0.500000
#
# Coordination Sequence:
#
# PCOD9114060 Si02
#       8
#     2   1   2   2   2   2   1   2
#     4  10  25  42  65 103 137 176 224 276 331 405
#     4  10  26  46  70  96 132 172 228 290 334 390
#     4  12  24  40  69  96 139 183 216 266 345 397
#     4  11  24  46  67  98 134 175 230 280 332 395
#     4  10  25  47  70  94 135 173 228 280 335 399
#     4  11  23  43  64  98 131 171 228 275 323 405
#     4  12  24  38  68 104 142 170 218 272 334 412
#     4  11  22  41  62  96 141 182 215 268 330 406
#
# _framework density 21.306874000000001
#
# number of rings (size 3 to 8) (size 9 to 14) (size 15 to 20)
#    0.000    1.143    4.286    0.000    8.000    2.857 
#    2.571    0.714    0.000    0.000    0.000    0.000 
#    0.000    0.000    0.000    0.000    0.000    0.000 
#
# Total GULP energy -78274.043420 kJ/mol
# GULP energy per Si atom -5591.003101 kJ/mol
# Density = 2.125838 g / cm^3
# Si number density = 21.306874 Si / 1000 Ang^3
#
#
#
# Elastic Constant Matrix: (Units=GPa)
#
#
# Indices 1 2 3 4 5 6 
#
# 1 57.8475 38.7810 48.6100 0.0000 24.1970 0.0000
# 2 38.7810 96.6065 48.4168 0.0000 24.7812 0.0000
# 3 48.6100 48.4168 142.3316 0.0000 26.9652 0.0000
# 4 0.0000 0.0000 0.0000 37.5925 0.0000 15.8220
# 5 24.1970 24.7812 26.9652 0.0000 36.1989 0.0000
# 6 0.0000 0.0000 0.0000 15.8220 0.0000 20.9972
#
#
#
# Elastic Compliance Matrix: (Units=1/GPa)
#
#
# Indices 1 2 3 4 5 6 
#
# 1 0.032234 -0.006563 -0.006456 0.000000 -0.012244 0.000000
# 2 -0.006563 0.015167 -0.002075 0.000000 -0.004451 0.000000
# 3 -0.006456 -0.002075 0.010304 0.000000 -0.001940 0.000000
# 4 0.000000 0.000000 0.000000 0.038956 0.000000 -0.029354
# 5 -0.012244 -0.004451 -0.001940 0.000000 0.040301 0.000000
# 6 0.000000 0.000000 0.000000 -0.029354 0.000000 0.069745
#
#
# Mechanical properties :
#
#
# Convention : Reuss Voigt Hill
#
# Bulk Modulus (GPa) = 36.34170 63.15570 49.74870
# Shear Modulus (GPa) = 20.31956 29.68956 25.00456
#
# Velocity S-wave (km/s) = 3.09149 3.73691 3.42942
# Velocity P-wave (km/s) = 5.46228 6.95160 6.25145
#
# Compressibility (1/GPa) = 0.02751660
#
# Stress axis : x y z
#
# Youngs Moduli (GPa) = 31.02343 65.93063 97.04835
#
# Poissons Ratio (x) = 0.43271 0.62659
# Poissons Ratio (y) = 0.20361 0.20136
# Poissons Ratio (z) = 0.20030 0.13679
#
# Static dielectric constant tensor:
#      x y z
#    x 1.770980 0.000000 0.001000 
#    y 0.000000 1.774650 0.000000 
#    z 0.001000 0.000000 1.773300 
# 
# From -- ./inp_files/10879.got.cif
#   From: 2010.05.17/outbox.cif.g08.bks.cpg/sg3_6_cif.got.tgz:10879.got - 2010.06.03 18:33:08.
