data_PCOD9114344
_publ_section_title
;
Structure prediction by ZEFSAII (Michael W. Deem and Ramdas Pophale) SiO2 
 PCOD9114344
Probable space group: P 2
;
_chemical_formula_sum "Si O2"
_cell_formula_units_Z 12
_cell_length_a 22.086851
_cell_length_b 4.889784
_cell_length_c 9.570106
_cell_angle_alpha 90.000000
_cell_angle_beta 150.578498
_cell_angle_gamma 90.000000
_cell_volume 507.721668
_symmetry_space_group_name_H-M "P 2"
_symmetry_group_IT_number 3
_symmetry_cell_setting 'monoclinic'
loop_
_space_group_symop_operation_xyz
x,y,z
-x,y,-z
loop_
_atom_site_type_symbol
_atom_site_label
_atom_site_fract_x
_atom_site_fract_y
_atom_site_fract_z
Si Si1 0.429810 0.160910 0.007313
Si Si2 0.991110 0.728441 0.823653
Si Si3 0.780510 0.905899 0.894424
Si Si4 0.830938 0.219478 0.447862
Si Si5 0.852183 0.414139 0.195975
Si Si6 0.489919 0.677658 0.650554
O O1 0.491990 0.394472 0.229638
O O2 0.422523 0.893035 0.092306
O O3 0.500000 0.122218 0.000000
O O4 0.287244 0.238750 0.690935
O O5 0.942682 0.420626 0.713833
O O6 0.121485 0.797259 0.019317
O O7 0.887441 0.920433 0.549251
O O8 0.000000 0.809630 0.000000
O O9 0.822829 0.729067 0.113309
O O10 0.798366 0.223222 0.965354
O O11 0.643381 0.812515 0.587892
O O12 0.790358 0.318095 0.213725
O O13 0.000000 0.374868 0.500000
O O14 0.500000 0.654496 0.500000
#
# Coordination Sequence:
#
# PCOD9114344 Si02
#       6
#     2   2   2   2   2   2
#     4  12  28  47  73 102 138 188 235 285 342 409
#     4  12  26  41  65  98 134 175 216 270 338 397
#     4  12  24  41  70  99 133 170 219 278 333 404
#     4  12  25  44  68  95 135 171 221 277 331 404
#     4  12  21  41  65 102 132 164 218 269 343 394
#     4  12  26  49  73 102 141 184 236 285 342 410
#
# _framework density 23.634995
#
# number of rings (size 3 to 8) (size 9 to 14) (size 15 to 20)
#    0.000    0.000    3.333    7.000    4.667    0.000 
#    0.000    0.000    0.000    0.000    0.000    0.000 
#    0.000    0.000    0.000    0.000    0.000    0.000 
#
# Total GULP energy -67165.109999 kJ/mol
# GULP energy per Si atom -5597.092500 kJ/mol
# Density = 2.358120 g / cm^3
# Si number density = 23.634995 Si / 1000 Ang^3
#
#
#
# Elastic Constant Matrix: (Units=GPa)
#
#
# Indices 1 2 3 4 5 6 
#
# 1 123.3873 1.2191 12.5453 0.0000 -3.5651 0.0000
# 2 1.2191 92.8664 -10.5270 0.0000 -20.5503 0.0000
# 3 12.5453 -10.5270 39.6064 0.0000 13.0926 0.0000
# 4 0.0000 0.0000 0.0000 -26.5792 0.0000 -12.1410
# 5 -3.5651 -20.5503 13.0926 0.0000 50.6591 0.0000
# 6 0.0000 0.0000 0.0000 -12.1410 0.0000 20.0412
#
#
#
# Elastic Compliance Matrix: (Units=1/GPa)
#
#
# Indices 1 2 3 4 5 6 
#
# 1 0.008468 -0.000173 -0.003173 0.000000 0.001346 0.000000
# 2 -0.000173 0.011940 0.001784 0.000000 0.004370 0.000000
# 3 -0.003173 0.001784 0.029043 0.000000 -0.007006 0.000000
# 4 0.000000 0.000000 0.000000 -0.029469 0.000000 -0.017852
# 5 0.001346 0.004370 -0.007006 0.000000 0.023418 0.000000
# 6 0.000000 0.000000 0.000000 -0.017852 0.000000 0.039082
#
#
# Mechanical properties :
#
#
# Convention : Reuss Voigt Hill
#
# Bulk Modulus (GPa) = 21.58616 29.14832 25.36724
# Shear Modulus (GPa) = 49.48074 25.66574 37.57324
#
# Velocity S-wave (km/s) = 4.58048 3.29891 3.99147
# Velocity P-wave (km/s) = 6.09322 5.18361 5.65673
#
# Compressibility (1/GPa) = 0.04632598
#
# Stress axis : x y z
#
# Youngs Moduli (GPa) = 118.09483 83.75415 34.43117
#
# Poissons Ratio (x) = 0.01449 0.10925
# Poissons Ratio (y) = 0.02043 -0.06141
# Poissons Ratio (z) = 0.37472 -0.14938
#
# Static dielectric constant tensor:
#      x y z
#    x 2.033310 0.000000 0.160530 
#    y 0.000000 1.890950 0.000000 
#    z 0.160530 0.000000 2.137050 
# 
# From -- ./inp_files/9300.got.cif
#   From: 2010.05.17/outbox.cif.g08.bks.cpg/sg3_5_cif.got.tgz:9300.got - 2010.06.03 18:33:08.
