data_PCOD9114463
_publ_section_title
;
Structure prediction by ZEFSAII (Michael W. Deem and Ramdas Pophale) SiO2 
 PCOD9114463
Probable space group: P 21
;
_chemical_formula_sum "Si O2"
_cell_formula_units_Z 16
_cell_length_a 20.342877
_cell_length_b 7.674368
_cell_length_c 7.150172
_cell_angle_alpha 90.000000
_cell_angle_beta 145.450384
_cell_angle_gamma 90.000000
_cell_volume 633.061943
_symmetry_space_group_name_H-M "P 21"
_symmetry_group_IT_number 4
_symmetry_cell_setting 'monoclinic'
loop_
_space_group_symop_operation_xyz
x,y,z
-x,1/2+y,-z
loop_
_atom_site_type_symbol
_atom_site_label
_atom_site_fract_x
_atom_site_fract_y
_atom_site_fract_z
Si Si1 0.770761 0.164920 0.926025
Si Si2 0.611307 0.197851 0.860337
Si Si3 0.987741 0.052078 0.792692
Si Si4 0.592930 0.802596 0.894315
Si Si5 0.103450 0.352047 0.890308
Si Si6 0.599445 0.314224 0.256742
Si Si7 0.039812 0.693086 0.907336
Si Si8 0.241762 0.121673 0.473125
O O1 0.720348 0.258428 0.989535
O O2 0.665242 0.165062 0.530263
O O3 0.866993 0.261020 0.026757
O O4 0.826675 0.974061 0.091667
O O5 0.495684 0.230982 0.468272
O O6 0.631340 0.992160 0.922282
O O7 0.596614 0.273195 0.031551
O O8 0.915120 0.157946 0.776325
O O9 0.979194 0.997932 0.211613
O O10 0.025634 0.175356 0.706512
O O11 0.950487 0.851735 0.694078
O O12 0.521691 0.829826 0.921459
O O13 0.695471 0.673219 0.189100
O O14 0.206378 0.292140 0.271142
O O15 0.673039 0.493369 0.440325
O O16 0.114032 0.040171 0.194192
#
# Coordination Sequence:
#
# PCOD9114463 Si02
#       8
#     2   2   2   2   2   2   2   2
#     4   9  19  37  59  86 120 153 205 250 307 361
#     4  11  24  39  59  86 117 166 201 263 307 367
#     4  10  17  30  60  93 121 158 209 251 300 373
#     4  11  24  38  57  86 120 159 210 254 309 369
#     4   8  18  29  54  87 117 154 196 246 293 362
#     4  11  21  38  61  83 117 164 204 254 309 362
#     4  10  16  34  57  95 123 156 206 252 304 368
#     4  10  19  35  55  88 117 158 205 252 303 366
#
# _framework density 25.273989
#
# number of rings (size 3 to 8) (size 9 to 14) (size 15 to 20)
#    1.500    0.500    2.500    2.250    0.000    4.000 
#    0.000    1.250    0.000    1.500    0.000    0.000 
#    0.000    0.000    0.000    0.000    0.000    0.000 
#
# Total GULP energy -89108.442673 kJ/mol
# GULP energy per Si atom -5569.277667 kJ/mol
# Density = 2.521646 g / cm^3
# Si number density = 25.273989 Si / 1000 Ang^3
#
#
#
# Elastic Constant Matrix: (Units=GPa)
#
#
# Indices 1 2 3 4 5 6 
#
# 1 108.4276 3.0505 39.4191 0.0000 -14.0100 0.0000
# 2 3.0505 126.5076 25.0185 0.0000 3.4979 0.0000
# 3 39.4191 25.0185 96.3079 0.0000 -20.7498 0.0000
# 4 0.0000 0.0000 0.0000 18.8624 0.0000 4.3011
# 5 -14.0100 3.4979 -20.7498 0.0000 14.2681 0.0000
# 6 0.0000 0.0000 0.0000 4.3011 0.0000 21.8845
#
#
#
# Elastic Compliance Matrix: (Units=1/GPa)
#
#
# Indices 1 2 3 4 5 6 
#
# 1 0.011218 0.000219 -0.003330 0.000000 0.006118 0.000000
# 2 0.000219 0.008937 -0.004132 0.000000 -0.007984 0.000000
# 3 -0.003330 -0.004132 0.017961 0.000000 0.023864 0.000000
# 4 0.000000 0.000000 0.000000 0.055503 0.000000 -0.010908
# 5 0.006118 -0.007984 0.023864 0.000000 0.112756 0.000000
# 6 0.000000 0.000000 0.000000 -0.010908 0.000000 0.047838
#
#
# Mechanical properties :
#
#
# Convention : Reuss Voigt Hill
#
# Bulk Modulus (GPa) = 42.31801 51.80216 47.06008
# Shear Modulus (GPa) = 18.07824 28.58668 23.33246
#
# Velocity S-wave (km/s) = 2.67739 3.36679 3.04169
# Velocity P-wave (km/s) = 5.13205 5.97113 5.56742
#
# Compressibility (1/GPa) = 0.02363060
#
# Stress axis : x y z
#
# Youngs Moduli (GPa) = 89.14386 111.89164 55.67563
#
# Poissons Ratio (x) = -0.02449 0.18541
# Poissons Ratio (y) = -0.01951 0.23003
# Poissons Ratio (z) = 0.29686 0.46229
#
# Static dielectric constant tensor:
#      x y z
#    x 2.030400 0.000000 0.013280 
#    y 0.000000 2.007400 0.000000 
#    z 0.013280 0.000000 2.045770 
# 
# From -- ./inp_files/4128.got.cif
#   From: 2010.05.17/outbox.cif.g08.bks.cpg/sg4_3_cif.got.tgz:4128.got - 2010.06.03 18:43:04.
