data_PCOD9114198
_publ_section_title
;
Structure prediction by ZEFSAII (Michael W. Deem and Ramdas Pophale) SiO2 
 PCOD9114198
Probable space group: P 2
;
_chemical_formula_sum "Si O2"
_cell_formula_units_Z 8
_cell_length_a 8.486061
_cell_length_b 8.947617
_cell_length_c 8.190655
_cell_angle_alpha 90.000000
_cell_angle_beta 32.930440
_cell_angle_gamma 90.000000
_cell_volume 338.086594
_symmetry_space_group_name_H-M "P 2"
_symmetry_group_IT_number 3
_symmetry_cell_setting 'monoclinic'
loop_
_space_group_symop_operation_xyz
x,y,z
-x,y,-z
loop_
_atom_site_type_symbol
_atom_site_label
_atom_site_fract_x
_atom_site_fract_y
_atom_site_fract_z
Si Si1 0.110213 0.960950 0.086131
Si Si2 0.363227 0.123400 0.300894
Si Si3 0.691992 0.671562 0.188290
Si Si4 0.288257 0.456834 0.334095
O O1 0.247651 0.797907 0.000706
O O2 0.876793 0.009214 0.423151
O O3 0.000000 0.934581 0.000000
O O4 0.345901 0.090427 0.854165
O O5 0.229897 0.287273 0.443142
O O6 0.500000 0.100411 0.000000
O O7 0.500000 0.741913 0.500000
O O8 0.474924 0.548315 0.302611
O O9 0.000000 0.617477 0.000000
O O10 0.000000 0.523116 0.500000
O O11 0.500000 0.433897 0.000000
#
# Coordination Sequence:
#
# PCOD9114198 Si02
#       4
#     2   2   2   2
#     4  11  23  42  66  98 137 178 224 281 339 405
#     4  11  23  42  68  99 137 177 225 281 340 404
#     4  11  24  44  69 101 138 179 228 284 340 406
#     4  11  24  44  68 100 138 178 227 284 339 405
#
# _framework density 23.662578
#
# number of rings (size 3 to 8) (size 9 to 14) (size 15 to 20)
#    0.000    1.000    0.000    9.000    0.000    4.000 
#    0.000    6.250    0.000    0.000    0.000    0.000 
#    0.000    0.000    0.000    0.000    0.000    0.000 
#
# Total GULP energy -44620.751423 kJ/mol
# GULP energy per Si atom -5577.593928 kJ/mol
# Density = 2.360872 g / cm^3
# Si number density = 23.662578 Si / 1000 Ang^3
#
#
#
# Elastic Constant Matrix: (Units=GPa)
#
#
# Indices 1 2 3 4 5 6 
#
# 1 80.4505 47.2249 34.4483 0.0000 -29.2201 0.0000
# 2 47.2249 106.4050 57.2393 0.0000 6.9278 0.0000
# 3 34.4483 57.2393 154.0374 0.0000 -8.9837 0.0000
# 4 0.0000 0.0000 0.0000 85.0426 0.0000 58.3104
# 5 -29.2201 6.9278 -8.9837 0.0000 45.8583 0.0000
# 6 0.0000 0.0000 0.0000 58.3104 0.0000 199.6248
#
#
#
# Elastic Compliance Matrix: (Units=1/GPa)
#
#
# Indices 1 2 3 4 5 6 
#
# 1 0.027381 -0.013420 -0.000001 0.000000 0.019474 0.000000
# 2 -0.013420 0.018653 -0.004646 0.000000 -0.012279 0.000000
# 3 -0.000001 -0.004646 0.008355 0.000000 0.002338 0.000000
# 4 0.000000 0.000000 0.000000 0.014704 0.000000 -0.004295
# 5 0.019474 -0.012279 0.002338 0.000000 0.036527 0.000000
# 6 0.000000 0.000000 0.000000 -0.004295 0.000000 0.006264
#
#
# Mechanical properties :
#
#
# Convention : Reuss Voigt Hill
#
# Bulk Modulus (GPa) = 54.77964 68.74644 61.76304
# Shear Modulus (GPa) = 32.44600 79.57050 56.00825
#
# Velocity S-wave (km/s) = 3.70698 5.80518 4.87041
# Velocity P-wave (km/s) = 6.44382 8.60520 7.60172
#
# Compressibility (1/GPa) = 0.01825496
#
# Stress axis : x y z
#
# Youngs Moduli (GPa) = 36.52210 53.61128 119.68823
#
# Poissons Ratio (x) = 0.71944 0.00012
# Poissons Ratio (y) = 0.49011 0.55611
# Poissons Ratio (z) = 0.00004 0.24909
#
# Static dielectric constant tensor:
#      x y z
#    x 1.929340 0.000000 0.011600 
#    y 0.000000 1.991440 0.000000 
#    z 0.011600 0.000000 1.861370 
# 
# From -- ./inp_files/21.got.cif
#   From: 2010.05.17/outbox.cif.g08.bks.cpg/sg3_1_cif.got.tgz:21.got - 2010.06.03 18:33:08.
