data_PCOD9114247
_publ_section_title
;
Structure prediction by ZEFSAII (Michael W. Deem and Ramdas Pophale) SiO2 
 PCOD9114247
Probable space group: P 2
;
_chemical_formula_sum "Si O2"
_cell_formula_units_Z 16
_cell_length_a 12.449309
_cell_length_b 9.239479
_cell_length_c 8.631401
_cell_angle_alpha 90.000000
_cell_angle_beta 130.865399
_cell_angle_gamma 90.000000
_cell_volume 750.824925
_symmetry_space_group_name_H-M "P 2"
_symmetry_group_IT_number 3
_symmetry_cell_setting 'monoclinic'
loop_
_space_group_symop_operation_xyz
x,y,z
-x,y,-z
loop_
_atom_site_type_symbol
_atom_site_label
_atom_site_fract_x
_atom_site_fract_y
_atom_site_fract_z
Si Si1 0.372157 0.840800 0.260430
Si Si2 0.861916 0.007254 0.764794
Si Si3 0.641983 0.026886 0.048945
Si Si4 0.919945 0.331175 0.761524
Si Si5 0.578461 0.517723 0.738276
Si Si6 0.284418 0.512216 0.631651
Si Si7 0.215073 0.328713 0.875745
Si Si8 0.850086 0.825729 0.443954
O O1 0.500000 0.831441 0.500000
O O2 0.254936 0.932952 0.238581
O O3 0.342945 0.673645 0.191875
O O4 0.408304 0.929116 0.141421
O O5 0.879043 0.906981 0.631957
O O6 0.843028 0.174533 0.697776
O O7 0.000000 0.010123 0.000000
O O8 0.742780 0.926904 0.247725
O O9 0.733684 0.164303 0.086663
O O10 0.500000 0.078573 0.000000
O O11 0.804375 0.445785 0.595778
O O12 0.048415 0.330803 0.758179
O O13 0.000000 0.359888 0.000000
O O14 0.500000 0.490877 0.500000
O O15 0.449947 0.519061 0.741849
O O16 0.693975 0.401802 0.900686
O O17 0.252765 0.414028 0.752956
O O18 0.225469 0.672350 0.604310
O O19 0.000000 0.806306 0.500000
#
# Coordination Sequence:
#
# PCOD9114247 Si02
#       8
#     2   2   2   2   2   2   2   2
#     4  11  24  44  67  95 129 170 218 272 329 390
#     4  11  24  44  67  95 129 170 218 272 329 390
#     4  12  24  41  65  95 129 172 219 271 326 388
#     4  11  24  44  66  95 131 172 217 271 326 389
#     4  11  24  44  66  95 131 172 217 271 326 389
#     4  12  25  43  66  97 133 174 218 268 327 391
#     4  12  25  43  66  97 133 174 218 268 327 391
#     4  12  24  41  65  95 129 172 219 271 326 388
#
# _framework density 21.309894
#
# number of rings (size 3 to 8) (size 9 to 14) (size 15 to 20)
#    0.000    0.500    0.000   10.500    0.000    3.000 
#    0.000    0.000    0.000    0.000    0.000    0.000 
#    0.000    0.000    0.000    0.000    0.000    0.000 
#
# Total GULP energy -89590.972736 kJ/mol
# GULP energy per Si atom -5599.435796 kJ/mol
# Density = 2.126139 g / cm^3
# Si number density = 21.309894 Si / 1000 Ang^3
#
#
#
# Elastic Constant Matrix: (Units=GPa)
#
#
# Indices 1 2 3 4 5 6 
#
# 1 86.5763 2.1639 -10.4655 0.0000 14.4258 0.0000
# 2 2.1639 127.0639 35.3168 0.0000 6.0172 0.0000
# 3 -10.4655 35.3168 43.2587 0.0000 -10.5026 0.0000
# 4 0.0000 0.0000 0.0000 9.5333 0.0000 -29.1405
# 5 14.4258 6.0172 -10.5026 0.0000 46.4561 0.0000
# 6 0.0000 0.0000 0.0000 -29.1405 0.0000 18.5914
#
#
#
# Elastic Compliance Matrix: (Units=1/GPa)
#
#
# Indices 1 2 3 4 5 6 
#
# 1 0.012447 -0.000901 0.003001 0.000000 -0.003070 0.000000
# 2 -0.000901 0.010774 -0.009824 0.000000 -0.003337 0.000000
# 3 0.003001 -0.009824 0.033801 0.000000 0.007982 0.000000
# 4 0.000000 0.000000 0.000000 -0.027669 0.000000 -0.043368
# 5 -0.003070 -0.003337 0.007982 0.000000 0.024716 0.000000
# 6 0.000000 0.000000 0.000000 -0.043368 0.000000 -0.014188
#
#
# Mechanical properties :
#
#
# Convention : Reuss Voigt Hill
#
# Bulk Modulus (GPa) = 24.05245 34.54770 29.30007
# Shear Modulus (GPa) = 72.26785 30.24175 51.25480
#
# Velocity S-wave (km/s) = 5.82979 3.77124 4.90962
# Velocity P-wave (km/s) = 7.52507 5.93382 6.77632
#
# Compressibility (1/GPa) = 0.04157581
#
# Stress axis : x y z
#
# Youngs Moduli (GPa) = 80.33819 92.81653 29.58476
#
# Poissons Ratio (x) = 0.08361 -0.08880
# Poissons Ratio (y) = 0.07237 0.29064
# Poissons Ratio (z) = -0.24113 0.91183
#
# Static dielectric constant tensor:
#      x y z
#    x 1.873080 0.000000 -0.076160 
#    y 0.000000 1.780250 0.000000 
#    z -0.076160 0.000000 1.753310 
# 
# From -- ./inp_files/7508.got.cif
#   From: 2010.05.17/outbox.cif.g08.bks.cpg/sg3_4_cif.got.tgz:7508.got - 2010.06.03 18:33:08.
