data_PCOD9114019
_publ_section_title
;
Structure prediction by ZEFSAII (Michael W. Deem and Ramdas Pophale) SiO2 
 PCOD9114019
Probable space group: P 2
;
_chemical_formula_sum "Si O2"
_cell_formula_units_Z 13
_cell_length_a 5.262460
_cell_length_b 14.700691
_cell_length_c 9.733673
_cell_angle_alpha 90.000000
_cell_angle_beta 124.790455
_cell_angle_gamma 90.000000
_cell_volume 618.408804
_symmetry_space_group_name_H-M "P 2"
_symmetry_group_IT_number 3
_symmetry_cell_setting 'monoclinic'
loop_
_space_group_symop_operation_xyz
x,y,z
-x,y,-z
loop_
_atom_site_type_symbol
_atom_site_label
_atom_site_fract_x
_atom_site_fract_y
_atom_site_fract_z
Si Si1 0.826214 0.377180 0.567457
Si Si2 0.776640 0.953493 0.297699
Si Si3 0.231692 0.643776 0.308143
Si Si4 0.864933 0.463202 0.104462
Si Si5 0.831332 0.064112 0.806204
Si Si6 0.500000 0.202493 0.500000
Si Si7 0.377215 0.744583 0.807448
O O1 0.500000 0.422123 0.500000
O O2 0.723505 0.275584 0.494270
O O3 0.000000 0.426774 0.500000
O O4 0.046910 0.382677 0.764595
O O5 0.665066 0.851263 0.234390
O O6 0.000000 0.954809 0.500000
O O7 0.473104 0.010266 0.240954
O O8 0.952026 0.999226 0.221842
O O9 0.500000 0.626748 0.500000
O O10 0.390359 0.696287 0.228319
O O11 0.055510 0.552981 0.205757
O O12 0.966003 0.702830 0.299642
O O13 0.500000 0.480967 0.000000
O O14 0.000000 0.436760 0.000000
O O15 0.701855 0.143327 0.666645
O O16 0.000000 0.093157 0.000000
O O17 0.500000 0.731185 0.000000
#
# Coordination Sequence:
#
# PCOD9114019 Si02
#       7
#     2   2   2   2   2   1   2
#     4  10  24  45  71  96 136 173 225 272 355 407
#     4  12  24  45  69  99 142 187 228 284 344 409
#     4  12  25  43  67  97 135 185 229 277 338 406
#     4  12  25  44  70 102 137 176 228 282 345 408
#     4  12  25  44  71 103 138 185 233 285 350 412
#     4  10  26  46  74 102 140 178 232 292 354 418
#     4  12  25  43  66 100 139 178 233 285 333 399
#
# _framework density 21.021692999999999
#
# number of rings (size 3 to 8) (size 9 to 14) (size 15 to 20)
#    0.462    0.000    1.538    7.846    2.154    1.846 
#    0.000    0.000    0.000    0.000    0.000    0.000 
#    0.000    0.000    0.000    0.000    0.000    0.000 
#
# Total GULP energy -72653.178897 kJ/mol
# GULP energy per Si atom -5588.706069 kJ/mol
# Density = 2.097385 g / cm^3
# Si number density = 21.021693 Si / 1000 Ang^3
#
#
#
# Elastic Constant Matrix: (Units=GPa)
#
#
# Indices 1 2 3 4 5 6 
#
# 1 166.6758 16.2215 35.8456 0.0000 12.0257 0.0000
# 2 16.2215 51.0289 3.7450 0.0000 13.1939 0.0000
# 3 35.8456 3.7450 104.6035 0.0000 5.2424 0.0000
# 4 0.0000 0.0000 0.0000 38.4527 0.0000 6.5158
# 5 12.0257 13.1939 5.2424 0.0000 37.8807 0.0000
# 6 0.0000 0.0000 0.0000 6.5158 0.0000 44.2985
#
#
#
# Elastic Compliance Matrix: (Units=1/GPa)
#
#
# Indices 1 2 3 4 5 6 
#
# 1 0.006720 -0.001651 -0.002181 0.000000 -0.001256 0.000000
# 2 -0.001651 0.021958 0.000138 0.000000 -0.007143 0.000000
# 3 -0.002181 0.000138 0.010342 0.000000 -0.000787 0.000000
# 4 0.000000 0.000000 0.000000 0.026671 0.000000 -0.003923
# 5 -0.001256 -0.007143 -0.000787 0.000000 0.029394 0.000000
# 6 0.000000 0.000000 0.000000 -0.003923 0.000000 0.023151
#
#
# Mechanical properties :
#
#
# Convention : Reuss Voigt Hill
#
# Bulk Modulus (GPa) = 31.61410 48.21471 39.91441
# Shear Modulus (GPa) = 36.71911 41.89279 39.30595
#
# Velocity S-wave (km/s) = 4.18392 4.46896 4.32879
# Velocity P-wave (km/s) = 6.19771 7.04374 6.63423
#
# Compressibility (1/GPa) = 0.03163145
#
# Stress axis : x y z
#
# Youngs Moduli (GPa) = 148.80884 45.54064 96.69580
#
# Poissons Ratio (x) = 0.07520 0.21087
# Poissons Ratio (y) = 0.24573 -0.01332
# Poissons Ratio (z) = 0.32451 -0.00627
#
# Static dielectric constant tensor:
#      x y z
#    x 1.741580 0.000000 0.002290 
#    y 0.000000 1.762140 0.000000 
#    z 0.002290 0.000000 1.769940 
# 
# From -- ./inp_files/4529.got.cif
#   From: 2010.05.17/outbox.cif.g08.bks.cpg/sg3_3_cif.got.tgz:4529.got - 2010.06.03 18:33:08.
