data_PCOD9114469
_publ_section_title
;
Structure prediction by ZEFSAII (Michael W. Deem and Ramdas Pophale) SiO2 
 PCOD9114469
Probable space group: P 21
;
_chemical_formula_sum "Si O2"
_cell_formula_units_Z 16
_cell_length_a 7.391924
_cell_length_b 16.760696
_cell_length_c 5.608978
_cell_angle_alpha 90.000000
_cell_angle_beta 113.711199
_cell_angle_gamma 90.000000
_cell_volume 636.255396
_symmetry_space_group_name_H-M "P 21"
_symmetry_group_IT_number 4
_symmetry_cell_setting 'monoclinic'
loop_
_space_group_symop_operation_xyz
x,y,z
-x,1/2+y,-z
loop_
_atom_site_type_symbol
_atom_site_label
_atom_site_fract_x
_atom_site_fract_y
_atom_site_fract_z
Si Si1 0.345955 0.827850 0.877964
Si Si2 0.246244 0.984174 0.991429
Si Si3 0.092593 0.145535 0.937333
Si Si4 0.495980 0.178865 0.841867
Si Si5 0.196929 0.247904 0.370088
Si Si6 0.076003 0.805847 0.356597
Si Si7 0.250682 0.385957 0.035475
Si Si8 0.515982 0.512906 0.382696
O O1 0.564806 0.863751 0.035131
O O2 0.288345 0.830701 0.568284
O O3 0.212367 0.888309 0.961933
O O4 0.348711 0.734362 0.941979
O O5 0.381000 0.004328 0.300720
O O6 0.071531 0.050356 0.898184
O O7 0.344605 0.995636 0.777424
O O8 0.304678 0.161076 0.912071
O O9 0.944023 0.217814 0.780711
O O10 0.127219 0.162804 0.234406
O O11 0.405909 0.236358 0.597440
O O12 0.559301 0.100963 0.732036
O O13 0.042314 0.283993 0.466171
O O14 0.221101 0.305499 0.164803
O O15 0.955600 0.885428 0.211041
O O16 0.330767 0.453906 0.249356
#
# Coordination Sequence:
#
# PCOD9114469 Si02
#       8
#     2   2   2   2   2   2   2   2
#     4  11  21  40  62  93 123 161 212 257 308 371
#     4  10  21  38  63  94 121 166 208 254 314 370
#     4   9  18  37  61  86 120 164 201 252 311 369
#     4  10  18  35  60  89 115 157 207 254 301 371
#     4  10  16  36  64  78 119 156 204 247 310 363
#     4  10  22  38  59  92 122 160 208 256 310 371
#     4  10  21  39  61  85 119 165 198 256 312 368
#     4  10  21  35  64  93 119 161 212 252 312 373
#
# _framework density 25.147136
#
# number of rings (size 3 to 8) (size 9 to 14) (size 15 to 20)
#    0.000    2.000    5.000    0.750    1.750    0.000 
#   15.750    0.000    2.750    0.000    0.000    0.000 
#    0.000    0.000    0.000    0.000    0.000    0.000 
#
# Total GULP energy -89080.209408 kJ/mol
# GULP energy per Si atom -5567.513088 kJ/mol
# Density = 2.508990 g / cm^3
# Si number density = 25.147136 Si / 1000 Ang^3
#
#
#
# Elastic Constant Matrix: (Units=GPa)
#
#
# Indices 1 2 3 4 5 6 
#
# 1 64.5668 7.9350 5.0861 0.0000 -5.2497 0.0000
# 2 7.9350 104.2242 21.0818 0.0000 21.2666 0.0000
# 3 5.0861 21.0818 105.3492 0.0000 15.8217 0.0000
# 4 0.0000 0.0000 0.0000 41.1508 0.0000 2.3450
# 5 -5.2497 21.2666 15.8217 0.0000 35.5284 0.0000
# 6 0.0000 0.0000 0.0000 2.3450 0.0000 5.8961
#
#
#
# Elastic Compliance Matrix: (Units=1/GPa)
#
#
# Indices 1 2 3 4 5 6 
#
# 1 0.016109 -0.001823 -0.001001 0.000000 0.003918 0.000000
# 2 -0.001823 0.011302 -0.001197 0.000000 -0.006502 0.000000
# 3 -0.001001 -0.001197 0.010390 0.000000 -0.004058 0.000000
# 4 0.000000 0.000000 0.000000 0.024864 0.000000 -0.009889
# 5 0.003918 -0.006502 -0.004058 0.000000 0.034424 0.000000
# 6 0.000000 0.000000 0.000000 -0.009889 0.000000 0.173537
#
#
# Mechanical properties :
#
#
# Convention : Reuss Voigt Hill
#
# Bulk Modulus (GPa) = 33.60486 38.03845 35.82165
# Shear Modulus (GPa) = 17.32562 32.51754 24.92158
#
# Velocity S-wave (km/s) = 2.62767 3.59986 3.15148
# Velocity P-wave (km/s) = 4.75379 5.69542 5.24578
#
# Compressibility (1/GPa) = 0.02975760
#
# Stress axis : x y z
#
# Youngs Moduli (GPa) = 62.07588 88.47739 96.24987
#
# Poissons Ratio (x) = 0.16132 0.09637
# Poissons Ratio (y) = 0.11318 0.11524
# Poissons Ratio (z) = 0.06215 0.10593
#
# Static dielectric constant tensor:
#      x y z
#    x 2.040470 0.000000 0.074480 
#    y 0.000000 2.092500 0.000000 
#    z 0.074480 0.000000 2.127640 
# 
# From -- ./inp_files/2005.got.cif
#   From: 2010.05.17/outbox.cif.g08.bks.cpg/sg4_2_cif.got.tgz:2005.got - 2010.06.03 18:43:04.
