data_PCOD9114311
_publ_section_title
;
Structure prediction by ZEFSAII (Michael W. Deem and Ramdas Pophale) SiO2 
 PCOD9114311
Probable space group: P 2
;
_chemical_formula_sum "Si O2"
_cell_formula_units_Z 14
_cell_length_a 10.224025
_cell_length_b 9.279191
_cell_length_c 8.592234
_cell_angle_alpha 90.000000
_cell_angle_beta 43.761915
_cell_angle_gamma 90.000000
_cell_volume 563.810060
_symmetry_space_group_name_H-M "P 2"
_symmetry_group_IT_number 3
_symmetry_cell_setting 'monoclinic'
loop_
_space_group_symop_operation_xyz
x,y,z
-x,y,-z
loop_
_atom_site_type_symbol
_atom_site_label
_atom_site_fract_x
_atom_site_fract_y
_atom_site_fract_z
Si Si1 0.000000 0.460820 0.500000
Si Si2 0.220242 0.480898 0.771513
Si Si3 0.203591 0.241017 0.555204
Si Si4 0.064329 0.003625 0.274369
Si Si5 0.664388 0.473682 0.986721
Si Si6 0.856105 0.784379 0.271815
Si Si7 0.404000 0.143567 0.873393
Si Si8 0.500000 0.977599 0.500000
O O1 0.883256 0.357628 0.486031
O O2 0.849699 0.534907 0.741861
O O3 0.285994 0.339734 0.623102
O O4 0.331159 0.522122 0.835494
O O5 0.210739 0.619852 0.669274
O O6 0.000000 0.449410 0.000000
O O7 0.371229 0.163062 0.317812
O O8 0.044478 0.124326 0.737490
O O9 0.000000 0.042926 0.500000
O O10 0.981464 0.849840 0.301183
O O11 0.286881 0.025026 0.067651
O O12 0.674197 0.299658 0.007787
O O13 0.500000 0.498692 0.000000
O O14 0.664398 0.877756 0.428591
O O15 0.000000 0.797980 0.000000
O O16 0.387098 0.080213 0.714776
#
# Coordination Sequence:
#
# PCOD9114311 Si02
#       8
#     1   2   2   2   2   2   2   1
#     4  12  22  42  64 110 152 190 240 314 380 452
#     4  11  25  48  78 108 152 208 262 318 388 461
#     4  12  23  43  73 113 147 195 249 324 381 453
#     4  12  25  46  74 111 151 196 252 319 388 457
#     4  12  25  43  70 112 154 194 247 321 390 455
#     4  11  26  49  72 103 149 203 260 312 373 467
#     4  12  24  38  73 112 148 192 249 314 388 445
#     4  12  24  42  72 104 142 198 254 308 370 452
#
# _framework density 24.831060000000001
#
# number of rings (size 3 to 8) (size 9 to 14) (size 15 to 20)
#    0.000    0.286    7.857    0.857    0.000    1.714 
#    1.286    0.000    0.000    0.000    0.000    0.000 
#    0.000    0.000    0.000    0.000    0.000    0.000 
#
# Total GULP energy -78232.118718 kJ/mol
# GULP energy per Si atom -5588.008480 kJ/mol
# Density = 2.477454 g / cm^3
# Si number density = 24.831060 Si / 1000 Ang^3
#
#
#
# Elastic Constant Matrix: (Units=GPa)
#
#
# Indices 1 2 3 4 5 6 
#
# 1 121.2471 56.7847 42.1541 0.0000 -11.4433 0.0000
# 2 56.7847 101.0667 23.5929 0.0000 4.4801 0.0000
# 3 42.1541 23.5929 112.7918 0.0000 -11.0901 0.0000
# 4 0.0000 0.0000 0.0000 19.5303 0.0000 2.1038
# 5 -11.4433 4.4801 -11.0901 0.0000 40.7270 0.0000
# 6 0.0000 0.0000 0.0000 2.1038 0.0000 24.3616
#
#
#
# Elastic Compliance Matrix: (Units=1/GPa)
#
#
# Indices 1 2 3 4 5 6 
#
# 1 0.012716 -0.006591 -0.003033 0.000000 0.003472 0.000000
# 2 -0.006591 0.013946 -0.000809 0.000000 -0.003606 0.000000
# 3 -0.003033 -0.000809 0.010371 0.000000 0.002061 0.000000
# 4 0.000000 0.000000 0.000000 0.051683 0.000000 -0.004463
# 5 0.003472 -0.003606 0.002061 0.000000 0.026487 0.000000
# 6 0.000000 0.000000 0.000000 -0.004463 0.000000 0.041434
#
#
# Mechanical properties :
#
#
# Convention : Reuss Voigt Hill
#
# Bulk Modulus (GPa) = 61.84343 64.46324 63.15334
# Shear Modulus (GPa) = 27.33868 31.09537 29.21702
#
# Velocity S-wave (km/s) = 3.32171 3.54259 3.43393
# Velocity P-wave (km/s) = 6.29853 6.53838 6.41957
#
# Compressibility (1/GPa) = 0.01616987
#
# Stress axis : x y z
#
# Youngs Moduli (GPa) = 78.63888 71.70472 96.42261
#
# Poissons Ratio (x) = 0.47259 0.29240
# Poissons Ratio (y) = 0.51829 0.07796
# Poissons Ratio (z) = 0.23847 0.05797
#
# Static dielectric constant tensor:
#      x y z
#    x 2.028180 0.000000 0.029420 
#    y 0.000000 1.951430 0.000000 
#    z 0.029420 0.000000 1.973970 
# 
# From -- ./inp_files/7353.got.cif
#   From: 2010.05.17/outbox.cif.g08.bks.cpg/sg3_4_cif.got.tgz:7353.got - 2010.06.03 18:33:08.
