data_PCOD9114850
_publ_section_title
;
Structure prediction by ZEFSAII (Michael W. Deem and Ramdas Pophale) SiO2 
 PCOD9114850
Probable space group: P 21
;
_chemical_formula_sum "Si O2"
_cell_formula_units_Z 16
_cell_length_a 10.954500
_cell_length_b 7.466268
_cell_length_c 15.154601
_cell_angle_alpha 90.000000
_cell_angle_beta 146.580865
_cell_angle_gamma 90.000000
_cell_volume 682.657169
_symmetry_space_group_name_H-M "P 21"
_symmetry_group_IT_number 4
_symmetry_cell_setting 'monoclinic'
loop_
_space_group_symop_operation_xyz
x,y,z
-x,1/2+y,-z
loop_
_atom_site_type_symbol
_atom_site_label
_atom_site_fract_x
_atom_site_fract_y
_atom_site_fract_z
Si Si1 0.215175 0.633770 0.472887
Si Si2 0.915311 0.701368 0.031828
Si Si3 0.570438 0.089463 0.987586
Si Si4 0.446184 0.861391 0.740376
Si Si5 0.363523 0.583061 0.284973
Si Si6 0.970602 0.461643 0.750144
Si Si7 0.185805 0.967322 0.864380
Si Si8 0.405523 0.217710 0.416976
O O1 0.259441 0.715826 0.598108
O O2 0.144219 0.811320 0.376723
O O3 0.451541 0.601076 0.567449
O O4 0.024380 0.488958 0.331295
O O5 0.894998 0.545076 0.091954
O O6 0.127278 0.643706 0.102694
O O7 0.978200 0.877289 0.124396
O O8 0.672008 0.751638 0.854267
O O9 0.676128 0.285435 0.033316
O O10 0.797041 0.998981 0.156505
O O11 0.470123 0.959190 0.849645
O O12 0.375185 0.098635 0.940079
O O13 0.459065 0.031447 0.681895
O O14 0.350642 0.403337 0.336763
O O15 0.442018 0.726775 0.403765
O O16 0.814968 0.627506 0.677828
#
# Coordination Sequence:
#
# PCOD9114850 Si02
#       8
#     2   2   2   2   2   2   2   2
#     4  10  21  39  63  92 132 168 209 274 321 381
#     4  10  21  39  60  91 128 171 216 260 318 388
#     4  11  24  42  70  94 122 172 223 271 315 389
#     4  10  23  40  60  95 140 162 205 280 333 366
#     4  11  20  36  60  92 128 168 205 262 322 381
#     4  10  19  35  61  90 125 168 219 255 308 395
#     4  11  22  45  70  90 122 175 230 257 313 403
#     4  11  18  34  60  90 125 166 215 253 312 395
#
# _framework density 23.437826999999999
#
# number of rings (size 3 to 8) (size 9 to 14) (size 15 to 20)
#    0.000    1.500    5.000    3.000    0.000    5.000 
#    0.000    7.500    0.000    0.000    0.000    0.000 
#    0.000    0.000    0.000    0.000    0.000    0.000 
#
# Total GULP energy -89096.654606 kJ/mol
# GULP energy per Si atom -5568.540913 kJ/mol
# Density = 2.338448 g / cm^3
# Si number density = 23.437827 Si / 1000 Ang^3
#
#
#
# Elastic Constant Matrix: (Units=GPa)
#
#
# Indices 1 2 3 4 5 6 
#
# 1 32.7825 3.4233 12.7466 0.0000 12.4639 0.0000
# 2 3.4233 87.3355 24.9935 0.0000 -1.9103 0.0000
# 3 12.7466 24.9935 94.0107 0.0000 2.7324 0.0000
# 4 0.0000 0.0000 0.0000 50.1189 0.0000 3.2794
# 5 12.4639 -1.9103 2.7324 0.0000 37.1617 0.0000
# 6 0.0000 0.0000 0.0000 3.2794 0.0000 24.7438
#
#
#
# Elastic Compliance Matrix: (Units=1/GPa)
#
#
# Indices 1 2 3 4 5 6 
#
# 1 0.036900 -0.000410 -0.004544 0.000000 -0.012063 0.000000
# 2 -0.000410 0.012426 -0.003278 0.000000 0.001017 0.000000
# 3 -0.004544 -0.003278 0.012111 0.000000 0.000465 0.000000
# 4 0.000000 0.000000 0.000000 0.020127 0.000000 -0.002668
# 5 -0.012063 0.001017 0.000465 0.000000 0.030973 0.000000
# 6 0.000000 0.000000 0.000000 -0.002668 0.000000 0.040768
#
#
# Mechanical properties :
#
#
# Convention : Reuss Voigt Hill
#
# Bulk Modulus (GPa) = 22.23456 32.93949 27.58702
# Shear Modulus (GPa) = 27.06222 33.93591 30.49906
#
# Velocity S-wave (km/s) = 3.40168 3.80927 3.61123
# Velocity P-wave (km/s) = 4.99358 5.78203 5.40221
#
# Compressibility (1/GPa) = 0.04497504
#
# Stress axis : x y z
#
# Youngs Moduli (GPa) = 27.10036 80.47381 82.56950
#
# Poissons Ratio (x) = 0.03299 0.37516
# Poissons Ratio (y) = 0.01111 0.27063
# Poissons Ratio (z) = 0.12313 0.26376
#
# Static dielectric constant tensor:
#      x y z
#    x 1.897740 0.000000 -0.011310 
#    y 0.000000 1.951340 0.000000 
#    z -0.011310 0.000000 1.981430 
# 
# From -- ./inp_files/15190.got.cif
#   From: 2010.05.17/outbox.cif.g08.bks.cpg/sg4_8_cif.got.tgz:15190.got - 2010.06.03 18:43:04.
