data_PCOD9114635
_publ_section_title
;
Structure prediction by ZEFSAII (Michael W. Deem and Ramdas Pophale) SiO2 
 PCOD9114635
Probable space group: P 21
;
_chemical_formula_sum "Si O2"
_cell_formula_units_Z 14
_cell_length_a 12.037637
_cell_length_b 9.115015
_cell_length_c 8.698157
_cell_angle_alpha 90.000000
_cell_angle_beta 42.434902
_cell_angle_gamma 90.000000
_cell_volume 643.976642
_symmetry_space_group_name_H-M "P 21"
_symmetry_group_IT_number 4
_symmetry_cell_setting 'monoclinic'
loop_
_space_group_symop_operation_xyz
x,y,z
-x,1/2+y,-z
loop_
_atom_site_type_symbol
_atom_site_label
_atom_site_fract_x
_atom_site_fract_y
_atom_site_fract_z
Si Si1 0.186008 0.878650 0.186031
Si Si2 0.321573 0.326846 0.045263
Si Si3 0.490728 0.064565 0.999165
Si Si4 0.969195 0.641673 0.508511
Si Si5 0.287110 0.129585 0.497654
Si Si6 0.863832 0.477012 0.093896
Si Si7 0.811916 0.813041 0.138687
O O1 0.350184 0.952542 0.081790
O O2 0.139698 0.723418 0.305756
O O3 0.187561 0.883043 0.000699
O O4 0.041041 0.988407 0.392801
O O5 0.157283 0.244343 0.268063
O O6 0.468928 0.206595 0.913813
O O7 0.356362 0.461101 0.123258
O O8 0.294086 0.367666 0.896373
O O9 0.431537 0.118549 0.228346
O O10 0.879983 0.626696 0.433496
O O11 0.287380 0.274287 0.603736
O O12 0.269579 0.993282 0.633105
O O13 0.035072 0.416350 0.982039
O O14 0.878556 0.648448 0.029904
#
# Coordination Sequence:
#
# PCOD9114635 Si02
#       7
#     2   2   2   2   2   2   2
#     4  10  19  35  58  84 113 147 184 242 287 330
#     4  10  22  39  58  81 117 156 189 236 282 335
#     4  10  21  40  58  80 116 157 190 236 277 342
#     4  10  19  33  58  85 111 143 192 237 280 335
#     4   8  18  34  57  79 114 142 185 228 289 327
#     4  10  18  35  60  85 118 142 180 239 294 332
#     4  10  19  36  59  84 119 145 182 238 293 335
#
# _framework density 21.739917999999999
#
# number of rings (size 3 to 8) (size 9 to 14) (size 15 to 20)
#    0.857    1.714    4.286    0.000    4.000    1.143 
#    2.571    5.714    3.143    0.000    0.000    0.000 
#    0.000    0.000    0.000    0.000    0.000    0.000 
#
# Total GULP energy -78005.075098 kJ/mol
# GULP energy per Si atom -5571.791078 kJ/mol
# Density = 2.169044 g / cm^3
# Si number density = 21.739918 Si / 1000 Ang^3
#
#
#
# Elastic Constant Matrix: (Units=GPa)
#
#
# Indices 1 2 3 4 5 6 
#
# 1 70.1709 5.8982 19.5142 0.0000 23.0010 0.0000
# 2 5.8982 31.5277 -1.3057 0.0000 -12.5624 0.0000
# 3 19.5142 -1.3057 35.0157 0.0000 20.7327 0.0000
# 4 0.0000 0.0000 0.0000 15.8902 0.0000 -11.0478
# 5 23.0010 -12.5624 20.7327 0.0000 28.2222 0.0000
# 6 0.0000 0.0000 0.0000 -11.0478 0.0000 36.7809
#
#
#
# Elastic Compliance Matrix: (Units=1/GPa)
#
#
# Indices 1 2 3 4 5 6 
#
# 1 0.024344 -0.016136 0.003242 0.000000 -0.029404 0.000000
# 2 -0.016136 0.054626 -0.019741 0.000000 0.051969 0.000000
# 3 0.003242 -0.019741 0.058020 0.000000 -0.054052 0.000000
# 4 0.000000 0.000000 0.000000 0.079543 0.000000 0.023892
# 5 -0.029404 0.051969 -0.054052 0.000000 0.122238 0.000000
# 6 0.000000 0.000000 0.000000 0.023892 0.000000 0.034364
#
#
# Mechanical properties :
#
#
# Convention : Reuss Voigt Hill
#
# Bulk Modulus (GPa) = 13.94319 20.54751 17.24535
# Shear Modulus (GPa) = 10.81517 23.68583 17.25050
#
# Velocity S-wave (km/s) = 2.23285 3.30435 2.81996
# Velocity P-wave (km/s) = 3.61594 4.90208 4.30728
#
# Compressibility (1/GPa) = 0.07171962
#
# Stress axis : x y z
#
# Youngs Moduli (GPa) = 41.07761 18.30614 17.23546
#
# Poissons Ratio (x) = 0.29539 -0.05587
# Poissons Ratio (y) = 0.66284 0.34024
# Poissons Ratio (z) = -0.13316 0.36138
#
# Static dielectric constant tensor:
#      x y z
#    x 1.812070 0.000000 0.003170 
#    y 0.000000 1.849810 0.000000 
#    z 0.003170 0.000000 1.829020 
# 
# From -- ./inp_files/8171.got.cif
#   From: 2010.05.17/outbox.cif.g08.bks.cpg/sg4_5_cif.got.tgz:8171.got - 2010.06.03 18:43:04.
