data_PCOD9114645
_publ_section_title
;
Structure prediction by ZEFSAII (Michael W. Deem and Ramdas Pophale) SiO2 
 PCOD9114645
Probable space group: P 21
;
_chemical_formula_sum "Si O2"
_cell_formula_units_Z 14
_cell_length_a 10.254290
_cell_length_b 9.402928
_cell_length_c 7.090405
_cell_angle_alpha 90.000000
_cell_angle_beta 45.425422
_cell_angle_gamma 90.000000
_cell_volume 486.996195
_symmetry_space_group_name_H-M "P 21"
_symmetry_group_IT_number 4
_symmetry_cell_setting 'monoclinic'
loop_
_space_group_symop_operation_xyz
x,y,z
-x,1/2+y,-z
loop_
_atom_site_type_symbol
_atom_site_label
_atom_site_fract_x
_atom_site_fract_y
_atom_site_fract_z
Si Si1 0.868291 0.577140 0.547203
Si Si2 0.055718 0.864204 0.227400
Si Si3 0.036737 0.276295 0.056300
Si Si4 0.679442 0.817872 0.967107
Si Si5 0.634163 0.178678 0.580348
Si Si6 0.641103 0.578552 0.426641
Si Si7 0.438705 0.778582 0.928860
O O1 0.977915 0.480744 0.582465
O O2 0.763864 0.504102 0.476034
O O3 0.987686 0.707684 0.351754
O O4 0.725635 0.662707 0.828359
O O5 0.272823 0.855856 0.997837
O O6 0.972220 0.882608 0.109300
O O7 0.135305 0.361691 0.123649
O O8 0.189596 0.156319 0.853329
O O9 0.837795 0.209176 0.297864
O O10 0.517826 0.808685 0.285927
O O11 0.586032 0.884318 0.877653
O O12 0.521764 0.061149 0.569235
O O13 0.642529 0.195658 0.802589
O O14 0.531622 0.682233 0.679842
#
# Coordination Sequence:
#
# PCOD9114645 Si02
#       7
#     2   2   2   2   2   2   2
#     4  10  22  42  67 105 142 188 239 298 356 428
#     4  11  22  40  74  99 144 188 240 296 360 425
#     4  10  18  35  67  93 137 173 231 284 345 415
#     4   8  19  37  63  92 136 173 227 284 348 409
#     4   9  17  33  65  93 130 172 230 272 351 410
#     4   9  18  37  61  95 132 170 225 282 341 407
#     4   9  18  36  65  93 131 176 226 280 353 410
#
# _framework density 28.747658000000001
#
# number of rings (size 3 to 8) (size 9 to 14) (size 15 to 20)
#    0.857    1.714    1.429    0.857    0.000    0.000 
#    0.000   17.143    6.286    0.000    0.000    0.000 
#    0.000    0.000    0.000    0.000    0.000    0.000 
#
# Total GULP energy -78029.758725 kJ/mol
# GULP energy per Si atom -5573.554195 kJ/mol
# Density = 2.868223 g / cm^3
# Si number density = 28.747658 Si / 1000 Ang^3
#
#
#
# Elastic Constant Matrix: (Units=GPa)
#
#
# Indices 1 2 3 4 5 6 
#
# 1 201.8699 3.4830 45.0762 0.0000 -23.8397 0.0000
# 2 3.4830 56.9579 12.7928 0.0000 -15.6693 0.0000
# 3 45.0762 12.7928 149.0106 0.0000 -7.9311 0.0000
# 4 0.0000 0.0000 0.0000 33.3222 0.0000 -5.8202
# 5 -23.8397 -15.6693 -7.9311 0.0000 53.3397 0.0000
# 6 0.0000 0.0000 0.0000 -5.8202 0.0000 34.3550
#
#
#
# Elastic Compliance Matrix: (Units=1/GPa)
#
#
# Indices 1 2 3 4 5 6 
#
# 1 0.005595 0.000700 -0.001621 0.000000 0.002465 0.000000
# 2 0.000700 0.019462 -0.001574 0.000000 0.005796 0.000000
# 3 -0.001621 -0.001574 0.007331 0.000000 -0.000097 0.000000
# 4 0.000000 0.000000 0.000000 0.030925 0.000000 0.005239
# 5 0.002465 0.005796 -0.000097 0.000000 0.021538 0.000000
# 6 0.000000 0.000000 0.000000 0.005239 0.000000 0.029995
#
#
# Mechanical properties :
#
#
# Convention : Reuss Voigt Hill
#
# Bulk Modulus (GPa) = 36.49948 58.94917 47.72433
# Shear Modulus (GPa) = 38.76876 47.30245 43.03561
#
# Velocity S-wave (km/s) = 3.67630 4.06080 3.87332
# Velocity P-wave (km/s) = 5.54475 6.52204 6.05315
#
# Compressibility (1/GPa) = 0.02739765
#
# Stress axis : x y z
#
# Youngs Moduli (GPa) = 178.73870 51.38184 136.40003
#
# Poissons Ratio (x) = -0.03598 0.22115
# Poissons Ratio (y) = -0.12515 0.21472
# Poissons Ratio (z) = 0.28980 0.08088
#
# Static dielectric constant tensor:
#      x y z
#    x 2.320290 0.000000 -0.048750 
#    y 0.000000 2.321340 0.000000 
#    z -0.048750 0.000000 2.268960 
# 
# From -- ./inp_files/8419.got.cif
#   From: 2010.05.17/outbox.cif.g08.bks.cpg/sg4_5_cif.got.tgz:8419.got - 2010.06.03 18:43:04.
