data_PCOD9114519
_publ_section_title
;
Structure prediction by ZEFSAII (Michael W. Deem and Ramdas Pophale) SiO2 
 PCOD9114519
Probable space group: P 21
;
_chemical_formula_sum "Si O2"
_cell_formula_units_Z 16
_cell_length_a 9.284438
_cell_length_b 15.015169
_cell_length_c 12.198679
_cell_angle_alpha 90.000000
_cell_angle_beta 153.943330
_cell_angle_gamma 90.000000
_cell_volume 746.999337
_symmetry_space_group_name_H-M "P 21"
_symmetry_group_IT_number 4
_symmetry_cell_setting 'monoclinic'
loop_
_space_group_symop_operation_xyz
x,y,z
-x,1/2+y,-z
loop_
_atom_site_type_symbol
_atom_site_label
_atom_site_fract_x
_atom_site_fract_y
_atom_site_fract_z
Si Si1 0.078183 0.791980 0.094273
Si Si2 0.005950 0.406480 0.159618
Si Si3 0.047366 0.210762 0.784846
Si Si4 0.400450 0.566909 0.390491
Si Si5 0.192705 0.678868 0.625173
Si Si6 0.807668 0.802866 0.526116
Si Si7 0.606414 0.996791 0.299271
Si Si8 0.883561 0.607836 0.876354
O O1 0.450951 0.770765 0.318182
O O2 0.033771 0.795837 0.193837
O O3 0.012667 0.879070 0.979715
O O4 0.862702 0.710936 0.898298
O O5 0.322796 0.468064 0.381086
O O6 0.004058 0.319337 0.231871
O O7 0.689197 0.462309 0.979266
O O8 0.835668 0.133607 0.701025
O O9 0.919984 0.213682 0.573329
O O10 0.433313 0.193463 0.073403
O O11 0.767578 0.593586 0.672776
O O12 0.240277 0.575349 0.160679
O O13 0.161522 0.571414 0.593970
O O14 0.969658 0.733858 0.555982
O O15 0.771950 0.904653 0.453285
O O16 0.387783 0.052870 0.238467
#
# Coordination Sequence:
#
# PCOD9114519 Si02
#       8
#     2   2   2   2   2   2   2   2
#     4  10  23  36  64 100 132 167 220 284 327 395
#     4  10  20  37  61  99 130 168 221 277 330 396
#     4  11  21  41  66  96 125 180 226 258 330 405
#     4  10  17  35  62  90 114 169 222 257 307 403
#     4  12  24  41  71  97 131 181 224 273 332 403
#     4  11  25  38  68 103 135 168 229 286 329 391
#     4  10  20  42  65  93 127 188 223 263 329 421
#     4  10  18  34  61  92 116 169 217 258 314 390
#
# _framework density 21.419028999999998
#
# number of rings (size 3 to 8) (size 9 to 14) (size 15 to 20)
#    0.000    1.500    6.250    0.000    8.750    0.000 
#    0.000    0.000   11.000    6.000    0.000    0.000 
#    0.000    0.000    0.000    0.000    0.000    0.000 
#
# Total GULP energy -89081.274118 kJ/mol
# GULP energy per Si atom -5567.579632 kJ/mol
# Density = 2.137028 g / cm^3
# Si number density = 21.419029 Si / 1000 Ang^3
#
#
#
# Elastic Constant Matrix: (Units=GPa)
#
#
# Indices 1 2 3 4 5 6 
#
# 1 -1.1629 -14.1333 13.0211 0.0000 -7.2543 0.0000
# 2 -14.1333 28.4667 -7.4785 0.0000 0.6574 0.0000
# 3 13.0211 -7.4785 123.1068 0.0000 -25.8086 0.0000
# 4 0.0000 0.0000 0.0000 30.4910 0.0000 4.9007
# 5 -7.2543 0.6574 -25.8086 0.0000 27.2236 0.0000
# 6 0.0000 0.0000 0.0000 4.9007 0.0000 27.8597
#
#
#
# Elastic Compliance Matrix: (Units=1/GPa)
#
#
# Indices 1 2 3 4 5 6 
#
# 1 -0.099765 -0.048256 0.002860 0.000000 -0.022707 0.000000
# 2 -0.048256 0.012406 0.003868 0.000000 -0.009492 0.000000
# 3 0.002860 0.003868 0.010229 0.000000 0.010366 0.000000
# 4 0.000000 0.000000 0.000000 0.033751 0.000000 -0.005937
# 5 -0.022707 -0.009492 0.010366 0.000000 0.040738 0.000000
# 6 0.000000 0.000000 0.000000 -0.005937 0.000000 0.036938
#
#
# Mechanical properties :
#
#
# Convention : Reuss Voigt Hill
#
# Bulk Modulus (GPa) = -6.24274 14.80326 4.28026
# Shear Modulus (GPa) = 78.17764 27.71495 52.94629
#
# Velocity S-wave (km/s) = 6.04801 3.60104 4.97724
# Velocity P-wave (km/s) = 6.77128 4.92100 5.91889
#
# Compressibility (1/GPa) = -0.16018596
#
# Stress axis : x y z
#
# Youngs Moduli (GPa) = -10.02356 80.60736 97.76547
#
# Poissons Ratio (x) = 3.88977 -0.27964
# Poissons Ratio (y) = -0.48369 -0.37814
# Poissons Ratio (z) = 0.02867 -0.31178
#
# Static dielectric constant tensor:
#      x y z
#    x 1.774770 0.000000 -0.064210 
#    y 0.000000 1.846980 0.000000 
#    z -0.064210 0.000000 1.908370 
# 
# From -- ./inp_files/11419.got.cif
#   From: 2010.05.17/outbox.cif.g08.bks.cpg/sg4_6_cif.got.tgz:11419.got - 2010.06.03 18:43:04.
