data_PCOD9114512
_publ_section_title
;
Structure prediction by ZEFSAII (Michael W. Deem and Ramdas Pophale) SiO2 
 PCOD9114512
Probable space group: P 21
;
_chemical_formula_sum "Si O2"
_cell_formula_units_Z 16
_cell_length_a 23.901451
_cell_length_b 7.686045
_cell_length_c 9.344464
_cell_angle_alpha 90.000000
_cell_angle_beta 151.107246
_cell_angle_gamma 90.000000
_cell_volume 829.436304
_symmetry_space_group_name_H-M "P 21"
_symmetry_group_IT_number 4
_symmetry_cell_setting 'monoclinic'
loop_
_space_group_symop_operation_xyz
x,y,z
-x,1/2+y,-z
loop_
_atom_site_type_symbol
_atom_site_label
_atom_site_fract_x
_atom_site_fract_y
_atom_site_fract_z
Si Si1 0.866176 0.219520 0.004833
Si Si2 0.655299 0.657498 0.603570
Si Si3 0.121132 0.338683 0.583885
Si Si4 0.150982 0.724161 0.687110
Si Si5 0.377930 0.830553 0.649497
Si Si6 0.698636 0.552671 0.028178
Si Si7 0.502903 0.485690 0.810894
Si Si8 0.889361 0.816437 0.093102
O O1 0.845601 0.240585 0.131046
O O2 0.988597 0.308146 0.240283
O O3 0.873057 0.011635 0.000792
O O4 0.758027 0.294233 0.677162
O O5 0.594216 0.498318 0.386693
O O6 0.589373 0.841163 0.446529
O O7 0.670387 0.600483 0.801067
O O8 0.781694 0.692970 0.815377
O O9 0.173754 0.529757 0.685038
O O10 0.206367 0.194810 0.711812
O O11 0.114014 0.317467 0.740753
O O12 0.018320 0.758501 0.344787
O O13 0.238871 0.866358 0.826639
O O14 0.441744 0.654771 0.741835
O O15 0.417706 0.887868 0.894931
O O16 0.583835 0.549354 0.863941
#
# Coordination Sequence:
#
# PCOD9114512 Si02
#       8
#     2   2   2   2   2   2   2   2
#     4  10  17  33  66  90 122 166 208 251 304 381
#     4  11  23  41  65  95 123 168 217 262 313 368
#     4   9  19  33  58  98 129 156 198 259 321 369
#     4  10  18  33  59  98 131 155 193 262 327 363
#     4  12  24  45  65  87 123 174 220 255 310 384
#     4  11  24  39  63  97 130 157 208 270 319 367
#     4  12  28  44  64  91 127 172 217 264 311 374
#     4   9  17  32  60  96 127 154 205 259 307 372
#
# _framework density 19.290208
#
# number of rings (size 3 to 8) (size 9 to 14) (size 15 to 20)
#    0.000    1.500    5.000    0.750    5.250    1.000 
#    0.000    0.000    5.500    0.000    0.000    0.000 
#    0.000    0.000    0.000    0.000    0.000    0.000 
#
# Total GULP energy -89312.268639 kJ/mol
# GULP energy per Si atom -5582.016790 kJ/mol
# Density = 1.924630 g / cm^3
# Si number density = 19.290208 Si / 1000 Ang^3
#
#
#
# Elastic Constant Matrix: (Units=GPa)
#
#
# Indices 1 2 3 4 5 6 
#
# 1 8.4822 -8.1086 1.7695 0.0000 -11.8725 0.0000
# 2 -8.1086 84.8422 10.8635 0.0000 -18.1977 0.0000
# 3 1.7695 10.8635 68.9936 0.0000 -6.8988 0.0000
# 4 0.0000 0.0000 0.0000 31.5197 0.0000 0.4050
# 5 -11.8725 -18.1977 -6.8988 0.0000 -3.2962 0.0000
# 6 0.0000 0.0000 0.0000 0.4050 0.0000 13.5600
#
#
#
# Elastic Compliance Matrix: (Units=1/GPa)
#
#
# Indices 1 2 3 4 5 6 
#
# 1 0.031661 -0.008456 -0.005140 0.000000 -0.056599 0.000000
# 2 -0.008456 0.008644 -0.002374 0.000000 -0.012299 0.000000
# 3 -0.005140 -0.002374 0.015018 0.000000 0.000187 0.000000
# 4 0.000000 0.000000 0.000000 0.031738 0.000000 -0.000948
# 5 -0.056599 -0.012299 0.000187 0.000000 -0.032009 0.000000
# 6 0.000000 0.000000 0.000000 -0.000948 0.000000 0.073775
#
#
# Mechanical properties :
#
#
# Convention : Reuss Voigt Hill
#
# Bulk Modulus (GPa) = 42.76362 19.04074 30.90218
# Shear Modulus (GPa) = 29.66250 18.87628 24.26939
#
# Velocity S-wave (km/s) = 3.92560 3.13156 3.55085
# Velocity P-wave (km/s) = 6.53941 4.79246 5.73286
#
# Compressibility (1/GPa) = 0.02338436
#
# Stress axis : x y z
#
# Youngs Moduli (GPa) = 31.58431 115.68125 66.58464
#
# Poissons Ratio (x) = 0.97818 0.34225
# Poissons Ratio (y) = 0.26707 0.15808
# Poissons Ratio (z) = 0.16235 0.27463
#
# Static dielectric constant tensor:
#      x y z
#    x 1.630510 0.000000 -0.007500 
#    y 0.000000 1.692420 0.000000 
#    z -0.007500 0.000000 1.690940 
# 
# From -- ./inp_files/9931.got.cif
#   From: 2010.05.17/outbox.cif.g08.bks.cpg/sg4_5_cif.got.tgz:9931.got - 2010.06.03 18:43:04.
