data_PCOD9114998
_publ_section_title
;
Structure prediction by ZEFSAII (Michael W. Deem and Ramdas Pophale) SiO2 
 PCOD9114998
Probable space group: P 21
;
_chemical_formula_sum "Si O2"
_cell_formula_units_Z 14
_cell_length_a 23.347176
_cell_length_b 5.215908
_cell_length_c 8.112428
_cell_angle_alpha 90.000000
_cell_angle_beta 34.658703
_cell_angle_gamma 90.000000
_cell_volume 561.808471
_symmetry_space_group_name_H-M "P 21"
_symmetry_group_IT_number 4
_symmetry_cell_setting 'monoclinic'
loop_
_space_group_symop_operation_xyz
x,y,z
-x,1/2+y,-z
loop_
_atom_site_type_symbol
_atom_site_label
_atom_site_fract_x
_atom_site_fract_y
_atom_site_fract_z
Si Si1 0.759991 0.128670 0.635975
Si Si2 0.688032 0.776094 0.544289
Si Si3 0.730386 0.520552 0.975411
Si Si4 0.881374 0.500000 0.130494
Si Si5 0.451841 0.327394 0.690342
Si Si6 0.080753 0.263323 0.607154
Si Si7 0.613877 0.291108 0.559033
O O1 0.707181 0.334694 0.875624
O O2 0.807676 0.278856 0.369661
O O3 0.698316 0.897808 0.701663
O O4 0.852109 0.013166 0.519322
O O5 0.805690 0.702099 0.225945
O O6 0.625983 0.514994 0.666429
O O7 0.643187 0.006239 0.543419
O O8 0.848338 0.592910 0.678947
O O9 0.660828 0.768764 0.106399
O O10 0.691242 0.387322 0.232971
O O11 0.924686 0.624384 0.199161
O O12 0.971107 0.365366 0.819759
O O13 0.486683 0.606147 0.551893
O O14 0.501683 0.296458 0.752328
#
# Coordination Sequence:
#
# PCOD9114998 Si02
#       7
#     2   2   2   2   2   2   2
#     4  10  21  40  68  97 134 168 228 274 329 385
#     4  11  23  41  69  96 136 183 213 265 348 420
#     4  10  24  39  72 105 127 168 239 291 314 392
#     4  10  19  38  65  97 130 181 220 265 333 400
#     4  10  22  42  70 100 128 171 226 280 337 398
#     4  10  20  35  68  98 132 168 230 281 319 379
#     4  11  23  43  70  97 137 181 218 274 350 404
#
# _framework density 24.919523999999999
#
# number of rings (size 3 to 8) (size 9 to 14) (size 15 to 20)
#    0.000    1.714    2.857    1.714    6.000    0.000 
#    0.000    0.000   15.714    0.000    0.000    0.000 
#    0.000    0.000    0.000    0.000    0.000    0.000 
#
# Total GULP energy -78262.958425 kJ/mol
# GULP energy per Si atom -5590.211316 kJ/mol
# Density = 2.486281 g / cm^3
# Si number density = 24.919524 Si / 1000 Ang^3
#
#
#
# Elastic Constant Matrix: (Units=GPa)
#
#
# Indices 1 2 3 4 5 6 
#
# 1 47.9505 20.7148 -0.8192 0.0000 -13.6228 0.0000
# 2 20.7148 113.8333 32.9626 0.0000 -18.0348 0.0000
# 3 -0.8192 32.9626 98.2659 0.0000 -16.8566 0.0000
# 4 0.0000 0.0000 0.0000 34.6486 0.0000 2.3836
# 5 -13.6228 -18.0348 -16.8566 0.0000 28.0655 0.0000
# 6 0.0000 0.0000 0.0000 2.3836 0.0000 61.4116
#
#
#
# Elastic Compliance Matrix: (Units=1/GPa)
#
#
# Indices 1 2 3 4 5 6 
#
# 1 0.026091 -0.003837 0.003628 0.000000 0.012378 0.000000
# 2 -0.003837 0.010907 -0.003130 0.000000 0.003266 0.000000
# 3 0.003628 -0.003130 0.012502 0.000000 0.007258 0.000000
# 4 0.000000 0.000000 0.000000 0.028938 0.000000 -0.001123
# 5 0.012378 0.003266 0.007258 0.000000 0.048097 0.000000
# 6 0.000000 0.000000 0.000000 -0.001123 0.000000 0.016327
#
#
# Mechanical properties :
#
#
# Convention : Reuss Voigt Hill
#
# Bulk Modulus (GPa) = 23.35346 40.64066 31.99706
# Shear Modulus (GPa) = 30.52208 38.63791 34.57999
#
# Velocity S-wave (km/s) = 3.50355 3.94192 3.72918
# Velocity P-wave (km/s) = 5.07527 6.08790 5.60450
#
# Compressibility (1/GPa) = 0.04282021
#
# Stress axis : x y z
#
# Youngs Moduli (GPa) = 38.32725 91.68424 79.98789
#
# Poissons Ratio (x) = 0.35184 -0.29020
# Poissons Ratio (y) = 0.14708 0.25040
# Poissons Ratio (z) = -0.13905 0.28701
#
# Static dielectric constant tensor:
#      x y z
#    x 1.978080 0.000000 0.024440 
#    y 0.000000 1.972280 0.000000 
#    z 0.024440 0.000000 2.064930 
# 
# From -- ./inp_files/8706.got.cif
#   From: 2010.05.17/outbox.cif.g08.bks.cpg/sg4_5_cif.got.tgz:8706.got - 2010.06.03 18:43:04.
