data_PCOD9114363
_publ_section_title
;
Structure prediction by ZEFSAII (Michael W. Deem and Ramdas Pophale) SiO2 
 PCOD9114363
Probable space group: P 2
;
_chemical_formula_sum "Si O2"
_cell_formula_units_Z 10
_cell_length_a 7.203108
_cell_length_b 5.281489
_cell_length_c 12.424638
_cell_angle_alpha 90.000000
_cell_angle_beta 73.594712
_cell_angle_gamma 90.000000
_cell_volume 453.428717
_symmetry_space_group_name_H-M "P 2"
_symmetry_group_IT_number 3
_symmetry_cell_setting 'monoclinic'
loop_
_space_group_symop_operation_xyz
x,y,z
-x,y,-z
loop_
_atom_site_type_symbol
_atom_site_label
_atom_site_fract_x
_atom_site_fract_y
_atom_site_fract_z
Si Si1 0.723449 0.342910 0.165110
Si Si2 0.417188 0.257932 0.396166
Si Si3 0.000000 0.962976 0.000000
Si Si4 0.115327 0.584362 0.166540
Si Si5 0.500000 0.465762 0.000000
Si Si6 0.812702 0.758900 0.604007
O O1 0.575030 0.237960 0.276129
O O2 0.613613 0.523697 0.096466
O O3 0.904534 0.460136 0.198174
O O4 0.827426 0.127844 0.077921
O O5 0.500000 0.201505 0.500000
O O6 0.340286 0.545440 0.407302
O O7 0.257314 0.046248 0.397888
O O8 0.906848 0.798271 0.920599
O O9 0.294775 0.407447 0.098397
O O10 0.151768 0.699787 0.276760
O O11 0.000000 0.720583 0.500000
#
# Coordination Sequence:
#
# PCOD9114363 Si02
#       6
#     2   2   1   2   1   2
#     4  12  27  47  73 110 154 196 254 312 373 453
#     4  12  29  51  80 111 151 202 255 317 380 450
#     4  12  26  42  76 106 154 196 238 324 366 448
#     4  12  27  47  73 110 154 196 254 312 373 453
#     4  12  22  50  68 110 150 196 248 298 390 442
#     4  12  29  51  80 111 151 202 255 317 380 450
#
# _framework density 22.054185
#
# number of rings (size 3 to 8) (size 9 to 14) (size 15 to 20)
#    0.000    0.000    6.000    2.400   14.000    0.000 
#    0.000    0.000    0.000    0.000    0.000    0.000 
#    0.000    0.000    0.000    0.000    0.000    0.000 
#
# Total GULP energy -55705.114130 kJ/mol
# GULP energy per Si atom -5570.511413 kJ/mol
# Density = 2.200399 g / cm^3
# Si number density = 22.054185 Si / 1000 Ang^3
#
#
#
# Elastic Constant Matrix: (Units=GPa)
#
#
# Indices 1 2 3 4 5 6 
#
# 1 90.7314 -14.1876 30.4218 0.0000 4.1898 0.0000
# 2 -14.1876 33.9486 -5.1615 0.0000 -4.9084 0.0000
# 3 30.4218 -5.1615 162.2602 0.0000 -1.5854 0.0000
# 4 0.0000 0.0000 0.0000 54.2525 0.0000 3.5031
# 5 4.1898 -4.9084 -1.5854 0.0000 63.7392 0.0000
# 6 0.0000 0.0000 0.0000 3.5031 0.0000 3.3962
#
#
#
# Elastic Compliance Matrix: (Units=1/GPa)
#
#
# Indices 1 2 3 4 5 6 
#
# 1 0.012539 0.004832 -0.002202 0.000000 -0.000507 0.000000
# 2 0.004832 0.031804 0.000127 0.000000 0.002135 0.000000
# 3 -0.002202 0.000127 0.006583 0.000000 0.000318 0.000000
# 4 0.000000 0.000000 0.000000 0.019748 0.000000 -0.020369
# 5 -0.000507 0.002135 0.000318 0.000000 0.015895 0.000000
# 6 0.000000 0.000000 0.000000 -0.020369 0.000000 0.315457
#
#
# Mechanical properties :
#
#
# Convention : Reuss Voigt Hill
#
# Bulk Modulus (GPa) = 17.71841 34.34284 26.03063
# Shear Modulus (GPa) = 12.03878 42.66875 27.35376
#
# Velocity S-wave (km/s) = 2.33893 4.40332 3.52561
# Velocity P-wave (km/s) = 3.91734 6.43880 5.32934
#
# Compressibility (1/GPa) = 0.05643847
#
# Stress axis : x y z
#
# Youngs Moduli (GPa) = 79.75178 31.44299 151.90757
#
# Poissons Ratio (x) = -0.15193 0.33452
# Poissons Ratio (y) = -0.38537 -0.01923
# Poissons Ratio (z) = 0.17562 -0.00398
#
# Static dielectric constant tensor:
#      x y z
#    x 1.837340 0.000000 -0.030370 
#    y 0.000000 1.836220 0.000000 
#    z -0.030370 0.000000 1.791170 
# 
# From -- ./inp_files/1914.got.cif
#   From: 2010.05.17/outbox.cif.g08.bks.cpg/sg3_1_cif.got.tgz:1914.got - 2010.06.03 18:33:08.
