data_PCOD9114975
_publ_section_title
;
Structure prediction by ZEFSAII (Michael W. Deem and Ramdas Pophale) SiO2 
 PCOD9114975
Probable space group: P 21
;
_chemical_formula_sum "Si O2"
_cell_formula_units_Z 16
_cell_length_a 7.622360
_cell_length_b 15.692471
_cell_length_c 5.518140
_cell_angle_alpha 90.000000
_cell_angle_beta 62.200012
_cell_angle_gamma 90.000000
_cell_volume 583.863261
_symmetry_space_group_name_H-M "P 21"
_symmetry_group_IT_number 4
_symmetry_cell_setting 'monoclinic'
loop_
_space_group_symop_operation_xyz
x,y,z
-x,1/2+y,-z
loop_
_atom_site_type_symbol
_atom_site_label
_atom_site_fract_x
_atom_site_fract_y
_atom_site_fract_z
Si Si1 0.559785 0.084480 0.224726
Si Si2 0.937921 0.085639 0.672132
Si Si3 0.560304 0.386726 0.798405
Si Si4 0.696418 0.535916 0.232890
Si Si5 0.214305 0.167175 0.186737
Si Si6 0.938434 0.809727 0.030669
Si Si7 0.386562 0.836208 0.738469
Si Si8 0.961479 0.904723 0.511156
O O1 0.505370 0.080625 0.544338
O O2 0.414018 0.158798 0.215559
O O3 0.517161 0.984375 0.176403
O O4 0.772284 0.102134 0.977354
O O5 0.137770 0.055510 0.676874
O O6 0.014060 0.167804 0.475741
O O7 0.884702 0.001940 0.549039
O O8 0.516126 0.330099 0.588407
O O9 0.799929 0.394088 0.654487
O O10 0.497342 0.337191 0.082829
O O11 0.669561 0.436777 0.230517
O O12 0.775605 0.573644 0.936802
O O13 0.181220 0.227510 0.980094
O O14 0.909609 0.872265 0.816349
O O15 0.175317 0.789269 0.884341
O O16 0.889626 0.852826 0.320400
#
# Coordination Sequence:
#
# PCOD9114975 Si02
#       8
#     2   2   2   2   2   2   2   2
#     4  10  21  36  61  92 120 158 207 271 307 371
#     4  11  22  38  67  93 123 162 225 263 309 378
#     4   9  15  32  56  82 110 147 194 248 299 345
#     4  10  19  38  60  89 118 163 208 263 312 375
#     4  11  22  39  64  89 126 173 206 260 329 385
#     4  10  21  34  65  87 125 170 207 259 329 376
#     4   9  15  32  57  81 110 151 203 244 294 365
#     4  10  19  39  62  93 118 166 220 262 309 387
#
# _framework density 27.403676000000001
#
# number of rings (size 3 to 8) (size 9 to 14) (size 15 to 20)
#    0.000    2.000    6.250    0.750    3.500    1.000 
#    0.000    0.000   13.750    0.000    0.000    0.000 
#    0.000    0.000    0.000    0.000    0.000    0.000 
#
# Total GULP energy -89487.045397 kJ/mol
# GULP energy per Si atom -5592.940337 kJ/mol
# Density = 2.734130 g / cm^3
# Si number density = 27.403676 Si / 1000 Ang^3
#
#
#
# Elastic Constant Matrix: (Units=GPa)
#
#
# Indices 1 2 3 4 5 6 
#
# 1 75.4704 -0.4708 37.8789 0.0000 -7.5623 0.0000
# 2 -0.4708 80.0782 27.1398 0.0000 -9.7462 0.0000
# 3 37.8789 27.1398 162.2734 0.0000 7.4542 0.0000
# 4 0.0000 0.0000 0.0000 37.3954 0.0000 10.8361
# 5 -7.5623 -9.7462 7.4542 0.0000 49.0203 0.0000
# 6 0.0000 0.0000 0.0000 10.8361 0.0000 25.9540
#
#
#
# Elastic Compliance Matrix: (Units=1/GPa)
#
#
# Indices 1 2 3 4 5 6 
#
# 1 0.015683 0.001912 -0.004138 0.000000 0.003429 0.000000
# 2 0.001912 0.013921 -0.002936 0.000000 0.003509 0.000000
# 3 -0.004138 -0.002936 0.007729 0.000000 -0.002397 0.000000
# 4 0.000000 0.000000 0.000000 0.030422 0.000000 -0.012701
# 5 0.003429 0.003509 -0.002397 0.000000 0.021991 0.000000
# 6 0.000000 0.000000 0.000000 -0.012701 0.000000 0.043833
#
#
# Mechanical properties :
#
#
# Convention : Reuss Voigt Hill
#
# Bulk Modulus (GPa) = 37.02395 49.65754 43.34075
# Shear Modulus (GPa) = 32.69994 39.35887 36.02940
#
# Velocity S-wave (km/s) = 3.45812 3.79392 3.62990
# Velocity P-wave (km/s) = 5.42998 6.11161 5.78085
#
# Compressibility (1/GPa) = 0.02700954
#
# Stress axis : x y z
#
# Youngs Moduli (GPa) = 63.76493 71.83338 129.37476
#
# Poissons Ratio (x) = -0.13734 0.53535
# Poissons Ratio (y) = -0.12191 0.37981
# Poissons Ratio (z) = 0.26386 0.21089
#
# Static dielectric constant tensor:
#      x y z
#    x 2.209380 0.000000 0.067850 
#    y 0.000000 2.141430 0.000000 
#    z 0.067850 0.000000 2.214500 
# 
# From -- ./inp_files/2153.got.cif
#   From: 2010.05.17/outbox.cif.g08.bks.cpg/sg4_2_cif.got.tgz:2153.got - 2010.06.03 18:43:04.
