data_PCOD9114208
_publ_section_title
;
Structure prediction by ZEFSAII (Michael W. Deem and Ramdas Pophale) SiO2 
 PCOD9114208
Probable space group: P 2
;
_chemical_formula_sum "Si O2"
_cell_formula_units_Z 10
_cell_length_a 9.552840
_cell_length_b 11.521196
_cell_length_c 7.999454
_cell_angle_alpha 90.000000
_cell_angle_beta 148.761938
_cell_angle_gamma 90.000000
_cell_volume 456.582056
_symmetry_space_group_name_H-M "P 2"
_symmetry_group_IT_number 3
_symmetry_cell_setting 'monoclinic'
loop_
_space_group_symop_operation_xyz
x,y,z
-x,y,-z
loop_
_atom_site_type_symbol
_atom_site_label
_atom_site_fract_x
_atom_site_fract_y
_atom_site_fract_z
Si Si1 0.889766 0.939420 0.701460
Si Si2 0.123933 0.687636 0.441415
Si Si3 0.606348 0.073743 0.918033
Si Si4 0.627224 0.559072 0.812077
Si Si5 0.258579 0.328407 0.882521
O O1 0.799181 0.818738 0.526510
O O2 0.639268 0.027458 0.444017
O O3 0.000000 0.920194 0.000000
O O4 0.134115 0.993925 0.844965
O O5 0.384407 0.607273 0.679944
O O6 0.000000 0.678829 0.500000
O O7 0.876791 0.647727 0.071400
O O8 0.500000 0.067584 0.000000
O O9 0.690203 0.206710 0.972423
O O10 0.500000 0.547239 0.500000
O O11 0.744116 0.437873 0.998613
O O12 0.000000 0.318491 0.500000
O O13 0.500000 0.346985 0.000000
#
# Coordination Sequence:
#
# PCOD9114208 Si02
#       5
#     2   2   2   2   2
#     4  12  25  42  65  96 133 168 210 266 324 376
#     4  12  25  44  67  93 129 173 217 258 314 385
#     4  11  23  43  67  94 126 170 219 261 312 379
#     4  12  25  42  66  98 132 165 211 268 323 374
#     4  11  23  43  68  93 127 170 216 261 312 380
#
# _framework density 21.901866999999999
#
# number of rings (size 3 to 8) (size 9 to 14) (size 15 to 20)
#    0.000    0.400    0.000   11.400    0.000    1.600 
#    0.000    0.000    0.000    0.000    0.000    0.000 
#    0.000    0.000    0.000    0.000    0.000    0.000 
#
# Total GULP energy -56034.982684 kJ/mol
# GULP energy per Si atom -5603.498268 kJ/mol
# Density = 2.185202 g / cm^3
# Si number density = 21.901867 Si / 1000 Ang^3
#
#
#
# Elastic Constant Matrix: (Units=GPa)
#
#
# Indices 1 2 3 4 5 6 
#
# 1 69.1874 38.3041 19.3096 0.0000 2.7183 0.0000
# 2 38.3041 138.4970 40.7203 0.0000 -1.2358 0.0000
# 3 19.3096 40.7203 118.8435 0.0000 17.2906 0.0000
# 4 0.0000 0.0000 0.0000 38.2051 0.0000 -3.0351
# 5 2.7183 -1.2358 17.2906 0.0000 39.3244 0.0000
# 6 0.0000 0.0000 0.0000 -3.0351 0.0000 3.0579
#
#
#
# Elastic Compliance Matrix: (Units=1/GPa)
#
#
# Indices 1 2 3 4 5 6 
#
# 1 0.017270 -0.004441 -0.001165 0.000000 -0.000821 0.000000
# 2 -0.004441 0.009262 -0.002713 0.000000 0.001791 0.000000
# 3 -0.001165 -0.002713 0.010185 0.000000 -0.004483 0.000000
# 4 0.000000 0.000000 0.000000 0.028415 0.000000 0.028202
# 5 -0.000821 0.001791 -0.004483 0.000000 0.027514 0.000000
# 6 0.000000 0.000000 0.000000 0.028202 0.000000 0.355008
#
#
# Mechanical properties :
#
#
# Convention : Reuss Voigt Hill
#
# Bulk Modulus (GPa) = 49.80015 58.13289 53.96652
# Shear Modulus (GPa) = 10.61607 31.33042 20.97325
#
# Velocity S-wave (km/s) = 2.20400 3.78629 3.09787
# Velocity P-wave (km/s) = 5.40963 6.76126 6.12286
#
# Compressibility (1/GPa) = 0.02008026
#
# Stress axis : x y z
#
# Youngs Moduli (GPa) = 57.90534 107.96627 98.18030
#
# Poissons Ratio (x) = 0.47949 0.11436
# Poissons Ratio (y) = 0.25716 0.26632
# Poissons Ratio (z) = 0.06745 0.29286
#
# Static dielectric constant tensor:
#      x y z
#    x 1.780680 0.000000 -0.012250 
#    y 0.000000 1.793940 0.000000 
#    z -0.012250 0.000000 1.761220 
# 
# From -- ./inp_files/5688.got.cif
#   From: 2010.05.17/outbox.cif.g08.bks.cpg/sg3_3_cif.got.tgz:5688.got - 2010.06.03 18:33:08.
