data_PCOD9114914
_publ_section_title
;
Structure prediction by ZEFSAII (Michael W. Deem and Ramdas Pophale) SiO2 
 PCOD9114914
Probable space group: P 21
;
_chemical_formula_sum "Si O2"
_cell_formula_units_Z 16
_cell_length_a 17.058586
_cell_length_b 5.369544
_cell_length_c 17.503701
_cell_angle_alpha 90.000000
_cell_angle_beta 155.745317
_cell_angle_gamma 90.000000
_cell_volume 658.618233
_symmetry_space_group_name_H-M "P 21"
_symmetry_group_IT_number 4
_symmetry_cell_setting 'monoclinic'
loop_
_space_group_symop_operation_xyz
x,y,z
-x,1/2+y,-z
loop_
_atom_site_type_symbol
_atom_site_label
_atom_site_fract_x
_atom_site_fract_y
_atom_site_fract_z
Si Si1 0.763806 0.522580 0.379000
Si Si2 0.485409 0.604169 0.437357
Si Si3 0.004100 0.585746 0.198750
Si Si4 0.233876 0.522081 0.658777
Si Si5 0.351718 0.513831 0.938988
Si Si6 0.919956 0.970161 0.909102
Si Si7 0.661701 0.514263 0.987450
Si Si8 0.791584 0.591274 0.574954
O O1 0.872863 0.269654 0.460245
O O2 0.705677 0.536399 0.415387
O O3 0.874952 0.770805 0.457073
O O4 0.580060 0.517280 0.159775
O O5 0.515685 0.371389 0.521825
O O6 0.271891 0.553833 0.219439
O O7 0.634235 0.597021 0.501302
O O8 0.070419 0.546683 0.170832
O O9 0.107388 0.360850 0.335709
O O10 0.778491 0.545922 0.013021
O O11 0.068261 0.860308 0.281626
O O12 0.306645 0.527330 0.810058
O O13 0.430194 0.516331 0.781543
O O14 0.283128 0.254903 0.913536
O O15 0.280922 0.756891 0.920928
O O16 0.067234 0.170996 0.075493
#
# Coordination Sequence:
#
# PCOD9114914 Si02
#       8
#     2   2   2   2   2   2   2   2
#     4  10  20  33  59  93 117 152 211 258 309 369
#     4  12  23  46  72  94 129 184 226 252 337 414
#     4  12  25  43  62  88 133 169 205 267 337 383
#     4  10  19  36  63  89 123 158 205 269 325 378
#     4  10  19  37  63  89 121 161 205 266 326 383
#     4  12  26  43  69 102 131 164 223 285 329 387
#     4  10  20  34  60  87 119 158 204 246 330 379
#     4  12  24  42  66  88 127 174 219 259 307 409
#
# _framework density 24.293285999999998
#
# number of rings (size 3 to 8) (size 9 to 14) (size 15 to 20)
#    0.000    1.000    2.500    6.750    0.000    4.000 
#    0.000    0.000    0.000   25.500    0.000    0.000 
#    0.000    0.000    0.000    0.000    0.000    0.000 
#
# Total GULP energy -89507.350186 kJ/mol
# GULP energy per Si atom -5594.209387 kJ/mol
# Density = 2.423799 g / cm^3
# Si number density = 24.293286 Si / 1000 Ang^3
#
#
#
# Elastic Constant Matrix: (Units=GPa)
#
#
# Indices 1 2 3 4 5 6 
#
# 1 96.9020 10.2494 9.8706 0.0000 13.9621 0.0000
# 2 10.2494 187.2699 -2.8563 0.0000 -14.9846 0.0000
# 3 9.8706 -2.8563 42.0799 0.0000 4.2339 0.0000
# 4 0.0000 0.0000 0.0000 21.5522 0.0000 -9.6079
# 5 13.9621 -14.9846 4.2339 0.0000 42.5841 0.0000
# 6 0.0000 0.0000 0.0000 -9.6079 0.0000 27.6480
#
#
#
# Elastic Compliance Matrix: (Units=1/GPa)
#
#
# Indices 1 2 3 4 5 6 
#
# 1 0.011200 -0.000950 -0.002312 0.000000 -0.003777 0.000000
# 2 -0.000950 0.005577 0.000376 0.000000 0.002237 0.000000
# 3 -0.002312 0.000376 0.024487 0.000000 -0.001544 0.000000
# 4 0.000000 0.000000 0.000000 0.054905 0.000000 0.019080
# 5 -0.003777 0.002237 -0.001544 0.000000 0.025662 0.000000
# 6 0.000000 0.000000 0.000000 0.019080 0.000000 0.042799
#
#
# Mechanical properties :
#
#
# Convention : Reuss Voigt Hill
#
# Bulk Modulus (GPa) = 28.17483 40.08659 34.13071
# Shear Modulus (GPa) = 27.43757 38.95606 33.19682
#
# Velocity S-wave (km/s) = 3.36435 4.00881 3.70063
# Velocity P-wave (km/s) = 5.16863 6.16152 5.68678
#
# Compressibility (1/GPa) = 0.03549267
#
# Stress axis : x y z
#
# Youngs Moduli (GPa) = 89.28672 179.32066 40.83720
#
# Poissons Ratio (x) = 0.17043 0.09440
# Poissons Ratio (y) = 0.08486 -0.01537
# Poissons Ratio (z) = 0.20640 -0.06750
#
# Static dielectric constant tensor:
#      x y z
#    x 1.875560 0.000000 0.020570 
#    y 0.000000 2.050590 0.000000 
#    z 0.020570 0.000000 1.970920 
# 
# From -- ./inp_files/14119.got.cif
#   From: 2010.05.17/outbox.cif.g08.bks.cpg/sg4_8_cif.got.tgz:14119.got - 2010.06.03 18:43:04.
