data_PCOD9114432
_publ_section_title
;
Structure prediction by ZEFSAII (Michael W. Deem and Ramdas Pophale) SiO2 
 PCOD9114432
Probable space group: P 2
;
_chemical_formula_sum "Si O2"
_cell_formula_units_Z 14
_cell_length_a 9.000000
_cell_length_b 6.000000
_cell_length_c 12.000000
_cell_angle_alpha 90.000000
_cell_angle_beta 80.000000
_cell_angle_gamma 90.000000
_cell_volume 638.155424
_symmetry_space_group_name_H-M "P 2"
_symmetry_group_IT_number 3
_symmetry_cell_setting 'monoclinic'
loop_
_space_group_symop_operation_xyz
x,y,z
-x,y,-z
loop_
_atom_site_type_symbol
_atom_site_label
_atom_site_fract_x
_atom_site_fract_y
_atom_site_fract_z
Si Si1 0.333458 0.273910 0.529274
Si Si2 0.910153 0.634258 0.405117
Si Si3 0.843251 0.673056 0.801706
Si Si4 0.160726 0.977425 0.986287
Si Si5 0.698920 0.928436 0.278731
Si Si6 0.378004 0.981823 0.304031
Si Si7 0.622050 0.290151 0.899963
O O1 0.500000 0.382639 0.500000
O O2 0.193423 0.437079 0.534033
O O3 0.336862 0.094954 0.427088
O O4 0.318791 0.164431 0.654163
O O5 0.800420 0.798613 0.353857
O O6 0.000000 0.728462 0.500000
O O7 0.024272 0.570698 0.290603
O O8 0.725900 0.481957 0.841164
O O9 0.762646 0.856694 0.733298
O O10 0.877666 0.780541 0.918807
O O11 0.224739 0.926993 0.853881
O O12 0.285272 0.120317 0.034236
O O13 0.000000 0.102505 0.000000
O O14 0.528420 0.832995 0.297490
O O15 0.431730 0.157103 0.201871
O O16 0.500000 0.388544 0.000000
#
# Coordination Sequence:
#
# PCOD9114432 Si02
#       7
#     2   2   2   2   2   2   2
#     4  10  25  45  70  96 132 178 229 284 339 403
#     4  12  26  43  67 100 133 175 228 282 347 404
#     4  11  26  41  70 104 140 178 226 284 339 407
#     4  11  24  45  65 100 144 179 225 274 342 407
#     4  11  24  44  70  94 134 183 223 276 339 406
#     4  10  23  47  68 100 136 178 231 282 338 402
#     4  11  24  41  70 100 136 184 229 279 336 405
#
# _framework density 21.938229
#
# number of rings (size 3 to 8) (size 9 to 14) (size 15 to 20)
#    0.000    1.143    2.857    1.714    4.000    8.571 
#    0.000    0.000    0.000    0.000    0.000    0.000 
#    0.000    0.000    0.000    0.000    0.000    0.000 
#
# Total GULP energy -78151.855213 kJ/mol
# GULP energy per Si atom -5582.275372 kJ/mol
# Density = 2.188830 g / cm^3
# Si number density = 21.938229 Si / 1000 Ang^3
#
#
#
# Elastic Constant Matrix: (Units=GPa)
#
#
# Indices 1 2 3 4 5 6 
#
# 1 104.4476 21.6838 69.5519 0.0000 -12.9912 0.0000
# 2 21.6838 25.4463 36.5271 0.0000 -10.3076 0.0000
# 3 69.5519 36.5271 190.9439 0.0000 -6.4230 0.0000
# 4 0.0000 0.0000 0.0000 21.1455 0.0000 -10.8677
# 5 -12.9912 -10.3076 -6.4230 0.0000 57.4244 0.0000
# 6 0.0000 0.0000 0.0000 -10.8677 0.0000 27.7599
#
#
#
# Elastic Compliance Matrix: (Units=1/GPa)
#
#
# Indices 1 2 3 4 5 6 
#
# 1 0.013423 -0.005275 -0.003824 0.000000 0.001662 0.000000
# 2 -0.005275 0.060835 -0.009424 0.000000 0.008672 0.000000
# 3 -0.003824 -0.009424 0.008378 0.000000 -0.001620 0.000000
# 4 0.000000 0.000000 0.000000 0.059203 0.000000 0.023178
# 5 0.001662 0.008672 -0.001620 0.000000 0.019166 0.000000
# 6 0.000000 0.000000 0.000000 0.023178 0.000000 0.045097
#
#
# Mechanical properties :
#
#
# Convention : Reuss Voigt Hill
#
# Bulk Modulus (GPa) = 21.93544 64.04036 42.98790
# Shear Modulus (GPa) = 19.35394 34.13763 26.74579
#
# Velocity S-wave (km/s) = 2.97341 3.94900 3.49541
# Velocity P-wave (km/s) = 4.66997 7.07442 5.99400
#
# Compressibility (1/GPa) = 0.04558832
#
# Stress axis : x y z
#
# Youngs Moduli (GPa) = 74.50133 16.43800 119.35373
#
# Poissons Ratio (x) = 0.08671 0.45643
# Poissons Ratio (y) = 0.39301 1.12482
# Poissons Ratio (z) = 0.28491 0.15492
#
# Static dielectric constant tensor:
#      x y z
#    x 1.881400 0.000000 0.027810 
#    y 0.000000 1.845500 0.000000 
#    z 0.027810 0.000000 1.769670 
# 
# From -- ./inp_files/6709.got.cif
#   From: 2010.05.17/outbox.ucp.g08.bks.cvg/sg3_4_cif.got.tgz:6709.got - 2010.06.11 12:50:29.
