data_PCOD9114071
_publ_section_title
;
Structure prediction by ZEFSAII (Michael W. Deem and Ramdas Pophale) SiO2 
 PCOD9114071
Probable space group: P 2
;
_chemical_formula_sum "Si O2"
_cell_formula_units_Z 10
_cell_length_a 9.049827
_cell_length_b 4.872557
_cell_length_c 15.260070
_cell_angle_alpha 90.000000
_cell_angle_beta 35.190164
_cell_angle_gamma 90.000000
_cell_volume 387.789766
_symmetry_space_group_name_H-M "P 2"
_symmetry_group_IT_number 3
_symmetry_cell_setting 'monoclinic'
loop_
_space_group_symop_operation_xyz
x,y,z
-x,y,-z
loop_
_atom_site_type_symbol
_atom_site_label
_atom_site_fract_x
_atom_site_fract_y
_atom_site_fract_z
Si Si1 0.217428 0.057340 0.823033
Si Si2 0.408544 0.378074 0.454581
Si Si3 0.275044 0.441462 0.177869
Si Si4 0.719399 0.724635 0.639721
Si Si5 0.046011 0.935362 0.713801
O O1 0.332617 0.333892 0.726742
O O2 0.095505 0.938499 0.793259
O O3 0.469247 0.907808 0.740821
O O4 0.000000 0.089349 0.000000
O O5 0.500000 0.522073 0.500000
O O6 0.245527 0.520651 0.458925
O O7 0.722321 0.092478 0.449337
O O8 0.334880 0.547222 0.246493
O O9 0.191506 0.126081 0.204411
O O10 0.033220 0.626260 0.267052
O O11 0.500000 0.499075 0.000000
O O12 0.000000 0.874622 0.500000
#
# Coordination Sequence:
#
# PCOD9114071 Si02
#       5
#     2   2   2   2   2
#     4  11  27  46  78 111 156 204 266 322 392 468
#     4  10  25  45  74 106 151 205 261 321 383 471
#     4  12  27  47  78 113 162 201 258 326 400 455
#     4  12  26  45  78 113 155 205 263 323 391 465
#     4  11  26  50  74 112 157 208 258 319 391 474
#
# _framework density 25.787168999999999
#
# number of rings (size 3 to 8) (size 9 to 14) (size 15 to 20)
#    0.000    0.800    2.000    3.000   11.200    2.400 
#    0.000    0.000    0.000    0.000    0.000    0.000 
#    0.000    0.000    0.000    0.000    0.000    0.000 
#
# Total GULP energy -55932.378802 kJ/mol
# GULP energy per Si atom -5593.237880 kJ/mol
# Density = 2.572848 g / cm^3
# Si number density = 25.787169 Si / 1000 Ang^3
#
#
#
# Elastic Constant Matrix: (Units=GPa)
#
#
# Indices 1 2 3 4 5 6 
#
# 1 153.0057 7.8030 67.6052 0.0000 28.2719 0.0000
# 2 7.8030 50.3335 5.7978 0.0000 7.2726 0.0000
# 3 67.6052 5.7978 238.2716 0.0000 30.5549 0.0000
# 4 0.0000 0.0000 0.0000 21.6909 0.0000 -4.5202
# 5 28.2719 7.2726 30.5549 0.0000 27.1435 0.0000
# 6 0.0000 0.0000 0.0000 -4.5202 0.0000 49.4730
#
#
#
# Elastic Compliance Matrix: (Units=1/GPa)
#
#
# Indices 1 2 3 4 5 6 
#
# 1 0.008527 -0.000114 -0.001498 0.000000 -0.007165 0.000000
# 2 -0.000114 0.020681 0.000262 0.000000 -0.005718 0.000000
# 3 -0.001498 0.000262 0.005171 0.000000 -0.004331 0.000000
# 4 0.000000 0.000000 0.000000 0.046997 0.000000 0.004294
# 5 -0.007165 -0.005718 -0.004331 0.000000 0.050711 0.000000
# 6 0.000000 0.000000 0.000000 0.004294 0.000000 0.020605
#
#
# Mechanical properties :
#
#
# Convention : Reuss Voigt Hill
#
# Bulk Modulus (GPa) = 31.56571 67.11366 49.33969
# Shear Modulus (GPa) = 30.12913 43.68846 36.90879
#
# Velocity S-wave (km/s) = 3.42186 4.12052 3.78734
# Velocity P-wave (km/s) = 5.28011 6.98003 6.18872
#
# Compressibility (1/GPa) = 0.03167995
#
# Stress axis : x y z
#
# Youngs Moduli (GPa) = 117.27048 48.35336 193.39072
#
# Poissons Ratio (x) = 0.00552 0.28967
# Poissons Ratio (y) = 0.01339 -0.05074
# Poissons Ratio (z) = 0.17566 -0.01269
#
# Static dielectric constant tensor:
#      x y z
#    x 2.072140 0.000000 -0.092340 
#    y 0.000000 2.095570 0.000000 
#    z -0.092340 0.000000 2.048700 
# 
# From -- ./inp_files/4772.got.cif
#   From: 2010.05.17/outbox.cif.g08.bks.cpg/sg3_3_cif.got.tgz:4772.got - 2010.06.03 18:33:08.
