data_PCOD9114322
_publ_section_title
;
Structure prediction by ZEFSAII (Michael W. Deem and Ramdas Pophale) SiO2 
 PCOD9114322
Probable space group: P 2
;
_chemical_formula_sum "Si O2"
_cell_formula_units_Z 13
_cell_length_a 14.940656
_cell_length_b 6.654847
_cell_length_c 9.126451
_cell_angle_alpha 90.000000
_cell_angle_beta 141.908693
_cell_angle_gamma 90.000000
_cell_volume 559.804049
_symmetry_space_group_name_H-M "P 2"
_symmetry_group_IT_number 3
_symmetry_cell_setting 'monoclinic'
loop_
_space_group_symop_operation_xyz
x,y,z
-x,y,-z
loop_
_atom_site_type_symbol
_atom_site_label
_atom_site_fract_x
_atom_site_fract_y
_atom_site_fract_z
Si Si1 0.869292 0.908960 0.550770
Si Si2 0.000000 0.240414 0.500000
Si Si3 0.739407 0.279312 0.823825
Si Si4 0.000000 0.066838 0.000000
Si Si5 0.355655 0.785846 0.955165
Si Si6 0.877803 0.598467 0.157467
Si Si7 0.500000 0.412515 0.000000
Si Si8 0.489707 0.150219 0.717487
O O1 0.711224 0.873645 0.280266
O O2 0.968128 0.708109 0.659897
O O3 0.926988 0.092902 0.524344
O O4 0.890968 0.953958 0.749460
O O5 0.099255 0.397911 0.716779
O O6 0.644282 0.220198 0.844965
O O7 0.629593 0.208585 0.555639
O O8 0.786763 0.513167 0.902348
O O9 0.892333 0.180015 0.973651
O O10 0.221089 0.761624 0.890740
O O11 0.404265 0.564848 0.971775
O O12 0.473967 0.922962 0.187116
O O13 0.438789 0.268165 0.796704
#
# Coordination Sequence:
#
# PCOD9114322 Si02
#       8
#     2   1   2   1   2   2   1   2
#     4  12  26  43  76 113 153 198 248 321 385 460
#     4  12  20  44  76 110 148 196 248 308 390 448
#     4  11  26  51  74 105 155 207 244 317 395 454
#     4  12  28  44  72 114 152 200 244 318 392 452
#     4  12  25  46  76 112 146 196 266 314 376 467
#     4  12  23  46  78 112 144 201 258 311 390 466
#     4  12  28  44  76 112 134 206 256 320 368 458
#     4  11  27  52  75 107 156 202 254 320 388 451
#
# _framework density 23.22241
#
# number of rings (size 3 to 8) (size 9 to 14) (size 15 to 20)
#    0.000    0.308    6.154    2.308    4.308    3.077 
#    5.538    0.000    0.000    0.000    0.000    0.000 
#    0.000    0.000    0.000    0.000    0.000    0.000 
#
# Total GULP energy -72515.551674 kJ/mol
# GULP energy per Si atom -5578.119360 kJ/mol
# Density = 2.316956 g / cm^3
# Si number density = 23.222410 Si / 1000 Ang^3
#
#
#
# Elastic Constant Matrix: (Units=GPa)
#
#
# Indices 1 2 3 4 5 6 
#
# 1 51.2427 25.5065 14.0770 0.0000 -2.3519 0.0000
# 2 25.5065 101.8011 36.0396 0.0000 -9.0509 0.0000
# 3 14.0770 36.0396 85.2728 0.0000 -15.6287 0.0000
# 4 0.0000 0.0000 0.0000 39.9082 0.0000 -2.9502
# 5 -2.3519 -9.0509 -15.6287 0.0000 38.9306 0.0000
# 6 0.0000 0.0000 0.0000 -2.9502 0.0000 18.2804
#
#
#
# Elastic Compliance Matrix: (Units=1/GPa)
#
#
# Indices 1 2 3 4 5 6 
#
# 1 0.022480 -0.005092 -0.001648 0.000000 -0.000488 0.000000
# 2 -0.005092 0.012727 -0.004374 0.000000 0.000895 0.000000
# 3 -0.001648 -0.004374 0.014727 0.000000 0.004796 0.000000
# 4 0.000000 0.000000 0.000000 0.025360 0.000000 0.004093
# 5 -0.000488 0.000895 0.004796 0.000000 0.027791 0.000000
# 6 0.000000 0.000000 0.000000 0.004093 0.000000 0.055364
#
#
# Mechanical properties :
#
#
# Convention : Reuss Voigt Hill
#
# Bulk Modulus (GPa) = 36.09518 43.28476 39.68997
# Shear Modulus (GPa) = 26.32785 30.27007 28.29896
#
# Velocity S-wave (km/s) = 3.37074 3.61430 3.49464
# Velocity P-wave (km/s) = 5.54312 6.00810 5.78028
#
# Compressibility (1/GPa) = 0.02770453
#
# Stress axis : x y z
#
# Youngs Moduli (GPa) = 44.48375 78.57230 67.90335
#
# Poissons Ratio (x) = 0.40011 0.11192
# Poissons Ratio (y) = 0.22652 0.29703
# Poissons Ratio (z) = 0.07332 0.34370
#
# Static dielectric constant tensor:
#      x y z
#    x 1.910070 0.000000 0.002190 
#    y 0.000000 1.891840 0.000000 
#    z 0.002190 0.000000 1.959700 
# 
# From -- ./inp_files/8447.got.cif
#   From: 2010.05.17/outbox.cif.g08.bks.cpg/sg3_5_cif.got.tgz:8447.got - 2010.06.03 18:33:08.
