data_PCOD9114010
_publ_section_title
;
Structure prediction by ZEFSAII (Michael W. Deem and Ramdas Pophale) SiO2 
 PCOD9114010
Probable space group: P 2
;
_chemical_formula_sum "Si O2"
_cell_formula_units_Z 10
_cell_length_a 7.864418
_cell_length_b 9.817678
_cell_length_c 6.060667
_cell_angle_alpha 90.000000
_cell_angle_beta 70.474213
_cell_angle_gamma 90.000000
_cell_volume 441.035025
_symmetry_space_group_name_H-M "P 2"
_symmetry_group_IT_number 3
_symmetry_cell_setting 'monoclinic'
loop_
_space_group_symop_operation_xyz
x,y,z
-x,y,-z
loop_
_atom_site_type_symbol
_atom_site_label
_atom_site_fract_x
_atom_site_fract_y
_atom_site_fract_z
Si Si1 0.793671 0.372840 0.015155
Si Si2 0.329129 0.129912 0.214160
Si Si3 0.818965 0.609844 0.706224
Si Si4 0.000000 0.791238 0.000000
Si Si5 0.500000 0.326346 0.500000
Si Si6 0.802720 0.862659 0.483104
O O1 0.655119 0.393629 0.279096
O O2 0.786101 0.221305 0.908618
O O3 0.732480 0.476348 0.847783
O O4 0.000000 0.398869 0.000000
O O5 0.391423 0.232051 0.377272
O O6 0.262688 0.996859 0.369692
O O7 0.500000 0.084468 0.000000
O O8 0.713856 0.718121 0.594540
O O9 0.000000 0.562798 0.500000
O O10 0.884942 0.695298 0.889910
O O11 0.148795 0.874247 0.795191
O O12 0.000000 0.843154 0.500000
#
# Coordination Sequence:
#
# PCOD9114010 Si02
#       6
#     2   2   2   1   1   2
#     4  11  24  41  70  94 132 174 216 268 327 379
#     4  10  24  45  59  94 133 169 218 264 324 384
#     4   9  19  36  61  95 124 161 214 264 315 391
#     4   8  16  34  56  96 120 154 210 256 316 380
#     4  10  26  42  62  96 134 170 220 276 304 400
#     4   9  20  36  64  90 125 161 210 266 312 388
#
# _framework density 22.673936000000001
#
# number of rings (size 3 to 8) (size 9 to 14) (size 15 to 20)
#    0.000    2.800    1.000    0.000    5.600    6.400 
#    1.800    5.000    0.000    1.200    0.000    0.000 
#    0.000    0.000    0.000    0.000    0.000    0.000 
#
# Total GULP energy -55696.365152 kJ/mol
# GULP energy per Si atom -5569.636515 kJ/mol
# Density = 2.262233 g / cm^3
# Si number density = 22.673936 Si / 1000 Ang^3
#
#
#
# Elastic Constant Matrix: (Units=GPa)
#
#
# Indices 1 2 3 4 5 6 
#
# 1 43.6591 21.0379 18.4212 0.0000 -4.3829 0.0000
# 2 21.0379 117.8163 75.8765 0.0000 -29.2776 0.0000
# 3 18.4212 75.8765 180.4175 0.0000 -26.2563 0.0000
# 4 0.0000 0.0000 0.0000 42.6667 0.0000 7.0457
# 5 -4.3829 -29.2776 -26.2563 0.0000 23.5997 0.0000
# 6 0.0000 0.0000 0.0000 7.0457 0.0000 -33.8957
#
#
#
# Elastic Compliance Matrix: (Units=1/GPa)
#
#
# Indices 1 2 3 4 5 6 
#
# 1 0.025225 -0.004279 -0.001034 0.000000 -0.001775 0.000000
# 2 -0.004279 0.015199 -0.003969 0.000000 0.013645 0.000000
# 3 -0.001034 -0.003969 0.007843 0.000000 0.003609 0.000000
# 4 0.000000 0.000000 0.000000 0.022660 0.000000 0.004710
# 5 -0.001775 0.013645 0.003609 0.000000 0.062987 0.000000
# 6 0.000000 0.000000 0.000000 0.004710 0.000000 -0.028523
#
#
# Mechanical properties :
#
#
# Convention : Reuss Voigt Hill
#
# Bulk Modulus (GPa) = 33.66862 63.61823 48.64342
# Shear Modulus (GPa) = 37.35333 21.57796 29.46565
#
# Velocity S-wave (km/s) = 4.06324 3.08825 3.60882
# Velocity P-wave (km/s) = 6.07408 6.39024 6.23417
#
# Compressibility (1/GPa) = 0.02970125
#
# Stress axis : x y z
#
# Youngs Moduli (GPa) = 39.64324 65.79313 127.50310
#
# Poissons Ratio (x) = 0.28155 0.13185
# Poissons Ratio (y) = 0.16965 0.50612
# Poissons Ratio (z) = 0.04099 0.26116
#
# Static dielectric constant tensor:
#      x y z
#    x 1.883780 0.000000 -0.012430 
#    y 0.000000 1.993740 0.000000 
#    z -0.012430 0.000000 2.073580 
# 
# From -- ./inp_files/1000.got.cif
#   From: 2010.05.17/outbox.cif.g08.bks.cpg/sg3_1_cif.got.tgz:1000.got - 2010.06.03 18:33:08.
