data_PCOD9114495
_publ_section_title
;
Structure prediction by ZEFSAII (Michael W. Deem and Ramdas Pophale) SiO2 
 PCOD9114495
Probable space group: P 21
;
_chemical_formula_sum "Si O2"
_cell_formula_units_Z 16
_cell_length_a 16.584290
_cell_length_b 7.990938
_cell_length_c 7.895522
_cell_angle_alpha 90.000000
_cell_angle_beta 144.963068
_cell_angle_gamma 90.000000
_cell_volume 600.712010
_symmetry_space_group_name_H-M "P 21"
_symmetry_group_IT_number 4
_symmetry_cell_setting 'monoclinic'
loop_
_space_group_symop_operation_xyz
x,y,z
-x,1/2+y,-z
loop_
_atom_site_type_symbol
_atom_site_label
_atom_site_fract_x
_atom_site_fract_y
_atom_site_fract_z
Si Si1 0.119267 0.172190 0.044226
Si Si2 0.288204 0.739435 0.425450
Si Si3 0.904159 0.461863 0.679664
Si Si4 0.342668 0.366277 0.643295
Si Si5 0.815285 0.766470 0.294347
Si Si6 0.450416 0.198947 0.328340
Si Si7 0.399592 0.822979 0.102396
Si Si8 0.869088 0.353394 0.165050
O O1 0.257433 0.242947 0.372446
O O2 0.043453 0.070382 0.067935
O O3 0.020715 0.327492 0.831443
O O4 0.147238 0.039413 0.943656
O O5 0.225419 0.860779 0.459247
O O6 0.313805 0.554319 0.535872
O O7 0.435741 0.791865 0.594426
O O8 0.179558 0.741460 0.079591
O O9 0.854174 0.585609 0.445266
O O10 0.271148 0.349020 0.701200
O O11 0.507148 0.318477 0.907349
O O12 0.966749 0.840160 0.518304
O O13 0.702115 0.781115 0.950059
O O14 0.520584 0.200611 0.631124
O O15 0.429245 0.011092 0.223561
O O16 0.234983 0.799034 0.861416
#
# Coordination Sequence:
#
# PCOD9114495 Si02
#       8
#     2   2   2   2   2   2   2   2
#     4  10  17  30  55  88 123 166 207 244 305 375
#     4   9  18  34  59  88 124 165 205 242 304 375
#     4  10  18  31  54  89 129 162 197 256 311 359
#     4  10  19  35  64  95 123 162 210 259 305 360
#     4  11  23  38  62  98 130 152 202 271 309 344
#     4  10  23  43  64  89 122 164 208 255 306 369
#     4  10  22  44  67  86 123 171 209 239 306 390
#     4  10  20  37  61  91 126 166 208 254 302 366
#
# _framework density 26.635058000000001
#
# number of rings (size 3 to 8) (size 9 to 14) (size 15 to 20)
#    0.000    2.000    0.000    6.000    0.000    3.000 
#    0.000    8.750    0.000    3.000    0.000    0.000 
#    0.000    0.000    0.000    0.000    0.000    0.000 
#
# Total GULP energy -89621.454981 kJ/mol
# GULP energy per Si atom -5601.340936 kJ/mol
# Density = 2.657444 g / cm^3
# Si number density = 26.635058 Si / 1000 Ang^3
#
#
#
# Elastic Constant Matrix: (Units=GPa)
#
#
# Indices 1 2 3 4 5 6 
#
# 1 159.5605 21.3422 37.8554 0.0000 27.6860 0.0000
# 2 21.3422 66.9849 0.7376 0.0000 6.0281 0.0000
# 3 37.8554 0.7376 96.2306 0.0000 27.6447 0.0000
# 4 0.0000 0.0000 0.0000 22.1296 0.0000 6.2919
# 5 27.6860 6.0281 27.6447 0.0000 49.4314 0.0000
# 6 0.0000 0.0000 0.0000 6.2919 0.0000 38.5999
#
#
#
# Elastic Compliance Matrix: (Units=1/GPa)
#
#
# Indices 1 2 3 4 5 6 
#
# 1 0.007543 -0.002131 -0.002159 0.000000 -0.002758 0.000000
# 2 -0.002131 0.015716 0.001103 0.000000 -0.001340 0.000000
# 3 -0.002159 0.001103 0.013015 0.000000 -0.006204 0.000000
# 4 0.000000 0.000000 0.000000 0.047384 0.000000 -0.007724
# 5 -0.002758 -0.001340 -0.006204 0.000000 0.025407 0.000000
# 6 0.000000 0.000000 0.000000 -0.007724 0.000000 0.027166
#
#
# Mechanical properties :
#
#
# Convention : Reuss Voigt Hill
#
# Bulk Modulus (GPa) = 33.44566 49.18293 41.31429
# Shear Modulus (GPa) = 32.77134 39.55491 36.16312
#
# Velocity S-wave (km/s) = 3.51149 3.85784 3.68873
# Velocity P-wave (km/s) = 5.38748 6.19270 5.80407
#
# Compressibility (1/GPa) = 0.02989925
#
# Stress axis : x y z
#
# Youngs Moduli (GPa) = 132.57467 63.62853 76.83614
#
# Poissons Ratio (x) = 0.13561 0.16587
# Poissons Ratio (y) = 0.28256 -0.08473
# Poissons Ratio (z) = 0.28619 -0.07017
#
# Static dielectric constant tensor:
#      x y z
#    x 2.151080 0.000000 -0.021680 
#    y 0.000000 2.085160 0.000000 
#    z -0.021680 0.000000 2.094170 
# 
# From -- ./inp_files/9675.got.cif
#   From: 2010.05.17/outbox.cif.g08.bks.cpg/sg4_5_cif.got.tgz:9675.got - 2010.06.03 18:43:04.
