data_PCOD9114407
_publ_section_title
;
Structure prediction by ZEFSAII (Michael W. Deem and Ramdas Pophale) SiO2 
 PCOD9114407
Probable space group: P 2
;
_chemical_formula_sum "Si O2"
_cell_formula_units_Z 11
_cell_length_a 17.950003
_cell_length_b 5.405981
_cell_length_c 17.949819
_cell_angle_alpha 90.000000
_cell_angle_beta 163.784472
_cell_angle_gamma 90.000000
_cell_volume 486.400928
_symmetry_space_group_name_H-M "P 2"
_symmetry_group_IT_number 3
_symmetry_cell_setting 'monoclinic'
loop_
_space_group_symop_operation_xyz
x,y,z
-x,y,-z
loop_
_atom_site_type_symbol
_atom_site_label
_atom_site_fract_x
_atom_site_fract_y
_atom_site_fract_z
Si Si1 0.676586 0.247660 0.823342
Si Si2 0.723791 0.747657 0.776196
Si Si3 0.125455 0.247722 0.374467
Si Si4 0.697824 0.588403 0.320554
Si Si5 0.179512 0.907045 0.802245
Si Si6 0.500000 0.247736 0.000000
O O1 0.639789 0.497242 0.739353
O O2 0.397652 0.174909 0.594688
O O3 0.760567 0.998008 0.860170
O O4 0.905257 0.320519 0.102281
O O5 0.500000 0.803833 0.500000
O O6 0.000000 0.691571 0.000000
O O7 0.221347 0.451830 0.525875
O O8 0.974030 0.043614 0.278552
O O9 0.645215 0.407598 0.201832
O O10 0.953380 0.747736 0.546666
O O11 0.428796 0.747714 0.071265
O O12 0.298218 0.087867 0.854843
#
# Coordination Sequence:
#
# PCOD9114407 Si02
#       6
#     2   2   2   2   2   1
#     4  12  27  47  82 111 160 205 250 317 386 459
#     4  12  26  50  78 118 154 201 254 311 376 464
#     4  12  28  48  70 114 145 201 256 313 385 464
#     4  12  28  48  75 102 152 196 262 323 392 463
#     4  12  28  48  75 102 152 196 262 323 392 463
#     4  12  28  50  68 116 134 210 254 330 394 456
#
# _framework density 22.615086000000002
#
# number of rings (size 3 to 8) (size 9 to 14) (size 15 to 20)
#    0.000    0.000    0.000    9.273    7.636   10.909 
#    0.000    0.000    0.000    0.000    0.000    0.000 
#    0.000    0.000    0.000    0.000    0.000    0.000 
#
# Total GULP energy -61651.118458 kJ/mol
# GULP energy per Si atom -5604.647133 kJ/mol
# Density = 2.256361 g / cm^3
# Si number density = 22.615086 Si / 1000 Ang^3
#
#
#
# Elastic Constant Matrix: (Units=GPa)
#
#
# Indices 1 2 3 4 5 6 
#
# 1 128.5031 63.7489 59.2880 0.0000 13.4854 0.0000
# 2 63.7489 138.6214 55.9818 0.0000 -1.3344 0.0000
# 3 59.2880 55.9818 191.2582 0.0000 -1.9625 0.0000
# 4 0.0000 0.0000 0.0000 51.7536 0.0000 -67.3497
# 5 13.4854 -1.3344 -1.9625 0.0000 68.6578 0.0000
# 6 0.0000 0.0000 0.0000 -67.3497 0.0000 421.7479
#
#
#
# Elastic Compliance Matrix: (Units=1/GPa)
#
#
# Indices 1 2 3 4 5 6 
#
# 1 0.011173 -0.004255 -0.002242 0.000000 -0.002341 0.000000
# 2 -0.004255 0.009802 -0.001540 0.000000 0.000982 0.000000
# 3 -0.002242 -0.001540 0.006380 0.000000 0.000593 0.000000
# 4 0.000000 0.000000 0.000000 0.024391 0.000000 0.003895
# 5 -0.002341 0.000982 0.000593 0.000000 0.015061 0.000000
# 6 0.000000 0.000000 0.000000 0.003895 0.000000 0.002993
#
#
# Mechanical properties :
#
#
# Convention : Reuss Voigt Hill
#
# Bulk Modulus (GPa) = 88.64440 90.71333 89.67887
# Shear Modulus (GPa) = 55.78134 127.05612 91.41873
#
# Velocity S-wave (km/s) = 4.97183 7.50360 6.36487
# Velocity P-wave (km/s) = 8.49946 10.73643 9.68276
#
# Compressibility (1/GPa) = 0.01128103
#
# Stress axis : x y z
#
# Youngs Moduli (GPa) = 89.50102 102.01801 156.73106
#
# Poissons Ratio (x) = 0.43412 0.35139
# Poissons Ratio (y) = 0.38086 0.24136
# Poissons Ratio (z) = 0.20066 0.15710
#
# Static dielectric constant tensor:
#      x y z
#    x 1.812450 0.000000 -0.058400 
#    y 0.000000 1.844490 0.000000 
#    z -0.058400 0.000000 1.490000 
# 
# From -- ./inp_files/13921.got.cif
#   From: 2010.05.17/outbox.cif.g08.bks.cpg/sg3_7_cif.got.tgz:13921.got - 2010.06.03 18:33:08.
