data_PCOD9114933
_publ_section_title
;
Structure prediction by ZEFSAII (Michael W. Deem and Ramdas Pophale) SiO2 
 PCOD9114933
Probable space group: P 21
;
_chemical_formula_sum "Si O2"
_cell_formula_units_Z 16
_cell_length_a 9.399133
_cell_length_b 8.389823
_cell_length_c 10.936635
_cell_angle_alpha 90.000000
_cell_angle_beta 119.615241
_cell_angle_gamma 90.000000
_cell_volume 749.765958
_symmetry_space_group_name_H-M "P 21"
_symmetry_group_IT_number 4
_symmetry_cell_setting 'monoclinic'
loop_
_space_group_symop_operation_xyz
x,y,z
-x,1/2+y,-z
loop_
_atom_site_type_symbol
_atom_site_label
_atom_site_fract_x
_atom_site_fract_y
_atom_site_fract_z
Si Si1 0.152806 0.021620 0.433047
Si Si2 0.275165 0.891060 0.061609
Si Si3 0.630129 0.406983 0.278348
Si Si4 0.586265 0.037759 0.264001
Si Si5 0.832686 0.596429 0.196015
Si Si6 0.666611 0.041007 0.010695
Si Si7 0.986725 0.362132 0.852238
Si Si8 0.860776 0.825234 0.428897
O O1 0.109853 0.202150 0.450209
O O2 0.324524 0.985556 0.572089
O O3 0.122833 0.974869 0.281558
O O4 0.020771 0.909159 0.445282
O O5 0.106871 0.856016 0.060120
O O6 0.420591 0.940523 0.213919
O O7 0.316802 0.728854 0.008544
O O8 0.259849 0.044078 0.965959
O O9 0.586858 0.224981 0.284058
O O10 0.791297 0.438588 0.259914
O O11 0.479607 0.480434 0.138283
O O12 0.626389 0.018055 0.136258
O O13 0.730985 0.960182 0.403468
O O14 0.786648 0.723390 0.282571
O O15 0.988984 0.689119 0.203674
O O16 0.834322 0.942942 0.059298
#
# Coordination Sequence:
#
# PCOD9114933 Si02
#       8
#     2   2   2   2   2   2   2   2
#     4  10  21  39  61  92 131 168 212 266 328 386
#     4  12  24  38  63  97 136 173 211 273 337 390
#     4  11  23  37  68  95 123 165 221 279 315 371
#     4  12  21  39  64 100 123 162 226 274 319 374
#     4  10  19  37  59  89 123 161 213 262 316 364
#     4  12  22  40  64  98 125 170 222 273 322 378
#     4  11  25  42  62  94 140 172 211 266 335 406
#     4  10  21  36  65  95 125 165 218 279 312 381
#
# _framework density 21.339994999999998
#
# number of rings (size 3 to 8) (size 9 to 14) (size 15 to 20)
#    0.000    1.000    5.000    3.750    0.000    0.000 
#    0.000    2.500    0.000    3.000    0.000    0.000 
#    0.000    0.000    0.000    0.000    0.000    0.000 
#
# Total GULP energy -89138.675151 kJ/mol
# GULP energy per Si atom -5571.167197 kJ/mol
# Density = 2.129142 g / cm^3
# Si number density = 21.339995 Si / 1000 Ang^3
#
#
#
# Elastic Constant Matrix: (Units=GPa)
#
#
# Indices 1 2 3 4 5 6 
#
# 1 59.6426 22.1870 -0.9648 0.0000 4.3573 0.0000
# 2 22.1870 97.3139 25.7512 0.0000 10.2239 0.0000
# 3 -0.9648 25.7512 73.3876 0.0000 6.8731 0.0000
# 4 0.0000 0.0000 0.0000 39.6367 0.0000 10.9640
# 5 4.3573 10.2239 6.8731 0.0000 4.5630 0.0000
# 6 0.0000 0.0000 0.0000 10.9640 0.0000 19.9097
#
#
#
# Elastic Compliance Matrix: (Units=1/GPa)
#
#
# Indices 1 2 3 4 5 6 
#
# 1 0.019225 -0.003612 0.002889 0.000000 -0.014617 0.000000
# 2 -0.003612 0.014433 -0.002801 0.000000 -0.024669 0.000000
# 3 0.002889 -0.002801 0.016669 0.000000 -0.021591 0.000000
# 4 0.000000 0.000000 0.000000 0.029763 0.000000 -0.016390
# 5 -0.014617 -0.024669 -0.021591 0.000000 0.320908 0.000000
# 6 0.000000 0.000000 0.000000 -0.016390 0.000000 0.059252
#
#
# Mechanical properties :
#
#
# Convention : Reuss Voigt Hill
#
# Bulk Modulus (GPa) = 23.10634 36.03233 29.56934
# Shear Modulus (GPa) = 10.37938 25.04660 17.71299
#
# Velocity S-wave (km/s) = 2.20780 3.42964 2.88416
# Velocity P-wave (km/s) = 4.16538 5.71006 4.99776
#
# Compressibility (1/GPa) = 0.04327816
#
# Stress axis : x y z
#
# Youngs Moduli (GPa) = 52.01619 69.28753 59.99046
#
# Poissons Ratio (x) = 0.25026 -0.17332
# Poissons Ratio (y) = 0.18788 0.16806
# Poissons Ratio (z) = -0.15028 0.19410
#
# Static dielectric constant tensor:
#      x y z
#    x 1.772780 0.000000 0.010410 
#    y 0.000000 1.779800 0.000000 
#    z 0.010410 0.000000 1.810240 
# 
# From -- ./inp_files/11056.got.cif
#   From: 2010.05.17/outbox.cif.g08.bks.cpg/sg4_6_cif.got.tgz:11056.got - 2010.06.03 18:43:04.
