data_PCOD9114693
_publ_section_title
;
Structure prediction by ZEFSAII (Michael W. Deem and Ramdas Pophale) SiO2 
 PCOD9114693
Probable space group: P 21
;
_chemical_formula_sum "Si O2"
_cell_formula_units_Z 14
_cell_length_a 13.809944
_cell_length_b 7.131242
_cell_length_c 5.630785
_cell_angle_alpha 90.000000
_cell_angle_beta 99.074923
_cell_angle_gamma 90.000000
_cell_volume 547.590161
_symmetry_space_group_name_H-M "P 21"
_symmetry_group_IT_number 4
_symmetry_cell_setting 'monoclinic'
loop_
_space_group_symop_operation_xyz
x,y,z
-x,1/2+y,-z
loop_
_atom_site_type_symbol
_atom_site_label
_atom_site_fract_x
_atom_site_fract_y
_atom_site_fract_z
Si Si1 0.985192 0.533380 0.864748
Si Si2 0.809610 0.064812 0.802400
Si Si3 0.280274 0.966756 0.656793
Si Si4 0.765903 0.511142 0.873222
Si Si5 0.087575 0.747163 0.522776
Si Si6 0.395346 0.415987 0.194210
Si Si7 0.563441 0.129007 0.289365
O O1 0.879353 0.572793 0.933794
O O2 0.966966 0.338787 0.719932
O O3 0.008723 0.691933 0.681507
O O4 0.088243 0.519369 0.034420
O O5 0.843504 0.077481 0.540641
O O6 0.722466 0.928105 0.832534
O O7 0.772410 0.278258 0.854619
O O8 0.167818 0.895275 0.636088
O O9 0.355462 0.794813 0.677680
O O10 0.293191 0.065629 0.914082
O O11 0.720816 0.564676 0.599236
O O12 0.541046 0.729183 0.766723
O O13 0.421179 0.510641 0.947619
O O14 0.426932 0.525721 0.451784
#
# Coordination Sequence:
#
# PCOD9114693 Si02
#       7
#     2   2   2   2   2   2   2
#     4  10  21  34  62  92 126 164 223 261 309 387
#     4  10  20  38  63  89 124 180 212 258 326 409
#     4  10  18  39  61  88 118 174 213 247 323 403
#     4  10  20  34  64  88 119 170 214 248 310 398
#     4  10  21  36  63  88 125 172 215 257 316 391
#     4  12  25  44  74 100 135 178 230 280 350 402
#     4  12  23  45  73 101 131 178 231 285 338 416
#
# _framework density 25.566562999999999
#
# number of rings (size 3 to 8) (size 9 to 14) (size 15 to 20)
#    0.000    1.714    5.714    0.857    4.000    0.000 
#    0.000    2.857   15.714    0.000    0.000    0.000 
#    0.000    0.000    0.000    0.000    0.000    0.000 
#
# Total GULP energy -78264.865292 kJ/mol
# GULP energy per Si atom -5590.347521 kJ/mol
# Density = 2.550837 g / cm^3
# Si number density = 25.566563 Si / 1000 Ang^3
#
#
#
# Elastic Constant Matrix: (Units=GPa)
#
#
# Indices 1 2 3 4 5 6 
#
# 1 134.0502 36.3019 72.8064 0.0000 11.7431 0.0000
# 2 36.3019 50.4595 28.5527 0.0000 -0.7722 0.0000
# 3 72.8064 28.5527 187.1010 0.0000 -10.5818 0.0000
# 4 0.0000 0.0000 0.0000 43.9769 0.0000 -3.2888
# 5 11.7431 -0.7722 -10.5818 0.0000 49.0724 0.0000
# 6 0.0000 0.0000 0.0000 -3.2888 0.0000 45.6301
#
#
#
# Elastic Compliance Matrix: (Units=1/GPa)
#
#
# Indices 1 2 3 4 5 6 
#
# 1 0.011486 -0.006210 -0.003728 0.000000 -0.003650 0.000000
# 2 -0.006210 0.025055 -0.001317 0.000000 0.001596 0.000000
# 3 -0.003728 -0.001317 0.007133 0.000000 0.002410 0.000000
# 4 0.000000 0.000000 0.000000 0.022862 0.000000 0.001648
# 5 -0.003650 0.001596 0.002410 0.000000 0.021796 0.000000
# 6 0.000000 0.000000 0.000000 0.001648 0.000000 0.022034
#
#
# Mechanical properties :
#
#
# Convention : Reuss Voigt Hill
#
# Bulk Modulus (GPa) = 47.25011 71.88139 59.56575
# Shear Modulus (GPa) = 35.73173 43.33253 39.53213
#
# Velocity S-wave (km/s) = 3.74250 4.12137 3.93650
# Velocity P-wave (km/s) = 6.09889 7.12910 6.63402
#
# Compressibility (1/GPa) = 0.02116397
#
# Stress axis : x y z
#
# Youngs Moduli (GPa) = 87.05983 39.91239 140.19713
#
# Poissons Ratio (x) = 0.24784 0.52272
# Poissons Ratio (y) = 0.54061 0.18462
# Poissons Ratio (z) = 0.32460 0.05256
#
# Static dielectric constant tensor:
#      x y z
#    x 1.947820 0.000000 -0.008050 
#    y 0.000000 2.116560 0.000000 
#    z -0.008050 0.000000 2.183880 
# 
# From -- ./inp_files/2743.got.cif
#   From: 2010.05.17/outbox.cif.g08.bks.cpg/sg4_2_cif.got.tgz:2743.got - 2010.06.03 18:43:04.
