data_PCOD9114684
_publ_section_title
;
Structure prediction by ZEFSAII (Michael W. Deem and Ramdas Pophale) SiO2 
 PCOD9114684
Probable space group: P 21
;
_chemical_formula_sum "Si O2"
_cell_formula_units_Z 16
_cell_length_a 10.095142
_cell_length_b 12.659142
_cell_length_c 9.882514
_cell_angle_alpha 90.000000
_cell_angle_beta 137.740551
_cell_angle_gamma 90.000000
_cell_volume 849.315880
_symmetry_space_group_name_H-M "P 21"
_symmetry_group_IT_number 4
_symmetry_cell_setting 'monoclinic'
loop_
_space_group_symop_operation_xyz
x,y,z
-x,1/2+y,-z
loop_
_atom_site_type_symbol
_atom_site_label
_atom_site_fract_x
_atom_site_fract_y
_atom_site_fract_z
Si Si1 0.451716 0.590450 0.156469
Si Si2 0.402302 0.897181 0.181629
Si Si3 0.851007 0.133099 0.399351
Si Si4 0.551109 0.631650 0.739962
Si Si5 0.318004 0.429618 0.862194
Si Si6 0.893699 0.241202 0.156073
Si Si7 0.750784 0.689562 0.165079
Si Si8 0.359371 0.215446 0.479338
O O1 0.571655 0.650317 0.126277
O O2 0.576217 0.612855 0.384136
O O3 0.413237 0.473449 0.072580
O O4 0.240849 0.648532 0.011126
O O5 0.515795 0.918894 0.126805
O O6 0.527997 0.811986 0.361706
O O7 0.400914 0.009071 0.255023
O O8 0.196038 0.846175 0.979415
O O9 0.666336 0.142531 0.359986
O O10 0.855508 0.224732 0.288142
O O11 0.053262 0.134848 0.633249
O O12 0.823761 0.022628 0.298523
O O13 0.575771 0.700126 0.625151
O O14 0.696889 0.663086 0.971358
O O15 0.224857 0.315234 0.804452
O O16 0.125307 0.230484 0.310147
#
# Coordination Sequence:
#
# PCOD9114684 Si02
#       8
#     2   2   2   2   2   2   2   2
#     4  10  20  38  62  91 122 153 209 255 291 363
#     4  10  20  39  62  86 122 163 205 248 314 368
#     4  10  21  38  64  93 122 159 210 253 303 368
#     4  11  25  41  57  93 131 153 201 264 307 365
#     4  10  19  39  64  96 120 159 212 258 302 359
#     4  10  18  38  66  87 114 161 207 249 297 369
#     4  12  20  39  62  92 122 158 207 259 298 359
#     4  11  23  40  63  88 125 164 203 248 316 373
#
# _framework density 18.838691000000001
#
# number of rings (size 3 to 8) (size 9 to 14) (size 15 to 20)
#    0.000    1.500    7.500    0.000    0.000    6.000 
#    2.250    5.000    0.000    0.000    0.000    0.000 
#    0.000    0.000    0.000    0.000    0.000    0.000 
#
# Total GULP energy -89260.851373 kJ/mol
# GULP energy per Si atom -5578.803211 kJ/mol
# Density = 1.879581 g / cm^3
# Si number density = 18.838691 Si / 1000 Ang^3
#
#
#
# Elastic Constant Matrix: (Units=GPa)
#
#
# Indices 1 2 3 4 5 6 
#
# 1 60.6679 21.8491 44.2810 0.0000 -3.6811 0.0000
# 2 21.8491 61.7439 21.5537 0.0000 8.6924 0.0000
# 3 44.2810 21.5537 110.7618 0.0000 21.6097 0.0000
# 4 0.0000 0.0000 0.0000 28.9144 0.0000 -5.0899
# 5 -3.6811 8.6924 21.6097 0.0000 22.0667 0.0000
# 6 0.0000 0.0000 0.0000 -5.0899 0.0000 14.4518
#
#
#
# Elastic Compliance Matrix: (Units=1/GPa)
#
#
# Indices 1 2 3 4 5 6 
#
# 1 0.033630 -0.009733 -0.016557 0.000000 0.025658 0.000000
# 2 -0.009733 0.020541 0.002212 0.000000 -0.011881 0.000000
# 3 -0.016557 0.002212 0.019687 0.000000 -0.022913 0.000000
# 4 0.000000 0.000000 0.000000 0.036871 0.000000 0.012986
# 5 0.025658 -0.011881 -0.022913 0.000000 0.076716 0.000000
# 6 0.000000 0.000000 0.000000 0.012986 0.000000 0.073769
#
#
# Mechanical properties :
#
#
# Convention : Reuss Voigt Hill
#
# Bulk Modulus (GPa) = 38.90647 45.39346 42.14996
# Shear Modulus (GPa) = 15.72644 22.78592 19.25618
#
# Velocity S-wave (km/s) = 2.89242 3.48160 3.20059
# Velocity P-wave (km/s) = 5.64376 6.34903 6.00676
#
# Compressibility (1/GPa) = 0.02570267
#
# Stress axis : x y z
#
# Youngs Moduli (GPa) = 29.73558 48.68410 50.79412
#
# Poissons Ratio (x) = 0.47384 0.84097
# Poissons Ratio (y) = 0.28942 -0.11236
# Poissons Ratio (z) = 0.49232 -0.10769
#
# Static dielectric constant tensor:
#      x y z
#    x 1.631770 0.000000 0.000130 
#    y 0.000000 1.693770 0.000000 
#    z 0.000130 0.000000 1.655160 
# 
# From -- ./inp_files/6788.got.cif
#   From: 2010.05.17/outbox.cif.g08.bks.cpg/sg4_4_cif.got.tgz:6788.got - 2010.06.03 18:43:04.
