data_PCOD9114304
_publ_section_title
;
Structure prediction by ZEFSAII (Michael W. Deem and Ramdas Pophale) SiO2 
 PCOD9114304
Probable space group: P 2
;
_chemical_formula_sum "Si O2"
_cell_formula_units_Z 14
_cell_length_a 10.923037
_cell_length_b 10.069012
_cell_length_c 8.349276
_cell_angle_alpha 90.000000
_cell_angle_beta 137.848271
_cell_angle_gamma 90.000000
_cell_volume 616.259861
_symmetry_space_group_name_H-M "P 2"
_symmetry_group_IT_number 3
_symmetry_cell_setting 'monoclinic'
loop_
_space_group_symop_operation_xyz
x,y,z
-x,y,-z
loop_
_atom_site_type_symbol
_atom_site_label
_atom_site_fract_x
_atom_site_fract_y
_atom_site_fract_z
Si Si1 0.500729 0.761580 0.808719
Si Si2 0.513954 0.469779 0.278235
Si Si3 0.700320 0.034608 0.376651
Si Si4 0.000000 0.896826 0.500000
Si Si5 0.500000 0.268936 0.000000
Si Si6 0.881152 0.831962 0.042114
Si Si7 0.791305 0.391680 0.791628
Si Si8 0.278253 0.095155 0.262149
O O1 0.416770 0.617436 0.693923
O O2 0.407935 0.901504 0.674364
O O3 0.500000 0.770093 0.000000
O O4 0.694756 0.757405 0.907465
O O5 0.425914 0.378988 0.053473
O O6 0.690429 0.394664 0.521903
O O7 0.348732 0.478782 0.242892
O O8 0.595802 0.162323 0.210307
O O9 0.802365 0.074666 0.637584
O O10 0.823673 0.987796 0.348913
O O11 0.010695 0.825543 0.683046
O O12 0.000000 0.791781 0.000000
O O13 0.803500 0.979352 0.925348
O O14 0.775792 0.241807 0.843039
O O15 0.000000 0.434712 0.000000
O O16 0.500000 0.091654 0.500000
#
# Coordination Sequence:
#
# PCOD9114304 Si02
#       8
#     2   2   2   1   1   2   2   2
#     4  12  25  47  74 102 146 198 241 302 380 451
#     4  11  26  47  72 103 143 191 247 302 373 451
#     4  12  24  41  72 106 144 188 240 307 373 442
#     4  12  26  42  66 116 150 182 244 318 368 446
#     4  12  22  44  74 104 136 194 244 296 374 442
#     4  12  26  44  71 112 152 193 248 312 375 448
#     4  11  25  46  70 103 146 193 244 307 370 451
#     4  12  22  41  73 107 142 192 249 306 372 438
#
# _framework density 22.717687999999999
#
# number of rings (size 3 to 8) (size 9 to 14) (size 15 to 20)
#    0.000    0.286    8.571    0.429    2.000    2.857 
#    2.571    0.000    0.000    0.000    0.000    0.000 
#    0.000    0.000    0.000    0.000    0.000    0.000 
#
# Total GULP energy -78024.007623 kJ/mol
# GULP energy per Si atom -5573.143402 kJ/mol
# Density = 2.266598 g / cm^3
# Si number density = 22.717688 Si / 1000 Ang^3
#
#
#
# Elastic Constant Matrix: (Units=GPa)
#
#
# Indices 1 2 3 4 5 6 
#
# 1 114.8934 28.4565 22.5592 0.0000 6.0857 0.0000
# 2 28.4565 115.3789 37.6124 0.0000 -9.4001 0.0000
# 3 22.5592 37.6124 68.3078 0.0000 2.0997 0.0000
# 4 0.0000 0.0000 0.0000 12.6771 0.0000 1.5923
# 5 6.0857 -9.4001 2.0997 0.0000 45.0856 0.0000
# 6 0.0000 0.0000 0.0000 1.5923 0.0000 11.5524
#
#
#
# Elastic Compliance Matrix: (Units=1/GPa)
#
#
# Indices 1 2 3 4 5 6 
#
# 1 0.009657 -0.001812 -0.002143 0.000000 -0.001582 0.000000
# 2 -0.001812 0.011187 -0.005649 0.000000 0.002840 0.000000
# 3 -0.002143 -0.005649 0.018511 0.000000 -0.001751 0.000000
# 4 0.000000 0.000000 0.000000 0.080272 0.000000 -0.011064
# 5 -0.001582 0.002840 -0.001751 0.000000 0.023067 0.000000
# 6 0.000000 0.000000 0.000000 -0.011064 0.000000 0.088087
#
#
# Mechanical properties :
#
#
# Convention : Reuss Voigt Hill
#
# Bulk Modulus (GPa) = 49.63258 52.87069 51.25163
# Shear Modulus (GPa) = 19.47761 27.85982 23.66872
#
# Velocity S-wave (km/s) = 2.93128 3.50573 3.23129
# Velocity P-wave (km/s) = 5.77507 6.30161 6.04408
#
# Compressibility (1/GPa) = 0.02014806
#
# Stress axis : x y z
#
# Youngs Moduli (GPa) = 103.55126 89.39107 54.02058
#
# Poissons Ratio (x) = 0.16198 0.11576
# Poissons Ratio (y) = 0.18764 0.30514
# Poissons Ratio (z) = 0.22190 0.50494
#
# Static dielectric constant tensor:
#      x y z
#    x 1.987620 0.000000 -0.050050 
#    y 0.000000 1.897630 0.000000 
#    z -0.050050 0.000000 1.961200 
# 
# From -- ./inp_files/7607.got.cif
#   From: 2010.05.17/outbox.cif.g08.bks.cpg/sg3_4_cif.got.tgz:7607.got - 2010.06.03 18:33:08.
