data_PCOD9114416
_publ_section_title
;
Structure prediction by ZEFSAII (Michael W. Deem and Ramdas Pophale) SiO2 
 PCOD9114416
Probable space group: P 2
;
_chemical_formula_sum "Si O2"
_cell_formula_units_Z 12
_cell_length_a 7.903425
_cell_length_b 9.276471
_cell_length_c 7.903492
_cell_angle_alpha 90.000000
_cell_angle_beta 63.183351
_cell_angle_gamma 90.000000
_cell_volume 517.134317
_symmetry_space_group_name_H-M "P 2"
_symmetry_group_IT_number 3
_symmetry_cell_setting 'monoclinic'
loop_
_space_group_symop_operation_xyz
x,y,z
-x,y,-z
loop_
_atom_site_type_symbol
_atom_site_label
_atom_site_fract_x
_atom_site_fract_y
_atom_site_fract_z
Si Si1 0.057273 0.580610 0.702071
Si Si2 0.297931 0.243048 0.942726
Si Si3 0.942729 0.243048 0.297927
Si Si4 0.378230 0.746335 0.378229
Si Si5 0.297929 0.580611 0.942728
Si Si6 0.621772 0.077322 0.621770
O O1 0.041192 0.411829 0.665224
O O2 0.183834 0.664978 0.510672
O O3 0.179787 0.585527 0.820213
O O4 0.850235 0.636690 0.850234
O O5 0.179789 0.238133 0.820212
O O6 0.334779 0.411830 0.958805
O O7 0.489327 0.158679 0.816165
O O8 0.149766 0.186968 0.149763
O O9 0.816168 0.158677 0.489324
O O10 0.500000 0.746172 0.500000
O O11 0.510675 0.664981 0.183830
O O12 0.345595 0.911829 0.345597
O O13 0.500000 0.077484 0.500000
#
# Coordination Sequence:
#
# PCOD9114416 Si02
#       6
#     2   2   2   2   2   2
#     4   8  13  20  27  31  34  41  50  55  57  62
#     4   8  13  20  27  31  34  41  50  55  57  62
#     4   8  13  20  27  31  34  41  50  55  57  62
#     4   9  15  19  23  31  39  43  45  51  61  67
#     4   8  13  20  27  31  34  41  50  55  57  62
#     4   9  15  19  23  31  39  43  45  51  61  67
#
# _framework density 23.204801
#
# number of rings (size 3 to 8) (size 9 to 14) (size 15 to 20)
#    0.000    3.667    0.000    3.000    0.000    5.333 
#    0.000    6.667    0.000    0.000    0.000    0.000 
#    0.000    0.000    0.000    0.000    0.000    0.000 
#
# Total GULP energy -67086.758695 kJ/mol
# GULP energy per Si atom -5590.563225 kJ/mol
# Density = 2.315199 g / cm^3
# Si number density = 23.204801 Si / 1000 Ang^3
#
#
#
# Elastic Constant Matrix: (Units=GPa)
#
#
# Indices 1 2 3 4 5 6 
#
# 1 103.6643 4.2290 62.3889 0.0000 -17.8315 0.0000
# 2 4.2290 125.6809 133.6989 0.0000 -54.3210 0.0000
# 3 62.3889 133.6989 283.8718 0.0000 -57.7739 0.0000
# 4 0.0000 0.0000 0.0000 -121.2445 0.0000 32.7293
# 5 -17.8315 -54.3210 -57.7739 0.0000 58.6414 0.0000
# 6 0.0000 0.0000 0.0000 32.7293 0.0000 -43.1923
#
#
#
# Elastic Compliance Matrix: (Units=1/GPa)
#
#
# Indices 1 2 3 4 5 6 
#
# 1 0.013779 0.008239 -0.005632 0.000000 0.006273 0.000000
# 2 0.008239 0.026188 -0.010879 0.000000 0.016045 0.000000
# 3 -0.005632 -0.010879 0.009362 0.000000 -0.002567 0.000000
# 4 0.000000 0.000000 0.000000 -0.010369 0.000000 -0.007857
# 5 0.006273 0.016045 -0.002567 0.000000 0.031295 0.000000
# 6 0.000000 0.000000 0.000000 -0.007857 0.000000 -0.029106
#
#
# Mechanical properties :
#
#
# Convention : Reuss Voigt Hill
#
# Bulk Modulus (GPa) = 30.50214 101.53896 66.02055
# Shear Modulus (GPa) = 72.86339 -0.29908 36.28215
#
# Velocity S-wave (km/s) = 5.60966 -0.35940 3.95848
# Velocity P-wave (km/s) = 7.42503 6.60912 7.02892
#
# Compressibility (1/GPa) = 0.03278458
#
# Stress axis : x y z
#
# Youngs Moduli (GPa) = 72.57374 38.18584 106.81389
#
# Poissons Ratio (x) = -0.31462 0.60159
# Poissons Ratio (y) = -0.59795 1.16205
# Poissons Ratio (z) = 0.40874 0.41543
#
# Static dielectric constant tensor:
#      x y z
#    x 1.912630 0.000000 0.031610 
#    y 0.000000 1.771110 0.000000 
#    z 0.031610 0.000000 1.837290 
# 
# From -- ./inp_files/10623.got.cif
#   From: 2010.05.17/outbox.cif.g08.bks.cpg/sg3_6_cif.got.tgz:10623.got - 2010.06.03 18:33:08.
