data_PCOD9114754
_publ_section_title
;
Structure prediction by ZEFSAII (Michael W. Deem and Ramdas Pophale) SiO2 
 PCOD9114754
Probable space group: P 21
;
_chemical_formula_sum "Si O2"
_cell_formula_units_Z 16
_cell_length_a 14.195405
_cell_length_b 4.922994
_cell_length_c 29.531927
_cell_angle_alpha 90.000000
_cell_angle_beta 21.758450
_cell_angle_gamma 90.000000
_cell_volume 765.041374
_symmetry_space_group_name_H-M "P 21"
_symmetry_group_IT_number 4
_symmetry_cell_setting 'monoclinic'
loop_
_space_group_symop_operation_xyz
x,y,z
-x,1/2+y,-z
loop_
_atom_site_type_symbol
_atom_site_label
_atom_site_fract_x
_atom_site_fract_y
_atom_site_fract_z
Si Si1 0.574963 0.609630 0.996787
Si Si2 0.234241 0.306317 0.642020
Si Si3 0.233892 0.902770 0.565927
Si Si4 0.125098 0.821655 0.749342
Si Si5 0.358570 0.241478 0.429241
Si Si6 0.224284 0.874557 0.299663
Si Si7 0.313189 0.347273 0.201179
Si Si8 0.822278 0.568492 0.582982
O O1 0.452597 0.470857 0.095715
O O2 0.561599 0.378828 0.963156
O O3 0.855606 0.709647 0.886250
O O4 0.192419 0.189438 0.610847
O O5 0.530647 0.243684 0.519109
O O6 0.194331 0.604237 0.679318
O O7 0.084491 0.106224 0.742604
O O8 0.310449 0.974015 0.480940
O O9 0.967051 0.763121 0.690475
O O10 0.368449 0.844773 0.674151
O O11 0.088929 0.400752 0.557819
O O12 0.360653 0.165124 0.375606
O O13 0.384912 0.076783 0.195913
O O14 0.275199 0.579198 0.256191
O O15 0.298260 0.939478 0.318345
O O16 0.990527 0.833951 0.519811
#
# Coordination Sequence:
#
# PCOD9114754 Si02
#       8
#     2   2   2   2   2   2   2   2
#     4  12  25  42  61  82 113 156 204 246 282 331
#     4  11  22  34  54  79 116 150 181 232 286 348
#     4  10  19  33  50  79 109 141 179 221 281 338
#     4  11  23  39  55  80 112 152 198 236 284 336
#     4   9  20  34  57  84 114 147 182 232 286 346
#     4  10  20  36  57  85 113 144 183 230 290 348
#     4  11  22  36  57  79 109 147 190 234 278 335
#     4  10  19  34  55  84 118 147 179 225 289 358
#
# _framework density 20.913903999999999
#
# number of rings (size 3 to 8) (size 9 to 14) (size 15 to 20)
#    0.000    1.500    0.000    7.500    0.000    7.000 
#    0.000    0.000    0.000    1.500    0.000    0.000 
#    0.000    0.000    0.000    0.000    0.000    0.000 
#
# Total GULP energy -89250.861300 kJ/mol
# GULP energy per Si atom -5578.178831 kJ/mol
# Density = 2.086630 g / cm^3
# Si number density = 20.913904 Si / 1000 Ang^3
#
#
#
# Elastic Constant Matrix: (Units=GPa)
#
#
# Indices 1 2 3 4 5 6 
#
# 1 107.7879 14.3210 15.5880 0.0000 7.6675 0.0000
# 2 14.3210 83.2400 -5.7758 0.0000 -2.0726 0.0000
# 3 15.5880 -5.7758 76.6490 0.0001 -1.2843 0.0000
# 4 0.0000 0.0000 0.0001 30.7133 0.0000 4.0476
# 5 7.6675 -2.0726 -1.2843 0.0000 24.4018 0.0000
# 6 0.0000 0.0000 0.0000 4.0476 0.0000 29.9452
#
#
#
# Elastic Compliance Matrix: (Units=1/GPa)
#
#
# Indices 1 2 3 4 5 6 
#
# 1 0.010115 -0.001984 -0.002265 0.000000 -0.003466 0.000000
# 2 -0.001984 0.012494 0.001374 0.000000 0.001757 0.000000
# 3 -0.002265 0.001374 0.013637 0.000000 0.001546 0.000000
# 4 0.000000 0.000000 0.000000 0.033150 0.000000 -0.004481
# 5 -0.003466 0.001757 0.001546 0.000000 0.042300 0.000000
# 6 0.000000 0.000000 0.000000 -0.004481 0.000000 0.034000
#
#
# Mechanical properties :
#
#
# Convention : Reuss Voigt Hill
#
# Bulk Modulus (GPa) = 32.78967 35.10482 33.94725
# Shear Modulus (GPa) = 30.93882 33.24830 32.09356
#
# Velocity S-wave (km/s) = 3.85039 3.99152 3.92159
# Velocity P-wave (km/s) = 5.95649 6.16967 6.06402
#
# Compressibility (1/GPa) = 0.03049741
#
# Stress axis : x y z
#
# Youngs Moduli (GPa) = 98.86203 80.03944 73.33250
#
# Poissons Ratio (x) = 0.15877 0.16607
# Poissons Ratio (y) = 0.19611 -0.10078
# Poissons Ratio (z) = 0.22389 -0.11000
#
# Static dielectric constant tensor:
#      x y z
#    x 1.796980 0.000000 -0.010850 
#    y 0.000000 1.804830 0.000000 
#    z -0.010850 0.000000 1.787420 
# 
# From -- ./inp_files/16537.got.cif
#   From: 2010.05.17/outbox.cif.g08.bks.cpg/sg4_9_cif.got.tgz:16537.got - 2010.06.03 18:43:04.
