data_PCOD9114682
_publ_section_title
;
Structure prediction by ZEFSAII (Michael W. Deem and Ramdas Pophale) SiO2 
 PCOD9114682
Probable space group: P 21
;
_chemical_formula_sum "Si O2"
_cell_formula_units_Z 14
_cell_length_a 10.807605
_cell_length_b 7.638900
_cell_length_c 7.420008
_cell_angle_alpha 90.000000
_cell_angle_beta 117.194172
_cell_angle_gamma 90.000000
_cell_volume 544.869480
_symmetry_space_group_name_H-M "P 21"
_symmetry_group_IT_number 4
_symmetry_cell_setting 'monoclinic'
loop_
_space_group_symop_operation_xyz
x,y,z
-x,1/2+y,-z
loop_
_atom_site_type_symbol
_atom_site_label
_atom_site_fract_x
_atom_site_fract_y
_atom_site_fract_z
Si Si1 0.450546 0.691080 0.762200
Si Si2 0.283438 0.120042 0.868684
Si Si3 0.808119 0.417487 0.868919
Si Si4 0.773089 0.719383 0.554491
Si Si5 0.044448 0.355880 0.796406
Si Si6 0.523582 0.373733 0.549025
Si Si7 0.134429 0.581112 0.551987
O O1 0.506040 0.552009 0.650047
O O2 0.472645 0.870717 0.666085
O O3 0.290925 0.648505 0.691419
O O4 0.554495 0.662666 0.996909
O O5 0.231830 0.108275 0.632593
O O6 0.199668 0.281435 0.902775
O O7 0.231421 0.958758 0.953663
O O8 0.807226 0.592940 0.743067
O O9 0.963109 0.354385 0.930612
O O10 0.678148 0.304790 0.706009
O O11 0.614278 0.778049 0.478764
O O12 0.852632 0.899867 0.555639
O O13 0.951911 0.222695 0.615829
O O14 0.061165 0.532868 0.692348
#
# Coordination Sequence:
#
# PCOD9114682 Si02
#       7
#     2   2   2   2   2   2   2
#     4  10  20  41  64  94 126 169 223 269 327 391
#     4  10  23  41  62  96 131 166 224 276 318 397
#     4  11  22  42  66  93 136 177 222 275 342 397
#     4  10  21  42  66  95 133 178 221 281 329 396
#     4  11  22  42  65 100 137 175 224 276 334 409
#     4  10  18  38  65  91 125 172 213 269 330 390
#     4  10  22  40  68  95 132 179 221 264 342 400
#
# _framework density 25.694224999999999
#
# number of rings (size 3 to 8) (size 9 to 14) (size 15 to 20)
#    0.000    1.714    4.286    1.714    0.000    1.143 
#   10.286    2.857    0.000    0.000    0.000    0.000 
#    0.000    0.000    0.000    0.000    0.000    0.000 
#
# Total GULP energy -78258.034753 kJ/mol
# GULP energy per Si atom -5589.859625 kJ/mol
# Density = 2.563574 g / cm^3
# Si number density = 25.694225 Si / 1000 Ang^3
#
#
#
# Elastic Constant Matrix: (Units=GPa)
#
#
# Indices 1 2 3 4 5 6 
#
# 1 116.5311 15.9464 16.9376 0.0000 14.7286 0.0000
# 2 15.9464 33.9982 19.7317 0.0000 5.0031 0.0000
# 3 16.9376 19.7317 81.2983 0.0000 1.8723 0.0000
# 4 0.0000 0.0000 0.0000 28.0052 0.0000 3.6223
# 5 14.7286 5.0031 1.8723 0.0000 35.7692 0.0000
# 6 0.0000 0.0000 0.0000 3.6223 0.0000 46.7879
#
#
#
# Elastic Compliance Matrix: (Units=1/GPa)
#
#
# Indices 1 2 3 4 5 6 
#
# 1 0.009639 -0.003370 -0.001111 0.000000 -0.003439 0.000000
# 2 -0.003370 0.036107 -0.007986 0.000000 -0.003245 0.000000
# 3 -0.001111 -0.007986 0.014451 0.000000 0.000818 0.000000
# 4 0.000000 0.000000 0.000000 0.036069 0.000000 -0.002792
# 5 -0.003439 -0.003245 0.000818 0.000000 0.029784 0.000000
# 6 0.000000 0.000000 0.000000 -0.002792 0.000000 0.021589
#
#
# Mechanical properties :
#
#
# Convention : Reuss Voigt Hill
#
# Bulk Modulus (GPa) = 28.35936 37.45100 32.90518
# Shear Modulus (GPa) = 27.12556 34.05993 30.59275
#
# Velocity S-wave (km/s) = 3.25269 3.64481 3.45432
# Velocity P-wave (km/s) = 5.01676 5.68508 5.36134
#
# Compressibility (1/GPa) = 0.03526173
#
# Stress axis : x y z
#
# Youngs Moduli (GPa) = 103.74784 27.69578 69.19757
#
# Poissons Ratio (x) = 0.09333 0.07688
# Poissons Ratio (y) = 0.34963 0.55265
# Poissons Ratio (z) = 0.11526 0.22119
#
# Static dielectric constant tensor:
#      x y z
#    x 2.035670 0.000000 0.017890 
#    y 0.000000 2.184690 0.000000 
#    z 0.017890 0.000000 2.027130 
# 
# From -- ./inp_files/7872.got.cif
#   From: 2010.05.17/outbox.cif.g08.bks.cpg/sg4_4_cif.got.tgz:7872.got - 2010.06.03 18:43:04.
