data_PCOD9114555
_publ_section_title
;
Structure prediction by ZEFSAII (Michael W. Deem and Ramdas Pophale) SiO2 
 PCOD9114555
Probable space group: P 21
;
_chemical_formula_sum "Si O2"
_cell_formula_units_Z 16
_cell_length_a 10.049085
_cell_length_b 8.446535
_cell_length_c 10.221322
_cell_angle_alpha 90.000000
_cell_angle_beta 135.855887
_cell_angle_gamma 90.000000
_cell_volume 604.243207
_symmetry_space_group_name_H-M "P 21"
_symmetry_group_IT_number 4
_symmetry_cell_setting 'monoclinic'
loop_
_space_group_symop_operation_xyz
x,y,z
-x,1/2+y,-z
loop_
_atom_site_type_symbol
_atom_site_label
_atom_site_fract_x
_atom_site_fract_y
_atom_site_fract_z
Si Si1 0.476030 0.310870 0.313411
Si Si2 0.879964 0.169834 0.406537
Si Si3 0.096368 0.732083 0.286159
Si Si4 0.876931 0.901434 0.769245
Si Si5 0.056054 0.080673 0.251499
Si Si6 0.675948 0.485846 0.221843
Si Si7 0.465876 0.009914 0.168473
Si Si8 0.658896 0.743287 0.408382
O O1 0.674272 0.262493 0.527169
O O2 0.319696 0.395505 0.289929
O O3 0.519649 0.411632 0.212739
O O4 0.383229 0.147050 0.199271
O O5 0.972756 0.184415 0.616211
O O6 0.840507 0.356142 0.352023
O O7 0.677842 0.078711 0.282256
O O8 0.966363 0.099031 0.333846
O O9 0.047221 0.577424 0.168304
O O10 0.020454 0.902041 0.182634
O O11 0.996182 0.738119 0.867252
O O12 0.804220 0.873988 0.567820
O O13 0.285755 0.108481 0.445988
O O14 0.698532 0.659683 0.298967
O O15 0.626186 0.488574 0.036413
O O16 0.472253 0.845477 0.252208
#
# Coordination Sequence:
#
# PCOD9114555 Si02
#       8
#     2   2   2   2   2   2   2   2
#     4  10  19  36  54  82 118 151 196 245 296 358
#     4  10  19  36  54  82 118 151 196 245 296 358
#     4  10  20  33  52  84 121 152 186 238 300 364
#     4  10  21  34  55  85 119 152 191 250 308 361
#     4  10  21  34  55  85 119 152 191 250 308 361
#     4  10  20  35  55  83 116 155 201 245 290 356
#     4  10  20  35  55  83 116 155 201 245 290 356
#     4  10  18  31  50  84 111 154 190 240 300 354
#
# _framework density 26.479403999999999
#
# number of rings (size 3 to 8) (size 9 to 14) (size 15 to 20)
#    0.750    1.500    5.000    1.500    7.000    0.000 
#    0.000    0.000    0.000    1.500    0.000    0.000 
#    0.000    0.000    0.000    0.000    0.000    0.000 
#
# Total GULP energy -89197.367858 kJ/mol
# GULP energy per Si atom -5574.835491 kJ/mol
# Density = 2.641914 g / cm^3
# Si number density = 26.479404 Si / 1000 Ang^3
#
#
#
# Elastic Constant Matrix: (Units=GPa)
#
#
# Indices 1 2 3 4 5 6 
#
# 1 112.6167 48.2365 6.3676 0.0000 -5.6182 0.0000
# 2 48.2365 199.5679 28.1960 0.0000 -17.3148 0.0000
# 3 6.3676 28.1960 61.0615 0.0000 -9.5856 0.0000
# 4 0.0000 0.0000 0.0000 28.3545 0.0000 -15.1398
# 5 -5.6182 -17.3148 -9.5856 0.0000 18.9840 0.0000
# 6 0.0000 0.0000 0.0000 -15.1398 0.0000 22.1782
#
#
#
# Elastic Compliance Matrix: (Units=1/GPa)
#
#
# Indices 1 2 3 4 5 6 
#
# 1 0.009919 -0.002347 0.000189 0.000000 0.000890 0.000000
# 2 -0.002347 0.006204 -0.001999 0.000000 0.003954 0.000000
# 3 0.000189 -0.001999 0.018467 0.000000 0.007557 0.000000
# 4 0.000000 0.000000 0.000000 0.055496 0.000000 0.037884
# 5 0.000890 0.003954 0.007557 0.000000 0.060362 0.000000
# 6 0.000000 0.000000 0.000000 0.037884 0.000000 0.070951
#
#
# Mechanical properties :
#
#
# Convention : Reuss Voigt Hill
#
# Bulk Modulus (GPa) = 38.05874 59.87181 48.96528
# Shear Modulus (GPa) = 20.96711 33.26642 27.11676
#
# Velocity S-wave (km/s) = 2.81700 3.54830 3.20358
# Velocity P-wave (km/s) = 4.99848 6.28068 5.67590
#
# Compressibility (1/GPa) = 0.02627517
#
# Stress axis : x y z
#
# Youngs Moduli (GPa) = 100.82055 161.19722 54.15167
#
# Poissons Ratio (x) = 0.37830 -0.01024
# Poissons Ratio (y) = 0.23661 0.10826
# Poissons Ratio (z) = -0.01907 0.32225
#
# Static dielectric constant tensor:
#      x y z
#    x 2.156380 0.000000 0.065300 
#    y 0.000000 2.201450 0.000000 
#    z 0.065300 0.000000 2.056710 
# 
# From -- ./inp_files/12013.got.cif
#   From: 2010.05.17/outbox.cif.g08.bks.cpg/sg4_7_cif.got.tgz:12013.got - 2010.06.03 18:43:04.
