data_PCOD9114286
_publ_section_title
;
Structure prediction by ZEFSAII (Michael W. Deem and Ramdas Pophale) SiO2 
 PCOD9114286
Probable space group: P 2
;
_chemical_formula_sum "Si O2"
_cell_formula_units_Z 14
_cell_length_a 13.994998
_cell_length_b 5.184366
_cell_length_c 7.871937
_cell_angle_alpha 90.000000
_cell_angle_beta 73.433783
_cell_angle_gamma 90.000000
_cell_volume 547.441956
_symmetry_space_group_name_H-M "P 2"
_symmetry_group_IT_number 3
_symmetry_cell_setting 'monoclinic'
loop_
_space_group_symop_operation_xyz
x,y,z
-x,y,-z
loop_
_atom_site_type_symbol
_atom_site_label
_atom_site_fract_x
_atom_site_fract_y
_atom_site_fract_z
Si Si1 0.109128 0.589740 0.523171
Si Si2 0.889576 0.896035 0.117685
Si Si3 0.427587 0.686165 0.698614
Si Si4 0.266399 0.159580 0.376139
Si Si5 0.231434 0.785190 0.140341
Si Si6 0.418848 0.465158 0.137290
Si Si7 0.301518 0.155842 0.713598
O O1 0.105800 0.729444 0.709153
O O2 0.169674 0.322138 0.481366
O O3 0.169642 0.749918 0.349802
O O4 0.000000 0.554563 0.500000
O O5 0.814195 0.139553 0.171890
O O6 0.838770 0.748907 0.984131
O O7 0.000000 0.969043 0.000000
O O8 0.500000 0.724166 0.500000
O O9 0.503096 0.656311 0.816369
O O10 0.362732 0.936345 0.776891
O O11 0.356812 0.430717 0.703436
O O12 0.364073 0.337559 0.322405
O O13 0.265114 0.069937 0.180803
O O14 0.294101 0.009168 0.532161
O O15 0.326130 0.600942 0.092373
O O16 0.500000 0.288930 0.000000
#
# Coordination Sequence:
#
# PCOD9114286 Si02
#       7
#     2   2   2   2   2   2   2
#     4  11  24  49  78 109 155 208 263 337 411 492
#     4  12  26  48  83 116 157 212 270 342 415 490
#     4  12  25  45  75 110 152 209 265 321 402 480
#     4  11  25  46  74 109 157 210 261 335 407 489
#     4  11  25  49  75 110 156 200 270 329 410 490
#     4  11  26  45  72 108 154 207 259 329 402 482
#     4  12  26  47  75 117 159 208 272 333 397 497
#
# _framework density 25.573491000000001
#
# number of rings (size 3 to 8) (size 9 to 14) (size 15 to 20)
#    0.000    0.571    4.286    3.000    4.000    2.286 
#    2.571    2.857    0.000    0.000    0.000    0.000 
#    0.000    0.000    0.000    0.000    0.000    0.000 
#
# Total GULP energy -78067.467977 kJ/mol
# GULP energy per Si atom -5576.247713 kJ/mol
# Density = 2.551528 g / cm^3
# Si number density = 25.573491 Si / 1000 Ang^3
#
#
#
# Elastic Constant Matrix: (Units=GPa)
#
#
# Indices 1 2 3 4 5 6 
#
# 1 160.5650 14.9405 67.6698 0.0000 -19.5839 0.0000
# 2 14.9405 69.9465 15.5661 0.0000 -1.3103 0.0000
# 3 67.6698 15.5661 134.2938 0.0000 13.2109 0.0000
# 4 0.0000 0.0000 0.0000 23.1200 0.0000 17.7176
# 5 -19.5839 -1.3103 13.2109 0.0000 49.5795 0.0000
# 6 0.0000 0.0000 0.0000 17.7176 0.0000 -94.8404
#
#
#
# Elastic Compliance Matrix: (Units=1/GPa)
#
#
# Indices 1 2 3 4 5 6 
#
# 1 0.008948 -0.000731 -0.004899 0.000000 0.004821 0.000000
# 2 -0.000731 0.014771 -0.001390 0.000000 0.000472 0.000000
# 3 -0.004899 -0.001390 0.010546 0.000000 -0.004782 0.000000
# 4 0.000000 0.000000 0.000000 0.037836 0.000000 0.007068
# 5 0.004821 0.000472 -0.004782 0.000000 0.023360 0.000000
# 6 0.000000 0.000000 0.000000 0.007068 0.000000 -0.009224
#
#
# Mechanical properties :
#
#
# Convention : Reuss Voigt Hill
#
# Bulk Modulus (GPa) = 49.44073 62.35090 55.89582
# Shear Modulus (GPa) = 46.72019 13.34708 30.03363
#
# Velocity S-wave (km/s) = 4.27886 2.28701 3.43068
# Velocity P-wave (km/s) = 6.61712 5.60428 6.13165
#
# Compressibility (1/GPa) = 0.02022624
#
# Stress axis : x y z
#
# Youngs Moduli (GPa) = 111.75079 67.70018 94.82029
#
# Poissons Ratio (x) = 0.04949 0.46448
# Poissons Ratio (y) = 0.08168 0.13182
# Poissons Ratio (z) = 0.54742 0.09412
#
# Static dielectric constant tensor:
#      x y z
#    x 2.922840 0.000000 0.120970 
#    y 0.000000 2.514850 0.000000 
#    z 0.120970 0.000000 2.211470 
# 
# From -- ./inp_files/8270.got.cif
#   From: 2010.05.17/outbox.cif.g08.bks.cpg/sg3_5_cif.got.tgz:8270.got - 2010.06.03 18:33:08.
