data_PCOD9114777
_publ_section_title
;
Structure prediction by ZEFSAII (Michael W. Deem and Ramdas Pophale) SiO2 
 PCOD9114777
Probable space group: P 21
;
_chemical_formula_sum "Si O2"
_cell_formula_units_Z 10
_cell_length_a 15.153466
_cell_length_b 5.557885
_cell_length_c 7.299026
_cell_angle_alpha 90.000000
_cell_angle_beta 33.875997
_cell_angle_gamma 90.000000
_cell_volume 342.650476
_symmetry_space_group_name_H-M "P 21"
_symmetry_group_IT_number 4
_symmetry_cell_setting 'monoclinic'
loop_
_space_group_symop_operation_xyz
x,y,z
-x,1/2+y,-z
loop_
_atom_site_type_symbol
_atom_site_label
_atom_site_fract_x
_atom_site_fract_y
_atom_site_fract_z
Si Si1 0.588551 0.062370 0.308283
Si Si2 0.563633 0.808873 0.002852
Si Si3 0.173191 0.048779 0.285533
Si Si4 0.972825 0.052490 0.311078
Si Si5 0.747061 0.061002 0.392882
O O1 0.506264 0.316292 0.485053
O O2 0.737052 0.050669 0.191941
O O3 0.614126 0.027091 0.048574
O O4 0.375629 0.774011 0.338394
O O5 0.648387 0.585079 0.955206
O O6 0.650477 0.846709 0.660639
O O7 0.093195 0.292834 0.505594
O O8 0.143876 0.054361 0.116030
O O9 0.101536 0.801153 0.482857
O O10 0.918549 0.067221 0.191960
#
# Coordination Sequence:
#
# PCOD9114777 Si02
#       5
#     2   2   2   2   2
#     4  10  22  36  52  80 112 136 170 222 266 304
#     4  10  19  33  57  80 106 139 178 215 260 313
#     4   9  18  32  52  78 106 137 173 214 260 308
#     4   9  18  32  52  78 106 137 173 214 260 308
#     4  10  19  33  57  80 106 139 178 215 260 313
#
# _framework density 29.184259000000001
#
# number of rings (size 3 to 8) (size 9 to 14) (size 15 to 20)
#    0.000    2.400    0.000    2.400    0.000    9.600 
#    0.000    0.000    0.000   28.800    0.000    0.000 
#    0.000    0.000    0.000    0.000    0.000    0.000 
#
# Total GULP energy -55857.601171 kJ/mol
# GULP energy per Si atom -5585.760117 kJ/mol
# Density = 2.911783 g / cm^3
# Si number density = 29.184259 Si / 1000 Ang^3
#
#
#
# Elastic Constant Matrix: (Units=GPa)
#
#
# Indices 1 2 3 4 5 6 
#
# 1 220.4108 34.2072 5.2435 0.0000 -22.5834 0.0000
# 2 34.2072 227.0307 63.7439 0.0000 1.2922 0.0000
# 3 5.2435 63.7439 47.9482 0.0000 1.9930 0.0000
# 4 0.0000 0.0000 0.0000 70.5648 0.0000 5.3657
# 5 -22.5834 1.2922 1.9930 0.0000 15.0069 0.0000
# 6 0.0000 0.0000 0.0000 5.3657 0.0000 47.8763
#
#
#
# Elastic Compliance Matrix: (Units=1/GPa)
#
#
# Indices 1 2 3 4 5 6 
#
# 1 0.005539 -0.000980 0.000350 0.000000 0.008373 0.000000
# 2 -0.000980 0.007208 -0.009440 0.000000 -0.000842 0.000000
# 3 0.000350 -0.009440 0.033496 0.000000 -0.003110 0.000000
# 4 0.000000 0.000000 0.000000 0.014293 0.000000 -0.001602
# 5 0.008373 -0.000842 -0.003110 0.000000 0.079722 0.000000
# 6 0.000000 0.000000 0.000000 -0.001602 0.000000 0.021067
#
#
# Mechanical properties :
#
#
# Convention : Reuss Voigt Hill
#
# Bulk Modulus (GPa) = 38.31184 77.97542 58.14363
# Shear Modulus (GPa) = 26.29276 52.83593 39.56435
#
# Velocity S-wave (km/s) = 3.00479 4.25953 3.68594
# Velocity P-wave (km/s) = 5.01941 7.13917 6.17099
#
# Compressibility (1/GPa) = 0.02610159
#
# Stress axis : x y z
#
# Youngs Moduli (GPa) = 180.54716 138.74175 29.85390
#
# Poissons Ratio (x) = 0.13601 -0.01044
# Poissons Ratio (y) = 0.17700 0.28182
# Poissons Ratio (z) = -0.06311 1.30970
#
# Static dielectric constant tensor:
#      x y z
#    x 2.306320 0.000000 0.012720 
#    y 0.000000 2.245460 0.000000 
#    z 0.012720 0.000000 2.299200 
# 
# From -- ./inp_files/5100.got.cif
#   From: 2010.05.17/outbox.cif.g08.bks.cpg/sg4_3_cif.got.tgz:5100.got - 2010.06.03 18:43:04.
