data_PCOD9114022
_publ_section_title
;
Structure prediction by ZEFSAII (Michael W. Deem and Ramdas Pophale) SiO2 
 PCOD9114022
Probable space group: P 2
;
_chemical_formula_sum "Si O2"
_cell_formula_units_Z 13
_cell_length_a 16.346054
_cell_length_b 4.964714
_cell_length_c 10.956426
_cell_angle_alpha 90.000000
_cell_angle_beta 144.875195
_cell_angle_gamma 90.000000
_cell_volume 511.582037
_symmetry_space_group_name_H-M "P 2"
_symmetry_group_IT_number 3
_symmetry_cell_setting 'monoclinic'
loop_
_space_group_symop_operation_xyz
x,y,z
-x,y,-z
loop_
_atom_site_type_symbol
_atom_site_label
_atom_site_fract_x
_atom_site_fract_y
_atom_site_fract_z
Si Si1 0.533337 0.733230 0.761942
Si Si2 0.090377 0.328936 0.508007
Si Si3 0.957365 0.989825 0.150049
Si Si4 0.639011 0.066111 0.119921
Si Si5 0.500000 0.156503 0.500000
Si Si6 0.754225 0.477336 0.873825
Si Si7 0.767016 0.727954 0.501036
O O1 0.647222 0.510476 0.859241
O O2 0.371670 0.645103 0.593356
O O3 0.526750 0.954378 0.645455
O O4 0.594124 0.876777 0.955853
O O5 0.144846 0.492831 0.457651
O O6 0.000000 0.480093 0.500000
O O7 0.231311 0.252708 0.752598
O O8 0.003379 0.073432 0.346186
O O9 0.109943 0.899863 0.280802
O O10 0.841519 0.756846 0.984111
O O11 0.878180 0.259417 0.015410
O O12 0.699882 0.900283 0.308876
O O13 0.500000 0.219312 0.000000
O O14 0.633888 0.351952 0.638197
#
# Coordination Sequence:
#
# PCOD9114022 Si02
#       7
#     2   2   2   2   1   2   2
#     4  11  25  49  77 113 154 208 261 327 378 458
#     4  11  23  39  70 113 161 202 251 300 389 475
#     4  11  24  46  73 111 151 196 246 316 387 456
#     4   9  22  41  69 111 158 199 248 309 386 463
#     4  12  28  48  80 108 146 200 280 320 384 440
#     4  12  25  47  79 106 144 199 258 321 378 449
#     4  10  24  45  74 117 160 201 251 315 395 471
#
# _framework density 25.411369000000001
#
# number of rings (size 3 to 8) (size 9 to 14) (size 15 to 20)
#    0.000    1.231    3.077    1.385    2.154    8.000 
#    0.000    0.769    3.385    0.000    0.000    0.000 
#    0.000    0.000    0.000    0.000    0.000    0.000 
#
# Total GULP energy -72587.138355 kJ/mol
# GULP energy per Si atom -5583.626027 kJ/mol
# Density = 2.535353 g / cm^3
# Si number density = 25.411369 Si / 1000 Ang^3
#
#
#
# Elastic Constant Matrix: (Units=GPa)
#
#
# Indices 1 2 3 4 5 6 
#
# 1 71.5282 18.2788 14.0838 0.0000 13.4621 0.0000
# 2 18.2788 108.3298 25.4501 0.0000 6.6106 0.0000
# 3 14.0838 25.4501 123.3691 0.0000 11.2342 0.0000
# 4 0.0000 0.0000 0.0000 9.9586 0.0000 -29.1193
# 5 13.4621 6.6106 11.2342 0.0000 24.3022 0.0000
# 6 0.0000 0.0000 0.0000 -29.1193 0.0000 -5.7499
#
#
#
# Elastic Compliance Matrix: (Units=1/GPa)
#
#
# Indices 1 2 3 4 5 6 
#
# 1 0.016165 -0.002075 -0.000682 0.000000 -0.008075 0.000000
# 2 -0.002075 0.010043 -0.001765 0.000000 -0.000767 0.000000
# 3 -0.000682 -0.001765 0.008842 0.000000 -0.003229 0.000000
# 4 0.000000 0.000000 0.000000 0.006352 0.000000 -0.032169
# 5 -0.008075 -0.000767 -0.003229 0.000000 0.047323 0.000000
# 6 0.000000 0.000000 0.000000 -0.032169 0.000000 -0.011002
#
#
# Mechanical properties :
#
#
# Convention : Reuss Voigt Hill
#
# Bulk Modulus (GPa) = 38.45316 46.53915 42.49616
# Shear Modulus (GPa) = 52.39210 22.06315 37.22763
#
# Velocity S-wave (km/s) = 4.54558 2.94979 3.83168
# Velocity P-wave (km/s) = 6.53566 5.47318 6.02788
#
# Compressibility (1/GPa) = 0.02600567
#
# Stress axis : x y z
#
# Youngs Moduli (GPa) = 61.86340 99.57616 113.09901
#
# Poissons Ratio (x) = 0.20657 0.07714
# Poissons Ratio (y) = 0.12834 0.19963
# Poissons Ratio (z) = 0.04220 0.17576
#
# Static dielectric constant tensor:
#      x y z
#    x 2.078050 0.000000 -0.006920 
#    y 0.000000 2.058890 0.000000 
#    z -0.006920 0.000000 2.036470 
# 
# From -- ./inp_files/12389.got.cif
#   From: 2010.05.17/outbox.cif.g08.bks.cpg/sg3_7_cif.got.tgz:12389.got - 2010.06.03 18:33:08.
