data_PCOD9114920
_publ_section_title
;
Structure prediction by ZEFSAII (Michael W. Deem and Ramdas Pophale) SiO2 
 PCOD9114920
Probable space group: P 21
;
_chemical_formula_sum "Si O2"
_cell_formula_units_Z 16
_cell_length_a 10.584416
_cell_length_b 7.903923
_cell_length_c 18.948785
_cell_angle_alpha 90.000000
_cell_angle_beta 156.648578
_cell_angle_gamma 90.000000
_cell_volume 628.335134
_symmetry_space_group_name_H-M "P 21"
_symmetry_group_IT_number 4
_symmetry_cell_setting 'monoclinic'
loop_
_space_group_symop_operation_xyz
x,y,z
-x,1/2+y,-z
loop_
_atom_site_type_symbol
_atom_site_label
_atom_site_fract_x
_atom_site_fract_y
_atom_site_fract_z
Si Si1 0.288568 0.125000 0.527654
Si Si2 0.803624 0.209035 0.679110
Si Si3 0.343920 0.893069 0.013870
Si Si4 0.660076 0.782354 0.950871
Si Si5 0.590394 0.811035 0.651559
Si Si6 0.205627 0.096850 0.123126
Si Si7 0.141053 0.906117 0.763624
Si Si8 0.529498 0.235206 0.791283
O O1 0.623124 0.138043 0.655824
O O2 0.282869 0.184220 0.605210
O O3 0.075047 0.250288 0.372841
O O4 0.302317 0.923165 0.536837
O O5 0.536630 0.289971 0.492731
O O6 0.964703 0.067141 0.709609
O O7 0.052314 0.329127 0.847822
O O8 0.559410 0.780895 0.174994
O O9 0.423634 0.090466 0.064630
O O10 0.358874 0.844031 0.940643
O O11 0.970366 0.861079 0.844368
O O12 0.731085 0.734469 0.906363
O O13 0.382010 0.916419 0.821324
O O14 0.613753 0.646393 0.712812
O O15 0.325980 0.915838 0.160373
O O16 0.826091 0.105564 0.940292
#
# Coordination Sequence:
#
# PCOD9114920 Si02
#       8
#     2   2   2   2   2   2   2   2
#     4  12  20  39  62  96 122 167 219 266 316 371
#     4  11  21  42  63  93 126 165 220 267 311 380
#     4   9  19  39  60  92 125 160 212 263 314 372
#     4  10  21  41  61  89 134 170 200 256 326 392
#     4  11  21  37  64  93 126 160 217 278 311 365
#     4  10  20  37  61  93 125 166 209 272 322 376
#     4  11  23  39  64  92 130 173 207 261 328 384
#     4  10  19  36  65  92 124 159 218 271 316 368
#
# _framework density 25.464120999999999
#
# number of rings (size 3 to 8) (size 9 to 14) (size 15 to 20)
#    0.000    1.500    5.000    2.250    0.000    2.000 
#    0.000   12.500    0.000    0.000    0.000    0.000 
#    0.000    0.000    0.000    0.000    0.000    0.000 
#
# Total GULP energy -89202.949911 kJ/mol
# GULP energy per Si atom -5575.184369 kJ/mol
# Density = 2.540616 g / cm^3
# Si number density = 25.464121 Si / 1000 Ang^3
#
#
#
# Elastic Constant Matrix: (Units=GPa)
#
#
# Indices 1 2 3 4 5 6 
#
# 1 41.1204 -20.6129 10.8649 0.0000 -6.2743 0.0000
# 2 -20.6129 64.4733 -3.2800 0.0000 7.4486 0.0000
# 3 10.8649 -3.2800 26.2782 0.0000 -2.3149 0.0000
# 4 0.0000 0.0000 0.0000 15.3368 0.0000 14.1633
# 5 -6.2743 7.4486 -2.3149 0.0000 47.1032 0.0000
# 6 0.0000 0.0000 0.0000 14.1633 0.0000 9.0593
#
#
#
# Elastic Compliance Matrix: (Units=1/GPa)
#
#
# Indices 1 2 3 4 5 6 
#
# 1 0.032656 0.009565 -0.012110 0.000000 0.002242 0.000000
# 2 0.009565 0.018682 -0.001779 0.000000 -0.001768 0.000000
# 3 -0.012110 -0.001779 0.042908 0.000000 0.000777 0.000000
# 4 0.000000 0.000000 0.000000 -0.146926 0.000000 0.229705
# 5 0.002242 -0.001768 0.000777 0.000000 0.021846 0.000000
# 6 0.000000 0.000000 0.000000 0.229705 0.000000 -0.248736
#
#
# Mechanical properties :
#
#
# Convention : Reuss Voigt Hill
#
# Bulk Modulus (GPa) = 11.68248 11.75733 11.71991
# Shear Modulus (GPa) = -20.62787 23.95984 1.66599
#
# Velocity S-wave (km/s) = -2.84927 3.07078 0.80973
# Velocity P-wave (km/s) = 2.49533 4.14731 2.34238
#
# Compressibility (1/GPa) = 0.08559826
#
# Stress axis : x y z
#
# Youngs Moduli (GPa) = 30.62262 53.52707 23.30572
#
# Poissons Ratio (x) = -0.51200 0.28224
# Poissons Ratio (y) = -0.29291 0.04145
# Poissons Ratio (z) = 0.37085 0.09521
#
# Static dielectric constant tensor:
#      x y z
#    x 2.080220 0.000000 0.043990 
#    y 0.000000 2.235870 0.000000 
#    z 0.043990 0.000000 2.045630 
# 
# From -- ./inp_files/15711.got.cif
#   From: 2010.05.17/outbox.cif.g08.bks.cpg/sg4_8_cif.got.tgz:15711.got - 2010.06.03 18:43:04.
