data_PCOD9114251
_publ_section_title
;
Structure prediction by ZEFSAII (Michael W. Deem and Ramdas Pophale) SiO2 
 PCOD9114251
Probable space group: P 2
;
_chemical_formula_sum "Si O2"
_cell_formula_units_Z 14
_cell_length_a 5.280542
_cell_length_b 15.381218
_cell_length_c 9.368947
_cell_angle_alpha 90.000000
_cell_angle_beta 122.566857
_cell_angle_gamma 90.000000
_cell_volume 641.306941
_symmetry_space_group_name_H-M "P 2"
_symmetry_group_IT_number 3
_symmetry_cell_setting 'monoclinic'
loop_
_space_group_symop_operation_xyz
x,y,z
-x,y,-z
loop_
_atom_site_type_symbol
_atom_site_label
_atom_site_fract_x
_atom_site_fract_y
_atom_site_fract_z
Si Si1 0.752940 0.102800 0.310613
Si Si2 0.841022 0.695488 0.153038
Si Si3 0.461105 0.927331 0.651756
Si Si4 0.000000 0.854775 0.000000
Si Si5 0.881329 0.192754 0.809967
Si Si6 0.138010 0.503311 0.894442
Si Si7 0.000000 0.771715 0.500000
Si Si8 0.848404 0.364232 0.606851
O O1 0.436377 0.145039 0.260063
O O2 0.000000 0.132349 0.500000
O O3 0.878973 0.129965 0.195331
O O4 0.724892 0.999243 0.318599
O O5 0.984148 0.602641 0.156866
O O6 0.912714 0.785809 0.096241
O O7 0.924513 0.713419 0.341223
O O8 0.500000 0.682801 0.000000
O O9 0.500000 0.961056 0.500000
O O10 0.283179 0.837147 0.575696
O O11 0.748231 0.910373 0.840828
O O12 0.857691 0.276741 0.703380
O O13 0.000000 0.219331 0.000000
O O14 0.027980 0.441798 0.735532
O O15 0.500000 0.502010 0.000000
O O16 0.000000 0.468687 0.000000
O O17 0.500000 0.390157 0.500000
O O18 0.000000 0.347895 0.500000
#
# Coordination Sequence:
#
# PCOD9114251 Si02
#       8
#     2   2   2   1   2   2   1   2
#     4  12  26  48  75 104 146 189 238 300 359 426
#     4  11  24  44  71 103 144 191 244 301 361 426
#     4  12  26  44  71 104 144 193 247 306 365 423
#     4  12  24  46  70 100 142 194 248 302 356 434
#     4  12  27  49  75 106 143 189 237 291 361 436
#     4  11  25  47  75 106 148 189 234 298 360 425
#     4  12  24  44  70 102 140 194 244 300 364 430
#     4  12  26  47  76 111 144 186 236 290 360 433
#
# _framework density 21.830418999999999
#
# number of rings (size 3 to 8) (size 9 to 14) (size 15 to 20)
#    0.000    0.286    4.286    5.143    2.000    1.143 
#    7.714    0.000    0.000    0.000    0.000    0.000 
#    0.000    0.000    0.000    0.000    0.000    0.000 
#
# Total GULP energy -78265.801392 kJ/mol
# GULP energy per Si atom -5590.414385 kJ/mol
# Density = 2.178073 g / cm^3
# Si number density = 21.830419 Si / 1000 Ang^3
#
#
#
# Elastic Constant Matrix: (Units=GPa)
#
#
# Indices 1 2 3 4 5 6 
#
# 1 123.3546 33.0492 59.7659 0.0000 -5.7099 0.0000
# 2 33.0492 87.5443 48.3087 0.0000 7.3363 0.0000
# 3 59.7659 48.3087 172.6012 0.0000 -7.1385 0.0000
# 4 0.0000 0.0000 0.0000 21.7003 0.0000 -19.6123
# 5 -5.7099 7.3363 -7.1385 0.0000 39.9223 0.0000
# 6 0.0000 0.0000 0.0000 -19.6123 0.0000 36.2573
#
#
#
# Elastic Compliance Matrix: (Units=1/GPa)
#
#
# Indices 1 2 3 4 5 6 
#
# 1 0.010170 -0.002419 -0.002786 0.000000 0.001401 0.000000
# 2 -0.002419 0.014498 -0.003370 0.000000 -0.003613 0.000000
# 3 -0.002786 -0.003370 0.007768 0.000000 0.001610 0.000000
# 4 0.000000 0.000000 0.000000 0.090158 0.000000 0.048769
# 5 0.001401 -0.003613 0.001610 0.000000 0.026201 0.000000
# 6 0.000000 0.000000 0.000000 0.048769 0.000000 0.053961
#
#
# Mechanical properties :
#
#
# Convention : Reuss Voigt Hill
#
# Bulk Modulus (GPa) = 65.41942 73.97196 69.69569
# Shear Modulus (GPa) = 22.22211 35.73440 28.97825
#
# Velocity S-wave (km/s) = 3.19398 4.05026 3.64734
# Velocity P-wave (km/s) = 6.60562 7.47203 7.05214
#
# Compressibility (1/GPa) = 0.01528598
#
# Stress axis : x y z
#
# Youngs Moduli (GPa) = 98.33146 68.97415 128.72911
#
# Poissons Ratio (x) = 0.16685 0.35870
# Poissons Ratio (y) = 0.23786 0.43377
# Poissons Ratio (z) = 0.27400 0.23242
#
# Static dielectric constant tensor:
#      x y z
#    x 1.844980 0.000000 -0.016350 
#    y 0.000000 1.781880 0.000000 
#    z -0.016350 0.000000 1.751450 
# 
# From -- ./inp_files/4559.got.cif
#   From: 2010.05.17/outbox.cif.g08.bks.cpg/sg3_3_cif.got.tgz:4559.got - 2010.06.03 18:33:08.
