data_PCOD9114963
_publ_section_title
;
Structure prediction by ZEFSAII (Michael W. Deem and Ramdas Pophale) SiO2 
 PCOD9114963
Probable space group: P 21
;
_chemical_formula_sum "Si O2"
_cell_formula_units_Z 16
_cell_length_a 9.052642
_cell_length_b 12.624227
_cell_length_c 6.968800
_cell_angle_alpha 90.000000
_cell_angle_beta 50.724102
_cell_angle_gamma 90.000000
_cell_volume 616.508261
_symmetry_space_group_name_H-M "P 21"
_symmetry_group_IT_number 4
_symmetry_cell_setting 'monoclinic'
loop_
_space_group_symop_operation_xyz
x,y,z
-x,1/2+y,-z
loop_
_atom_site_type_symbol
_atom_site_label
_atom_site_fract_x
_atom_site_fract_y
_atom_site_fract_z
Si Si1 0.444492 0.966270 0.173714
Si Si2 0.874259 0.191863 0.867507
Si Si3 0.047492 0.509050 0.642206
Si Si4 0.204861 0.173476 0.341910
Si Si5 0.557418 0.233780 0.826045
Si Si6 0.479121 0.525264 0.335547
Si Si7 0.119616 0.460802 0.142618
Si Si8 0.190925 0.883901 0.851667
O O1 0.360912 0.849739 0.281924
O O2 0.320920 0.070100 0.326655
O O3 0.477036 0.982706 0.916993
O O4 0.657034 0.955876 0.080544
O O5 0.717102 0.177621 0.827847
O O6 0.933598 0.077298 0.893837
O O7 0.773485 0.265874 0.104153
O O8 0.071782 0.230107 0.607360
O O9 0.256985 0.510137 0.559744
O O10 0.076818 0.464526 0.403567
O O11 0.940825 0.621236 0.692676
O O12 0.907582 0.440187 0.884293
O O13 0.364926 0.244539 0.110986
O O14 0.500742 0.152871 0.703319
O O15 0.625019 0.456522 0.342285
O O16 0.977526 0.379829 0.163236
#
# Coordination Sequence:
#
# PCOD9114963 Si02
#       8
#     2   2   2   2   2   2   2   2
#     4  10  19  38  65  90 133 178 215 278 334 394
#     4  11  22  39  66  96 131 182 226 273 351 402
#     4  10  20  43  64  94 131 180 211 272 337 388
#     4  10  19  37  66  95 125 178 229 269 333 405
#     4  11  18  36  67  97 130 181 225 271 345 402
#     4  10  20  37  62  98 131 166 227 273 320 407
#     4  10  24  44  62  96 141 166 224 283 331 403
#     4  12  24  42  68 100 132 179 225 279 337 405
#
# _framework density 25.952612999999999
#
# number of rings (size 3 to 8) (size 9 to 14) (size 15 to 20)
#    0.000    1.500    8.750    0.000    3.500    1.000 
#    4.500    0.000    0.000    0.000    0.000    0.000 
#    0.000    0.000    0.000    0.000    0.000    0.000 
#
# Total GULP energy -89516.319664 kJ/mol
# GULP energy per Si atom -5594.769979 kJ/mol
# Density = 2.589354 g / cm^3
# Si number density = 25.952613 Si / 1000 Ang^3
#
#
#
# Elastic Constant Matrix: (Units=GPa)
#
#
# Indices 1 2 3 4 5 6 
#
# 1 92.0207 4.6919 41.2253 0.0000 -22.9023 0.0000
# 2 4.6919 106.4829 13.8702 0.0000 0.6440 0.0000
# 3 41.2253 13.8702 113.4655 0.0000 -34.3754 0.0000
# 4 0.0000 0.0000 0.0000 29.0736 0.0000 -1.6485
# 5 -22.9023 0.6440 -34.3754 0.0000 47.2928 0.0000
# 6 0.0000 0.0000 0.0000 -1.6485 0.0000 25.1696
#
#
#
# Elastic Compliance Matrix: (Units=1/GPa)
#
#
# Indices 1 2 3 4 5 6 
#
# 1 0.013497 -0.000132 -0.003728 0.000000 0.003828 0.000000
# 2 -0.000132 0.009603 -0.001519 0.000000 -0.001299 0.000000
# 3 -0.003728 -0.001519 0.012584 0.000000 0.007362 0.000000
# 4 0.000000 0.000000 0.000000 0.034524 0.000000 0.002261
# 5 0.003828 -0.001299 0.007362 0.000000 0.028368 0.000000
# 6 0.000000 0.000000 0.000000 0.002261 0.000000 0.039879
#
#
# Mechanical properties :
#
#
# Convention : Reuss Voigt Hill
#
# Bulk Modulus (GPa) = 40.12139 47.94934 44.03536
# Shear Modulus (GPa) = 31.74192 37.11930 34.43061
#
# Velocity S-wave (km/s) = 3.50104 3.78600 3.64630
# Velocity P-wave (km/s) = 5.64235 6.13413 5.89337
#
# Compressibility (1/GPa) = 0.02492436
#
# Stress axis : x y z
#
# Youngs Moduli (GPa) = 74.09229 104.13652 79.46696
#
# Poissons Ratio (x) = 0.01377 0.29624
# Poissons Ratio (y) = 0.00980 0.12074
# Poissons Ratio (z) = 0.27620 0.15823
#
# Static dielectric constant tensor:
#      x y z
#    x 2.052050 0.000000 0.032870 
#    y 0.000000 2.063930 0.000000 
#    z 0.032870 0.000000 2.028640 
# 
# From -- ./inp_files/6584.got.cif
#   From: 2010.05.17/outbox.cif.g08.bks.cpg/sg4_4_cif.got.tgz:6584.got - 2010.06.03 18:43:04.
