data_PCOD9114176
_publ_section_title
;
Structure prediction by ZEFSAII (Michael W. Deem and Ramdas Pophale) SiO2 
 PCOD9114176
Probable space group: P 2
;
_chemical_formula_sum "Si O2"
_cell_formula_units_Z 14
_cell_length_a 12.155396
_cell_length_b 7.638753
_cell_length_c 9.651903
_cell_angle_alpha 90.000000
_cell_angle_beta 143.791378
_cell_angle_gamma 90.000000
_cell_volume 529.409120
_symmetry_space_group_name_H-M "P 2"
_symmetry_group_IT_number 3
_symmetry_cell_setting 'monoclinic'
loop_
_space_group_symop_operation_xyz
x,y,z
-x,y,-z
loop_
_atom_site_type_symbol
_atom_site_label
_atom_site_fract_x
_atom_site_fract_y
_atom_site_fract_z
Si Si1 0.180376 0.035270 0.368567
Si Si2 0.222901 0.500842 0.737482
Si Si3 0.744749 0.979492 0.951708
Si Si4 0.500000 0.871434 0.500000
Si Si5 0.672535 0.375029 0.850675
Si Si6 0.223144 0.902519 0.711926
Si Si7 0.261899 0.433773 0.466154
Si Si8 0.000000 0.537831 0.000000
O O1 0.172420 0.244742 0.341412
O O2 0.965719 0.968967 0.143876
O O3 0.325840 0.957380 0.407785
O O4 0.258965 0.988434 0.600827
O O5 0.282203 0.702347 0.786850
O O6 0.288403 0.424501 0.658326
O O7 0.000000 0.491480 0.500000
O O8 0.277450 0.416467 0.938297
O O9 0.709324 0.990773 0.079491
O O10 0.670209 0.166548 0.824779
O O11 0.630052 0.820744 0.764916
O O12 0.467201 0.446108 0.614877
O O13 0.831429 0.450803 0.914055
O O14 0.000000 0.905399 0.500000
O O15 0.129346 0.586563 0.268414
#
# Coordination Sequence:
#
# PCOD9114176 Si02
#       8
#     2   2   2   1   2   2   2   1
#     4  11  22  41  68  97 129 167 213 264 321 378
#     4  11  22  47  70  91 129 176 219 272 321 371
#     4  11  22  41  68  97 129 167 213 264 321 378
#     4  12  24  38  64 100 140 160 210 256 332 388
#     4  12  24  40  68 102 129 167 220 265 321 387
#     4   9  23  44  71  91 124 173 223 265 314 377
#     4  12  24  40  68 102 129 167 220 265 321 387
#     4  12  24  42  68  92 144 168 206 264 340 380
#
# _framework density 26.444573999999999
#
# number of rings (size 3 to 8) (size 9 to 14) (size 15 to 20)
#    0.000    0.857    4.286    3.000    0.000    1.714 
#    5.143    1.429    0.000    0.000    0.000    0.000 
#    0.000    0.000    0.000    0.000    0.000    0.000 
#
# Total GULP energy -78237.186666 kJ/mol
# GULP energy per Si atom -5588.370476 kJ/mol
# Density = 2.638439 g / cm^3
# Si number density = 26.444574 Si / 1000 Ang^3
#
#
#
# Elastic Constant Matrix: (Units=GPa)
#
#
# Indices 1 2 3 4 5 6 
#
# 1 148.2964 13.8936 72.6551 0.0000 -10.3252 0.0000
# 2 13.8936 75.0714 15.9159 0.0000 5.4692 0.0000
# 3 72.6551 15.9159 166.9755 0.0000 6.1096 0.0000
# 4 0.0000 0.0000 0.0000 -24.1047 0.0000 12.9694
# 5 -10.3252 5.4692 6.1096 0.0000 73.8702 0.0000
# 6 0.0000 0.0000 0.0000 12.9694 0.0000 -25.2787
#
#
#
# Elastic Compliance Matrix: (Units=1/GPa)
#
#
# Indices 1 2 3 4 5 6 
#
# 1 0.008806 -0.000942 -0.003801 0.000000 0.001615 0.000000
# 2 -0.000942 0.013756 -0.000862 0.000000 -0.001079 0.000000
# 3 -0.003801 -0.000862 0.007766 0.000000 -0.001110 0.000000
# 4 0.000000 0.000000 0.000000 -0.057304 0.000000 -0.029400
# 5 0.001615 -0.001079 -0.001110 0.000000 0.013935 0.000000
# 6 0.000000 0.000000 0.000000 -0.029400 0.000000 -0.054643
#
#
# Mechanical properties :
#
#
# Convention : Reuss Voigt Hill
#
# Bulk Modulus (GPa) = 52.30506 66.14138 59.22322
# Shear Modulus (GPa) = -99.79584 24.08928 -37.85328
#
# Velocity S-wave (km/s) = -6.14977 3.02144 -3.78752
# Velocity P-wave (km/s) = 5.53210 6.10228 1.82121
#
# Compressibility (1/GPa) = 0.01911861
#
# Stress axis : x y z
#
# Youngs Moduli (GPa) = 113.55630 72.69409 128.77234
#
# Poissons Ratio (x) = 0.06845 0.48948
# Poissons Ratio (y) = 0.10692 0.11101
# Poissons Ratio (z) = 0.43164 0.06267
#
# Static dielectric constant tensor:
#      x y z
#    x 2.027430 0.000000 -0.065120 
#    y 0.000000 2.125060 0.000000 
#    z -0.065120 0.000000 2.137430 
# 
# From -- ./inp_files/7596.got.cif
#   From: 2010.05.17/outbox.cif.g08.bks.cpg/sg3_4_cif.got.tgz:7596.got - 2010.06.03 18:33:08.
