data_PCOD9114417
_publ_section_title
;
Structure prediction by ZEFSAII (Michael W. Deem and Ramdas Pophale) SiO2 
 PCOD9114417
Probable space group: P 2
;
_chemical_formula_sum "Si O2"
_cell_formula_units_Z 16
_cell_length_a 8.456795
_cell_length_b 11.318323
_cell_length_c 14.806334
_cell_angle_alpha 90.000000
_cell_angle_beta 29.996446
_cell_angle_gamma 90.000000
_cell_volume 708.530859
_symmetry_space_group_name_H-M "P 2"
_symmetry_group_IT_number 3
_symmetry_cell_setting 'monoclinic'
loop_
_space_group_symop_operation_xyz
x,y,z
-x,y,-z
loop_
_atom_site_type_symbol
_atom_site_label
_atom_site_fract_x
_atom_site_fract_y
_atom_site_fract_z
Si Si1 0.876642 0.375000 0.332747
Si Si2 0.622228 0.871525 0.168890
Si Si3 0.251138 0.132211 0.539974
Si Si4 0.248864 0.371525 0.960026
Si Si5 0.122223 0.632212 0.668893
Si Si6 0.376643 0.128737 0.832746
Si Si7 0.751515 0.875000 0.457882
Si Si8 0.251516 0.628736 0.957881
O O1 0.500000 0.377343 0.500000
O O2 0.936293 0.254073 0.356372
O O3 0.952285 0.503848 0.336318
O O4 0.058379 0.366754 0.147902
O O5 0.439553 0.866752 0.354163
O O6 0.558329 0.749665 0.149005
O O7 0.547712 0.999888 0.163684
O O8 0.000000 0.872679 0.000000
O O9 0.500000 0.131055 0.500000
O O10 0.441621 0.136983 0.352098
O O11 0.086499 0.003849 0.624891
O O12 0.436292 0.249663 0.856373
O O13 0.413502 0.499888 0.875108
O O14 0.000000 0.372682 0.000000
O O15 0.500000 0.631060 0.500000
O O16 0.058323 0.754074 0.649009
O O17 0.939552 0.636982 0.854164
O O18 0.000000 0.126393 0.000000
O O19 0.500000 0.877347 0.500000
O O20 0.000000 0.626392 0.000000
#
# Coordination Sequence:
#
# PCOD9114417 Si02
#       8
#     2   2   2   2   2   2   2   2
#     4   9  15  20  25  31  36  41  47  52  57  63
#     4   9  15  20  25  31  36  41  47  52  57  63
#     4   9  15  20  25  31  36  41  47  52  57  63
#     4   9  15  20  25  31  36  41  47  52  57  63
#     4   9  15  20  25  31  36  41  47  52  57  63
#     4   9  15  20  25  31  36  41  47  52  57  63
#     4   9  15  20  25  31  36  41  47  52  57  63
#     4   9  15  20  25  31  36  41  47  52  57  63
#
# _framework density 22.581938000000001
#
# number of rings (size 3 to 8) (size 9 to 14) (size 15 to 20)
#    0.000    3.000    0.000    6.000    0.000    6.000 
#    0.000    0.000    0.000    0.000    0.000    0.000 
#    0.000    0.000    0.000    0.000    0.000    0.000 
#
# Total GULP energy -89167.045148 kJ/mol
# GULP energy per Si atom -5572.940322 kJ/mol
# Density = 2.253054 g / cm^3
# Si number density = 22.581938 Si / 1000 Ang^3
#
#
#
# Elastic Constant Matrix: (Units=GPa)
#
#
# Indices 1 2 3 4 5 6 
#
# 1 17.6678 -10.6790 -1.4454 0.0000 -29.0510 0.0000
# 2 -10.6790 292.8957 35.4790 0.0000 22.4599 0.0000
# 3 -1.4454 35.4790 18.2618 0.0000 29.3155 0.0000
# 4 0.0000 0.0000 0.0000 34.4907 0.0000 27.0659
# 5 -29.0510 22.4599 29.3155 0.0000 8.1061 0.0000
# 6 0.0000 0.0000 0.0000 27.0659 0.0000 -21.1606
#
#
#
# Elastic Compliance Matrix: (Units=1/GPa)
#
#
# Indices 1 2 3 4 5 6 
#
# 1 0.028641 -0.001778 0.034743 0.000000 -0.018079 0.000000
# 2 -0.001778 0.004039 -0.004205 0.000000 -0.002357 0.000000
# 3 0.034743 -0.004205 0.031819 0.000000 0.021092 0.000000
# 4 0.000000 0.000000 0.000000 0.014470 0.000000 0.018508
# 5 -0.018079 -0.002357 0.021092 0.000000 -0.011178 0.000000
# 6 0.000000 0.000000 0.000000 0.018508 0.000000 -0.023585
#
#
# Mechanical properties :
#
#
# Convention : Reuss Voigt Hill
#
# Bulk Modulus (GPa) = 8.19539 41.72606 24.96072
# Shear Modulus (GPa) = 182.76043 24.65197 103.70620
#
# Velocity S-wave (km/s) = 9.00599 3.30762 6.78411
# Velocity P-wave (km/s) = 10.57265 5.75369 8.51134
#
# Compressibility (1/GPa) = 0.12201987
#
# Stress axis : x y z
#
# Youngs Moduli (GPa) = 34.91553 247.55834 31.42769
#
# Poissons Ratio (x) = 0.44014 -1.09190
# Poissons Ratio (y) = 0.06208 0.13215
# Poissons Ratio (z) = -1.21308 1.04097
#
# Static dielectric constant tensor:
#      x y z
#    x 1.775160 0.000000 -0.011640 
#    y 0.000000 1.955210 0.000000 
#    z -0.011640 0.000000 1.751140 
# 
# From -- ./inp_files/16105.got.cif
#   From: 2010.05.17/outbox.cif.g08.bks.cpg/sg3_9_cif.got.tgz:16105.got - 2010.06.03 18:33:08.
