data_PCOD9114459
_publ_section_title
;
Structure prediction by ZEFSAII (Michael W. Deem and Ramdas Pophale) SiO2 
 PCOD9114459
Probable space group: P 21
;
_chemical_formula_sum "Si O2"
_cell_formula_units_Z 14
_cell_length_a 8.117351
_cell_length_b 5.272537
_cell_length_c 25.009924
_cell_angle_alpha 90.000000
_cell_angle_beta 38.179118
_cell_angle_gamma 90.000000
_cell_volume 661.638081
_symmetry_space_group_name_H-M "P 21"
_symmetry_group_IT_number 4
_symmetry_cell_setting 'monoclinic'
loop_
_space_group_symop_operation_xyz
x,y,z
-x,1/2+y,-z
loop_
_atom_site_type_symbol
_atom_site_label
_atom_site_fract_x
_atom_site_fract_y
_atom_site_fract_z
Si Si1 0.192405 0.898010 0.136999
Si Si2 0.598425 0.923908 0.304107
Si Si3 0.446762 0.689113 0.236242
Si Si4 0.131889 0.783018 0.492021
Si Si5 0.673322 0.679865 0.070070
Si Si6 0.278110 0.671206 0.002831
Si Si7 0.790341 0.687045 0.673128
O O1 0.361047 0.724722 0.134492
O O2 0.907604 0.980547 0.231218
O O3 0.401459 0.124636 0.071125
O O4 0.164180 0.745415 0.088934
O O5 0.565900 0.713483 0.265486
O O6 0.435175 0.836408 0.397473
O O7 0.428537 0.147720 0.318977
O O8 0.670995 0.716551 0.134012
O O9 0.299183 0.423176 0.269155
O O10 0.242100 0.925620 0.286693
O O11 0.028586 0.535134 0.486064
O O12 0.061818 0.732616 0.571674
O O13 0.754277 0.406214 0.028701
O O14 0.809062 0.906441 0.001761
#
# Coordination Sequence:
#
# PCOD9114459 Si02
#       7
#     2   2   2   2   2   2   2
#     4  10  20  39  56  81 104 138 187 220 261 312
#     4   9  21  32  58  85 106 134 181 228 254 313
#     4  10  19  34  54  82 106 142 174 215 267 320
#     4  10  16  33  50  81 108 141 170 212 269 313
#     4  10  20  36  57  75 106 146 178 210 270 322
#     4  10  20  37  56  75 104 144 177 219 263 311
#     4   9  18  33  53  79 112 137 169 216 268 313
#
# _framework density 21.159604999999999
#
# number of rings (size 3 to 8) (size 9 to 14) (size 15 to 20)
#    1.714    0.571    2.857    0.857    0.000    1.143 
#    0.000    1.429    0.000    1.714    0.000    0.000 
#    0.000    0.000    0.000    0.000    0.000    0.000 
#
# Total GULP energy -77983.410178 kJ/mol
# GULP energy per Si atom -5570.243584 kJ/mol
# Density = 2.111145 g / cm^3
# Si number density = 21.159605 Si / 1000 Ang^3
#
#
#
# Elastic Constant Matrix: (Units=GPa)
#
#
# Indices 1 2 3 4 5 6 
#
# 1 43.4339 1.7947 19.1446 0.0000 -4.9667 0.0000
# 2 1.7947 128.9449 30.5168 0.0000 4.8166 0.0000
# 3 19.1446 30.5168 134.4435 0.0000 -13.5311 0.0000
# 4 0.0000 0.0000 0.0000 26.6566 0.0000 8.4831
# 5 -4.9667 4.8166 -13.5311 0.0000 24.6864 0.0000
# 6 0.0000 0.0000 0.0000 8.4831 0.0000 -5.2515
#
#
#
# Elastic Compliance Matrix: (Units=1/GPa)
#
#
# Indices 1 2 3 4 5 6 
#
# 1 0.024819 0.000317 -0.003291 0.000000 0.003128 0.000000
# 2 0.000317 0.008383 -0.002229 0.000000 -0.002794 0.000000
# 3 -0.003291 -0.002229 0.008880 0.000000 0.004640 0.000000
# 4 0.000000 0.000000 0.000000 0.024777 0.000000 0.040024
# 5 0.003128 -0.002794 0.004640 0.000000 0.044226 0.000000
# 6 0.000000 0.000000 0.000000 0.040024 0.000000 -0.125768
#
#
# Mechanical properties :
#
#
# Convention : Reuss Voigt Hill
#
# Bulk Modulus (GPa) = 31.57170 45.52605 38.54888
# Shear Modulus (GPa) = 796.02898 26.24270 411.13584
#
# Velocity S-wave (km/s) = 19.41697 3.52551 13.95436
# Velocity P-wave (km/s) = 22.75181 6.17531 16.67003
#
# Compressibility (1/GPa) = 0.03167393
#
# Stress axis : x y z
#
# Youngs Moduli (GPa) = 40.29209 119.29294 112.61670
#
# Poissons Ratio (x) = -0.03778 0.37065
# Poissons Ratio (y) = -0.01276 0.25102
# Poissons Ratio (z) = 0.13261 0.26591
#
# Static dielectric constant tensor:
#      x y z
#    x 1.829590 0.000000 -0.036830 
#    y 0.000000 1.756120 0.000000 
#    z -0.036830 0.000000 1.778760 
# 
# From -- ./inp_files/16302.got.cif
#   From: 2010.05.17/outbox.cif.g08.bks.cpg/sg4_9_cif.got.tgz:16302.got - 2010.06.03 18:43:04.
