data_PCOD9114295
_publ_section_title
;
Structure prediction by ZEFSAII (Michael W. Deem and Ramdas Pophale) SiO2 
 PCOD9114295
Probable space group: P 2
;
_chemical_formula_sum "Si O2"
_cell_formula_units_Z 13
_cell_length_a 5.873941
_cell_length_b 5.246374
_cell_length_c 17.065948
_cell_angle_alpha 90.000000
_cell_angle_beta 76.983526
_cell_angle_gamma 90.000000
_cell_volume 512.406146
_symmetry_space_group_name_H-M "P 2"
_symmetry_group_IT_number 3
_symmetry_cell_setting 'monoclinic'
loop_
_space_group_symop_operation_xyz
x,y,z
-x,y,-z
loop_
_atom_site_type_symbol
_atom_site_label
_atom_site_fract_x
_atom_site_fract_y
_atom_site_fract_z
Si Si1 0.500000 0.953321 0.000000
Si Si2 0.398551 0.677559 0.147070
Si Si3 0.651848 0.630142 0.378453
Si Si4 0.090638 0.320590 0.079939
Si Si5 0.708190 0.331583 0.228887
Si Si6 0.666374 0.955519 0.689632
Si Si7 0.118187 0.136013 0.575474
O O1 0.422478 0.792419 0.930391
O O2 0.699016 0.127443 0.948622
O O3 0.189543 0.577157 0.110301
O O4 0.524879 0.448340 0.181847
O O5 0.316429 0.854656 0.223674
O O6 0.775705 0.554010 0.285452
O O7 0.396264 0.725324 0.366603
O O8 0.711605 0.376760 0.423495
O O9 0.752397 0.868196 0.418733
O O10 0.909272 0.222837 0.158850
O O11 0.000000 0.364322 0.000000
O O12 0.567412 0.126600 0.290504
O O13 0.892586 0.118093 0.650350
O O14 0.000000 0.149802 0.500000
#
# Coordination Sequence:
#
# PCOD9114295 Si02
#       7
#     1   2   2   2   2   2   2
#     4  12  26  42  66 104 142 194 252 316 384 458
#     4  11  25  44  70 102 144 198 252 318 383 453
#     4  11  26  49  78 116 154 208 259 314 394 468
#     4  12  25  43  67  98 146 192 252 314 386 451
#     4  11  25  47  74 106 143 199 258 317 379 460
#     4  11  26  49  79 111 154 204 266 323 385 471
#     4  12  28  51  79 120 162 205 257 324 398 471
#
# _framework density 25.370497
#
# number of rings (size 3 to 8) (size 9 to 14) (size 15 to 20)
#    0.000    0.615    1.538    5.538    8.615    4.923 
#    2.769    1.538    0.000    0.000    0.000    0.000 
#    0.000    0.000    0.000    0.000    0.000    0.000 
#
# Total GULP energy -72770.603618 kJ/mol
# GULP energy per Si atom -5597.738740 kJ/mol
# Density = 2.531275 g / cm^3
# Si number density = 25.370497 Si / 1000 Ang^3
#
#
#
# Elastic Constant Matrix: (Units=GPa)
#
#
# Indices 1 2 3 4 5 6 
#
# 1 43.7622 31.1729 24.6294 0.0000 3.4295 0.0000
# 2 31.1729 137.6606 36.0706 0.0000 17.8019 0.0000
# 3 24.6294 36.0706 107.9222 0.0000 22.6472 0.0000
# 4 0.0000 0.0000 0.0000 18.8269 0.0000 41.2898
# 5 3.4295 17.8019 22.6472 0.0000 67.4201 0.0000
# 6 0.0000 0.0000 0.0000 41.2898 0.0000 -8.2539
#
#
#
# Elastic Compliance Matrix: (Units=1/GPa)
#
#
# Indices 1 2 3 4 5 6 
#
# 1 0.029638 -0.005554 -0.005270 0.000000 0.001729 0.000000
# 2 -0.005554 0.009110 -0.001433 0.000000 -0.001642 0.000000
# 3 -0.005270 -0.001433 0.011632 0.000000 -0.003261 0.000000
# 4 0.000000 0.000000 0.000000 0.004437 0.000000 0.022196
# 5 0.001729 -0.001642 -0.003261 0.000000 0.016273 0.000000
# 6 0.000000 0.000000 0.000000 0.022196 0.000000 -0.010121
#
#
# Mechanical properties :
#
#
# Convention : Reuss Voigt Hill
#
# Bulk Modulus (GPa) = 38.66228 52.56566 45.61397
# Shear Modulus (GPa) = 53.13244 28.76343 40.94793
#
# Velocity S-wave (km/s) = 4.58127 3.37075 4.02182
# Velocity P-wave (km/s) = 6.57695 5.99279 6.29165
#
# Compressibility (1/GPa) = 0.02586500
#
# Stress axis : x y z
#
# Youngs Moduli (GPa) = 33.74084 109.77397 85.97097
#
# Poissons Ratio (x) = 0.60969 0.45309
# Poissons Ratio (y) = 0.18740 0.12317
# Poissons Ratio (z) = 0.17783 0.15727
#
# Static dielectric constant tensor:
#      x y z
#    x 2.046140 0.000000 -0.077400 
#    y 0.000000 2.076680 0.000000 
#    z -0.077400 0.000000 2.205570 
# 
# From -- ./inp_files/3436.got.cif
#   From: 2010.05.17/outbox.cif.g08.bks.cpg/sg3_2_cif.got.tgz:3436.got - 2010.06.03 18:33:08.
