data_PCOD9114125
_publ_section_title
;
Structure prediction by ZEFSAII (Michael W. Deem and Ramdas Pophale) SiO2 
 PCOD9114125
Probable space group: P 2
;
_chemical_formula_sum "Si O2"
_cell_formula_units_Z 12
_cell_length_a 7.323585
_cell_length_b 7.311982
_cell_length_c 9.666697
_cell_angle_alpha 90.000000
_cell_angle_beta 96.864965
_cell_angle_gamma 90.000000
_cell_volume 513.939630
_symmetry_space_group_name_H-M "P 2"
_symmetry_group_IT_number 3
_symmetry_cell_setting 'monoclinic'
loop_
_space_group_symop_operation_xyz
x,y,z
-x,y,-z
loop_
_atom_site_type_symbol
_atom_site_label
_atom_site_fract_x
_atom_site_fract_y
_atom_site_fract_z
Si Si1 0.337102 0.027720 0.212995
Si Si2 0.383033 0.548472 0.857475
Si Si3 0.720568 0.761240 0.558444
Si Si4 0.763189 0.907540 0.273472
Si Si5 0.364607 0.395916 0.364856
Si Si6 0.826512 0.185450 0.069645
O O1 0.289297 0.216904 0.285790
O O2 0.252430 0.864271 0.294956
O O3 0.556507 0.992654 0.243370
O O4 0.281422 0.056935 0.049701
O O5 0.247312 0.709507 0.799858
O O6 0.517262 0.501976 0.741730
O O7 0.288362 0.358734 0.891066
O O8 0.500000 0.612301 0.000000
O O9 0.500000 0.759841 0.500000
O O10 0.805371 0.866574 0.436477
O O11 0.769558 0.548478 0.582753
O O12 0.880832 0.055243 0.201583
O O13 0.500000 0.334683 0.500000
O O14 0.000000 0.254992 0.000000
#
# Coordination Sequence:
#
# PCOD9114125 Si02
#       6
#     2   2   2   2   2   2
#     4  11  20  37  63  89 117 148 200 251 295 344
#     4  12  21  37  63  93 121 149 199 251 297 348
#     4   9  19  33  58  99 115 139 186 252 312 342
#     4  11  21  39  66  92 118 149 199 255 299 346
#     4  11  18  33  60  98 118 139 184 257 307 343
#     4  12  27  41  55  84 126 171 201 232 291 356
#
# _framework density 23.349046000000001
#
# number of rings (size 3 to 8) (size 9 to 14) (size 15 to 20)
#    0.000    1.000    8.333    3.000    0.000    0.667 
#    0.000    0.833    0.000    0.000    0.000    0.000 
#    0.000    0.000    0.000    0.000    0.000    0.000 
#
# Total GULP energy -67135.334468 kJ/mol
# GULP energy per Si atom -5594.611206 kJ/mol
# Density = 2.329590 g / cm^3
# Si number density = 23.349046 Si / 1000 Ang^3
#
#
#
# Elastic Constant Matrix: (Units=GPa)
#
#
# Indices 1 2 3 4 5 6 
#
# 1 42.0964 10.4294 25.0224 0.0000 11.1180 0.0000
# 2 10.4294 125.6007 30.2508 0.0000 -5.9973 0.0000
# 3 25.0224 30.2508 111.4604 0.0000 -14.8468 0.0000
# 4 0.0000 0.0000 0.0000 53.3643 0.0000 -0.9102
# 5 11.1180 -5.9973 -14.8468 0.0000 14.4728 0.0000
# 6 0.0000 0.0000 0.0000 -0.9102 0.0000 8.6733
#
#
#
# Elastic Compliance Matrix: (Units=1/GPa)
#
#
# Indices 1 2 3 4 5 6 
#
# 1 0.051368 -0.002595 -0.018796 0.000000 -0.059818 0.000000
# 2 -0.002595 0.008672 -0.001190 0.000000 0.004367 0.000000
# 3 -0.018796 -0.001190 0.017805 0.000000 0.032211 0.000000
# 4 0.000000 0.000000 0.000000 0.018773 0.000000 0.001970
# 5 -0.059818 0.004367 0.032211 0.000000 0.149899 0.000000
# 6 0.000000 0.000000 0.000000 0.001970 0.000000 0.115503
#
#
# Mechanical properties :
#
#
# Convention : Reuss Voigt Hill
#
# Bulk Modulus (GPa) = 30.59457 45.61807 38.10632
# Shear Modulus (GPa) = 11.95956 29.53240 20.74598
#
# Velocity S-wave (km/s) = 2.26566 3.56029 2.98403
# Velocity P-wave (km/s) = 4.46943 6.03993 5.31303
#
# Compressibility (1/GPa) = 0.03268554
#
# Stress axis : x y z
#
# Youngs Moduli (GPa) = 19.46722 115.31108 56.16495
#
# Poissons Ratio (x) = 0.29920 1.05565
# Poissons Ratio (y) = 0.05051 0.06681
# Poissons Ratio (z) = 0.36590 0.13716
#
# Static dielectric constant tensor:
#      x y z
#    x 1.965040 0.000000 0.011520 
#    y 0.000000 1.835330 0.000000 
#    z 0.011520 0.000000 1.912290 
# 
# From -- ./inp_files/5232.got.cif
#   From: 2010.05.17/outbox.cif.g08.bks.cpg/sg3_3_cif.got.tgz:5232.got - 2010.06.03 18:33:08.
