data_PCOD9114907
_publ_section_title
;
Structure prediction by ZEFSAII (Michael W. Deem and Ramdas Pophale) SiO2 
 PCOD9114907
Probable space group: P 21
;
_chemical_formula_sum "Si O2"
_cell_formula_units_Z 14
_cell_length_a 4.988968
_cell_length_b 14.144332
_cell_length_c 9.283824
_cell_angle_alpha 90.000000
_cell_angle_beta 103.379765
_cell_angle_gamma 90.000000
_cell_volume 637.337339
_symmetry_space_group_name_H-M "P 21"
_symmetry_group_IT_number 4
_symmetry_cell_setting 'monoclinic'
loop_
_space_group_symop_operation_xyz
x,y,z
-x,1/2+y,-z
loop_
_atom_site_type_symbol
_atom_site_label
_atom_site_fract_x
_atom_site_fract_y
_atom_site_fract_z
Si Si1 0.416970 0.328370 0.683976
Si Si2 0.463529 0.465276 0.264608
Si Si3 0.504864 0.032900 0.188103
Si Si4 0.906034 0.053477 0.991260
Si Si5 0.830283 0.646740 0.236028
Si Si6 0.174785 0.559436 0.502834
Si Si7 0.856068 0.378164 0.505579
O O1 0.367600 0.235944 0.772952
O O2 0.687308 0.338478 0.620017
O O3 0.155922 0.332010 0.542676
O O4 0.407699 0.423260 0.778620
O O5 0.656520 0.549869 0.229840
O O6 0.325211 0.500344 0.395660
O O7 0.663672 0.380437 0.339348
O O8 0.218293 0.465025 0.117087
O O9 0.184387 0.033246 0.112516
O O10 0.673500 0.077782 0.077824
O O11 0.607366 0.082541 0.347132
O O12 0.988800 0.133264 0.884606
O O13 0.032222 0.643302 0.399394
O O14 0.939449 0.489567 0.536735
#
# Coordination Sequence:
#
# PCOD9114907 Si02
#       7
#     2   2   2   2   2   2   2
#     4  11  23  37  65  95 120 156 210 266 304 355
#     4  10  19  41  62  90 120 165 205 247 295 384
#     4  11  21  39  63  91 118 161 214 244 303 361
#     4  11  23  38  63  89 124 170 202 243 303 384
#     4  10  23  40  65  92 123 160 210 253 318 360
#     4   9  20  37  65  89 119 161 208 253 289 373
#     4  10  19  36  61  90 116 151 203 258 290 349
#
# _framework density 21.966386
#
# number of rings (size 3 to 8) (size 9 to 14) (size 15 to 20)
#    0.000    1.714    4.286    1.714    6.000    0.000 
#    0.000    0.000    9.429    0.000    0.000    0.000 
#    0.000    0.000    0.000    0.000    0.000    0.000 
#
# Total GULP energy -78062.170987 kJ/mol
# GULP energy per Si atom -5575.869356 kJ/mol
# Density = 2.191639 g / cm^3
# Si number density = 21.966386 Si / 1000 Ang^3
#
#
#
# Elastic Constant Matrix: (Units=GPa)
#
#
# Indices 1 2 3 4 5 6 
#
# 1 109.4094 -6.0021 25.6997 0.0000 7.4777 0.0000
# 2 -6.0021 31.4704 -11.5565 0.0000 -0.0879 0.0000
# 3 25.6997 -11.5565 119.7447 0.0000 24.2649 0.0000
# 4 0.0000 0.0000 0.0000 11.7713 0.0000 -0.8253
# 5 7.4777 -0.0879 24.2649 0.0000 48.4424 0.0000
# 6 0.0000 0.0000 0.0000 -0.8253 0.0000 23.2947
#
#
#
# Elastic Compliance Matrix: (Units=1/GPa)
#
#
# Indices 1 2 3 4 5 6 
#
# 1 0.009677 0.001165 -0.001850 0.000000 -0.000565 0.000000
# 2 0.001165 0.033211 0.003316 0.000000 -0.001781 0.000000
# 3 -0.001850 0.003316 0.010027 0.000000 -0.004731 0.000000
# 4 0.000000 0.000000 0.000000 0.085164 0.000000 0.003017
# 5 -0.000565 -0.001781 -0.004731 0.000000 0.023097 0.000000
# 6 0.000000 0.000000 0.000000 0.003017 0.000000 0.043035
#
#
# Mechanical properties :
#
#
# Convention : Reuss Voigt Hill
#
# Bulk Modulus (GPa) = 17.18921 30.76739 23.97830
# Shear Modulus (GPa) = 22.89996 33.53391 28.21693
#
# Velocity S-wave (km/s) = 3.23228 3.91141 3.58795
# Velocity P-wave (km/s) = 4.66609 5.86821 5.30133
#
# Compressibility (1/GPa) = 0.05817602
#
# Stress axis : x y z
#
# Youngs Moduli (GPa) = 103.33728 30.11072 99.73243
#
# Poissons Ratio (x) = -0.03507 0.18450
# Poissons Ratio (y) = -0.12036 -0.33071
# Poissons Ratio (z) = 0.19117 -0.09985
#
# Static dielectric constant tensor:
#      x y z
#    x 1.867800 0.000000 0.047340 
#    y 0.000000 1.840320 0.000000 
#    z 0.047340 0.000000 1.871600 
# 
# From -- ./inp_files/1916.got.cif
#   From: 2010.05.17/outbox.cif.g08.bks.cpg/sg4_1_cif.got.tgz:1916.got - 2010.06.03 18:43:04.
