data_PCOD9114472
_publ_section_title
;
Structure prediction by ZEFSAII (Michael W. Deem and Ramdas Pophale) SiO2 
 PCOD9114472
Probable space group: P 21
;
_chemical_formula_sum "Si O2"
_cell_formula_units_Z 12
_cell_length_a 11.398380
_cell_length_b 9.784184
_cell_length_c 6.984032
_cell_angle_alpha 90.000000
_cell_angle_beta 143.898958
_cell_angle_gamma 90.000000
_cell_volume 458.928309
_symmetry_space_group_name_H-M "P 21"
_symmetry_group_IT_number 4
_symmetry_cell_setting 'monoclinic'
loop_
_space_group_symop_operation_xyz
x,y,z
-x,1/2+y,-z
loop_
_atom_site_type_symbol
_atom_site_label
_atom_site_fract_x
_atom_site_fract_y
_atom_site_fract_z
Si Si1 0.290541 0.906040 0.577085
Si Si2 0.962547 0.878399 0.403375
Si Si3 0.267753 0.201582 0.628945
Si Si4 0.329816 0.582658 0.905592
Si Si5 0.707295 0.884706 0.691682
Si Si6 0.358329 0.690571 0.361030
O O1 0.244011 0.790614 0.357536
O O2 0.195713 0.871914 0.660081
O O3 0.207630 0.061473 0.441467
O O4 0.525233 0.947727 0.878545
O O5 0.866360 0.745079 0.371275
O O6 0.875762 0.893678 0.074044
O O7 0.879156 0.008484 0.414409
O O8 0.503955 0.173956 0.987685
O O9 0.238257 0.319663 0.437006
O O10 0.289257 0.658470 0.053234
O O11 0.554865 0.776085 0.578703
O O12 0.620030 0.035768 0.535750
#
# Coordination Sequence:
#
# PCOD9114472 Si02
#       6
#     2   2   2   2   2   2
#     4  10  21  39  61  92 131 155 213 267 300 375
#     4  11  21  39  65  87 124 168 199 256 319 368
#     4   9  22  42  58  92 128 156 213 265 296 375
#     4   8  20  40  60  88 124 161 206 253 307 371
#     4  10  20  36  65  88 119 170 209 246 320 367
#     4  10  16  38  61  87 126 156 202 265 296 362
#
# _framework density 26.147877000000001
#
# number of rings (size 3 to 8) (size 9 to 14) (size 15 to 20)
#    1.000    1.333    3.333    0.000    0.000    5.333 
#    3.000    0.000    0.000    0.000    0.000    0.000 
#    0.000    0.000    0.000    0.000    0.000    0.000 
#
# Total GULP energy -66849.824860 kJ/mol
# GULP energy per Si atom -5570.818738 kJ/mol
# Density = 2.608836 g / cm^3
# Si number density = 26.147877 Si / 1000 Ang^3
#
#
#
# Elastic Constant Matrix: (Units=GPa)
#
#
# Indices 1 2 3 4 5 6 
#
# 1 159.6583 83.7923 25.7830 0.0000 14.7047 0.0000
# 2 83.7923 199.5990 45.2313 0.0000 3.2483 0.0000
# 3 25.7830 45.2313 48.5428 0.0000 14.3934 0.0000
# 4 0.0000 0.0000 0.0000 28.7161 0.0000 6.1372
# 5 14.7047 3.2483 14.3934 0.0000 30.9194 0.0000
# 6 0.0000 0.0000 0.0000 6.1372 0.0000 87.7911
#
#
#
# Elastic Compliance Matrix: (Units=1/GPa)
#
#
# Indices 1 2 3 4 5 6 
#
# 1 0.008425 -0.003427 -0.000233 0.000000 -0.003538 0.000000
# 2 -0.003427 0.007905 -0.006709 0.000000 0.003922 0.000000
# 3 -0.000233 -0.006709 0.031014 0.000000 -0.013622 0.000000
# 4 0.000000 0.000000 0.000000 0.035352 0.000000 -0.002471
# 5 -0.003538 0.003922 -0.013622 0.000000 0.039954 0.000000
# 6 0.000000 0.000000 0.000000 -0.002471 0.000000 0.011563
#
#
# Mechanical properties :
#
#
# Convention : Reuss Voigt Hill
#
# Bulk Modulus (GPa) = 37.58281 79.71259 58.64770
# Shear Modulus (GPa) = 30.52145 46.35156 38.43650
#
# Velocity S-wave (km/s) = 3.42023 4.21488 3.83817
# Velocity P-wave (km/s) = 5.47738 7.36467 6.49000
#
# Compressibility (1/GPa) = 0.02660791
#
# Stress axis : x y z
#
# Youngs Moduli (GPa) = 118.69114 126.50306 32.24338
#
# Poissons Ratio (x) = 0.43347 0.00751
# Poissons Ratio (y) = 0.40670 0.21631
# Poissons Ratio (z) = 0.02765 0.84866
#
# Static dielectric constant tensor:
#      x y z
#    x 2.098170 0.000000 0.020510 
#    y 0.000000 2.170290 0.000000 
#    z 0.020510 0.000000 2.107260 
# 
# From -- ./inp_files/7591.got.cif
#   From: 2010.05.17/outbox.cif.g08.bks.cpg/sg4_4_cif.got.tgz:7591.got - 2010.06.03 18:43:04.
