data_PCOD9114799
_publ_section_title
;
Structure prediction by ZEFSAII (Michael W. Deem and Ramdas Pophale) SiO2 
 PCOD9114799
Probable space group: P 21
;
_chemical_formula_sum "Si O2"
_cell_formula_units_Z 10
_cell_length_a 10.281139
_cell_length_b 5.469065
_cell_length_c 7.790375
_cell_angle_alpha 90.000000
_cell_angle_beta 61.990569
_cell_angle_gamma 90.000000
_cell_volume 386.731537
_symmetry_space_group_name_H-M "P 21"
_symmetry_group_IT_number 4
_symmetry_cell_setting 'monoclinic'
loop_
_space_group_symop_operation_xyz
x,y,z
-x,1/2+y,-z
loop_
_atom_site_type_symbol
_atom_site_label
_atom_site_fract_x
_atom_site_fract_y
_atom_site_fract_z
Si Si1 0.781923 0.981470 0.044728
Si Si2 0.769273 0.481847 0.247472
Si Si3 0.996699 0.541523 0.398887
Si Si4 0.476743 0.485078 0.252986
Si Si5 0.568717 0.483860 0.810897
O O1 0.867720 0.005563 0.815189
O O2 0.817729 0.724055 0.112227
O O3 0.606282 0.982019 0.123348
O O4 0.814400 0.222256 0.136830
O O5 0.590156 0.485242 0.340497
O O6 0.851628 0.505238 0.374013
O O7 0.000313 0.815943 0.470474
O O8 0.380955 0.728350 0.298273
O O9 0.382332 0.241044 0.295059
O O10 0.424690 0.983735 0.985825
#
# Coordination Sequence:
#
# PCOD9114799 Si02
#       5
#     2   2   2   2   2
#     4  10  19  34  55  75  97 129 169 204 239 292
#     4  10  19  34  55  75  97 129 169 204 239 292
#     4  12  24  36  50  72 104 134 164 206 252 290
#     4   8  14  25  45  73  97 117 151 201 244 278
#     4   8  14  25  45  73  97 117 151 201 244 278
#
# _framework density 25.857733
#
# number of rings (size 3 to 8) (size 9 to 14) (size 15 to 20)
#    0.000    2.400    0.000    3.600    0.000    0.000 
#    0.000    0.000    0.000    2.400    0.000    0.000 
#    0.000    0.000    0.000    0.000    0.000    0.000 
#
# Total GULP energy -56017.094650 kJ/mol
# GULP energy per Si atom -5601.709465 kJ/mol
# Density = 2.579888 g / cm^3
# Si number density = 25.857733 Si / 1000 Ang^3
#
#
#
# Elastic Constant Matrix: (Units=GPa)
#
#
# Indices 1 2 3 4 5 6 
#
# 1 76.6543 6.6526 29.0998 0.0000 17.4365 0.0000
# 2 6.6526 196.6682 10.2003 0.0000 2.4365 0.0000
# 3 29.0998 10.2003 47.3350 0.0000 6.9571 0.0000
# 4 0.0000 0.0000 0.0000 57.4915 0.0000 8.8936
# 5 17.4365 2.4365 6.9571 0.0000 55.8144 0.0000
# 6 0.0000 0.0000 0.0000 8.8936 0.0000 0.2212
#
#
#
# Elastic Compliance Matrix: (Units=1/GPa)
#
#
# Indices 1 2 3 4 5 6 
#
# 1 0.017984 -0.000014 -0.010418 0.000000 -0.004319 0.000000
# 2 -0.000014 0.005143 -0.001087 0.000000 -0.000084 0.000000
# 3 -0.010418 -0.001087 0.027789 0.000000 -0.000162 0.000000
# 4 0.000000 0.000000 0.000000 -0.003332 0.000000 0.133978
# 5 -0.004319 -0.000084 -0.000162 0.000000 0.019290 0.000000
# 6 0.000000 0.000000 0.000000 0.133978 0.000000 -0.866090
#
#
# Mechanical properties :
#
#
# Convention : Reuss Voigt Hill
#
# Bulk Modulus (GPa) = 35.87241 45.84032 40.85636
# Shear Modulus (GPa) = -6.51988 41.01906 17.24959
#
# Velocity S-wave (km/s) = -1.58963 3.98720 2.58562
# Velocity P-wave (km/s) = 3.24560 6.24207 4.97480
#
# Compressibility (1/GPa) = 0.02787658
#
# Stress axis : x y z
#
# Youngs Moduli (GPa) = 55.60413 194.45360 35.98592
#
# Poissons Ratio (x) = 0.00282 0.37491
# Poissons Ratio (y) = 0.00081 0.03911
# Poissons Ratio (z) = 0.57929 0.21134
#
# Static dielectric constant tensor:
#      x y z
#    x 1.983610 0.000000 0.010460 
#    y 0.000000 2.107370 0.000000 
#    z 0.010460 0.000000 2.041990 
# 
# From -- ./inp_files/3315.got.cif
#   From: 2010.05.17/outbox.cif.g08.bks.cpg/sg4_2_cif.got.tgz:3315.got - 2010.06.03 18:43:04.
