data_PCOD9115565
_publ_section_title
;
Structure prediction by ZEFSAII (Michael W. Deem and Ramdas Pophale) SiO2 
 PCOD9115565
Probable space group: P 21
;
_chemical_formula_sum "Si O2"
_cell_formula_units_Z 14
_cell_length_a 15.696745
_cell_length_b 7.534076
_cell_length_c 6.081863
_cell_angle_alpha 90.000000
_cell_angle_beta 56.991740
_cell_angle_gamma 90.000000
_cell_volume 603.152274
_symmetry_space_group_name_H-M "P 21"
_symmetry_group_IT_number 4
_symmetry_cell_setting 'monoclinic'
loop_
_space_group_symop_operation_xyz
x,y,z
-x,1/2+y,-z
loop_
_atom_site_type_symbol
_atom_site_label
_atom_site_fract_x
_atom_site_fract_y
_atom_site_fract_z
Si Si1 0.059392 0.051380 0.445495
Si Si2 0.390764 0.055831 0.066209
Si Si3 0.473721 0.707137 0.765468
Si Si4 0.648157 0.861021 0.211928
Si Si5 0.858660 0.775257 0.026999
Si Si6 0.787244 0.437545 0.401159
Si Si7 0.050534 0.769469 0.080141
O O1 0.968680 0.100718 0.737871
O O2 0.145002 0.964617 0.475786
O O3 0.102139 0.228856 0.271551
O O4 0.039621 0.931040 0.264517
O O5 0.325203 0.959190 0.349737
O O6 0.488284 0.139811 0.049289
O O7 0.415602 0.894121 0.868979
O O8 0.340700 0.223094 0.010014
O O9 0.572741 0.755599 0.482117
O O10 0.406285 0.546558 0.768163
O O11 0.760078 0.898535 0.150002
O O12 0.806701 0.600214 0.209321
O O13 0.957239 0.795414 0.043095
O O14 0.842762 0.276969 0.196707
#
# Coordination Sequence:
#
# PCOD9115565 Si02
#       7
#     2   2   2   2   2   2   2
#     4  10  20  40  67  92 136 188 221 292 350 402
#     4  12  24  45  76 106 145 189 237 302 366 427
#     4  12  26  44  77 108 144 188 241 298 362 436
#     4  12  24  45  76 106 145 189 237 302 366 427
#     4  10  21  40  71  97 135 187 234 291 362 424
#     4  10  21  40  71  97 135 187 234 291 362 424
#     4  10  22  40  70  98 134 186 238 280 354 432
#
# _framework density 23.211385
#
# number of rings (size 3 to 8) (size 9 to 14) (size 15 to 20)
#    0.000    1.143    5.714    0.857    0.000    0.000 
#    0.000   11.429   18.857    0.000    0.000    0.000 
#    0.000    0.000    0.000    0.000    0.000    0.000 
#
# Total GULP energy -78162.603022 kJ/mol
# GULP energy per Si atom -5583.043073 kJ/mol
# Density = 2.315855 g / cm^3
# Si number density = 23.211385 Si / 1000 Ang^3
#
#
#
# Elastic Constant Matrix: (Units=GPa)
#
#
# Indices 1 2 3 4 5 6 
#
# 1 42.9398 30.0899 -3.7132 0.0000 10.0652 0.0000
# 2 30.0899 101.8563 18.2319 0.0000 4.3779 0.0000
# 3 -3.7132 18.2319 98.9366 0.0000 -1.8228 0.0000
# 4 0.0000 0.0000 0.0000 48.1551 0.0000 8.1156
# 5 10.0652 4.3779 -1.8228 0.0000 27.8956 0.0000
# 6 0.0000 0.0000 0.0000 8.1156 0.0000 33.8988
#
#
#
# Elastic Compliance Matrix: (Units=1/GPa)
#
#
# Indices 1 2 3 4 5 6 
#
# 1 0.032726 -0.009742 0.002838 0.000000 -0.010094 0.000000
# 2 -0.009742 0.013135 -0.002763 0.000000 0.001273 0.000000
# 3 0.002838 -0.002763 0.010725 0.000000 0.000111 0.000000
# 4 0.000000 0.000000 0.000000 0.021639 0.000000 -0.005181
# 5 -0.010094 0.001273 0.000111 0.000000 0.039297 0.000000
# 6 0.000000 0.000000 0.000000 -0.005181 0.000000 0.030740
#
#
# Mechanical properties :
#
#
# Convention : Reuss Voigt Hill
#
# Bulk Modulus (GPa) = 26.84369 36.99444 31.91906
# Shear Modulus (GPa) = 27.77538 35.26486 31.52012
#
# Velocity S-wave (km/s) = 3.46298 3.90204 3.68905
# Velocity P-wave (km/s) = 5.25163 6.02278 5.65038
#
# Compressibility (1/GPa) = 0.03725270
#
# Stress axis : x y z
#
# Youngs Moduli (GPa) = 30.55631 76.12963 93.23894
#
# Poissons Ratio (x) = 0.74165 -0.26457
# Poissons Ratio (y) = 0.29768 0.25760
# Poissons Ratio (z) = -0.08670 0.21033
#
# Static dielectric constant tensor:
#      x y z
#    x 1.868660 0.000000 -0.014490 
#    y 0.000000 1.965340 0.000000 
#    z -0.014490 0.000000 1.926280 
# 
# From -- ./inp_files/3383.got.cif
#   From: 2010.05.17/outbox.cif.g08.bks.cpg/sg4_2_cif.got.tgz:3383.got - 2010.06.03 18:43:04.
