data_PCOD9115909
_publ_section_title
;
Structure prediction by ZEFSAII (Michael W. Deem and Ramdas Pophale) SiO2 
 PCOD9115909
Probable space group: P 21
;
_chemical_formula_sum "Si O2"
_cell_formula_units_Z 14
_cell_length_a 5.523117
_cell_length_b 5.381488
_cell_length_c 16.500910
_cell_angle_alpha 90.000000
_cell_angle_beta 84.274578
_cell_angle_gamma 90.000000
_cell_volume 488.003092
_symmetry_space_group_name_H-M "P 21"
_symmetry_group_IT_number 4
_symmetry_cell_setting 'monoclinic'
loop_
_space_group_symop_operation_xyz
x,y,z
-x,1/2+y,-z
loop_
_atom_site_type_symbol
_atom_site_label
_atom_site_fract_x
_atom_site_fract_y
_atom_site_fract_z
Si Si1 0.603022 0.595170 0.391743
Si Si2 0.265684 0.816988 0.039941
Si Si3 0.687441 0.274225 0.252200
Si Si4 0.998515 0.315917 0.104221
Si Si5 0.121874 0.837322 0.328634
Si Si6 0.530444 0.276547 0.812836
Si Si7 0.133618 0.156802 0.467478
O O1 0.647117 0.328022 0.347979
O O2 0.345539 0.696772 0.368014
O O3 0.623110 0.620634 0.487532
O O4 0.850431 0.735895 0.352712
O O5 0.149483 0.077224 0.071284
O O6 0.500692 0.800949 0.089525
O O7 0.244594 0.804866 0.944239
O O8 0.124632 0.572476 0.075930
O O9 0.948499 0.305192 0.201160
O O10 0.549709 0.507000 0.214770
O O11 0.604581 0.005409 0.225639
O O12 0.199100 0.817538 0.233046
O O13 0.140748 0.104923 0.371758
O O14 0.975449 0.923793 0.507081
#
# Coordination Sequence:
#
# PCOD9115909 Si02
#       7
#     2   2   2   2   2   2   2
#     4  10  24  45  69  99 135 176 222 274 332 394
#     4  10  21  38  61  89 124 169 218 271 330 392
#     4  11  24  40  62  93 127 170 219 271 330 392
#     4  10  21  38  61  89 124 169 218 271 330 392
#     4  10  24  45  69  99 135 176 222 274 332 394
#     4  11  24  40  62  93 127 170 219 271 330 392
#     4  10  24  44  70 100 134 176 222 274 332 394
#
# _framework density 28.68834
#
# number of rings (size 3 to 8) (size 9 to 14) (size 15 to 20)
#    0.000    1.714    0.000    2.571    0.000   19.429 
#    0.000    0.000    0.000    0.000    0.000    0.000 
#    0.000    0.000    0.000    0.000    0.000    0.000 
#
# Total GULP energy -78364.410934 kJ/mol
# GULP energy per Si atom -5597.457924 kJ/mol
# Density = 2.862304 g / cm^3
# Si number density = 28.688340 Si / 1000 Ang^3
#
#
#
# Elastic Constant Matrix: (Units=GPa)
#
#
# Indices 1 2 3 4 5 6 
#
# 1 109.2681 71.5827 27.4689 0.0000 5.5493 0.0000
# 2 71.5827 175.3635 41.9036 0.0000 -4.2029 0.0000
# 3 27.4689 41.9036 118.6900 0.0000 15.4518 0.0000
# 4 0.0000 0.0000 0.0000 46.5594 0.0000 4.5349
# 5 5.5493 -4.2029 15.4518 0.0000 55.0191 0.0000
# 6 0.0000 0.0000 0.0000 4.5349 0.0000 166.3065
#
#
#
# Elastic Compliance Matrix: (Units=1/GPa)
#
#
# Indices 1 2 3 4 5 6 
#
# 1 0.012748 -0.004997 -0.001006 0.000000 -0.001385 0.000000
# 2 -0.004997 0.008255 -0.001978 0.000000 0.001690 0.000000
# 3 -0.001006 -0.001978 0.009718 0.000000 -0.002779 0.000000
# 4 0.000000 0.000000 0.000000 0.021535 0.000000 -0.000587
# 5 -0.001385 0.001690 -0.002779 0.000000 0.019225 0.000000
# 6 0.000000 0.000000 0.000000 -0.000587 0.000000 0.006029
#
#
# Mechanical properties :
#
#
# Convention : Reuss Voigt Hill
#
# Bulk Modulus (GPa) = 67.74943 76.13690 71.94317
# Shear Modulus (GPa) = 50.81681 71.06809 60.94245
#
# Velocity S-wave (km/s) = 4.21330 4.98259 4.61401
# Velocity P-wave (km/s) = 6.88012 7.72649 7.31555
#
# Compressibility (1/GPa) = 0.01476027
#
# Stress axis : x y z
#
# Youngs Moduli (GPa) = 78.44123 121.13516 102.89847
#
# Poissons Ratio (x) = 0.60527 0.10352
# Poissons Ratio (y) = 0.39194 0.20355
# Poissons Ratio (z) = 0.07892 0.23962
#
# Static dielectric constant tensor:
#      x y z
#    x 2.225550 0.000000 0.135410 
#    y 0.000000 2.214560 0.000000 
#    z 0.135410 0.000000 2.179700 
# 
# From -- ./inp_files/14646.got.cif
#   From: 2010.05.17/outbox.cif.g08.bks.cpg/sg4_8_cif.got.tgz:14646.got - 2010.06.03 18:43:04.
