data_PCOD9115023
_publ_section_title
;
Structure prediction by ZEFSAII (Michael W. Deem and Ramdas Pophale) SiO2 
 PCOD9115023
Probable space group: P 21
;
_chemical_formula_sum "Si O2"
_cell_formula_units_Z 16
_cell_length_a 6.772969
_cell_length_b 13.421425
_cell_length_c 12.348566
_cell_angle_alpha 90.000000
_cell_angle_beta 33.911621
_cell_angle_gamma 90.000000
_cell_volume 626.269225
_symmetry_space_group_name_H-M "P 21"
_symmetry_group_IT_number 4
_symmetry_cell_setting 'monoclinic'
loop_
_space_group_symop_operation_xyz
x,y,z
-x,1/2+y,-z
loop_
_atom_site_type_symbol
_atom_site_label
_atom_site_fract_x
_atom_site_fract_y
_atom_site_fract_z
Si Si1 0.687046 0.813870 0.652365
Si Si2 0.670802 0.784530 0.420524
Si Si3 0.446553 0.730709 0.060146
Si Si4 0.171805 0.987093 0.501878
Si Si5 0.605948 0.587985 0.152014
Si Si6 0.713318 0.601996 0.739157
Si Si7 0.531309 0.080484 0.543465
Si Si8 0.170523 0.894294 0.054472
O O1 0.768772 0.699289 0.638264
O O2 0.325316 0.841398 0.877987
O O3 0.616786 0.836670 0.559013
O O4 0.011562 0.877774 0.553010
O O5 0.400931 0.696696 0.520590
O O6 0.032255 0.722115 0.273122
O O7 0.792569 0.855303 0.267417
O O8 0.526807 0.652336 0.927315
O O9 0.449145 0.845545 0.016502
O O10 0.645322 0.694934 0.076863
O O11 0.420219 0.022491 0.288720
O O12 0.342762 0.016513 0.537887
O O13 0.800047 0.049449 0.667902
O O14 0.680691 0.584529 0.245927
O O15 0.805108 0.509048 0.985229
O O16 0.066590 0.547271 0.620122
#
# Coordination Sequence:
#
# PCOD9115023 Si02
#       8
#     2   2   2   2   2   2   2   2
#     4  10  19  39  64  87 119 162 200 251 301 361
#     4  10  19  39  65  84 116 166 202 245 306 355
#     4   9  19  38  62  85 123 164 199 245 306 356
#     4  10  20  39  63  87 118 163 205 242 312 361
#     4  10  19  39  63  87 126 160 199 254 301 361
#     4  10  21  39  60  90 125 156 203 258 299 359
#     4  11  21  39  63  89 123 160 203 251 307 361
#     4   8  20  36  62  89 120 161 201 244 306 356
#
# _framework density 25.548119
#
# number of rings (size 3 to 8) (size 9 to 14) (size 15 to 20)
#    0.750    1.500    2.500    0.750    1.750    0.000 
#   11.250    2.500    0.000    0.000    0.000    0.000 
#    0.000    0.000    0.000    0.000    0.000    0.000 
#
# Total GULP energy -89263.860131 kJ/mol
# GULP energy per Si atom -5578.991258 kJ/mol
# Density = 2.548997 g / cm^3
# Si number density = 25.548119 Si / 1000 Ang^3
#
#
#
# Elastic Constant Matrix: (Units=GPa)
#
#
# Indices 1 2 3 4 5 6 
#
# 1 112.3633 23.3748 31.9019 0.0000 30.0659 0.0000
# 2 23.3748 65.5632 3.8703 0.0000 2.6278 0.0000
# 3 31.9019 3.8703 92.1065 0.0000 30.7295 0.0000
# 4 0.0000 0.0000 0.0000 40.3044 0.0000 3.7828
# 5 30.0659 2.6278 30.7295 0.0000 34.7373 0.0000
# 6 0.0000 0.0000 0.0000 3.7828 0.0000 35.5364
#
#
#
# Elastic Compliance Matrix: (Units=1/GPa)
#
#
# Indices 1 2 3 4 5 6 
#
# 1 0.012631 -0.004055 -0.000936 0.000000 -0.009798 0.000000
# 2 -0.004055 0.016609 -0.000064 0.000000 0.002310 0.000000
# 3 -0.000936 -0.000064 0.015481 0.000000 -0.012880 0.000000
# 4 0.000000 0.000000 0.000000 0.025062 0.000000 -0.002668
# 5 -0.009798 0.002310 -0.012880 0.000000 0.048487 0.000000
# 6 0.000000 0.000000 0.000000 -0.002668 0.000000 0.028424
#
#
# Mechanical properties :
#
#
# Convention : Reuss Voigt Hill
#
# Bulk Modulus (GPa) = 28.89223 43.14745 36.01984
# Shear Modulus (GPa) = 29.70173 36.17468 32.93820
#
# Velocity S-wave (km/s) = 3.41336 3.76698 3.59452
# Velocity P-wave (km/s) = 5.18346 5.98712 5.59972
#
# Compressibility (1/GPa) = 0.03461139
#
# Stress axis : x y z
#
# Youngs Moduli (GPa) = 79.17322 60.20679 64.59544
#
# Poissons Ratio (x) = 0.24415 0.06043
# Poissons Ratio (y) = 0.32106 0.00414
# Poissons Ratio (z) = 0.07407 0.00386
#
# Static dielectric constant tensor:
#      x y z
#    x 2.082040 0.000000 0.008020 
#    y 0.000000 2.104690 0.000000 
#    z 0.008020 0.000000 2.055710 
# 
# From -- ./inp_files/6605.got.cif
#   From: 2010.05.17/outbox.cif.g08.bks.cpg/sg4_4_cif.got.tgz:6605.got - 2010.06.03 18:43:04.
