data_PCOD9115668
_publ_section_title
;
Structure prediction by ZEFSAII (Michael W. Deem and Ramdas Pophale) SiO2 
 PCOD9115668
Probable space group: P 21
;
_chemical_formula_sum "Si O2"
_cell_formula_units_Z 16
_cell_length_a 9.006305
_cell_length_b 6.814153
_cell_length_c 11.695618
_cell_angle_alpha 90.000000
_cell_angle_beta 122.174788
_cell_angle_gamma 90.000000
_cell_volume 607.535284
_symmetry_space_group_name_H-M "P 21"
_symmetry_group_IT_number 4
_symmetry_cell_setting 'monoclinic'
loop_
_space_group_symop_operation_xyz
x,y,z
-x,1/2+y,-z
loop_
_atom_site_type_symbol
_atom_site_label
_atom_site_fract_x
_atom_site_fract_y
_atom_site_fract_z
Si Si1 0.326289 0.222660 0.961337
Si Si2 0.983015 0.852387 0.788347
Si Si3 0.685853 0.226509 0.223574
Si Si4 0.975169 0.328709 0.774561
Si Si5 0.292762 0.814803 0.511487
Si Si6 0.352566 0.362825 0.478349
Si Si7 0.601262 0.767596 0.252175
Si Si8 0.782069 0.370695 0.918333
O O1 0.321291 0.157501 0.825979
O O2 0.171196 0.382620 0.895159
O O3 0.523277 0.282145 0.073744
O O4 0.278267 0.061922 0.036282
O O5 0.128849 0.770848 0.760444
O O6 0.790266 0.789817 0.670758
O O7 0.052874 0.793119 0.941800
O O8 0.977013 0.090477 0.784231
O O9 0.680086 0.337819 0.342730
O O10 0.651702 0.995774 0.241487
O O11 0.894330 0.380501 0.618193
O O12 0.841971 0.403441 0.814843
O O13 0.296700 0.580036 0.492651
O O14 0.458030 0.880967 0.502682
O O15 0.348384 0.240859 0.594841
O O16 0.391700 0.739575 0.159501
#
# Coordination Sequence:
#
# PCOD9115668 Si02
#       8
#     2   2   2   2   2   2   2   2
#     4  10  22  40  66  96 123 176 220 275 339 388
#     4  10  22  42  62  96 130 173 221 274 329 394
#     4  10  22  41  63  94 138 167 222 276 325 402
#     4  10  22  42  67  89 132 177 223 276 330 394
#     4  10  22  43  62  96 132 178 222 273 329 395
#     4  10  22  42  65  92 134 175 224 271 332 390
#     4  10  20  42  66  91 132 178 215 276 336 391
#     4  10  20  42  65  92 129 168 227 279 326 396
#
# _framework density 26.335919000000001
#
# number of rings (size 3 to 8) (size 9 to 14) (size 15 to 20)
#    0.000    2.000    2.500    0.000    3.500    0.000 
#   11.250    0.000    0.000    0.000    0.000    0.000 
#    0.000    0.000    0.000    0.000    0.000    0.000 
#
# Total GULP energy -89521.336937 kJ/mol
# GULP energy per Si atom -5595.083559 kJ/mol
# Density = 2.627598 g / cm^3
# Si number density = 26.335919 Si / 1000 Ang^3
#
#
#
# Elastic Constant Matrix: (Units=GPa)
#
#
# Indices 1 2 3 4 5 6 
#
# 1 84.4329 -4.3902 46.6012 0.0000 2.0206 0.0000
# 2 -4.3902 94.3335 4.4048 0.0000 -3.1449 0.0000
# 3 46.6012 4.4048 185.6040 0.0000 10.5244 0.0000
# 4 0.0000 0.0000 0.0000 22.9421 0.0000 -4.9116
# 5 2.0206 -3.1449 10.5244 0.0000 57.9708 0.0000
# 6 0.0000 0.0000 0.0000 -4.9116 0.0000 34.6713
#
#
#
# Elastic Compliance Matrix: (Units=1/GPa)
#
#
# Indices 1 2 3 4 5 6 
#
# 1 0.013812 0.000813 -0.003498 0.000000 0.000198 0.000000
# 2 0.000813 0.010683 -0.000494 0.000000 0.000641 0.000000
# 3 -0.003498 -0.000494 0.006338 0.000000 -0.001055 0.000000
# 4 0.000000 0.000000 0.000000 0.044951 0.000000 0.006368
# 5 0.000198 0.000641 -0.001055 0.000000 0.017470 0.000000
# 6 0.000000 0.000000 0.000000 0.006368 0.000000 0.029744
#
#
# Mechanical properties :
#
#
# Convention : Reuss Voigt Hill
#
# Bulk Modulus (GPa) = 40.86033 50.84468 45.85251
# Shear Modulus (GPa) = 36.35964 44.30049 40.33006
#
# Velocity S-wave (km/s) = 3.71969 4.10583 3.91752
# Velocity P-wave (km/s) = 5.83068 6.46724 6.15719
#
# Compressibility (1/GPa) = 0.02447361
#
# Stress axis : x y z
#
# Youngs Moduli (GPa) = 72.40005 93.60713 157.78421
#
# Poissons Ratio (x) = -0.07608 0.55200
# Poissons Ratio (y) = -0.05884 0.07794
# Poissons Ratio (z) = 0.25329 0.04624
#
# Static dielectric constant tensor:
#      x y z
#    x 2.012550 0.000000 0.034420 
#    y 0.000000 2.185160 0.000000 
#    z 0.034420 0.000000 2.021830 
# 
# From -- ./inp_files/7768.got.cif
#   From: 2010.05.17/outbox.cif.g08.bks.cpg/sg4_4_cif.got.tgz:7768.got - 2010.06.03 18:43:04.
