data_PCOD9115637
_publ_section_title
;
Structure prediction by ZEFSAII (Michael W. Deem and Ramdas Pophale) SiO2 
 PCOD9115637
Probable space group: P 21
;
_chemical_formula_sum "Si O2"
_cell_formula_units_Z 14
_cell_length_a 6.077805
_cell_length_b 4.847571
_cell_length_c 17.021916
_cell_angle_alpha 90.000000
_cell_angle_beta 94.314063
_cell_angle_gamma 90.000000
_cell_volume 500.088826
_symmetry_space_group_name_H-M "P 21"
_symmetry_group_IT_number 4
_symmetry_cell_setting 'monoclinic'
loop_
_space_group_symop_operation_xyz
x,y,z
-x,1/2+y,-z
loop_
_atom_site_type_symbol
_atom_site_label
_atom_site_fract_x
_atom_site_fract_y
_atom_site_fract_z
Si Si1 0.283310 0.027470 0.067659
Si Si2 0.590784 0.537063 0.101652
Si Si3 0.935833 0.326934 0.438150
Si Si4 0.513315 0.211062 0.381760
Si Si5 0.347431 0.257972 0.555711
Si Si6 0.038109 0.369842 0.812217
Si Si7 0.852626 0.863822 0.720532
O O1 0.476330 0.236488 0.103893
O O2 0.380444 0.724548 0.079549
O O3 0.061564 0.019062 0.112665
O O4 0.261080 0.063711 0.973807
O O5 0.738455 0.696333 0.169504
O O6 0.768350 0.052998 0.416110
O O7 0.079557 0.128602 0.508092
O O8 0.090464 0.393966 0.369617
O O9 0.695312 0.485598 0.391062
O O10 0.434308 0.312011 0.469166
O O11 0.432617 0.884118 0.391701
O O12 0.399707 0.269195 0.294806
O O13 0.022195 0.626015 0.752606
O O14 0.879409 0.133681 0.772735
#
# Coordination Sequence:
#
# PCOD9115637 Si02
#       7
#     2   2   2   2   2   2   2
#     4  10  23  45  75 105 141 173 247 292 342 419
#     4  10  23  45  76 107 131 191 233 292 354 400
#     4  10  23  41  67  94 126 173 232 286 342 414
#     4  10  22  41  60  95 123 176 220 289 341 399
#     4  10  20  41  69  88 125 167 234 293 345 376
#     4  12  27  45  66 107 145 187 225 290 346 430
#     4  12  28  40  65  98 145 183 229 266 364 430
#
# _framework density 27.995027
#
# number of rings (size 3 to 8) (size 9 to 14) (size 15 to 20)
#    0.857    0.571    1.429    2.571    2.000    9.143 
#    0.000    0.000    0.000    0.000    0.000    0.000 
#    0.000    0.000    0.000    0.000    0.000    0.000 
#
# Total GULP energy -78035.920708 kJ/mol
# GULP energy per Si atom -5573.994336 kJ/mol
# Density = 2.793131 g / cm^3
# Si number density = 27.995027 Si / 1000 Ang^3
#
#
#
# Elastic Constant Matrix: (Units=GPa)
#
#
# Indices 1 2 3 4 5 6 
#
# 1 20.9704 -8.3963 14.6197 0.0000 6.4956 0.0000
# 2 -8.3963 76.7044 21.0159 0.0000 3.1146 0.0000
# 3 14.6197 21.0159 60.6173 0.0000 2.0477 0.0000
# 4 0.0000 0.0000 0.0000 43.5913 0.0000 10.7814
# 5 6.4956 3.1146 2.0477 0.0000 33.8905 0.0000
# 6 0.0000 0.0000 0.0000 10.7814 0.0000 50.1388
#
#
#
# Elastic Compliance Matrix: (Units=1/GPa)
#
#
# Indices 1 2 3 4 5 6 
#
# 1 0.073570 0.014759 -0.022384 0.000000 -0.014105 0.000000
# 2 0.014759 0.017402 -0.009462 0.000000 -0.003856 0.000000
# 3 -0.022384 -0.009462 0.025053 0.000000 0.003646 0.000000
# 4 0.000000 0.000000 0.000000 0.024229 0.000000 -0.005210
# 5 -0.014105 -0.003856 0.003646 0.000000 0.032344 0.000000
# 6 0.000000 0.000000 0.000000 -0.005210 0.000000 0.021065
#
#
# Mechanical properties :
#
#
# Convention : Reuss Voigt Hill
#
# Bulk Modulus (GPa) = 12.21759 23.64118 17.92938
# Shear Modulus (GPa) = 19.59854 34.26096 26.92975
#
# Velocity S-wave (km/s) = 2.64876 3.50211 3.10489
# Velocity P-wave (km/s) = 3.70516 4.98158 4.39001
#
# Compressibility (1/GPa) = 0.08184922
#
# Stress axis : x y z
#
# Youngs Moduli (GPa) = 13.59254 57.46549 39.91541
#
# Poissons Ratio (x) = -0.84812 0.89347
# Poissons Ratio (y) = -0.20061 0.37770
# Poissons Ratio (z) = 0.30426 0.54376
#
# Static dielectric constant tensor:
#      x y z
#    x 2.379250 0.000000 0.151330 
#    y 0.000000 2.333690 0.000000 
#    z 0.151330 0.000000 2.158910 
# 
# From -- ./inp_files/14672.got.cif
#   From: 2010.05.17/outbox.cif.g08.bks.cpg/sg4_8_cif.got.tgz:14672.got - 2010.06.03 18:43:04.
