data_PCOD9115878
_publ_section_title
;
Structure prediction by ZEFSAII (Michael W. Deem and Ramdas Pophale) SiO2 
 PCOD9115878
Probable space group: P 21
;
_chemical_formula_sum "Si O2"
_cell_formula_units_Z 14
_cell_length_a 14.280777
_cell_length_b 4.869029
_cell_length_c 8.453778
_cell_angle_alpha 90.000000
_cell_angle_beta 98.278366
_cell_angle_gamma 90.000000
_cell_volume 581.695958
_symmetry_space_group_name_H-M "P 21"
_symmetry_group_IT_number 4
_symmetry_cell_setting 'monoclinic'
loop_
_space_group_symop_operation_xyz
x,y,z
-x,1/2+y,-z
loop_
_atom_site_type_symbol
_atom_site_label
_atom_site_fract_x
_atom_site_fract_y
_atom_site_fract_z
Si Si1 0.652369 0.675170 0.943985
Si Si2 0.466220 0.640782 0.167818
Si Si3 0.004371 0.302876 0.109636
Si Si4 0.646260 0.416317 0.335551
Si Si5 0.202120 0.840268 0.869952
Si Si6 0.790436 0.000820 0.793997
Si Si7 0.360700 0.457017 0.455077
O O1 0.582623 0.432467 0.872197
O O2 0.590282 0.941865 0.965217
O O3 0.716130 0.753500 0.804471
O O4 0.743138 0.622149 0.077507
O O5 0.576005 0.558302 0.189868
O O6 0.433572 0.525130 0.331001
O O7 0.103634 0.398305 0.204677
O O8 0.909381 0.349968 0.185471
O O9 0.990456 0.490532 0.948722
O O10 0.737086 0.278469 0.270172
O O11 0.597544 0.149075 0.396433
O O12 0.656344 0.660373 0.467673
O O13 0.212239 0.676789 0.042060
O O14 0.737696 0.109488 0.625914
#
# Coordination Sequence:
#
# PCOD9115878 Si02
#       7
#     2   2   2   2   2   2   2
#     4  11  20  39  67  94 120 164 216 271 307 381
#     4  11  23  41  66  89 127 172 228 251 317 391
#     4  10  21  37  67  98 122 165 216 266 323 389
#     4  12  27  40  63  95 135 168 214 274 326 375
#     4  11  24  42  66  98 133 162 216 277 330 374
#     4  10  22  43  72  93 128 170 225 266 322 399
#     4  11  23  42  65  89 125 179 219 257 321 395
#
# _framework density 24.067557999999998
#
# number of rings (size 3 to 8) (size 9 to 14) (size 15 to 20)
#    0.000    1.143    4.286    3.429    2.000    1.143 
#    0.000    1.429    0.000    0.000    0.000    0.000 
#    0.000    0.000    0.000    0.000    0.000    0.000 
#
# Total GULP energy -77974.363129 kJ/mol
# GULP energy per Si atom -5569.597366 kJ/mol
# Density = 2.401278 g / cm^3
# Si number density = 24.067558 Si / 1000 Ang^3
#
#
#
# Elastic Constant Matrix: (Units=GPa)
#
#
# Indices 1 2 3 4 5 6 
#
# 1 170.9656 16.2693 -3.8742 0.0000 -1.2117 0.0000
# 2 16.2693 102.5981 0.6504 0.0000 0.5208 0.0000
# 3 -3.8742 0.6504 43.6004 0.0000 -10.1788 0.0000
# 4 0.0000 0.0000 0.0000 41.6375 0.0000 3.2789
# 5 -1.2117 0.5208 -10.1788 0.0000 37.1888 0.0000
# 6 0.0000 0.0000 0.0000 3.2789 0.0000 24.8249
#
#
#
# Elastic Compliance Matrix: (Units=1/GPa)
#
#
# Indices 1 2 3 4 5 6 
#
# 1 0.005957 -0.000950 0.000632 0.000000 0.000380 0.000000
# 2 -0.000950 0.009901 -0.000290 0.000000 -0.000249 0.000000
# 3 0.000632 -0.000290 0.024572 0.000000 0.006750 0.000000
# 4 0.000000 0.000000 0.000000 0.024269 0.000000 -0.003206
# 5 0.000380 -0.000249 0.006750 0.000000 0.028753 0.000000
# 6 0.000000 0.000000 0.000000 -0.003206 0.000000 0.040706
#
#
# Mechanical properties :
#
#
# Convention : Reuss Voigt Hill
#
# Bulk Modulus (GPa) = 25.50230 38.13945 31.82088
# Shear Modulus (GPa) = 33.68250 41.00480 37.34365
#
# Velocity S-wave (km/s) = 3.74505 4.13211 3.94333
# Velocity P-wave (km/s) = 5.41476 6.21667 5.82952
#
# Compressibility (1/GPa) = 0.03921215
#
# Stress axis : x y z
#
# Youngs Moduli (GPa) = 167.88086 101.00402 40.69680
#
# Poissons Ratio (x) = 0.09600 -0.02573
# Poissons Ratio (y) = 0.15957 0.01181
# Poissons Ratio (z) = -0.10615 0.02932
#
# Static dielectric constant tensor:
#      x y z
#    x 1.999280 0.000000 -0.065790 
#    y 0.000000 2.049710 0.000000 
#    z -0.065790 0.000000 2.338270 
# 
# From -- ./inp_files/8851.got.cif
#   From: 2010.05.17/outbox.cif.g08.bks.cpg/sg4_5_cif.got.tgz:8851.got - 2010.06.03 18:43:04.
