data_PCOD9115422
_publ_section_title
;
Structure prediction by ZEFSAII (Michael W. Deem and Ramdas Pophale) SiO2 
 PCOD9115422
Probable space group: P 21
;
_chemical_formula_sum "Si O2"
_cell_formula_units_Z 14
_cell_length_a 7.603805
_cell_length_b 17.364395
_cell_length_c 5.076005
_cell_angle_alpha 90.000000
_cell_angle_beta 87.546973
_cell_angle_gamma 90.000000
_cell_volume 669.598572
_symmetry_space_group_name_H-M "P 21"
_symmetry_group_IT_number 4
_symmetry_cell_setting 'monoclinic'
loop_
_space_group_symop_operation_xyz
x,y,z
-x,1/2+y,-z
loop_
_atom_site_type_symbol
_atom_site_label
_atom_site_fract_x
_atom_site_fract_y
_atom_site_fract_z
Si Si1 0.137460 0.514430 0.782188
Si Si2 0.987937 0.762585 0.711935
Si Si3 0.802367 0.146895 0.567320
Si Si4 0.612952 0.777096 0.552982
Si Si5 0.189326 0.413621 0.272475
Si Si6 0.888711 0.622753 0.085031
Si Si7 0.513543 0.688856 0.072228
O O1 0.248365 0.585636 0.652849
O O2 0.125639 0.455140 0.541626
O O3 0.217206 0.471182 0.029913
O O4 0.956349 0.552995 0.897256
O O5 0.158141 0.731403 0.553180
O O6 0.819143 0.752772 0.531518
O O7 0.959807 0.850328 0.800026
O O8 0.954450 0.702523 0.946943
O O9 0.664463 0.151447 0.810700
O O10 0.990269 0.116235 0.664437
O O11 0.637668 0.863342 0.661792
O O12 0.540503 0.761418 0.269832
O O13 0.525393 0.721887 0.777130
O O14 0.679731 0.632454 0.114353
#
# Coordination Sequence:
#
# PCOD9115422 Si02
#       7
#     2   2   2   2   2   2   2
#     4  11  22  36  62  90 123 167 202 243 315 369
#     4   8  20  35  65  85 118 152 211 247 295 360
#     4  11  22  38  65  96 120 158 214 253 297 366
#     4   9  20  37  60  90 113 156 197 255 296 357
#     4  10  20  38  66  86 120 170 199 248 316 360
#     4  10  20  41  59  93 117 163 200 255 300 362
#     4  11  22  37  65  90 119 152 205 259 299 348
#
# _framework density 20.908048000000001
#
# number of rings (size 3 to 8) (size 9 to 14) (size 15 to 20)
#    0.857    1.143    2.857    0.857    6.000    0.000 
#    0.000    0.000    9.429    0.000    0.000    0.000 
#    0.000    0.000    0.000    0.000    0.000    0.000 
#
# Total GULP energy -77976.647889 kJ/mol
# GULP energy per Si atom -5569.760564 kJ/mol
# Density = 2.086046 g / cm^3
# Si number density = 20.908048 Si / 1000 Ang^3
#
#
#
# Elastic Constant Matrix: (Units=GPa)
#
#
# Indices 1 2 3 4 5 6 
#
# 1 54.9677 -1.1959 -1.2766 0.0000 -16.4204 0.0000
# 2 -1.1959 78.3407 11.2038 0.0000 -2.8012 0.0000
# 3 -1.2766 11.2038 58.8599 0.0000 0.5787 0.0000
# 4 0.0000 0.0000 0.0000 39.2904 0.0000 3.4804
# 5 -16.4204 -2.8012 0.5787 0.0000 32.5226 0.0000
# 6 0.0000 0.0000 0.0000 3.4804 0.0000 14.6834
#
#
#
# Elastic Compliance Matrix: (Units=1/GPa)
#
#
# Indices 1 2 3 4 5 6 
#
# 1 0.021467 0.000685 0.000228 0.000000 0.010893 0.000000
# 2 0.000685 0.013189 -0.002511 0.000000 0.001526 0.000000
# 3 0.000228 -0.002511 0.017476 0.000000 -0.000412 0.000000
# 4 0.000000 0.000000 0.000000 0.025997 0.000000 -0.006162
# 5 0.010893 0.001526 -0.000412 0.000000 0.036387 0.000000
# 6 0.000000 0.000000 0.000000 -0.006162 0.000000 0.069564
#
#
# Mechanical properties :
#
#
# Convention : Reuss Voigt Hill
#
# Bulk Modulus (GPa) = 20.43471 23.29232 21.86352
# Shear Modulus (GPa) = 24.55938 29.52844 27.04391
#
# Velocity S-wave (km/s) = 3.43102 3.76214 3.60038
# Velocity P-wave (km/s) = 5.04883 5.48052 5.26910
#
# Compressibility (1/GPa) = 0.04893634
#
# Stress axis : x y z
#
# Youngs Moduli (GPa) = 46.58351 75.82176 57.22012
#
# Poissons Ratio (x) = -0.05191 -0.01306
# Poissons Ratio (y) = -0.03189 0.14366
# Poissons Ratio (z) = -0.01063 0.19036
#
# Static dielectric constant tensor:
#      x y z
#    x 1.791760 0.000000 0.021310 
#    y 0.000000 1.816350 0.000000 
#    z 0.021310 0.000000 1.768880 
# 
# From -- ./inp_files/2039.got.cif
#   From: 2010.05.17/outbox.cif.g08.bks.cpg/sg4_2_cif.got.tgz:2039.got - 2010.06.03 18:43:04.
