data_PCOD9115842
_publ_section_title
;
Structure prediction by ZEFSAII (Michael W. Deem and Ramdas Pophale) SiO2 
 PCOD9115842
Probable space group: P 21
;
_chemical_formula_sum "Si O2"
_cell_formula_units_Z 16
_cell_length_a 15.855562
_cell_length_b 5.246901
_cell_length_c 9.753345
_cell_angle_alpha 90.000000
_cell_angle_beta 42.182601
_cell_angle_gamma 90.000000
_cell_volume 544.855409
_symmetry_space_group_name_H-M "P 21"
_symmetry_group_IT_number 4
_symmetry_cell_setting 'monoclinic'
loop_
_space_group_symop_operation_xyz
x,y,z
-x,1/2+y,-z
loop_
_atom_site_type_symbol
_atom_site_label
_atom_site_fract_x
_atom_site_fract_y
_atom_site_fract_z
Si Si1 0.098308 0.375000 0.021700
Si Si2 0.155174 0.872879 0.774138
Si Si3 0.405538 0.626254 0.023657
Si Si4 0.844825 0.337157 0.725861
Si Si5 0.594462 0.583776 0.476343
Si Si6 0.901693 0.835037 0.478299
Si Si7 0.347795 0.308362 0.863054
Si Si8 0.652206 0.901667 0.636945
O O1 0.130797 0.621146 0.891751
O O2 0.200528 0.366453 0.018865
O O3 0.123157 0.121647 0.902544
O O4 0.947521 0.372488 0.225063
O O5 0.303634 0.901509 0.570258
O O6 0.303635 0.808524 0.070259
O O7 0.373729 0.625935 0.222829
O O8 0.376714 0.353021 0.987562
O O9 0.546696 0.707693 0.824914
O O10 0.876843 0.088391 0.597453
O O11 0.947520 0.337546 0.725063
O O12 0.869203 0.588892 0.608251
O O13 0.453305 0.502335 0.675085
O O14 0.626272 0.584094 0.277169
O O15 0.623286 0.857011 0.512438
O O16 0.799473 0.843581 0.481133
#
# Coordination Sequence:
#
# PCOD9115842 Si02
#       8
#     2   2   2   2   2   2   2   2
#     4   9  18  35  59  88 122 159 200 248 301 357
#     4   9  18  35  59  88 122 159 200 248 301 357
#     4  10  21  37  59  88 122 161 204 252 305 362
#     4   9  18  35  59  88 122 159 200 248 301 357
#     4  10  21  37  59  88 122 161 204 252 305 362
#     4   9  18  35  59  88 122 159 200 248 301 357
#     4  10  21  37  59  88 122 161 204 252 305 362
#     4  10  21  37  59  88 122 161 204 252 305 362
#
# _framework density 29.365589
#
# number of rings (size 3 to 8) (size 9 to 14) (size 15 to 20)
#    0.000    2.500    0.000    1.500    0.000    2.000 
#    0.000   15.000    0.000   40.500    0.000    0.000 
#    0.000    0.000    0.000    0.000    0.000    0.000 
#
# Total GULP energy -89558.442293 kJ/mol
# GULP energy per Si atom -5597.402643 kJ/mol
# Density = 2.929875 g / cm^3
# Si number density = 29.365589 Si / 1000 Ang^3
#
#
#
# Elastic Constant Matrix: (Units=GPa)
#
#
# Indices 1 2 3 4 5 6 
#
# 1 219.0254 37.8849 61.2197 0.0000 -34.9128 0.0000
# 2 37.8849 120.3659 58.4634 0.0000 -9.2450 0.0000
# 3 61.2197 58.4634 137.8536 0.0000 -13.0753 0.0000
# 4 0.0000 0.0000 0.0000 38.6951 0.0000 -10.2256
# 5 -34.9128 -9.2450 -13.0753 0.0000 57.2119 0.0000
# 6 0.0000 0.0000 0.0000 -10.2256 0.0000 35.7179
#
#
#
# Elastic Compliance Matrix: (Units=1/GPa)
#
#
# Indices 1 2 3 4 5 6 
#
# 1 0.005693 -0.000597 -0.001998 0.000000 0.002921 0.000000
# 2 -0.000597 0.010553 -0.004174 0.000000 0.000387 0.000000
# 3 -0.001998 -0.004174 0.009947 0.000000 0.000380 0.000000
# 4 0.000000 0.000000 0.000000 0.027958 0.000000 0.008004
# 5 0.002921 0.000387 0.000380 0.000000 0.019411 0.000000
# 6 0.000000 0.000000 0.000000 0.008004 0.000000 0.030289
#
#
# Mechanical properties :
#
#
# Convention : Reuss Voigt Hill
#
# Bulk Modulus (GPa) = 79.01378 88.04234 83.52806
# Shear Modulus (GPa) = 41.11617 47.63676 44.37647
#
# Velocity S-wave (km/s) = 3.74591 4.03202 3.89160
# Velocity P-wave (km/s) = 6.75829 7.19186 6.97844
#
# Compressibility (1/GPa) = 0.01265602
#
# Stress axis : x y z
#
# Youngs Moduli (GPa) = 175.65397 94.76139 100.52913
#
# Poissons Ratio (x) = 0.05658 0.20085
# Poissons Ratio (y) = 0.10488 0.41956
# Poissons Ratio (z) = 0.35095 0.39549
#
# Static dielectric constant tensor:
#      x y z
#    x 2.310810 0.000000 -0.080900 
#    y 0.000000 2.363980 0.000000 
#    z -0.080900 0.000000 2.252320 
# 
# From -- ./inp_files/12851.got.cif
#   From: 2010.05.17/outbox.cif.g08.bks.cpg/sg4_7_cif.got.tgz:12851.got - 2010.06.03 18:43:04.
