data_PCOD9115320
_publ_section_title
;
Structure prediction by ZEFSAII (Michael W. Deem and Ramdas Pophale) SiO2 
 PCOD9115320
Probable space group: P 21
;
_chemical_formula_sum "Si O2"
_cell_formula_units_Z 16
_cell_length_a 10.761166
_cell_length_b 8.586466
_cell_length_c 11.843241
_cell_angle_alpha 90.000000
_cell_angle_beta 50.848890
_cell_angle_gamma 90.000000
_cell_volume 848.627147
_symmetry_space_group_name_H-M "P 21"
_symmetry_group_IT_number 4
_symmetry_cell_setting 'monoclinic'
loop_
_space_group_symop_operation_xyz
x,y,z
-x,1/2+y,-z
loop_
_atom_site_type_symbol
_atom_site_label
_atom_site_fract_x
_atom_site_fract_y
_atom_site_fract_z
Si Si1 0.422432 0.018880 0.161280
Si Si2 0.046086 0.513383 0.851996
Si Si3 0.773251 0.032397 0.863000
Si Si4 0.370772 0.691491 0.274560
Si Si5 0.885110 0.017426 0.446507
Si Si6 0.688694 0.511069 0.031832
Si Si7 0.134785 0.725291 0.992428
Si Si8 0.834010 0.758099 0.660996
O O1 0.341218 0.179025 0.247487
O O2 0.380436 0.876659 0.266874
O O3 0.610970 0.012866 0.028624
O O4 0.346396 0.990908 0.080564
O O5 0.105873 0.488210 0.691404
O O6 0.148005 0.622982 0.873790
O O7 0.865109 0.583671 0.945528
O O8 0.011956 0.346886 0.929396
O O9 0.724083 0.140335 0.785101
O O10 0.830418 0.873739 0.771176
O O11 0.889626 0.117871 0.883211
O O12 0.270306 0.619148 0.433231
O O13 0.544754 0.611578 0.164319
O O14 0.038413 0.120737 0.395123
O O15 0.876642 0.862919 0.528218
O O16 0.714628 0.339699 0.070241
#
# Coordination Sequence:
#
# PCOD9115320 Si02
#       8
#     2   2   2   2   2   2   2   2
#     4  11  19  36  62 100 125 160 203 264 318 382
#     4  10  23  40  62  86 123 166 217 258 302 371
#     4  10  21  34  64  93 122 163 207 264 320 360
#     4  10  20  37  62  92 128 157 192 268 332 373
#     4  11  24  37  59  93 133 166 200 256 326 392
#     4   9  20  37  63  89 127 154 216 264 307 377
#     4  10  22  39  65  87 121 164 220 266 297 365
#     4  11  23  34  59  94 137 166 203 256 330 384
#
# _framework density 18.853981000000001
#
# number of rings (size 3 to 8) (size 9 to 14) (size 15 to 20)
#    0.750    1.000    2.500    2.250    8.750    0.000 
#    0.000    0.000    5.500    0.000    0.000    0.000 
#    0.000    0.000    0.000    0.000    0.000    0.000 
#
# Total GULP energy -89215.811944 kJ/mol
# GULP energy per Si atom -5575.988247 kJ/mol
# Density = 1.881107 g / cm^3
# Si number density = 18.853981 Si / 1000 Ang^3
#
#
#
# Elastic Constant Matrix: (Units=GPa)
#
#
# Indices 1 2 3 4 5 6 
#
# 1 39.9608 23.6544 18.9910 0.0000 6.0276 0.0000
# 2 23.6544 96.1591 36.6200 0.0000 13.3322 0.0000
# 3 18.9910 36.6200 82.6042 0.0000 3.0298 0.0000
# 4 0.0000 0.0000 0.0000 30.8994 0.0000 7.8098
# 5 6.0276 13.3322 3.0298 0.0000 23.9754 0.0000
# 6 0.0000 0.0000 0.0000 7.8098 0.0000 29.3472
#
#
#
# Elastic Compliance Matrix: (Units=1/GPa)
#
#
# Indices 1 2 3 4 5 6 
#
# 1 0.030988 -0.005265 -0.004633 0.000000 -0.004277 0.000000
# 2 -0.005265 0.014426 -0.004962 0.000000 -0.006071 0.000000
# 3 -0.004633 -0.004962 0.015298 0.000000 0.001991 0.000000
# 4 0.000000 0.000000 0.000000 0.034697 0.000000 -0.009233
# 5 -0.004277 -0.006071 0.001991 0.000000 0.045909 0.000000
# 6 0.000000 0.000000 0.000000 -0.009233 0.000000 0.036532
#
#
# Mechanical properties :
#
#
# Convention : Reuss Voigt Hill
#
# Bulk Modulus (GPa) = 32.26757 41.91723 37.09240
# Shear Modulus (GPa) = 22.94605 26.14165 24.54385
#
# Velocity S-wave (km/s) = 3.49239 3.72766 3.61194
# Velocity P-wave (km/s) = 5.78049 6.38812 6.09188
#
# Compressibility (1/GPa) = 0.03099087
#
# Stress axis : x y z
#
# Youngs Moduli (GPa) = 32.27012 69.31836 65.36840
#
# Poissons Ratio (x) = 0.36499 0.30286
# Poissons Ratio (y) = 0.16992 0.32437
# Poissons Ratio (z) = 0.14951 0.34397
#
# Static dielectric constant tensor:
#      x y z
#    x 1.667070 0.000000 -0.030850 
#    y 0.000000 1.689790 0.000000 
#    z -0.030850 0.000000 1.646940 
# 
# From -- ./inp_files/12001.got.cif
#   From: 2010.05.17/outbox.cif.g08.bks.cpg/sg4_7_cif.got.tgz:12001.got - 2010.06.03 18:43:04.
