data_PCOD9115228
_publ_section_title
;
Structure prediction by ZEFSAII (Michael W. Deem and Ramdas Pophale) SiO2 
 PCOD9115228
Probable space group: P 21
;
_chemical_formula_sum "Si O2"
_cell_formula_units_Z 14
_cell_length_a 6.689690
_cell_length_b 9.997434
_cell_length_c 7.876615
_cell_angle_alpha 90.000000
_cell_angle_beta 106.435198
_cell_angle_gamma 90.000000
_cell_volume 505.261627
_symmetry_space_group_name_H-M "P 21"
_symmetry_group_IT_number 4
_symmetry_cell_setting 'monoclinic'
loop_
_space_group_symop_operation_xyz
x,y,z
-x,1/2+y,-z
loop_
_atom_site_type_symbol
_atom_site_label
_atom_site_fract_x
_atom_site_fract_y
_atom_site_fract_z
Si Si1 0.084861 0.703420 0.329187
Si Si2 0.703413 0.834805 0.372924
Si Si3 0.903297 0.037273 0.001388
Si Si4 0.484827 0.051299 0.123254
Si Si5 0.928123 0.773814 0.774213
Si Si6 0.299575 0.058885 0.741299
Si Si7 0.365709 0.790243 0.671545
O O1 0.293539 0.726348 0.480045
O O2 0.928885 0.829865 0.324399
O O3 0.938935 0.584890 0.374040
O O4 0.117769 0.649881 0.150896
O O5 0.764642 0.806987 0.582676
O O6 0.603498 0.703224 0.263865
O O7 0.547961 0.954201 0.291861
O O8 0.688856 0.035045 0.054044
O O9 0.067111 0.117477 0.163744
O O10 0.921138 0.890548 0.916661
O O11 0.472947 0.201684 0.188258
O O12 0.306447 0.025288 0.943047
O O13 0.152854 0.787898 0.733062
O O14 0.413737 0.944763 0.668734
#
# Coordination Sequence:
#
# PCOD9115228 Si02
#       7
#     2   2   2   2   2   2   2
#     4   9  20  36  62  82 114 150 204 235 283 341
#     4   9  20  38  62  80 119 158 200 231 288 359
#     4  11  21  35  58  91 118 146 194 255 292 334
#     4  11  22  35  60  88 120 153 191 247 303 347
#     4  10  20  36  58  87 115 152 199 246 286 337
#     4  10  21  38  60  87 114 156 206 234 289 361
#     4  10  20  36  64  83 112 161 202 238 281 367
#
# _framework density 27.708414999999999
#
# number of rings (size 3 to 8) (size 9 to 14) (size 15 to 20)
#    0.857    1.143    1.429    2.571    2.000    1.143 
#    0.000    1.429    3.143    0.000    0.000    0.000 
#    0.000    0.000    0.000    0.000    0.000    0.000 
#
# Total GULP energy -78268.154925 kJ/mol
# GULP energy per Si atom -5590.582495 kJ/mol
# Density = 2.764535 g / cm^3
# Si number density = 27.708415 Si / 1000 Ang^3
#
#
#
# Elastic Constant Matrix: (Units=GPa)
#
#
# Indices 1 2 3 4 5 6 
#
# 1 57.1982 -9.5734 9.4979 0.0000 1.3026 0.0000
# 2 -9.5734 137.8821 67.5638 0.0000 15.3499 0.0000
# 3 9.4979 67.5638 153.1039 0.0000 10.6792 0.0000
# 4 0.0000 0.0000 0.0000 52.9631 0.0000 2.8614
# 5 1.3026 15.3499 10.6792 0.0000 55.2854 0.0000
# 6 0.0000 0.0000 0.0000 2.8614 0.0000 31.2807
#
#
#
# Elastic Compliance Matrix: (Units=1/GPa)
#
#
# Indices 1 2 3 4 5 6 
#
# 1 0.018254 0.002392 -0.002141 0.000000 -0.000681 0.000000
# 2 0.002392 0.009748 -0.004316 0.000000 -0.001929 0.000000
# 3 -0.002141 -0.004316 0.008598 0.000000 -0.000412 0.000000
# 4 0.000000 0.000000 0.000000 0.018975 0.000000 -0.001736
# 5 -0.000681 -0.001929 -0.000412 0.000000 0.018719 0.000000
# 6 0.000000 0.000000 0.000000 -0.001736 0.000000 0.032127
#
#
# Mechanical properties :
#
#
# Convention : Reuss Voigt Hill
#
# Bulk Modulus (GPa) = 35.12233 53.68452 44.40343
# Shear Modulus (GPa) = 40.30949 46.61891 43.46420
#
# Velocity S-wave (km/s) = 3.81829 4.10626 3.96489
# Velocity P-wave (km/s) = 5.66942 6.47292 6.08445
#
# Compressibility (1/GPa) = 0.02847191
#
# Stress axis : x y z
#
# Youngs Moduli (GPa) = 54.78134 102.58357 116.31279
#
# Poissons Ratio (x) = -0.24539 0.24898
# Poissons Ratio (y) = -0.13104 0.50196
# Poissons Ratio (z) = 0.11726 0.44271
#
# Static dielectric constant tensor:
#      x y z
#    x 2.303640 0.000000 -0.013110 
#    y 0.000000 2.185560 0.000000 
#    z -0.013110 0.000000 2.099440 
# 
# From -- ./inp_files/8217.got.cif
#   From: 2010.05.17/outbox.cif.g08.bks.cpg/sg4_5_cif.got.tgz:8217.got - 2010.06.03 18:43:04.
