data_PCOD9115336
_publ_section_title
;
Structure prediction by ZEFSAII (Michael W. Deem and Ramdas Pophale) SiO2 
 PCOD9115336
Probable space group: P 21
;
_chemical_formula_sum "Si O2"
_cell_formula_units_Z 16
_cell_length_a 8.688308
_cell_length_b 7.886764
_cell_length_c 12.053861
_cell_angle_alpha 90.000000
_cell_angle_beta 126.807874
_cell_angle_gamma 90.000000
_cell_volume 661.305935
_symmetry_space_group_name_H-M "P 21"
_symmetry_group_IT_number 4
_symmetry_cell_setting 'monoclinic'
loop_
_space_group_symop_operation_xyz
x,y,z
-x,1/2+y,-z
loop_
_atom_site_type_symbol
_atom_site_label
_atom_site_fract_x
_atom_site_fract_y
_atom_site_fract_z
Si Si1 0.940048 0.767430 0.209194
Si Si2 0.449530 0.432389 0.664506
Si Si3 0.867333 0.156136 0.503285
Si Si4 0.969971 0.644817 0.662534
Si Si5 0.269972 0.125193 0.069769
Si Si6 0.407017 0.953125 0.524906
Si Si7 0.706796 0.131512 0.796267
Si Si8 0.943855 0.271560 0.071193
O O1 0.966079 0.663843 0.334013
O O2 0.123447 0.714960 0.208455
O O3 0.957722 0.962175 0.255585
O O4 0.751960 0.718415 0.057587
O O5 0.229572 0.473191 0.549957
O O6 0.532609 0.573295 0.786304
O O7 0.542445 0.441753 0.582528
O O8 0.529294 0.257638 0.743981
O O9 0.929697 0.196896 0.406875
O O10 0.706680 0.288043 0.480304
O O11 0.018161 0.769361 0.782846
O O12 0.747380 0.606192 0.539614
O O13 0.147633 0.238765 0.101587
O O14 0.155628 0.946834 0.005878
O O15 0.598098 0.989870 0.677926
O O16 0.811115 0.122371 0.960555
#
# Coordination Sequence:
#
# PCOD9115336 Si02
#       8
#     2   2   2   2   2   2   2   2
#     4  10  21  41  61  94 125 163 214 266 312 378
#     4  11  19  40  61  95 119 163 217 266 310 366
#     4  11  25  39  63  93 133 170 206 259 328 383
#     4  11  23  43  60  90 137 170 204 259 327 397
#     4  10  21  35  66  92 123 159 224 266 315 369
#     4  11  21  41  64  92 125 164 218 264 305 378
#     4  10  20  37  64  92 123 157 215 276 305 357
#     4  10  20  38  59  92 123 166 208 270 322 372
#
# _framework density 24.19455
#
# number of rings (size 3 to 8) (size 9 to 14) (size 15 to 20)
#    0.000    1.500    5.000    1.500    0.000    8.000 
#    0.000    6.250    0.000    0.000    0.000    0.000 
#    0.000    0.000    0.000    0.000    0.000    0.000 
#
# Total GULP energy -89401.136784 kJ/mol
# GULP energy per Si atom -5587.571049 kJ/mol
# Density = 2.413948 g / cm^3
# Si number density = 24.194550 Si / 1000 Ang^3
#
#
#
# Elastic Constant Matrix: (Units=GPa)
#
#
# Indices 1 2 3 4 5 6 
#
# 1 41.3770 9.0520 37.8878 0.0000 -18.8505 0.0000
# 2 9.0520 58.9983 30.6670 0.0000 7.0587 0.0000
# 3 37.8878 30.6670 176.8845 0.0000 -16.7646 0.0000
# 4 0.0000 0.0000 0.0000 43.7193 0.0000 14.2062
# 5 -18.8505 7.0587 -16.7646 0.0000 34.1486 0.0000
# 6 0.0000 0.0000 0.0000 14.2062 0.0000 13.1151
#
#
#
# Elastic Compliance Matrix: (Units=1/GPa)
#
#
# Indices 1 2 3 4 5 6 
#
# 1 0.039842 -0.005629 -0.005625 0.000000 0.020395 0.000000
# 2 -0.005629 0.020546 -0.003202 0.000000 -0.008926 0.000000
# 3 -0.005625 -0.003202 0.007532 0.000000 0.001255 0.000000
# 4 0.000000 0.000000 0.000000 0.035297 0.000000 -0.038233
# 5 0.020395 -0.008926 0.001255 0.000000 0.043003 0.000000
# 6 0.000000 0.000000 0.000000 -0.038233 0.000000 0.117662
#
#
# Mechanical properties :
#
#
# Convention : Reuss Voigt Hill
#
# Bulk Modulus (GPa) = 25.63645 48.05263 36.84454
# Shear Modulus (GPa) = 16.35066 31.50680 23.92873
#
# Velocity S-wave (km/s) = 2.60243 3.61255 3.14827
# Velocity P-wave (km/s) = 4.43274 6.10776 5.33638
#
# Compressibility (1/GPa) = 0.03900696
#
# Stress axis : x y z
#
# Youngs Moduli (GPa) = 25.09926 48.67156 132.76029
#
# Poissons Ratio (x) = 0.27398 0.74677
# Poissons Ratio (y) = 0.14129 0.42515
# Poissons Ratio (z) = 0.14118 0.15586
#
# Static dielectric constant tensor:
#      x y z
#    x 1.922360 0.000000 0.009560 
#    y 0.000000 2.063110 0.000000 
#    z 0.009560 0.000000 1.941440 
# 
# From -- ./inp_files/10930.got.cif
#   From: 2010.05.17/outbox.cif.g08.bks.cpg/sg4_6_cif.got.tgz:10930.got - 2010.06.03 18:43:04.
