data_PCOD9115785
_publ_section_title
;
Structure prediction by ZEFSAII (Michael W. Deem and Ramdas Pophale) SiO2 
 PCOD9115785
Probable space group: P 21
;
_chemical_formula_sum "Si O2"
_cell_formula_units_Z 16
_cell_length_a 17.464791
_cell_length_b 5.165565
_cell_length_c 17.445068
_cell_angle_alpha 90.000000
_cell_angle_beta 149.012396
_cell_angle_gamma 90.000000
_cell_volume 810.283158
_symmetry_space_group_name_H-M "P 21"
_symmetry_group_IT_number 4
_symmetry_cell_setting 'monoclinic'
loop_
_space_group_symop_operation_xyz
x,y,z
-x,1/2+y,-z
loop_
_atom_site_type_symbol
_atom_site_label
_atom_site_fract_x
_atom_site_fract_y
_atom_site_fract_z
Si Si1 0.538088 0.050620 0.409595
Si Si2 0.171497 0.198034 0.311639
Si Si3 0.673948 0.299072 0.664675
Si Si4 0.425092 0.637315 0.897240
Si Si5 0.060508 0.462451 0.090294
Si Si6 0.933088 0.186364 0.401575
Si Si7 0.839970 0.570732 0.528630
Si Si8 0.640415 0.080114 0.331069
O O1 0.555827 0.255967 0.494449
O O2 0.544577 0.130679 0.326585
O O3 0.686181 0.875740 0.546545
O O4 0.396952 0.894298 0.317710
O O5 0.042643 0.369883 0.162770
O O6 0.134542 0.059078 0.358640
O O7 0.217625 0.997863 0.285327
O O8 0.767521 0.045813 0.765143
O O9 0.245548 0.665574 0.752961
O O10 0.445339 0.597516 0.822913
O O11 0.508684 0.891289 0.000594
O O12 0.975543 0.721819 0.994608
O O13 0.993073 0.464503 0.481408
O O14 0.007928 0.130764 0.383979
O O15 0.765712 0.303735 0.438251
O O16 0.723615 0.803050 0.409557
#
# Coordination Sequence:
#
# PCOD9115785 Si02
#       8
#     2   2   2   2   2   2   2   2
#     4  10  21  34  61  98 128 155 216 270 323 373
#     4  10  21  36  63  90 126 157 210 277 319 355
#     4  11  19  36  62  93 121 168 205 274 318 375
#     4  12  25  43  69  97 141 176 206 270 350 409
#     4  11  23  40  59  81 117 172 221 249 313 388
#     4  12  22  42  71 101 123 170 228 265 313 399
#     4  11  21  39  66 100 120 158 219 283 311 370
#     4  11  22  40  65  94 130 170 211 266 333 387
#
# _framework density 19.746182000000001
#
# number of rings (size 3 to 8) (size 9 to 14) (size 15 to 20)
#    0.000    1.000    6.250    1.500    0.000    0.000 
#    0.000    1.250    5.500    0.000    0.000    0.000 
#    0.000    0.000    0.000    0.000    0.000    0.000 
#
# Total GULP energy -89242.581978 kJ/mol
# GULP energy per Si atom -5577.661374 kJ/mol
# Density = 1.970124 g / cm^3
# Si number density = 19.746182 Si / 1000 Ang^3
#
#
#
# Elastic Constant Matrix: (Units=GPa)
#
#
# Indices 1 2 3 4 5 6 
#
# 1 107.4795 0.5598 40.7912 0.0000 -11.9686 0.0000
# 2 0.5598 93.3098 38.7172 0.0000 -12.0435 0.0000
# 3 40.7912 38.7172 103.4155 0.0000 -19.3655 0.0000
# 4 0.0000 0.0000 0.0000 -17.5306 0.0000 9.9407
# 5 -11.9686 -12.0435 -19.3655 0.0000 25.8860 0.0000
# 6 0.0000 0.0000 0.0000 9.9407 0.0000 18.9162
#
#
#
# Elastic Compliance Matrix: (Units=1/GPa)
#
#
# Indices 1 2 3 4 5 6 
#
# 1 0.011442 0.002301 -0.004865 0.000000 0.002721 0.000000
# 2 0.002301 0.013319 -0.005273 0.000000 0.003316 0.000000
# 3 -0.004865 -0.005273 0.014748 0.000000 0.006331 0.000000
# 4 0.000000 0.000000 0.000000 -0.043947 0.000000 0.023095
# 5 0.002721 0.003316 0.006331 0.000000 0.046168 0.000000
# 6 0.000000 0.000000 0.000000 0.023095 0.000000 0.040728
#
#
# Mechanical properties :
#
#
# Convention : Reuss Voigt Hill
#
# Bulk Modulus (GPa) = 41.95509 51.59345 46.77427
# Shear Modulus (GPa) = 47.13565 20.39676 33.76620
#
# Velocity S-wave (km/s) = 4.89107 3.21744 4.13972
# Velocity P-wave (km/s) = 7.29315 6.32357 6.82560
#
# Compressibility (1/GPa) = 0.02383501
#
# Stress axis : x y z
#
# Youngs Moduli (GPa) = 87.40102 75.07960 67.80421
#
# Poissons Ratio (x) = -0.17277 0.32986
# Poissons Ratio (y) = -0.20113 0.35755
# Poissons Ratio (z) = 0.42520 0.39592
#
# Static dielectric constant tensor:
#      x y z
#    x 1.778000 0.000000 0.091220 
#    y 0.000000 1.773680 0.000000 
#    z 0.091220 0.000000 1.873410 
# 
# From -- ./inp_files/15308.got.cif
#   From: 2010.05.17/outbox.cif.g08.bks.cpg/sg4_8_cif.got.tgz:15308.got - 2010.06.03 18:43:04.
