data_PCOD9115218
_publ_section_title
;
Structure prediction by ZEFSAII (Michael W. Deem and Ramdas Pophale) SiO2 
 PCOD9115218
Probable space group: P 21
;
_chemical_formula_sum "Si O2"
_cell_formula_units_Z 16
_cell_length_a 16.190396
_cell_length_b 6.346558
_cell_length_c 12.601325
_cell_angle_alpha 90.000000
_cell_angle_beta 147.928254
_cell_angle_gamma 90.000000
_cell_volume 687.528549
_symmetry_space_group_name_H-M "P 21"
_symmetry_group_IT_number 4
_symmetry_cell_setting 'monoclinic'
loop_
_space_group_symop_operation_xyz
x,y,z
-x,1/2+y,-z
loop_
_atom_site_type_symbol
_atom_site_label
_atom_site_fract_x
_atom_site_fract_y
_atom_site_fract_z
Si Si1 0.267686 0.717640 0.201913
Si Si2 0.307456 0.023560 0.802578
Si Si3 0.241668 0.737700 0.932153
Si Si4 0.106750 0.187051 0.409662
Si Si5 0.327131 0.570106 0.576457
Si Si6 0.383721 0.324092 0.429158
Si Si7 0.830806 0.447943 0.722582
Si Si8 0.423537 0.372156 0.042914
O O1 0.276418 0.465836 0.234144
O O2 0.446241 0.774656 0.431271
O O3 0.135230 0.823399 0.131515
O O4 0.256042 0.804041 0.070343
O O5 0.191174 0.016771 0.577219
O O6 0.296666 0.867465 0.889564
O O7 0.474068 0.004474 0.927689
O O8 0.289186 0.253637 0.833242
O O9 0.057388 0.728063 0.716090
O O10 0.343604 0.524065 0.039660
O O11 0.218855 0.392726 0.515870
O O12 0.072978 0.086394 0.256597
O O13 0.403691 0.449327 0.561141
O O14 0.229101 0.756774 0.416041
O O15 0.461088 0.692146 0.786793
O O16 0.295938 0.114845 0.372037
#
# Coordination Sequence:
#
# PCOD9115218 Si02
#       8
#     2   2   2   2   2   2   2   2
#     4  11  22  40  68 106 144 187 248 305 374 441
#     4  12  26  44  74 103 145 192 247 309 380 442
#     4  12  30  46  71 114 150 194 252 317 368 457
#     4  11  27  48  71 105 152 202 245 299 395 464
#     4  10  22  41  73 101 141 190 245 305 376 442
#     4  10  20  35  69 105 138 185 238 307 369 442
#     4  10  21  44  70  99 141 194 235 303 378 454
#     4  12  24  44  74 109 135 188 254 319 360 434
#
# _framework density 23.27176
#
# number of rings (size 3 to 8) (size 9 to 14) (size 15 to 20)
#    0.000    1.000    3.750    2.250    5.250    2.000 
#    6.750    0.000    0.000    0.000    0.000    0.000 
#    0.000    0.000    0.000    0.000    0.000    0.000 
#
# Total GULP energy -89215.961092 kJ/mol
# GULP energy per Si atom -5575.997568 kJ/mol
# Density = 2.321879 g / cm^3
# Si number density = 23.271760 Si / 1000 Ang^3
#
#
#
# Elastic Constant Matrix: (Units=GPa)
#
#
# Indices 1 2 3 4 5 6 
#
# 1 111.0317 27.3072 26.7362 0.0000 -8.9947 0.0000
# 2 27.3072 76.0342 17.6505 0.0000 -5.5461 0.0000
# 3 26.7362 17.6505 61.4959 0.0000 -22.1815 0.0000
# 4 0.0000 0.0000 0.0000 23.1198 0.0000 -8.2700
# 5 -8.9947 -5.5461 -22.1815 0.0000 41.0887 0.0000
# 6 0.0000 0.0000 0.0000 -8.2700 0.0000 26.4280
#
#
#
# Elastic Compliance Matrix: (Units=1/GPa)
#
#
# Indices 1 2 3 4 5 6 
#
# 1 0.010642 -0.002942 -0.003831 0.000000 -0.000136 0.000000
# 2 -0.002942 0.014908 -0.003112 0.000000 -0.000312 0.000000
# 3 -0.003831 -0.003112 0.022807 0.000000 0.011054 0.000000
# 4 0.000000 0.000000 0.000000 0.048705 0.000000 0.015241
# 5 -0.000136 -0.000312 0.011054 0.000000 0.030233 0.000000
# 6 0.000000 0.000000 0.000000 0.015241 0.000000 0.042608
#
#
# Mechanical properties :
#
#
# Convention : Reuss Voigt Hill
#
# Bulk Modulus (GPa) = 34.98246 43.54996 39.26621
# Shear Modulus (GPa) = 25.10006 29.91851 27.50928
#
# Velocity S-wave (km/s) = 3.28771 3.58944 3.44188
# Velocity P-wave (km/s) = 5.42926 5.99441 5.71882
#
# Compressibility (1/GPa) = 0.02858576
#
# Stress axis : x y z
#
# Youngs Moduli (GPa) = 93.97077 67.07600 43.84590
#
# Poissons Ratio (x) = 0.19737 0.16798
# Poissons Ratio (y) = 0.27650 0.13646
# Poissons Ratio (z) = 0.36001 0.20876
#
# Static dielectric constant tensor:
#      x y z
#    x 1.852750 0.000000 -0.025720 
#    y 0.000000 1.986770 0.000000 
#    z -0.025720 0.000000 1.908580 
# 
# From -- ./inp_files/7297.got.cif
#   From: 2010.05.17/outbox.cif.g08.bks.cpg/sg4_4_cif.got.tgz:7297.got - 2010.06.03 18:43:04.
