data_PCOD9115414
_publ_section_title
;
Structure prediction by ZEFSAII (Michael W. Deem and Ramdas Pophale) SiO2 
 PCOD9115414
Probable space group: P 21
;
_chemical_formula_sum "Si O2"
_cell_formula_units_Z 14
_cell_length_a 7.207100
_cell_length_b 8.410300
_cell_length_c 9.441121
_cell_angle_alpha 90.000000
_cell_angle_beta 65.169903
_cell_angle_gamma 90.000000
_cell_volume 519.361221
_symmetry_space_group_name_H-M "P 21"
_symmetry_group_IT_number 4
_symmetry_cell_setting 'monoclinic'
loop_
_space_group_symop_operation_xyz
x,y,z
-x,1/2+y,-z
loop_
_atom_site_type_symbol
_atom_site_label
_atom_site_fract_x
_atom_site_fract_y
_atom_site_fract_z
Si Si1 0.431587 0.895880 0.420519
Si Si2 0.022541 0.686816 0.178094
Si Si3 0.953577 0.599676 0.524924
Si Si4 0.591999 0.548988 0.280450
Si Si5 0.845806 0.028484 0.257642
Si Si6 0.427733 0.512877 0.023431
Si Si7 0.792273 0.712043 0.841040
O O1 0.500263 0.719067 0.360579
O O2 0.609412 0.010693 0.301353
O O3 0.212582 0.960011 0.443591
O O4 0.433262 0.920053 0.588695
O O5 0.021006 0.655222 0.349430
O O6 0.834881 0.579059 0.183497
O O7 0.958036 0.867489 0.175582
O O8 0.246140 0.637843 0.054261
O O9 0.124614 0.541262 0.580641
O O10 0.846049 0.736528 0.657808
O O11 0.482616 0.506559 0.171558
O O12 0.987598 0.172715 0.162020
O O13 0.326647 0.342274 0.031397
O O14 0.640907 0.561344 0.887175
#
# Coordination Sequence:
#
# PCOD9115414 Si02
#       7
#     2   2   2   2   2   2   2
#     4  10  20  38  64  95 129 159 210 260 324 363
#     4  10  21  39  66  92 126 157 221 259 330 363
#     4   9  21  37  62  96 120 169 203 263 312 377
#     4  10  24  37  66  96 129 166 211 266 316 382
#     4   9  20  38  60  92 121 166 202 265 310 377
#     4  12  24  46  61  93 130 174 209 269 310 387
#     4  10  26  41  65  88 129 171 218 248 328 371
#
# _framework density 26.956191
#
# number of rings (size 3 to 8) (size 9 to 14) (size 15 to 20)
#    0.857    1.143    0.000    2.571   10.000    2.286 
#    2.571    0.000    0.000    0.000    0.000    0.000 
#    0.000    0.000    0.000    0.000    0.000    0.000 
#
# Total GULP energy -78437.900171 kJ/mol
# GULP energy per Si atom -5602.707155 kJ/mol
# Density = 2.689484 g / cm^3
# Si number density = 26.956191 Si / 1000 Ang^3
#
#
#
# Elastic Constant Matrix: (Units=GPa)
#
#
# Indices 1 2 3 4 5 6 
#
# 1 130.5070 9.5387 25.2646 0.0000 -14.5269 0.0000
# 2 9.5387 55.1337 13.7314 0.0000 -5.2334 0.0000
# 3 25.2646 13.7314 91.6137 0.0000 -6.5623 0.0000
# 4 0.0000 0.0000 0.0000 36.7808 0.0000 -12.0169
# 5 -14.5269 -5.2334 -6.5623 0.0000 51.6320 0.0000
# 6 0.0000 0.0000 0.0000 -12.0169 0.0000 32.2332
#
#
#
# Elastic Compliance Matrix: (Units=1/GPa)
#
#
# Indices 1 2 3 4 5 6 
#
# 1 0.008336 -0.000742 -0.002044 0.000000 0.002010 0.000000
# 2 -0.000742 0.019033 -0.002548 0.000000 0.001396 0.000000
# 3 -0.002044 -0.002548 0.011910 0.000000 0.000680 0.000000
# 4 0.000000 0.000000 0.000000 0.030959 0.000000 0.011542
# 5 0.002010 0.001396 0.000680 0.000000 0.020162 0.000000
# 6 0.000000 0.000000 0.000000 0.011542 0.000000 0.035327
#
#
# Mechanical properties :
#
#
# Convention : Reuss Voigt Hill
#
# Bulk Modulus (GPa) = 34.95164 41.59154 38.27159
# Shear Modulus (GPa) = 34.26265 39.37715 36.81990
#
# Velocity S-wave (km/s) = 3.56905 3.82617 3.69984
# Velocity P-wave (km/s) = 5.47525 5.91458 5.69915
#
# Compressibility (1/GPa) = 0.02861096
#
# Stress axis : x y z
#
# Youngs Moduli (GPa) = 119.96036 52.53943 83.96575
#
# Poissons Ratio (x) = 0.03901 0.17159
# Poissons Ratio (y) = 0.08906 0.21395
# Poissons Ratio (z) = 0.24515 0.13387
#
# Static dielectric constant tensor:
#      x y z
#    x 2.037760 0.000000 0.020520 
#    y 0.000000 2.136400 0.000000 
#    z 0.020520 0.000000 2.115280 
# 
# From -- ./inp_files/11015.got.cif
#   From: 2010.05.17/outbox.cif.g08.bks.cpg/sg4_6_cif.got.tgz:11015.got - 2010.06.03 18:43:04.
