data_PCOD9115175
_publ_section_title
;
Structure prediction by ZEFSAII (Michael W. Deem and Ramdas Pophale) SiO2 
 PCOD9115175
Probable space group: P 21
;
_chemical_formula_sum "Si O2"
_cell_formula_units_Z 16
_cell_length_a 7.821117
_cell_length_b 11.339988
_cell_length_c 7.900454
_cell_angle_alpha 90.000000
_cell_angle_beta 115.297229
_cell_angle_gamma 90.000000
_cell_volume 633.507034
_symmetry_space_group_name_H-M "P 21"
_symmetry_group_IT_number 4
_symmetry_cell_setting 'monoclinic'
loop_
_space_group_symop_operation_xyz
x,y,z
-x,1/2+y,-z
loop_
_atom_site_type_symbol
_atom_site_label
_atom_site_fract_x
_atom_site_fract_y
_atom_site_fract_z
Si Si1 0.291886 0.989720 0.165375
Si Si2 0.965699 0.420711 0.491562
Si Si3 0.707214 0.697052 0.080774
Si Si4 0.278167 0.267349 0.531697
Si Si5 0.680944 0.270683 0.175339
Si Si6 0.405526 0.637340 0.515965
Si Si7 0.874490 0.262941 0.785195
Si Si8 0.992293 0.117447 0.231522
O O1 0.251341 0.850144 0.147901
O O2 0.446313 0.032170 0.374141
O O3 0.084880 0.035299 0.133133
O O4 0.340589 0.069944 0.023185
O O5 0.814052 0.381789 0.284119
O O6 0.900507 0.339047 0.622116
O O7 0.183432 0.390919 0.537504
O O8 0.985337 0.547569 0.582370
O O9 0.723651 0.697400 0.290587
O O10 0.905023 0.739278 0.081587
O O11 0.534367 0.787564 0.972150
O O12 0.472041 0.240245 0.523498
O O13 0.131339 0.224121 0.328493
O O14 0.659098 0.192253 0.335731
O O15 0.793469 0.175222 0.108470
O O16 0.226077 0.639859 0.313798
#
# Coordination Sequence:
#
# PCOD9115175 Si02
#       8
#     2   2   2   2   2   2   2   2
#     4   9  19  36  56  79 106 140 178 218 266 314
#     4   8  16  33  55  74  97 134 180 217 253 307
#     4  10  20  35  52  80 114 139 168 215 271 322
#     4   9  18  32  50  75 104 135 172 215 261 306
#     4   9  18  33  53  77 104 136 173 217 262 312
#     4   9  18  34  56  76 101 141 186 218 252 309
#     4   9  18  35  55  77 109 142 174 219 267 312
#     4   9  17  34  55  74  99 137 179 217 254 308
#
# _framework density 25.256231
#
# number of rings (size 3 to 8) (size 9 to 14) (size 15 to 20)
#    0.000    3.000    0.000    0.750    0.000    3.000 
#    0.000   16.250    0.000    0.000    0.000    0.000 
#    0.000    0.000    0.000    0.000    0.000    0.000 
#
# Total GULP energy -89078.073055 kJ/mol
# GULP energy per Si atom -5567.379566 kJ/mol
# Density = 2.519875 g / cm^3
# Si number density = 25.256231 Si / 1000 Ang^3
#
#
#
# Elastic Constant Matrix: (Units=GPa)
#
#
# Indices 1 2 3 4 5 6 
#
# 1 90.6433 34.4467 22.5440 0.0000 30.1582 0.0000
# 2 34.4467 72.6128 50.6979 0.0000 10.5049 0.0000
# 3 22.5440 50.6979 101.4813 0.0000 23.5334 0.0000
# 4 0.0000 0.0000 0.0000 43.6011 0.0000 4.4864
# 5 30.1582 10.5049 23.5334 0.0000 38.8355 0.0000
# 6 0.0000 0.0000 0.0000 4.4864 0.0000 31.4893
#
#
#
# Elastic Compliance Matrix: (Units=1/GPa)
#
#
# Indices 1 2 3 4 5 6 
#
# 1 0.018282 -0.009334 0.003850 0.000000 -0.014005 0.000000
# 2 -0.009334 0.025935 -0.012725 0.000000 0.007945 0.000000
# 3 0.003850 -0.012725 0.017745 0.000000 -0.010300 0.000000
# 4 0.000000 0.000000 0.000000 0.023276 0.000000 -0.003316
# 5 -0.014005 0.007945 -0.010300 0.000000 0.040718 0.000000
# 6 0.000000 0.000000 0.000000 -0.003316 0.000000 0.032229
#
#
# Mechanical properties :
#
#
# Convention : Reuss Voigt Hill
#
# Bulk Modulus (GPa) = 39.15203 53.34607 46.24905
# Shear Modulus (GPa) = 24.61609 33.25512 28.93560
#
# Velocity S-wave (km/s) = 3.12533 3.63259 3.38846
# Velocity P-wave (km/s) = 5.34408 6.22592 5.80178
#
# Compressibility (1/GPa) = 0.02554146
#
# Stress axis : x y z
#
# Youngs Moduli (GPa) = 54.69973 38.55756 56.35461
#
# Poissons Ratio (x) = 0.35991 -0.21695
# Poissons Ratio (y) = 0.51059 0.71714
# Poissons Ratio (z) = -0.21057 0.49066
#
# Static dielectric constant tensor:
#      x y z
#    x 2.111840 0.000000 0.012570 
#    y 0.000000 2.052520 0.000000 
#    z 0.012570 0.000000 2.072240 
# 
# From -- ./inp_files/6315.got.cif
#   From: 2010.05.17/outbox.cif.g08.bks.cpg/sg4_4_cif.got.tgz:6315.got - 2010.06.03 18:43:04.
