data_PCOD9115180
_publ_section_title
;
Structure prediction by ZEFSAII (Michael W. Deem and Ramdas Pophale) SiO2 
 PCOD9115180
Probable space group: P 21
;
_chemical_formula_sum "Si O2"
_cell_formula_units_Z 14
_cell_length_a 11.608294
_cell_length_b 7.897088
_cell_length_c 9.478420
_cell_angle_alpha 90.000000
_cell_angle_beta 36.150122
_cell_angle_gamma 90.000000
_cell_volume 512.568482
_symmetry_space_group_name_H-M "P 21"
_symmetry_group_IT_number 4
_symmetry_cell_setting 'monoclinic'
loop_
_space_group_symop_operation_xyz
x,y,z
-x,1/2+y,-z
loop_
_atom_site_type_symbol
_atom_site_label
_atom_site_fract_x
_atom_site_fract_y
_atom_site_fract_z
Si Si1 0.006594 0.413750 0.774844
Si Si2 0.445710 0.333452 0.883480
Si Si3 0.884184 0.581744 0.150363
Si Si4 0.570606 0.509476 0.249536
Si Si5 0.494887 0.207280 0.145511
Si Si6 0.999040 0.862007 0.719776
Si Si7 0.053378 0.685583 0.399705
O O1 0.061559 0.334970 0.569548
O O2 0.047150 0.244541 0.830553
O O3 0.036312 0.555286 0.867977
O O4 0.779120 0.465112 0.972114
O O5 0.532754 0.169795 0.719024
O O6 0.415358 0.279859 0.076236
O O7 0.554878 0.512345 0.770207
O O8 0.233211 0.353282 0.022841
O O9 0.661321 0.566595 0.310133
O O10 0.905242 0.422310 0.232528
O O11 0.460187 0.337569 0.310587
O O12 0.724087 0.186483 0.874715
O O13 0.033740 0.014461 0.574946
O O14 0.051346 0.703033 0.570083
#
# Coordination Sequence:
#
# PCOD9115180 Si02
#       7
#     2   2   2   2   2   2   2
#     4   8  17  30  48  76 106 139 173 219 266 321
#     4  11  20  34  55  83 110 142 183 227 270 316
#     4   9  17  32  50  79 108 142 177 222 273 325
#     4   9  19  32  53  76 108 143 177 224 266 317
#     4  10  20  35  54  85 107 144 184 224 265 331
#     4  10  21  32  53  84 109 142 173 228 274 322
#     4   9  20  33  49  81 114 132 185 218 270 324
#
# _framework density 27.313424000000001
#
# number of rings (size 3 to 8) (size 9 to 14) (size 15 to 20)
#    0.857    1.714    1.429    1.714    4.000    0.000 
#    0.000    0.000    0.000    0.000   14.857    0.000 
#    0.000    0.000    0.000    0.000    0.000    0.000 
#
# Total GULP energy -78016.389909 kJ/mol
# GULP energy per Si atom -5572.599279 kJ/mol
# Density = 2.725126 g / cm^3
# Si number density = 27.313424 Si / 1000 Ang^3
#
#
#
# Elastic Constant Matrix: (Units=GPa)
#
#
# Indices 1 2 3 4 5 6 
#
# 1 151.0763 46.3826 30.9896 0.0000 12.9437 0.0000
# 2 46.3826 128.7414 10.7344 0.0000 2.5734 0.0000
# 3 30.9896 10.7344 77.3565 0.0000 3.1972 0.0000
# 4 0.0000 0.0000 0.0000 11.8671 0.0000 17.7765
# 5 12.9437 2.5734 3.1972 0.0000 41.1462 0.0000
# 6 0.0000 0.0000 0.0000 17.7765 0.0000 41.2457
#
#
#
# Elastic Compliance Matrix: (Units=1/GPa)
#
#
# Indices 1 2 3 4 5 6 
#
# 1 0.008209 -0.002678 -0.002826 0.000000 -0.002195 0.000000
# 2 -0.002678 0.008739 -0.000153 0.000000 0.000308 0.000000
# 3 -0.002826 -0.000153 0.014089 0.000000 -0.000196 0.000000
# 4 0.000000 0.000000 0.000000 0.237775 0.000000 -0.102479
# 5 -0.002195 0.000308 -0.000196 0.000000 0.024990 0.000000
# 6 0.000000 0.000000 0.000000 -0.102479 0.000000 0.068412
#
#
# Mechanical properties :
#
#
# Convention : Reuss Voigt Hill
#
# Bulk Modulus (GPa) = 50.70220 59.26525 54.98372
# Shear Modulus (GPa) = 13.15433 36.78963 24.97198
#
# Velocity S-wave (km/s) = 2.19694 3.67405 3.02698
# Velocity P-wave (km/s) = 5.00388 6.30425 5.69132
#
# Compressibility (1/GPa) = 0.01972301
#
# Stress axis : x y z
#
# Youngs Moduli (GPa) = 121.81448 114.43067 70.97896
#
# Poissons Ratio (x) = 0.30645 0.20061
# Poissons Ratio (y) = 0.32623 0.01083
# Poissons Ratio (z) = 0.34429 0.01745
#
# Static dielectric constant tensor:
#      x y z
#    x 2.130200 0.000000 -0.025930 
#    y 0.000000 2.328710 0.000000 
#    z -0.025930 0.000000 2.135930 
# 
# From -- ./inp_files/11851.got.cif
#   From: 2010.05.17/outbox.cif.g08.bks.cpg/sg4_6_cif.got.tgz:11851.got - 2010.06.03 18:43:04.
