data_PCOD9115446
_publ_section_title
;
Structure prediction by ZEFSAII (Michael W. Deem and Ramdas Pophale) SiO2 
 PCOD9115446
Probable space group: P 21
;
_chemical_formula_sum "Si O2"
_cell_formula_units_Z 14
_cell_length_a 9.271970
_cell_length_b 13.025770
_cell_length_c 4.854131
_cell_angle_alpha 90.000000
_cell_angle_beta 107.606922
_cell_angle_gamma 90.000000
_cell_volume 558.791833
_symmetry_space_group_name_H-M "P 21"
_symmetry_group_IT_number 4
_symmetry_cell_setting 'monoclinic'
loop_
_space_group_symop_operation_xyz
x,y,z
-x,1/2+y,-z
loop_
_atom_site_type_symbol
_atom_site_label
_atom_site_fract_x
_atom_site_fract_y
_atom_site_fract_z
Si Si1 0.649683 0.767280 0.263317
Si Si2 0.440918 0.001656 0.559982
Si Si3 0.354975 0.568336 0.801582
Si Si4 0.969220 0.323410 0.060931
Si Si5 0.899747 0.928520 0.350651
Si Si6 0.343622 0.797690 0.807672
Si Si7 0.231531 0.166790 0.166783
O O1 0.756971 0.855295 0.208946
O O2 0.674978 0.749312 0.597894
O O3 0.480557 0.790925 0.099876
O O4 0.716004 0.672222 0.118710
O O5 0.379110 0.894282 0.636751
O O6 0.562562 0.000178 0.383100
O O7 0.296581 0.063856 0.345664
O O8 0.541659 0.053801 0.865176
O O9 0.179237 0.536836 0.743090
O O10 0.350429 0.684112 0.681953
O O11 0.808970 0.307220 0.106799
O O12 0.053997 0.403848 0.312278
O O13 0.063234 0.215420 0.095777
O O14 0.972296 0.381638 0.771622
#
# Coordination Sequence:
#
# PCOD9115446 Si02
#       7
#     2   2   2   2   2   2   2
#     4  10  20  38  71  91 131 170 230 267 323 405
#     4  12  25  41  71 103 133 178 236 291 335 400
#     4  12  26  43  72 102 136 180 236 288 335 403
#     4  10  25  42  70  98 141 174 218 279 350 415
#     4  10  22  45  66  94 134 188 211 272 355 402
#     4  12  26  44  71 110 134 177 241 289 330 416
#     4  10  20  43  63  96 131 181 210 274 348 395
#
# _framework density 25.054055000000002
#
# number of rings (size 3 to 8) (size 9 to 14) (size 15 to 20)
#    0.000    1.143    4.286    0.857    4.000    5.714 
#    0.000    4.286    0.000    0.000    0.000    0.000 
#    0.000    0.000    0.000    0.000    0.000    0.000 
#
# Total GULP energy -78244.293640 kJ/mol
# GULP energy per Si atom -5588.878117 kJ/mol
# Density = 2.499703 g / cm^3
# Si number density = 25.054055 Si / 1000 Ang^3
#
#
#
# Elastic Constant Matrix: (Units=GPa)
#
#
# Indices 1 2 3 4 5 6 
#
# 1 140.7560 28.5461 2.5798 0.0000 -2.8696 0.0000
# 2 28.5461 106.5205 -10.0041 0.0000 -6.2524 0.0000
# 3 2.5798 -10.0041 46.2288 0.0000 -23.3162 0.0000
# 4 0.0000 0.0000 0.0000 19.8914 0.0000 -4.3185
# 5 -2.8696 -6.2524 -23.3162 0.0000 40.5004 0.0000
# 6 0.0000 0.0000 0.0000 -4.3185 0.0000 36.1158
#
#
#
# Elastic Compliance Matrix: (Units=1/GPa)
#
#
# Indices 1 2 3 4 5 6 
#
# 1 0.007553 -0.002153 -0.001107 0.000000 -0.000434 0.000000
# 2 -0.002153 0.010623 0.004466 0.000000 0.004058 0.000000
# 3 -0.001107 0.004466 0.032366 0.000000 0.019244 0.000000
# 4 0.000000 0.000000 0.000000 0.051613 0.000000 0.006172
# 5 -0.000434 0.004058 0.019244 0.000000 0.036366 0.000000
# 6 0.000000 0.000000 0.000000 0.006172 0.000000 0.028427
#
#
# Mechanical properties :
#
#
# Convention : Reuss Voigt Hill
#
# Bulk Modulus (GPa) = 18.88477 37.30544 28.09511
# Shear Modulus (GPa) = 27.44452 37.46041 32.45246
#
# Velocity S-wave (km/s) = 3.31329 3.87096 3.60293
# Velocity P-wave (km/s) = 4.71075 5.90774 5.34287
#
# Compressibility (1/GPa) = 0.05295271
#
# Stress axis : x y z
#
# Youngs Moduli (GPa) = 132.40387 94.13906 30.89678
#
# Poissons Ratio (x) = 0.20272 0.03419
# Poissons Ratio (y) = 0.28512 -0.13798
# Poissons Ratio (z) = 0.14651 -0.42041
#
# Static dielectric constant tensor:
#      x y z
#    x 1.965250 0.000000 0.020330 
#    y 0.000000 2.117870 0.000000 
#    z 0.020330 0.000000 1.935890 
# 
# From -- ./inp_files/1862.got.cif
#   From: 2010.05.17/outbox.cif.g08.bks.cpg/sg4_1_cif.got.tgz:1862.got - 2010.06.03 18:43:04.
