data_PCOD9115133
_publ_section_title
;
Structure prediction by ZEFSAII (Michael W. Deem and Ramdas Pophale) SiO2 
 PCOD9115133
Probable space group: P 21
;
_chemical_formula_sum "Si O2"
_cell_formula_units_Z 14
_cell_length_a 12.508219
_cell_length_b 8.036086
_cell_length_c 14.099047
_cell_angle_alpha 90.000000
_cell_angle_beta 156.506049
_cell_angle_gamma 90.000000
_cell_volume 564.968232
_symmetry_space_group_name_H-M "P 21"
_symmetry_group_IT_number 4
_symmetry_cell_setting 'monoclinic'
loop_
_space_group_symop_operation_xyz
x,y,z
-x,1/2+y,-z
loop_
_atom_site_type_symbol
_atom_site_label
_atom_site_fract_x
_atom_site_fract_y
_atom_site_fract_z
Si Si1 0.439546 0.568170 0.451935
Si Si2 0.001228 0.106156 0.622185
Si Si3 0.217885 0.271741 0.608185
Si Si4 0.017841 0.854849 0.894673
Si Si5 0.072825 0.863011 0.157677
Si Si6 0.377016 0.563537 0.172573
Si Si7 0.416087 0.077398 0.117344
O O1 0.287881 0.729205 0.368998
O O2 0.749829 0.529738 0.711445
O O3 0.399893 0.570040 0.305430
O O4 0.277224 0.417720 0.371650
O O5 0.985030 0.902604 0.607057
O O6 0.688381 0.161820 0.378976
O O7 0.093506 0.183455 0.597806
O O8 0.220885 0.152241 0.879113
O O9 0.347910 0.125934 0.649611
O O10 0.445755 0.410533 0.817432
O O11 0.002672 0.819322 0.993392
O O12 0.165352 0.703512 0.965960
O O13 0.220628 0.009163 0.040632
O O14 0.794961 0.896642 0.985413
#
# Coordination Sequence:
#
# PCOD9115133 Si02
#       7
#     2   2   2   2   2   2   2
#     4  10  20  33  57  83 118 153 191 240 290 354
#     4  10  22  40  63  91 116 158 202 248 302 354
#     4   9  22  40  63  85 120 156 199 254 298 359
#     4   9  19  37  58  79 114 153 198 236 290 351
#     4  10  20  34  55  86 116 153 195 239 294 350
#     4   9  19  39  55  83 110 157 192 240 291 351
#     4   9  22  37  65  87 120 156 201 243 303 351
#
# _framework density 24.780156000000002
#
# number of rings (size 3 to 8) (size 9 to 14) (size 15 to 20)
#    0.857    1.714    0.000    0.857    4.000    3.429 
#    2.571    1.429    0.000    0.000    0.000    0.000 
#    0.000    0.000    0.000    0.000    0.000    0.000 
#
# Total GULP energy -77997.279791 kJ/mol
# GULP energy per Si atom -5571.234271 kJ/mol
# Density = 2.472376 g / cm^3
# Si number density = 24.780156 Si / 1000 Ang^3
#
#
#
# Elastic Constant Matrix: (Units=GPa)
#
#
# Indices 1 2 3 4 5 6 
#
# 1 83.8900 17.2575 28.4676 0.0000 11.8641 0.0000
# 2 17.2575 54.4081 19.2542 0.0000 -6.0932 0.0000
# 3 28.4676 19.2542 110.8451 0.0000 5.3247 0.0000
# 4 0.0000 0.0000 0.0000 42.8700 0.0000 8.5247
# 5 11.8641 -6.0932 5.3247 0.0000 28.0505 0.0000
# 6 0.0000 0.0000 0.0000 8.5247 0.0000 34.8838
#
#
#
# Elastic Compliance Matrix: (Units=1/GPa)
#
#
# Indices 1 2 3 4 5 6 
#
# 1 0.014690 -0.004459 -0.002678 0.000000 -0.006674 0.000000
# 2 -0.004459 0.021641 -0.002957 0.000000 0.007148 0.000000
# 3 -0.002678 -0.002957 0.010293 0.000000 -0.001464 0.000000
# 4 0.000000 0.000000 0.000000 0.024518 0.000000 -0.005992
# 5 -0.006674 0.007148 -0.001464 0.000000 0.040303 0.000000
# 6 0.000000 0.000000 0.000000 -0.005992 0.000000 0.030131
#
#
# Mechanical properties :
#
#
# Convention : Reuss Voigt Hill
#
# Bulk Modulus (GPa) = 37.82695 42.12242 39.97469
# Shear Modulus (GPa) = 29.31229 33.43847 31.37538
#
# Velocity S-wave (km/s) = 3.44305 3.67741 3.56216
# Velocity P-wave (km/s) = 5.57712 5.92170 5.75199
#
# Compressibility (1/GPa) = 0.02643618
#
# Stress axis : x y z
#
# Youngs Moduli (GPa) = 68.07269 46.20826 97.15090
#
# Poissons Ratio (x) = 0.20606 0.26013
# Poissons Ratio (y) = 0.30356 0.28730
# Poissons Ratio (z) = 0.18227 0.13665
#
# Static dielectric constant tensor:
#      x y z
#    x 1.896860 0.000000 0.019300 
#    y 0.000000 2.158140 0.000000 
#    z 0.019300 0.000000 1.993100 
# 
# From -- ./inp_files/3395.got.cif
#   From: 2010.05.17/outbox.cif.g08.bks.cpg/sg4_2_cif.got.tgz:3395.got - 2010.06.03 18:43:04.
