data_PCOD9115426
_publ_section_title
;
Structure prediction by ZEFSAII (Michael W. Deem and Ramdas Pophale) SiO2 
 PCOD9115426
Probable space group: P 21
;
_chemical_formula_sum "Si O2"
_cell_formula_units_Z 16
_cell_length_a 9.579018
_cell_length_b 14.823013
_cell_length_c 5.334497
_cell_angle_alpha 90.000000
_cell_angle_beta 126.832773
_cell_angle_gamma 90.000000
_cell_volume 606.250135
_symmetry_space_group_name_H-M "P 21"
_symmetry_group_IT_number 4
_symmetry_cell_setting 'monoclinic'
loop_
_space_group_symop_operation_xyz
x,y,z
-x,1/2+y,-z
loop_
_atom_site_type_symbol
_atom_site_label
_atom_site_fract_x
_atom_site_fract_y
_atom_site_fract_z
Si Si1 0.904850 0.936750 0.324465
Si Si2 0.491760 0.434717 0.985935
Si Si3 0.089058 0.639302 0.523012
Si Si4 0.650679 0.691471 0.453023
Si Si5 0.801913 0.496640 0.689609
Si Si6 0.529787 0.139344 0.238323
Si Si7 0.785860 0.363740 0.053812
Si Si8 0.009537 0.231594 0.063956
O O1 0.699875 0.913011 0.107935
O O2 0.002931 0.967210 0.176437
O O3 0.916459 0.031442 0.486779
O O4 0.045899 0.864958 0.582376
O O5 0.470921 0.530063 0.811368
O O6 0.587594 0.353794 0.934461
O O7 0.643207 0.452824 0.356445
O O8 0.279640 0.668067 0.640724
O O9 0.058993 0.674496 0.770125
O O10 0.972519 0.683766 0.184279
O O11 0.768175 0.600820 0.612886
O O12 0.512413 0.673477 0.526812
O O13 0.795227 0.767555 0.664250
O O14 0.593096 0.682996 0.105030
O O15 0.776434 0.465662 0.943387
O O16 0.855246 0.305555 0.897776
#
# Coordination Sequence:
#
# PCOD9115426 Si02
#       8
#     2   2   2   2   2   2   2   2
#     4  10  22  42  70  95 124 174 231 272 321 393
#     4   9  21  39  65  93 123 162 220 276 319 381
#     4  11  24  44  67  99 128 173 225 280 322 395
#     4  11  20  40  64  95 126 167 214 273 321 391
#     4  10  20  38  66  92 126 167 217 274 324 388
#     4  10  21  40  69  95 121 163 225 273 323 376
#     4  11  24  42  62  94 135 176 212 272 338 400
#     4  12  26  41  65  95 139 176 212 270 346 394
#
# _framework density 26.391748
#
# number of rings (size 3 to 8) (size 9 to 14) (size 15 to 20)
#    0.000    1.500    2.500    2.250    5.250    1.000 
#    4.500    0.000    0.000    0.000    0.000    0.000 
#    0.000    0.000    0.000    0.000    0.000    0.000 
#
# Total GULP energy -89288.022658 kJ/mol
# GULP energy per Si atom -5580.501416 kJ/mol
# Density = 2.633168 g / cm^3
# Si number density = 26.391748 Si / 1000 Ang^3
#
#
#
# Elastic Constant Matrix: (Units=GPa)
#
#
# Indices 1 2 3 4 5 6 
#
# 1 170.3543 10.1371 19.8202 0.0000 18.8755 0.0000
# 2 10.1371 48.3258 5.9171 0.0000 -3.3185 0.0000
# 3 19.8202 5.9171 56.2380 0.0000 7.1742 0.0000
# 4 0.0000 0.0000 0.0000 23.8494 0.0000 -4.4829
# 5 18.8755 -3.3185 7.1742 0.0000 42.6803 0.0000
# 6 0.0000 0.0000 0.0000 -4.4829 0.0000 42.1452
#
#
#
# Elastic Compliance Matrix: (Units=1/GPa)
#
#
# Indices 1 2 3 4 5 6 
#
# 1 0.006451 -0.001315 -0.001797 0.000000 -0.002653 0.000000
# 2 -0.001315 0.021407 -0.002121 0.000000 0.002603 0.000000
# 3 -0.001797 -0.002121 0.018964 0.000000 -0.002558 0.000000
# 4 0.000000 0.000000 0.000000 0.042785 0.000000 0.004551
# 5 -0.002653 0.002603 -0.002558 0.000000 0.025236 0.000000
# 6 0.000000 0.000000 0.000000 0.004551 0.000000 0.024212
#
#
# Mechanical properties :
#
#
# Convention : Reuss Voigt Hill
#
# Bulk Modulus (GPa) = 27.50514 38.51853 33.01183
# Shear Modulus (GPa) = 30.93278 37.67121 34.30200
#
# Velocity S-wave (km/s) = 3.42725 3.78217 3.60908
# Velocity P-wave (km/s) = 5.10940 5.80515 5.46835
#
# Compressibility (1/GPa) = 0.03635685
#
# Stress axis : x y z
#
# Youngs Moduli (GPa) = 155.00375 46.71318 52.73066
#
# Poissons Ratio (x) = 0.06145 0.09475
# Poissons Ratio (y) = 0.20391 0.11183
# Poissons Ratio (z) = 0.27851 0.09907
#
# Static dielectric constant tensor:
#      x y z
#    x 2.092390 0.000000 0.033100 
#    y 0.000000 2.355120 0.000000 
#    z 0.033100 0.000000 2.259850 
# 
# From -- ./inp_files/2034.got.cif
#   From: 2010.05.17/outbox.cif.g08.bks.cpg/sg4_2_cif.got.tgz:2034.got - 2010.06.03 18:43:04.
