data_PCOD9115331
_publ_section_title
;
Structure prediction by ZEFSAII (Michael W. Deem and Ramdas Pophale) SiO2 
 PCOD9115331
Probable space group: P 21
;
_chemical_formula_sum "Si O2"
_cell_formula_units_Z 14
_cell_length_a 9.683134
_cell_length_b 10.323883
_cell_length_c 7.229032
_cell_angle_alpha 90.000000
_cell_angle_beta 51.132138
_cell_angle_gamma 90.000000
_cell_volume 562.666318
_symmetry_space_group_name_H-M "P 21"
_symmetry_group_IT_number 4
_symmetry_cell_setting 'monoclinic'
loop_
_space_group_symop_operation_xyz
x,y,z
-x,1/2+y,-z
loop_
_atom_site_type_symbol
_atom_site_label
_atom_site_fract_x
_atom_site_fract_y
_atom_site_fract_z
Si Si1 0.218099 0.062880 0.313105
Si Si2 0.259832 0.719066 0.620170
Si Si3 0.221883 0.073246 0.741905
Si Si4 0.527200 0.015857 0.777140
Si Si5 0.036901 0.345825 0.378756
Si Si6 0.373806 0.334953 0.567339
Si Si7 0.164911 0.528664 0.971115
O O1 0.254582 0.048761 0.499609
O O2 0.129986 0.207123 0.355195
O O3 0.082681 0.940368 0.385777
O O4 0.408707 0.045743 0.054275
O O5 0.318114 0.615118 0.410902
O O6 0.100414 0.795376 0.661996
O O7 0.443749 0.789839 0.499495
O O8 0.208946 0.675015 0.873569
O O9 0.373668 0.028121 0.749558
O O10 0.227947 0.228598 0.739328
O O11 0.031216 0.018266 0.951023
O O12 0.605524 0.873653 0.665404
O O13 0.158750 0.455865 0.172850
O O14 0.310631 0.459140 0.728450
#
# Coordination Sequence:
#
# PCOD9115331 Si02
#       7
#     2   2   2   2   2   2   2
#     4  11  25  43  64  97 135 176 228 282 338 408
#     4  10  21  39  64  97 133 174 226 279 337 403
#     4  10  22  40  62  93 128 170 223 275 333 400
#     4  10  22  40  64  92 131 175 218 277 340 400
#     4  11  24  42  66 100 139 181 231 283 337 406
#     4  10  20  37  63  94 126 170 222 278 342 397
#     4  10  20  37  65  93 126 174 222 272 329 400
#
# _framework density 24.881533999999998
#
# number of rings (size 3 to 8) (size 9 to 14) (size 15 to 20)
#    0.000    1.714    0.000    5.143    0.000    6.857 
#    0.000   12.857    0.000    0.000    0.000    0.000 
#    0.000    0.000    0.000    0.000    0.000    0.000 
#
# Total GULP energy -77986.952734 kJ/mol
# GULP energy per Si atom -5570.496624 kJ/mol
# Density = 2.482490 g / cm^3
# Si number density = 24.881534 Si / 1000 Ang^3
#
#
#
# Elastic Constant Matrix: (Units=GPa)
#
#
# Indices 1 2 3 4 5 6 
#
# 1 45.8335 9.9998 8.7612 0.0000 1.5693 0.0000
# 2 9.9998 84.6767 1.6968 0.0000 -9.7540 0.0000
# 3 8.7612 1.6968 86.5012 0.0000 -8.1658 0.0000
# 4 0.0000 0.0000 0.0000 44.1207 0.0000 -3.3609
# 5 1.5693 -9.7540 -8.1658 0.0000 28.7139 0.0000
# 6 0.0000 0.0000 0.0000 -3.3609 0.0000 30.3464
#
#
#
# Elastic Compliance Matrix: (Units=1/GPa)
#
#
# Indices 1 2 3 4 5 6 
#
# 1 0.023070 -0.003020 -0.002562 0.000000 -0.003015 0.000000
# 2 -0.003020 0.012688 0.000493 0.000000 0.004615 0.000000
# 3 -0.002562 0.000493 0.012166 0.000000 0.003767 0.000000
# 4 0.000000 0.000000 0.000000 0.022858 0.000000 0.002532
# 5 -0.003015 0.004615 0.003767 0.000000 0.037630 0.000000
# 6 0.000000 0.000000 0.000000 0.002532 0.000000 0.033233
#
#
# Mechanical properties :
#
#
# Convention : Reuss Voigt Hill
#
# Bulk Modulus (GPa) = 26.49385 28.65856 27.57621
# Shear Modulus (GPa) = 30.41238 33.73978 32.07608
#
# Velocity S-wave (km/s) = 3.49992 3.68641 3.59437
# Velocity P-wave (km/s) = 5.19650 5.44633 5.32288
#
# Compressibility (1/GPa) = 0.03774461
#
# Stress axis : x y z
#
# Youngs Moduli (GPa) = 43.34614 78.81400 82.19634
#
# Poissons Ratio (x) = 0.23806 0.21059
# Poissons Ratio (y) = 0.13093 -0.04050
# Poissons Ratio (z) = 0.11106 -0.03883
#
# Static dielectric constant tensor:
#      x y z
#    x 1.959150 0.000000 0.025630 
#    y 0.000000 2.228040 0.000000 
#    z 0.025630 0.000000 1.985040 
# 
# From -- ./inp_files/8424.got.cif
#   From: 2010.05.17/outbox.cif.g08.bks.cpg/sg4_5_cif.got.tgz:8424.got - 2010.06.03 18:43:04.
