data_PCOD9115916
_publ_section_title
;
Structure prediction by ZEFSAII (Michael W. Deem and Ramdas Pophale) SiO2 
 PCOD9115916
Probable space group: P 21
;
_chemical_formula_sum "Si O2"
_cell_formula_units_Z 14
_cell_length_a 9.894471
_cell_length_b 8.146015
_cell_length_c 13.482949
_cell_angle_alpha 90.000000
_cell_angle_beta 32.336934
_cell_angle_gamma 90.000000
_cell_volume 581.290104
_symmetry_space_group_name_H-M "P 21"
_symmetry_group_IT_number 4
_symmetry_cell_setting 'monoclinic'
loop_
_space_group_symop_operation_xyz
x,y,z
-x,1/2+y,-z
loop_
_atom_site_type_symbol
_atom_site_label
_atom_site_fract_x
_atom_site_fract_y
_atom_site_fract_z
Si Si1 0.648884 0.943200 0.917865
Si Si2 0.018371 0.846553 0.971178
Si Si3 0.551400 0.355253 0.662134
Si Si4 0.111353 0.641764 0.401499
Si Si5 0.079581 0.715067 0.724023
Si Si6 0.282547 0.630876 0.927548
Si Si7 0.064643 0.936972 0.308530
O O1 0.804254 0.787820 0.863911
O O2 0.766812 0.999951 0.741184
O O3 0.687703 0.085168 0.976713
O O4 0.352227 0.914932 0.096836
O O5 0.109006 0.737395 0.821992
O O6 0.218528 0.814215 0.933824
O O7 0.734323 0.799136 0.179278
O O8 0.961450 0.024249 0.959106
O O9 0.675901 0.250531 0.674042
O O10 0.508258 0.540396 0.728179
O O11 0.724420 0.324681 0.460074
O O12 0.975453 0.766332 0.410460
O O13 0.953099 0.564511 0.588569
O O14 0.092572 0.527724 0.679355
#
# Coordination Sequence:
#
# PCOD9115916 Si02
#       7
#     2   2   2   2   2   2   2
#     4  11  21  36  61  87 114 158 189 236 294 351
#     4   9  19  39  57  82 111 154 189 243 281 344
#     4   9  19  39  57  79 116 148 187 241 283 341
#     4  11  21  36  59  85 121 153 190 236 295 344
#     4  10  21  38  62  83 115 156 193 234 302 331
#     4   9  20  38  59  79 117 146 193 236 290 330
#     4  11  21  36  57  89 118 153 193 238 285 355
#
# _framework density 24.084361000000001
#
# number of rings (size 3 to 8) (size 9 to 14) (size 15 to 20)
#    0.857    1.143    1.429    3.429    0.000    1.143 
#    5.143    4.286    0.000    0.000    0.000    0.000 
#    0.000    0.000    0.000    0.000    0.000    0.000 
#
# Total GULP energy -78202.866344 kJ/mol
# GULP energy per Si atom -5585.919025 kJ/mol
# Density = 2.402954 g / cm^3
# Si number density = 24.084361 Si / 1000 Ang^3
#
#
#
# Elastic Constant Matrix: (Units=GPa)
#
#
# Indices 1 2 3 4 5 6 
#
# 1 44.8772 10.0864 22.5580 0.0000 5.7359 0.0000
# 2 10.0864 53.0559 10.3459 0.0000 -4.0234 0.0000
# 3 22.5580 10.3459 100.7793 0.0000 18.5478 0.0000
# 4 0.0000 0.0000 0.0000 20.7590 0.0000 4.4042
# 5 5.7359 -4.0234 18.5478 0.0000 30.2285 0.0000
# 6 0.0000 0.0000 0.0000 4.4042 0.0000 48.6007
#
#
#
# Elastic Compliance Matrix: (Units=1/GPa)
#
#
# Indices 1 2 3 4 5 6 
#
# 1 0.026019 -0.004169 -0.004944 0.000000 -0.002459 0.000000
# 2 -0.004169 0.020398 -0.002036 0.000000 0.004755 0.000000
# 3 -0.004944 -0.002036 0.012531 0.000000 -0.007022 0.000000
# 4 0.000000 0.000000 0.000000 0.049116 0.000000 -0.004451
# 5 -0.002459 0.004755 -0.007022 0.000000 0.038489 0.000000
# 6 0.000000 0.000000 0.000000 -0.004451 0.000000 0.020979
#
#
# Mechanical properties :
#
#
# Convention : Reuss Voigt Hill
#
# Bulk Modulus (GPa) = 27.28451 31.63253 29.45852
# Shear Modulus (GPa) = 24.74677 30.29912 27.52294
#
# Velocity S-wave (km/s) = 3.20895 3.55074 3.38416
# Velocity P-wave (km/s) = 5.00830 5.47475 5.24671
#
# Compressibility (1/GPa) = 0.03665083
#
# Stress axis : x y z
#
# Youngs Moduli (GPa) = 38.43319 49.02378 79.80524
#
# Poissons Ratio (x) = 0.20438 0.39452
# Poissons Ratio (y) = 0.16023 0.16249
# Poissons Ratio (z) = 0.18999 0.09982
#
# Static dielectric constant tensor:
#      x y z
#    x 1.917960 0.000000 -0.011300 
#    y 0.000000 2.010420 0.000000 
#    z -0.011300 0.000000 1.878000 
# 
# From -- ./inp_files/10078.got.cif
#   From: 2010.05.17/outbox.cif.g08.bks.cpg/sg4_6_cif.got.tgz:10078.got - 2010.06.03 18:43:04.
