data_PCOD9115738
_publ_section_title
;
Structure prediction by ZEFSAII (Michael W. Deem and Ramdas Pophale) SiO2 
 PCOD9115738
Probable space group: P 21
;
_chemical_formula_sum "Si O2"
_cell_formula_units_Z 16
_cell_length_a 6.616297
_cell_length_b 13.069928
_cell_length_c 9.353699
_cell_angle_alpha 90.000000
_cell_angle_beta 124.639850
_cell_angle_gamma 90.000000
_cell_volume 665.479738
_symmetry_space_group_name_H-M "P 21"
_symmetry_group_IT_number 4
_symmetry_cell_setting 'monoclinic'
loop_
_space_group_symop_operation_xyz
x,y,z
-x,1/2+y,-z
loop_
_atom_site_type_symbol
_atom_site_label
_atom_site_fract_x
_atom_site_fract_y
_atom_site_fract_z
Si Si1 0.136283 0.767000 0.671743
Si Si2 0.968406 0.151289 0.117425
Si Si3 0.396702 0.006550 0.276678
Si Si4 0.324068 0.895236 0.538096
Si Si5 0.307292 0.841778 0.022949
Si Si6 0.037098 0.540471 0.432630
Si Si7 0.270325 0.546839 0.235468
Si Si8 0.664911 0.717156 0.364880
O O1 0.144014 0.663076 0.768956
O O2 0.270054 0.782407 0.574642
O O3 0.839042 0.784707 0.539246
O O4 0.283150 0.840351 0.842337
O O5 0.922321 0.264842 0.034025
O O6 0.824329 0.073431 0.959109
O O7 0.239130 0.108305 0.235601
O O8 0.323024 0.923859 0.371128
O O9 0.321133 0.951162 0.100383
O O10 0.681158 0.031366 0.405465
O O11 0.573436 0.944073 0.695670
O O12 0.108244 0.956869 0.532774
O O13 0.537863 0.782057 0.188189
O O14 0.063979 0.534870 0.272127
O O15 0.875289 0.641308 0.392801
O O16 0.456335 0.642329 0.345751
#
# Coordination Sequence:
#
# PCOD9115738 Si02
#       8
#     2   2   2   2   2   2   2   2
#     4  10  21  41  65 101 135 184 227 295 353 415
#     4   9  21  41  64 100 144 180 235 297 347 426
#     4  11  22  46  69 102 141 194 244 292 361 428
#     4  10  22  40  69  96 132 180 238 291 353 426
#     4   9  23  42  70  98 144 188 234 305 348 430
#     4  10  21  38  72  97 127 188 227 294 361 423
#     4   9  20  40  65  97 132 180 225 293 351 429
#     4  10  20  44  66  95 141 174 234 289 356 421
#
# _framework density 24.042808000000001
#
# number of rings (size 3 to 8) (size 9 to 14) (size 15 to 20)
#    0.750    1.500    0.000    3.000    1.750    2.000 
#    9.000    3.750    0.000    0.000    0.000    0.000 
#    0.000    0.000    0.000    0.000    0.000    0.000 
#
# Total GULP energy -89216.091566 kJ/mol
# GULP energy per Si atom -5576.005723 kJ/mol
# Density = 2.398809 g / cm^3
# Si number density = 24.042808 Si / 1000 Ang^3
#
#
#
# Elastic Constant Matrix: (Units=GPa)
#
#
# Indices 1 2 3 4 5 6 
#
# 1 97.1445 29.8723 36.1894 0.0000 -12.1009 0.0000
# 2 29.8723 51.5362 13.4545 0.0000 5.3542 0.0000
# 3 36.1894 13.4545 145.9053 0.0000 9.4195 0.0000
# 4 0.0000 0.0000 0.0000 44.6370 0.0000 0.3333
# 5 -12.1009 5.3542 9.4195 0.0000 9.5743 0.0000
# 6 0.0000 0.0000 0.0000 0.3333 0.0000 39.3470
#
#
#
# Elastic Compliance Matrix: (Units=1/GPa)
#
#
# Indices 1 2 3 4 5 6 
#
# 1 0.024268 -0.017049 -0.007521 0.000000 0.047606 0.000000
# 2 -0.017049 0.032789 0.004037 0.000000 -0.043856 0.000000
# 3 -0.007521 0.004037 0.009724 0.000000 -0.021329 0.000000
# 4 0.000000 0.000000 0.000000 0.022404 0.000000 -0.000190
# 5 0.047606 -0.043856 -0.021329 0.000000 0.210125 0.000000
# 6 0.000000 0.000000 0.000000 -0.000190 0.000000 0.025416
#
#
# Mechanical properties :
#
#
# Convention : Reuss Voigt Hill
#
# Bulk Modulus (GPa) = 38.88898 50.40204 44.64551
# Shear Modulus (GPa) = 13.35593 33.04964 23.20278
#
# Velocity S-wave (km/s) = 2.35948 3.71160 3.10991
# Velocity P-wave (km/s) = 4.86136 6.27511 5.61292
#
# Compressibility (1/GPa) = 0.02571422
#
# Stress axis : x y z
#
# Youngs Moduli (GPa) = 41.20579 30.49826 102.83947
#
# Poissons Ratio (x) = 0.51998 0.77341
# Poissons Ratio (y) = 0.70253 -0.41511
# Poissons Ratio (z) = 0.30989 -0.12311
#
# Static dielectric constant tensor:
#      x y z
#    x 1.864860 0.000000 -0.008540 
#    y 0.000000 2.103100 0.000000 
#    z -0.008540 0.000000 1.983370 
# 
# From -- ./inp_files/4807.got.cif
#   From: 2010.05.17/outbox.cif.g08.bks.cpg/sg4_3_cif.got.tgz:4807.got - 2010.06.03 18:43:04.
