data_PCOD9115080
_publ_section_title
;
Structure prediction by ZEFSAII (Michael W. Deem and Ramdas Pophale) SiO2 
 PCOD9115080
Probable space group: P 21
;
_chemical_formula_sum "Si O2"
_cell_formula_units_Z 16
_cell_length_a 14.420879
_cell_length_b 8.403652
_cell_length_c 12.525790
_cell_angle_alpha 90.000000
_cell_angle_beta 29.671431
_cell_angle_gamma 90.000000
_cell_volume 751.436833
_symmetry_space_group_name_H-M "P 21"
_symmetry_group_IT_number 4
_symmetry_cell_setting 'monoclinic'
loop_
_space_group_symop_operation_xyz
x,y,z
-x,1/2+y,-z
loop_
_atom_site_type_symbol
_atom_site_label
_atom_site_fract_x
_atom_site_fract_y
_atom_site_fract_z
Si Si1 0.044254 0.379190 0.818461
Si Si2 0.506147 0.420019 0.656020
Si Si3 0.034039 0.691009 0.305758
Si Si4 0.178466 0.058129 0.781576
Si Si5 0.614847 0.597298 0.757403
Si Si6 0.229179 0.647661 0.515326
Si Si7 0.311902 0.757109 0.207841
Si Si8 0.086375 0.388613 0.128595
O O1 0.134814 0.242531 0.802350
O O2 0.204040 0.485382 0.603718
O O3 0.931898 0.295006 0.834387
O O4 0.908962 0.491653 0.022698
O O5 0.608918 0.500646 0.451991
O O6 0.532768 0.548728 0.724457
O O7 0.625055 0.264749 0.571485
O O8 0.288744 0.373890 0.872255
O O9 0.131252 0.756546 0.313225
O O10 0.102459 0.511776 0.211022
O O11 0.812298 0.680994 0.542070
O O12 0.056301 0.971843 0.811024
O O13 0.652225 0.429829 0.778861
O O14 0.478591 0.701013 0.965203
O O15 0.287896 0.640288 0.333221
O O16 0.024013 0.732635 0.723569
#
# Coordination Sequence:
#
# PCOD9115080 Si02
#       8
#     2   2   2   2   2   2   2   2
#     4  11  23  43  69  93 135 173 218 274 331 392
#     4  10  19  41  66  91 127 167 217 271 329 387
#     4  11  23  42  65  93 132 177 219 268 323 390
#     4  10  21  41  66  94 125 169 214 272 333 382
#     4  11  23  41  62  97 132 173 218 274 322 386
#     4  10  23  40  60  97 130 171 217 268 324 387
#     4  11  25  39  67  97 135 177 220 264 329 388
#     4  10  19  41  67  88 124 171 215 271 321 384
#
# _framework density 21.292539999999999
#
# number of rings (size 3 to 8) (size 9 to 14) (size 15 to 20)
#    0.000    1.500    6.250    1.500    3.500    2.000 
#    0.000   10.000    0.000    0.000    0.000    0.000 
#    0.000    0.000    0.000    0.000    0.000    0.000 
#
# Total GULP energy -89419.899224 kJ/mol
# GULP energy per Si atom -5588.743702 kJ/mol
# Density = 2.124408 g / cm^3
# Si number density = 21.292540 Si / 1000 Ang^3
#
#
#
# Elastic Constant Matrix: (Units=GPa)
#
#
# Indices 1 2 3 4 5 6 
#
# 1 28.7206 10.4378 14.6411 0.0000 5.8685 0.0000
# 2 10.4378 69.9440 28.1895 0.0000 13.0737 0.0000
# 3 14.6411 28.1895 120.2226 0.0000 -2.5203 0.0000
# 4 0.0000 0.0000 0.0000 44.0392 0.0000 20.1598
# 5 5.8685 13.0737 -2.5203 0.0000 41.7755 0.0000
# 6 0.0000 0.0000 0.0000 20.1598 0.0000 6.7007
#
#
#
# Elastic Compliance Matrix: (Units=1/GPa)
#
#
# Indices 1 2 3 4 5 6 
#
# 1 0.039060 -0.003306 -0.004080 0.000000 -0.004698 0.000000
# 2 -0.003306 0.017270 -0.003755 0.000000 -0.005167 0.000000
# 3 -0.004080 -0.003755 0.009744 0.000000 0.002336 0.000000
# 4 0.000000 0.000000 0.000000 -0.060193 0.000000 0.181095
# 5 -0.004698 -0.005167 0.002336 0.000000 0.026355 0.000000
# 6 0.000000 0.000000 0.000000 0.181095 0.000000 -0.395604
#
#
# Mechanical properties :
#
#
# Convention : Reuss Voigt Hill
#
# Bulk Modulus (GPa) = 22.83579 36.15823 29.49701
# Shear Modulus (GPa) = -15.31449 29.54432 7.11492
#
# Velocity S-wave (km/s) = -2.68478 3.72902 1.82996
# Velocity P-wave (km/s) = 1.06647 5.96316 4.28349
#
# Compressibility (1/GPa) = 0.04379091
#
# Stress axis : x y z
#
# Youngs Moduli (GPa) = 25.60175 57.90493 102.62487
#
# Poissons Ratio (x) = 0.19145 0.41872
# Poissons Ratio (y) = 0.08465 0.38536
# Poissons Ratio (z) = 0.10446 0.21743
#
# Static dielectric constant tensor:
#      x y z
#    x 1.757330 0.000000 0.011970 
#    y 0.000000 1.789740 0.000000 
#    z 0.011970 0.000000 1.774730 
# 
# From -- ./inp_files/12558.got.cif
#   From: 2010.05.17/outbox.cif.g08.bks.cpg/sg4_7_cif.got.tgz:12558.got - 2010.06.03 18:43:04.
