data_PCOD9115385
_publ_section_title
;
Structure prediction by ZEFSAII (Michael W. Deem and Ramdas Pophale) SiO2 
 PCOD9115385
Probable space group: P 21
;
_chemical_formula_sum "Si O2"
_cell_formula_units_Z 12
_cell_length_a 4.856209
_cell_length_b 14.259349
_cell_length_c 9.299537
_cell_angle_alpha 90.000000
_cell_angle_beta 58.523091
_cell_angle_gamma 90.000000
_cell_volume 549.201089
_symmetry_space_group_name_H-M "P 21"
_symmetry_group_IT_number 4
_symmetry_cell_setting 'monoclinic'
loop_
_space_group_symop_operation_xyz
x,y,z
-x,1/2+y,-z
loop_
_atom_site_type_symbol
_atom_site_label
_atom_site_fract_x
_atom_site_fract_y
_atom_site_fract_z
Si Si1 0.642384 0.697210 0.128743
Si Si2 0.989238 0.967463 0.137724
Si Si3 0.944038 0.875845 0.691566
Si Si4 0.672638 0.394835 0.691679
Si Si5 0.899828 0.073461 0.871165
Si Si6 0.264746 0.803181 0.862204
O O1 0.443083 0.792368 0.219460
O O2 0.406624 0.635331 0.093432
O O3 0.769337 0.635365 0.230755
O O4 0.987885 0.727436 0.967314
O O5 0.644408 0.937937 0.294168
O O6 0.228573 0.965825 0.207008
O O7 0.133129 0.885288 0.000032
O O8 0.922680 0.043155 0.032504
O O9 0.642648 0.804856 0.792888
O O10 0.046043 0.885317 0.499928
O O11 0.232725 0.832781 0.705806
O O12 0.881972 0.978330 0.780376
#
# Coordination Sequence:
#
# PCOD9115385 Si02
#       6
#     2   2   2   2   2   2
#     4  11  22  39  64  93 123 161 211 266 305 349
#     4  10  20  38  62  86 115 161 209 243 295 377
#     4  11  22  39  63  91 124 164 205 249 310 380
#     4  11  22  39  63  91 124 164 205 249 310 380
#     4  11  22  39  64  93 123 161 211 266 305 349
#     4  10  20  38  62  86 115 161 209 243 295 377
#
# _framework density 21.849923
#
# number of rings (size 3 to 8) (size 9 to 14) (size 15 to 20)
#    0.000    1.333    0.000   10.000    0.000    0.000 
#    0.000    6.667    0.000    8.000    0.000    0.000 
#    0.000    0.000    0.000    0.000    0.000    0.000 
#
# Total GULP energy -66837.620156 kJ/mol
# GULP energy per Si atom -5569.801680 kJ/mol
# Density = 2.180019 g / cm^3
# Si number density = 21.849923 Si / 1000 Ang^3
#
#
#
# Elastic Constant Matrix: (Units=GPa)
#
#
# Indices 1 2 3 4 5 6 
#
# 1 156.6744 34.2100 21.4543 0.0000 1.0947 0.0000
# 2 34.2100 66.2322 34.7948 0.0000 -0.1322 0.0000
# 3 21.4543 34.7948 85.3213 0.0000 -0.2362 0.0000
# 4 0.0000 0.0000 0.0000 9.1605 0.0000 0.4410
# 5 1.0947 -0.1322 -0.2362 0.0000 24.1486 0.0000
# 6 0.0000 0.0000 0.0000 0.4410 0.0000 42.9539
#
#
#
# Elastic Compliance Matrix: (Units=1/GPa)
#
#
# Indices 1 2 3 4 5 6 
#
# 1 0.007206 -0.003526 -0.000375 0.000000 -0.000350 0.000000
# 2 -0.003526 0.020940 -0.007652 0.000000 0.000200 0.000000
# 3 -0.000375 -0.007652 0.014936 0.000000 0.000121 0.000000
# 4 0.000000 0.000000 0.000000 0.109219 0.000000 -0.001121
# 5 -0.000350 0.000200 0.000121 0.000000 0.041428 0.000000
# 6 0.000000 0.000000 0.000000 -0.001121 0.000000 0.023292
#
#
# Mechanical properties :
#
#
# Convention : Reuss Voigt Hill
#
# Bulk Modulus (GPa) = 50.06146 54.34955 52.20551
# Shear Modulus (GPa) = 20.26041 29.77052 25.01547
#
# Velocity S-wave (km/s) = 3.04839 3.69521 3.38727
# Velocity P-wave (km/s) = 5.94571 6.56766 6.26441
#
# Compressibility (1/GPa) = 0.01997545
#
# Stress axis : x y z
#
# Youngs Moduli (GPa) = 138.76670 47.75531 66.95320
#
# Poissons Ratio (x) = 0.16838 0.02512
# Poissons Ratio (y) = 0.48926 0.51235
# Poissons Ratio (z) = 0.05206 0.36544
#
# Static dielectric constant tensor:
#      x y z
#    x 1.816150 0.000000 0.000290 
#    y 0.000000 1.934790 0.000000 
#    z 0.000290 0.000000 1.794180 
# 
# From -- ./inp_files/4811.got.cif
#   From: 2010.05.17/outbox.cif.g08.bks.cpg/sg4_3_cif.got.tgz:4811.got - 2010.06.03 18:43:04.
