data_PCOD9115819
_publ_section_title
;
Structure prediction by ZEFSAII (Michael W. Deem and Ramdas Pophale) SiO2 
 PCOD9115819
Probable space group: P 21
;
_chemical_formula_sum "Si O2"
_cell_formula_units_Z 12
_cell_length_a 23.802364
_cell_length_b 5.080017
_cell_length_c 12.251293
_cell_angle_alpha 90.000000
_cell_angle_beta 159.864334
_cell_angle_gamma 90.000000
_cell_volume 509.957310
_symmetry_space_group_name_H-M "P 21"
_symmetry_group_IT_number 4
_symmetry_cell_setting 'monoclinic'
loop_
_space_group_symop_operation_xyz
x,y,z
-x,1/2+y,-z
loop_
_atom_site_type_symbol
_atom_site_label
_atom_site_fract_x
_atom_site_fract_y
_atom_site_fract_z
Si Si1 0.117545 0.959050 0.720924
Si Si2 0.095356 0.178766 0.302403
Si Si3 0.647563 0.457301 0.641617
Si Si4 0.919120 0.677891 0.986987
Si Si5 0.546955 0.433909 0.772916
Si Si6 0.555658 0.420715 0.039547
O O1 0.998173 0.712432 0.489716
O O2 0.225769 0.941310 0.028121
O O3 0.259287 0.971491 0.888157
O O4 0.959051 0.973448 0.096606
O O5 0.061123 0.472605 0.279683
O O6 0.267811 0.054004 0.642018
O O7 0.086765 0.184993 0.154787
O O8 0.515110 0.689806 0.412927
O O9 0.551741 0.191229 0.442862
O O10 0.757787 0.551154 0.741042
O O11 0.506093 0.378977 0.824569
O O12 0.552853 0.144835 0.098835
#
# Coordination Sequence:
#
# PCOD9115819 Si02
#       6
#     2   2   2   2   2   2
#     4  12  28  48  76 107 139 182 242 297 358 418
#     4  10  21  37  57  93 132 173 228 274 325 404
#     4  12  25  46  74 100 144 184 237 288 361 422
#     4  10  21  36  63  90 130 177 219 276 341 396
#     4  12  26  46  73 105 145 188 234 291 357 419
#     4  12  25  41  67  99 144 186 236 280 348 417
#
# _framework density 23.531383000000002
#
# number of rings (size 3 to 8) (size 9 to 14) (size 15 to 20)
#    0.000    0.667    0.000    8.000    4.667    2.667 
#    0.000    0.000    0.000    0.000    0.000    0.000 
#    0.000    0.000    0.000    0.000    0.000    0.000 
#
# Total GULP energy -67227.204500 kJ/mol
# GULP energy per Si atom -5602.267042 kJ/mol
# Density = 2.347782 g / cm^3
# Si number density = 23.531383 Si / 1000 Ang^3
#
#
#
# Elastic Constant Matrix: (Units=GPa)
#
#
# Indices 1 2 3 4 5 6 
#
# 1 92.3562 27.3420 21.0375 0.0000 6.2120 0.0000
# 2 27.3420 36.5347 20.5867 0.0000 -1.7663 0.0000
# 3 21.0375 20.5867 110.8328 0.0000 0.8710 0.0000
# 4 0.0000 0.0000 0.0000 53.4555 0.0000 7.1470
# 5 6.2120 -1.7663 0.8710 0.0000 20.3631 0.0000
# 6 0.0000 0.0000 0.0000 7.1470 0.0000 5.7768
#
#
#
# Elastic Compliance Matrix: (Units=1/GPa)
#
#
# Indices 1 2 3 4 5 6 
#
# 1 0.014525 -0.010720 -0.000724 0.000000 -0.005330 0.000000
# 2 -0.010720 0.038654 -0.005199 0.000000 0.006845 0.000000
# 3 -0.000724 -0.005199 0.010131 0.000000 -0.000663 0.000000
# 4 0.000000 0.000000 0.000000 0.022415 0.000000 -0.027731
# 5 -0.005330 0.006845 -0.000663 0.000000 0.051356 0.000000
# 6 0.000000 0.000000 0.000000 -0.027731 0.000000 0.207415
#
#
# Mechanical properties :
#
#
# Convention : Reuss Voigt Hill
#
# Bulk Modulus (GPa) = 33.30608 41.96179 37.63394
# Shear Modulus (GPa) = 12.89359 27.30292 20.09826
#
# Velocity S-wave (km/s) = 2.34333 3.40998 2.92568
# Velocity P-wave (km/s) = 4.63748 5.77710 5.23838
#
# Compressibility (1/GPa) = 0.03002454
#
# Stress axis : x y z
#
# Youngs Moduli (GPa) = 68.84875 25.87042 98.70792
#
# Poissons Ratio (x) = 0.27732 0.07146
# Poissons Ratio (y) = 0.73804 0.51317
# Poissons Ratio (z) = 0.04984 0.13450
#
# Static dielectric constant tensor:
#      x y z
#    x 1.952760 0.000000 0.017310 
#    y 0.000000 1.847080 0.000000 
#    z 0.017310 0.000000 1.879760 
# 
# From -- ./inp_files/13094.got.cif
#   From: 2010.05.17/outbox.cif.g08.bks.cpg/sg4_7_cif.got.tgz:13094.got - 2010.06.03 18:43:04.
