data_PCOD9115481
_publ_section_title
;
Structure prediction by ZEFSAII (Michael W. Deem and Ramdas Pophale) SiO2 
 PCOD9115481
Probable space group: P 21
;
_chemical_formula_sum "Si O2"
_cell_formula_units_Z 16
_cell_length_a 16.096895
_cell_length_b 9.593323
_cell_length_c 11.954852
_cell_angle_alpha 90.000000
_cell_angle_beta 156.946936
_cell_angle_gamma 90.000000
_cell_volume 722.902526
_symmetry_space_group_name_H-M "P 21"
_symmetry_group_IT_number 4
_symmetry_cell_setting 'monoclinic'
loop_
_space_group_symop_operation_xyz
x,y,z
-x,1/2+y,-z
loop_
_atom_site_type_symbol
_atom_site_label
_atom_site_fract_x
_atom_site_fract_y
_atom_site_fract_z
Si Si1 0.184100 0.254080 0.257659
Si Si2 0.885032 0.060276 0.734252
Si Si3 0.651546 0.325131 0.445605
Si Si4 0.034912 0.181477 0.702555
Si Si5 0.245508 0.092904 0.731722
Si Si6 0.661848 0.874187 0.766592
Si Si7 0.572541 0.324313 0.106177
Si Si8 0.036291 0.042757 0.243946
O O1 0.126499 0.406216 0.233537
O O2 0.182875 0.158632 0.366906
O O3 0.353042 0.295280 0.370307
O O4 0.024877 0.156195 0.989524
O O5 0.672774 0.157419 0.469184
O O6 0.982617 0.064662 0.730842
O O7 0.530141 0.370847 0.182731
O O8 0.875361 0.398307 0.698424
O O9 0.560893 0.383553 0.447510
O O10 0.136111 0.130825 0.712524
O O11 0.200355 0.283880 0.971765
O O12 0.804712 0.250911 0.392897
O O13 0.076947 0.053156 0.426451
O O14 0.401601 0.959970 0.937071
O O15 0.386540 0.216923 0.855832
O O16 0.786206 0.021725 0.909996
#
# Coordination Sequence:
#
# PCOD9115481 Si02
#       8
#     2   2   2   2   2   2   2   2
#     4  11  21  40  66  89 130 165 206 261 318 365
#     4  10  20  39  64  94 124 167 208 261 312 374
#     4  10  20  39  66  88 120 164 212 251 318 370
#     4  10  21  40  65  89 119 170 209 249 316 372
#     4  11  23  39  66  92 129 165 210 255 316 378
#     4  11  20  40  69  84 121 169 205 249 321 372
#     4  10  22  39  61  91 126 165 201 261 310 369
#     4  11  23  42  61  95 125 163 209 263 311 370
#
# _framework density 22.132998000000001
#
# number of rings (size 3 to 8) (size 9 to 14) (size 15 to 20)
#    0.000    1.500    7.500    0.000    0.000    7.000 
#    0.000    0.000    0.000    0.000    0.000    0.000 
#    0.000    0.000    0.000    0.000    0.000    0.000 
#
# Total GULP energy -89112.880548 kJ/mol
# GULP energy per Si atom -5569.555034 kJ/mol
# Density = 2.208262 g / cm^3
# Si number density = 22.132998 Si / 1000 Ang^3
#
#
#
# Elastic Constant Matrix: (Units=GPa)
#
#
# Indices 1 2 3 4 5 6 
#
# 1 186.5390 53.2547 25.3950 0.0000 5.3285 0.0000
# 2 53.2547 100.1399 -1.0679 0.0000 -1.4635 0.0000
# 3 25.3950 -1.0679 13.3339 0.0000 -1.8740 0.0000
# 4 0.0000 0.0000 0.0000 19.0721 0.0000 -8.5065
# 5 5.3285 -1.4635 -1.8740 0.0000 25.9518 0.0000
# 6 0.0000 0.0000 0.0000 -8.5065 0.0000 35.5465
#
#
#
# Elastic Compliance Matrix: (Units=1/GPa)
#
#
# Indices 1 2 3 4 5 6 
#
# 1 0.009626 -0.005378 -0.019280 0.000000 -0.003672 0.000000
# 2 -0.005378 0.013010 0.011662 0.000000 0.002680 0.000000
# 3 -0.019280 0.011662 0.114460 0.000000 0.012881 0.000000
# 4 0.000000 0.000000 0.000000 0.058698 0.000000 0.014047
# 5 -0.003672 0.002680 0.012881 0.000000 0.040368 0.000000
# 6 0.000000 0.000000 0.000000 0.014047 0.000000 0.031494
#
#
# Mechanical properties :
#
#
# Convention : Reuss Voigt Hill
#
# Bulk Modulus (GPa) = 9.00064 50.57516 29.78790
# Shear Modulus (GPa) = 15.12030 30.94281 23.03156
#
# Velocity S-wave (km/s) = 2.61656 3.74309 3.22933
# Velocity P-wave (km/s) = 3.63373 6.44835 5.23379
#
# Compressibility (1/GPa) = 0.11110320
#
# Stress axis : x y z
#
# Youngs Moduli (GPa) = 103.88723 76.86532 8.73670
#
# Poissons Ratio (x) = 0.41341 0.16844
# Poissons Ratio (y) = 0.55874 -0.10189
# Poissons Ratio (z) = 2.00290 -0.89639
#
# Static dielectric constant tensor:
#      x y z
#    x 1.826340 0.000000 -0.018180 
#    y 0.000000 1.841660 0.000000 
#    z -0.018180 0.000000 1.914360 
# 
# From -- ./inp_files/12682.got.cif
#   From: 2010.05.17/outbox.cif.g08.bks.cpg/sg4_7_cif.got.tgz:12682.got - 2010.06.03 18:43:04.
