data_PCOD9115348
_publ_section_title
;
Structure prediction by ZEFSAII (Michael W. Deem and Ramdas Pophale) SiO2 
 PCOD9115348
Probable space group: P 21
;
_chemical_formula_sum "Si O2"
_cell_formula_units_Z 16
_cell_length_a 9.291443
_cell_length_b 5.507673
_cell_length_c 13.751831
_cell_angle_alpha 90.000000
_cell_angle_beta 68.697181
_cell_angle_gamma 90.000000
_cell_volume 655.655209
_symmetry_space_group_name_H-M "P 21"
_symmetry_group_IT_number 4
_symmetry_cell_setting 'monoclinic'
loop_
_space_group_symop_operation_xyz
x,y,z
-x,1/2+y,-z
loop_
_atom_site_type_symbol
_atom_site_label
_atom_site_fract_x
_atom_site_fract_y
_atom_site_fract_z
Si Si1 0.260161 0.843020 0.925033
Si Si2 0.196315 0.767784 0.725193
Si Si3 0.038421 0.746874 0.365297
Si Si4 0.679948 0.659191 0.454696
Si Si5 0.219534 0.918057 0.141802
Si Si6 0.881412 0.735887 0.680834
Si Si7 0.543134 0.836567 0.130042
Si Si8 0.488697 0.448931 0.649755
O O1 0.173674 0.847574 0.842153
O O2 0.352585 0.582401 0.908031
O O3 0.367430 0.083230 0.897697
O O4 0.160973 0.893843 0.046465
O O5 0.039895 0.728923 0.705502
O O6 0.314021 0.544658 0.704483
O O7 0.287187 0.949667 0.632719
O O8 0.854368 0.761680 0.417077
O O9 0.112479 0.489627 0.376163
O O10 0.103896 0.764290 0.237953
O O11 0.105846 0.997486 0.390039
O O12 0.617158 0.631447 0.579728
O O13 0.533491 0.783096 0.438288
O O14 0.396123 0.830304 0.095698
O O15 0.234805 0.169493 0.201937
O O16 0.470909 0.842158 0.256693
#
# Coordination Sequence:
#
# PCOD9115348 Si02
#       8
#     2   2   2   2   2   2   2   2
#     4  11  24  38  63  92 121 166 201 259 301 367
#     4  10  20  38  54  90 122 143 203 249 299 365
#     4   9  21  36  60  84 115 158 202 241 303 361
#     4  11  19  36  61  85 118 155 197 253 313 362
#     4  10  23  42  63  84 128 167 205 247 310 365
#     4   9  20  36  59  81 118 159 191 248 299 355
#     4  11  25  39  62  91 126 155 217 249 305 369
#     4  11  20  35  62  89 116 159 192 260 310 360
#
# _framework density 24.403068999999999
#
# number of rings (size 3 to 8) (size 9 to 14) (size 15 to 20)
#    0.750    1.000    3.750    0.750    3.500    0.000 
#    4.500    0.000    5.500    0.000    0.000    0.000 
#    0.000    0.000    0.000    0.000    0.000    0.000 
#
# Total GULP energy -89076.092887 kJ/mol
# GULP energy per Si atom -5567.255805 kJ/mol
# Density = 2.434753 g / cm^3
# Si number density = 24.403069 Si / 1000 Ang^3
#
#
#
# Elastic Constant Matrix: (Units=GPa)
#
#
# Indices 1 2 3 4 5 6 
#
# 1 55.6276 7.8106 -7.4114 0.0000 3.9743 0.0000
# 2 7.8106 112.3501 7.3619 0.0000 1.9428 0.0000
# 3 -7.4114 7.3619 124.6795 0.0000 10.7975 0.0000
# 4 0.0000 0.0000 0.0000 20.7955 0.0000 -6.9501
# 5 3.9743 1.9428 10.7975 0.0000 25.6716 0.0000
# 6 0.0000 0.0000 0.0000 -6.9501 0.0000 19.5163
#
#
#
# Elastic Compliance Matrix: (Units=1/GPa)
#
#
# Indices 1 2 3 4 5 6 
#
# 1 0.018604 -0.001331 0.001479 0.000000 -0.003401 0.000000
# 2 -0.001331 0.009036 -0.000593 0.000000 -0.000228 0.000000
# 3 0.001479 -0.000593 0.008468 0.000000 -0.003746 0.000000
# 4 0.000000 0.000000 0.000000 0.054584 0.000000 0.019438
# 5 -0.003401 -0.000228 -0.003746 0.000000 0.041073 0.000000
# 6 0.000000 0.000000 0.000000 0.019438 0.000000 0.058161
#
#
# Mechanical properties :
#
#
# Convention : Reuss Voigt Hill
#
# Bulk Modulus (GPa) = 28.39529 34.24216 31.31873
# Shear Modulus (GPa) = 24.68463 32.18976 28.43720
#
# Velocity S-wave (km/s) = 3.18392 3.63586 3.41737
# Velocity P-wave (km/s) = 5.01773 5.62924 5.33226
#
# Compressibility (1/GPa) = 0.03521711
#
# Stress axis : x y z
#
# Youngs Moduli (GPa) = 53.75270 110.66711 118.09328
#
# Poissons Ratio (x) = 0.14735 -0.17467
# Poissons Ratio (y) = 0.07157 0.07002
# Poissons Ratio (z) = -0.07950 0.06562
#
# Static dielectric constant tensor:
#      x y z
#    x 1.978740 0.000000 -0.078420 
#    y 0.000000 2.314030 0.000000 
#    z -0.078420 0.000000 2.048240 
# 
# From -- ./inp_files/13780.got.cif
#   From: 2010.05.17/outbox.cif.g08.bks.cpg/sg4_7_cif.got.tgz:13780.got - 2010.06.03 18:43:04.
