data_PCOD9115531
_publ_section_title
;
Structure prediction by ZEFSAII (Michael W. Deem and Ramdas Pophale) SiO2 
 PCOD9115531
Probable space group: P 21
;
_chemical_formula_sum "Si O2"
_cell_formula_units_Z 14
_cell_length_a 11.380211
_cell_length_b 8.874013
_cell_length_c 8.590564
_cell_angle_alpha 90.000000
_cell_angle_beta 137.667659
_cell_angle_gamma 90.000000
_cell_volume 584.230795
_symmetry_space_group_name_H-M "P 21"
_symmetry_group_IT_number 4
_symmetry_cell_setting 'monoclinic'
loop_
_space_group_symop_operation_xyz
x,y,z
-x,1/2+y,-z
loop_
_atom_site_type_symbol
_atom_site_label
_atom_site_fract_x
_atom_site_fract_y
_atom_site_fract_z
Si Si1 0.184052 0.925800 0.408949
Si Si2 0.921866 0.881391 0.889283
Si Si3 0.612761 0.655549 0.561252
Si Si4 0.162348 0.175972 0.657543
Si Si5 0.117827 0.888559 0.775141
Si Si6 0.518242 0.829209 0.152901
Si Si7 0.325540 0.608451 0.536299
O O1 0.240118 0.760309 0.514150
O O2 0.334980 0.989253 0.443079
O O3 0.165025 0.050809 0.522614
O O4 0.008814 0.917896 0.137229
O O5 0.790792 0.742180 0.775260
O O6 0.068914 0.846144 0.903844
O O7 0.810654 0.017089 0.705521
O O8 0.537642 0.741664 0.336608
O O9 0.485436 0.649217 0.580625
O O10 0.356217 0.246609 0.847959
O O11 0.026516 0.304639 0.472707
O O12 0.111006 0.070386 0.750728
O O13 0.314093 0.843096 0.923734
O O14 0.605178 0.992383 0.267033
#
# Coordination Sequence:
#
# PCOD9115531 Si02
#       7
#     2   2   2   2   2   2   2
#     4  11  22  39  66 105 136 179 222 291 345 411
#     4  11  22  41  70 102 143 179 235 277 354 408
#     4  10  20  40  62 103 144 179 225 284 340 414
#     4  11  28  47  69 101 141 178 243 283 341 421
#     4  12  25  50  73  96 140 190 226 297 344 403
#     4  10  24  46  68  99 140 184 230 286 346 417
#     4  11  21  37  68 100 148 175 225 286 342 416
#
# _framework density 23.963132000000002
#
# number of rings (size 3 to 8) (size 9 to 14) (size 15 to 20)
#    0.000    1.143    4.286    4.286    4.000    2.286 
#    0.000    0.000    0.000    0.000    0.000    0.000 
#    0.000    0.000    0.000    0.000    0.000    0.000 
#
# Total GULP energy -78442.328685 kJ/mol
# GULP energy per Si atom -5603.023478 kJ/mol
# Density = 2.390859 g / cm^3
# Si number density = 23.963132 Si / 1000 Ang^3
#
#
#
# Elastic Constant Matrix: (Units=GPa)
#
#
# Indices 1 2 3 4 5 6 
#
# 1 95.9187 43.4703 29.6551 0.0000 22.9108 0.0000
# 2 43.4703 132.5164 26.5079 0.0000 23.8353 0.0000
# 3 29.6551 26.5079 87.9490 0.0000 28.7884 0.0000
# 4 0.0000 0.0000 0.0000 26.2082 0.0000 7.9538
# 5 22.9108 23.8353 28.7884 0.0000 33.8075 0.0000
# 6 0.0000 0.0000 0.0000 7.9538 0.0000 39.9008
#
#
#
# Elastic Compliance Matrix: (Units=1/GPa)
#
#
# Indices 1 2 3 4 5 6 
#
# 1 0.013746 -0.003144 -0.001891 0.000000 -0.005489 0.000000
# 2 -0.003144 0.009407 -0.000418 0.000000 -0.004145 0.000000
# 3 -0.001891 -0.000418 0.016108 0.000000 -0.012140 0.000000
# 4 0.000000 0.000000 0.000000 0.040613 0.000000 -0.008096
# 5 -0.005489 -0.004145 -0.012140 0.000000 0.046559 0.000000
# 6 0.000000 0.000000 0.000000 -0.008096 0.000000 0.026676
#
#
# Mechanical properties :
#
#
# Convention : Reuss Voigt Hill
#
# Bulk Modulus (GPa) = 35.26714 57.29452 46.28083
# Shear Modulus (GPa) = 28.82421 34.43338 31.62879
#
# Velocity S-wave (km/s) = 3.47198 3.79480 3.63698
# Velocity P-wave (km/s) = 5.55177 6.56978 6.08211
#
# Compressibility (1/GPa) = 0.02835501
#
# Stress axis : x y z
#
# Youngs Moduli (GPa) = 72.74945 106.30642 62.08238
#
# Poissons Ratio (x) = 0.33419 0.11738
# Poissons Ratio (y) = 0.22870 0.02597
# Poissons Ratio (z) = 0.13755 0.04447
#
# Static dielectric constant tensor:
#      x y z
#    x 1.920750 0.000000 -0.012390 
#    y 0.000000 1.911820 0.000000 
#    z -0.012390 0.000000 1.896630 
# 
# From -- ./inp_files/7927.got.cif
#   From: 2010.05.17/outbox.cif.g08.bks.cpg/sg4_4_cif.got.tgz:7927.got - 2010.06.03 18:43:04.
