data_PCOD9115672
_publ_section_title
;
Structure prediction by ZEFSAII (Michael W. Deem and Ramdas Pophale) SiO2 
 PCOD9115672
Probable space group: P 21
;
_chemical_formula_sum "Si O2"
_cell_formula_units_Z 16
_cell_length_a 4.914377
_cell_length_b 24.384506
_cell_length_c 5.124163
_cell_angle_alpha 90.000000
_cell_angle_beta 96.436339
_cell_angle_gamma 90.000000
_cell_volume 610.181949
_symmetry_space_group_name_H-M "P 21"
_symmetry_group_IT_number 4
_symmetry_cell_setting 'monoclinic'
loop_
_space_group_symop_operation_xyz
x,y,z
-x,1/2+y,-z
loop_
_atom_site_type_symbol
_atom_site_label
_atom_site_fract_x
_atom_site_fract_y
_atom_site_fract_z
Si Si1 0.160188 0.971540 0.083668
Si Si2 0.360606 0.765921 0.140544
Si Si3 0.846430 0.873348 0.777852
Si Si4 0.926599 0.694428 0.406592
Si Si5 0.350872 0.545666 0.906005
Si Si6 0.433458 0.616188 0.408781
Si Si7 0.694758 0.374769 0.544765
Si Si8 0.797096 0.754434 0.938208
O O1 0.306211 0.932229 0.307878
O O2 0.400886 0.006012 0.977504
O O3 0.929037 0.012404 0.165685
O O4 0.989566 0.927386 0.898809
O O5 0.388522 0.822679 0.289968
O O6 0.081467 0.733455 0.163404
O O7 0.648800 0.731896 0.212852
O O8 0.905604 0.817735 0.942617
O O9 0.526031 0.880790 0.707415
O O10 0.998370 0.863917 0.520007
O O11 0.734578 0.639223 0.378491
O O12 0.878208 0.723136 0.684838
O O13 0.229327 0.664216 0.476758
O O14 0.441099 0.573164 0.645454
O O15 0.315925 0.589966 0.130657
O O16 0.540050 0.268316 0.147400
#
# Coordination Sequence:
#
# PCOD9115672 Si02
#       8
#     2   2   2   2   2   2   2   2
#     4  12  27  50  70 104 148 192 241 310 376 430
#     4  10  20  42  66 103 142 186 224 292 350 449
#     4  12  26  42  72 108 145 193 239 291 366 453
#     4  10  21  46  74  96 152 184 243 298 380 432
#     4  12  30  48  79 104 149 188 260 318 362 438
#     4  12  26  52  71 112 137 198 248 316 370 426
#     4  12  26  42  72 108 145 193 239 291 366 453
#     4  10  20  42  66 103 142 186 224 292 350 449
#
# _framework density 26.221688
#
# number of rings (size 3 to 8) (size 9 to 14) (size 15 to 20)
#    0.750    0.000    2.500    4.500    7.000    0.000 
#    6.750    0.000    0.000    0.000    0.000    0.000 
#    0.000    0.000    0.000    0.000    0.000    0.000 
#
# Total GULP energy -89428.010151 kJ/mol
# GULP energy per Si atom -5589.250634 kJ/mol
# Density = 2.616201 g / cm^3
# Si number density = 26.221688 Si / 1000 Ang^3
#
#
#
# Elastic Constant Matrix: (Units=GPa)
#
#
# Indices 1 2 3 4 5 6 
#
# 1 146.1000 33.9393 4.1183 0.0000 -20.2860 0.0000
# 2 33.9393 73.4835 31.0094 0.0000 -7.6420 0.0000
# 3 4.1183 31.0094 80.3469 0.0000 -1.4851 0.0000
# 4 0.0000 0.0000 0.0000 45.8904 0.0000 -4.6517
# 5 -20.2860 -7.6420 -1.4851 0.0000 53.4323 0.0000
# 6 0.0000 0.0000 0.0000 -4.6517 0.0000 39.0663
#
#
#
# Elastic Compliance Matrix: (Units=1/GPa)
#
#
# Indices 1 2 3 4 5 6 
#
# 1 0.008084 -0.003960 0.001161 0.000000 0.002535 0.000000
# 2 -0.003960 0.018447 -0.006899 0.000000 0.000943 0.000000
# 3 0.001161 -0.006899 0.015047 0.000000 -0.000128 0.000000
# 4 0.000000 0.000000 0.000000 0.022057 0.000000 0.002626
# 5 0.002535 0.000943 -0.000128 0.000000 0.019809 0.000000
# 6 0.000000 0.000000 0.000000 0.002626 0.000000 0.025910
#
#
# Mechanical properties :
#
#
# Convention : Reuss Voigt Hill
#
# Bulk Modulus (GPa) = 45.08311 48.67382 46.87847
# Shear Modulus (GPa) = 36.72588 43.06870 39.89729
#
# Velocity S-wave (km/s) = 3.74651 4.05715 3.90492
# Velocity P-wave (km/s) = 5.99546 6.36789 6.18448
#
# Compressibility (1/GPa) = 0.02218126
#
# Stress axis : x y z
#
# Youngs Moduli (GPa) = 123.70483 54.20995 66.45921
#
# Poissons Ratio (x) = 0.21466 -0.07714
# Poissons Ratio (y) = 0.48985 0.45850
# Poissons Ratio (z) = -0.14359 0.37400
#
# Static dielectric constant tensor:
#      x y z
#    x 2.120660 0.000000 0.056370 
#    y 0.000000 2.182840 0.000000 
#    z 0.056370 0.000000 2.035630 
# 
# From -- ./inp_files/666.got.cif
#   From: 2010.05.17/outbox.cif.g08.bks.cpg/sg4_1_cif.got.tgz:666.got - 2010.06.03 18:43:04.
