data_PCOD9115290
_publ_section_title
;
Structure prediction by ZEFSAII (Michael W. Deem and Ramdas Pophale) SiO2 
 PCOD9115290
Probable space group: P 21
;
_chemical_formula_sum "Si O2"
_cell_formula_units_Z 16
_cell_length_a 13.810195
_cell_length_b 7.640892
_cell_length_c 17.348624
_cell_angle_alpha 90.000000
_cell_angle_beta 22.862495
_cell_angle_gamma 90.000000
_cell_volume 711.251608
_symmetry_space_group_name_H-M "P 21"
_symmetry_group_IT_number 4
_symmetry_cell_setting 'monoclinic'
loop_
_space_group_symop_operation_xyz
x,y,z
-x,1/2+y,-z
loop_
_atom_site_type_symbol
_atom_site_label
_atom_site_fract_x
_atom_site_fract_y
_atom_site_fract_z
Si Si1 0.184678 0.236410 0.768625
Si Si2 0.497811 0.753965 0.602740
Si Si3 0.340697 0.181774 0.351868
Si Si4 0.431767 0.189302 0.116620
Si Si5 0.102540 0.572436 0.517636
Si Si6 0.980965 0.599199 0.957774
Si Si7 0.810879 0.070105 0.715813
Si Si8 0.534283 0.156859 0.628414
O O1 0.278453 0.189512 0.616039
O O2 0.020740 0.410090 0.892469
O O3 0.441594 0.281393 0.627870
O O4 0.054234 0.100242 0.922522
O O5 0.514726 0.668482 0.674624
O O6 0.229832 0.709636 0.762539
O O7 0.535519 0.962152 0.588960
O O8 0.492894 0.155086 0.161539
O O9 0.220566 0.378193 0.437324
O O10 0.099736 0.058940 0.526172
O O11 0.316667 0.382174 0.196151
O O12 0.195769 0.069794 0.265091
O O13 0.658699 0.170291 0.892447
O O14 0.186757 0.647510 0.372710
O O15 0.216832 0.675908 0.506089
O O16 0.705012 0.664536 0.137869
#
# Coordination Sequence:
#
# PCOD9115290 Si02
#       8
#     2   2   2   2   2   2   2   2
#     4  10  21  36  58  80 114 149 185 231 274 334
#     4  11  20  38  60  83 108 155 189 228 281 332
#     4   9  21  37  59  80 112 142 185 232 271 327
#     4  10  20  37  60  80 115 143 179 233 276 332
#     4   9  19  38  58  80 109 146 183 228 276 323
#     4  10  20  38  55  81 118 145 185 237 274 324
#     4  10  20  37  55  86 108 145 184 221 282 335
#     4   9  19  39  55  82 112 147 186 230 278 321
#
# _framework density 22.495555
#
# number of rings (size 3 to 8) (size 9 to 14) (size 15 to 20)
#    0.750    1.500    1.250    1.500    0.000    3.000 
#    9.000    1.250    0.000    0.000    0.000    0.000 
#    0.000    0.000    0.000    0.000    0.000    0.000 
#
# Total GULP energy -89183.076036 kJ/mol
# GULP energy per Si atom -5573.942252 kJ/mol
# Density = 2.244435 g / cm^3
# Si number density = 22.495555 Si / 1000 Ang^3
#
#
#
# Elastic Constant Matrix: (Units=GPa)
#
#
# Indices 1 2 3 4 5 6 
#
# 1 41.7990 2.2649 6.3698 0.0000 6.9504 0.0000
# 2 2.2649 15.6003 2.6136 0.0000 5.4711 0.0000
# 3 6.3698 2.6136 84.3611 0.0000 31.1117 0.0000
# 4 0.0000 0.0000 0.0000 32.6115 0.0000 0.4062
# 5 6.9504 5.4711 31.1117 0.0000 21.4610 0.0000
# 6 0.0000 0.0000 0.0000 0.4062 0.0000 15.8792
#
#
#
# Elastic Compliance Matrix: (Units=1/GPa)
#
#
# Indices 1 2 3 4 5 6 
#
# 1 0.025511 0.000017 0.002411 0.000000 -0.011761 0.000000
# 2 0.000017 0.074155 0.010046 0.000000 -0.033474 0.000000
# 3 0.002411 0.010046 0.027060 0.000000 -0.042571 0.000000
# 4 0.000000 0.000000 0.000000 0.030674 0.000000 -0.000785
# 5 -0.011761 -0.033474 -0.042571 0.000000 0.120653 0.000000
# 6 0.000000 0.000000 0.000000 -0.000785 0.000000 0.062996
#
#
# Mechanical properties :
#
#
# Convention : Reuss Voigt Hill
#
# Bulk Modulus (GPa) = 6.59305 18.25076 12.42190
# Shear Modulus (GPa) = 13.63663 22.69115 18.16389
#
# Velocity S-wave (km/s) = 2.46477 3.17944 2.84464
# Velocity P-wave (km/s) = 3.32224 4.64856 4.04020
#
# Compressibility (1/GPa) = 0.15167486
#
# Stress axis : x y z
#
# Youngs Moduli (GPa) = 39.19812 13.48520 36.95462
#
# Poissons Ratio (x) = -0.00023 -0.08908
# Poissons Ratio (y) = -0.00067 -0.37125
# Poissons Ratio (z) = -0.09449 -0.13548
#
# Static dielectric constant tensor:
#      x y z
#    x 1.860360 0.000000 -0.015880 
#    y 0.000000 1.911910 0.000000 
#    z -0.015880 0.000000 1.837770 
# 
# From -- ./inp_files/15242.got.cif
#   From: 2010.05.17/outbox.cif.g08.bks.cpg/sg4_8_cif.got.tgz:15242.got - 2010.06.03 18:43:04.
