data_PCOD9115389
_publ_section_title
;
Structure prediction by ZEFSAII (Michael W. Deem and Ramdas Pophale) SiO2 
 PCOD9115389
Probable space group: P 21
;
_chemical_formula_sum "Si O2"
_cell_formula_units_Z 14
_cell_length_a 5.581255
_cell_length_b 7.766284
_cell_length_c 13.728595
_cell_angle_alpha 90.000000
_cell_angle_beta 112.871934
_cell_angle_gamma 90.000000
_cell_volume 548.287162
_symmetry_space_group_name_H-M "P 21"
_symmetry_group_IT_number 4
_symmetry_cell_setting 'monoclinic'
loop_
_space_group_symop_operation_xyz
x,y,z
-x,1/2+y,-z
loop_
_atom_site_type_symbol
_atom_site_label
_atom_site_fract_x
_atom_site_fract_y
_atom_site_fract_z
Si Si1 0.754142 0.541040 0.978059
Si Si2 0.956585 0.914441 0.702234
Si Si3 0.128732 0.905493 0.373588
Si Si4 0.830780 0.180041 0.105830
Si Si5 0.670977 0.721605 0.309332
Si Si6 0.439999 0.221193 0.482874
Si Si7 0.149770 0.700906 0.179043
O O1 0.791091 0.353463 0.033574
O O2 0.902469 0.676215 0.073409
O O3 0.449368 0.587991 0.927895
O O4 0.936816 0.570013 0.910260
O O5 0.085726 0.750036 0.774400
O O6 0.161022 0.057020 0.697866
O O7 0.754878 0.867575 0.586639
O O8 0.809866 0.010403 0.767596
O O9 0.261044 0.777926 0.475013
O O10 0.113970 0.826962 0.263756
O O11 0.826479 0.901144 0.348130
O O12 0.326550 0.060466 0.407553
O O13 0.589373 0.685763 0.407209
O O14 0.442459 0.744991 0.194022
#
# Coordination Sequence:
#
# PCOD9115389 Si02
#       7
#     2   2   2   2   2   2   2
#     4  11  25  46  73 103 142 186 240 294 358 420
#     4  10  23  40  66  91 132 172 225 279 345 408
#     4  10  21  35  58  89 122 165 214 270 335 400
#     4  11  26  45  74 106 142 188 237 295 359 424
#     4  10  20  38  62  91 119 177 215 268 343 409
#     4  11  21  38  59  91 128 164 221 274 334 411
#     4   9  22  40  66  87 129 172 222 272 348 408
#
# _framework density 25.534064000000001
#
# number of rings (size 3 to 8) (size 9 to 14) (size 15 to 20)
#    0.000    1.714    0.000    4.286   10.000    3.429 
#    0.000    0.000    0.000    0.000    0.000    0.000 
#    0.000    0.000    0.000    0.000    0.000    0.000 
#
# Total GULP energy -78113.972751 kJ/mol
# GULP energy per Si atom -5579.569482 kJ/mol
# Density = 2.547595 g / cm^3
# Si number density = 25.534064 Si / 1000 Ang^3
#
#
#
# Elastic Constant Matrix: (Units=GPa)
#
#
# Indices 1 2 3 4 5 6 
#
# 1 119.8440 18.2127 32.0017 0.0000 24.2238 0.0000
# 2 18.2127 60.3580 1.6883 0.0000 -3.7328 0.0000
# 3 32.0017 1.6883 120.2373 0.0000 12.6174 0.0000
# 4 0.0000 0.0000 0.0000 53.3292 0.0000 -1.1709
# 5 24.2238 -3.7328 12.6174 0.0000 28.2215 0.0000
# 6 0.0000 0.0000 0.0000 -1.1709 0.0000 36.0805
#
#
#
# Elastic Compliance Matrix: (Units=1/GPa)
#
#
# Indices 1 2 3 4 5 6 
#
# 1 0.011376 -0.003958 -0.001986 0.000000 -0.009400 0.000000
# 2 -0.003958 0.018109 0.000201 0.000000 0.005703 0.000000
# 3 -0.001986 0.000201 0.009087 0.000000 -0.002332 0.000000
# 4 0.000000 0.000000 0.000000 0.018765 0.000000 0.000609
# 5 -0.009400 0.005703 -0.002332 0.000000 0.045300 0.000000
# 6 0.000000 0.000000 0.000000 0.000609 0.000000 0.027736
#
#
# Mechanical properties :
#
#
# Convention : Reuss Voigt Hill
#
# Bulk Modulus (GPa) = 36.91969 44.91608 40.91789
# Shear Modulus (GPa) = 33.13708 40.09533 36.61621
#
# Velocity S-wave (km/s) = 3.60635 3.96696 3.79095
# Velocity P-wave (km/s) = 5.64193 6.21379 5.93475
#
# Compressibility (1/GPa) = 0.02708581
#
# Stress axis : x y z
#
# Youngs Moduli (GPa) = 87.90366 55.22006 110.04401
#
# Poissons Ratio (x) = 0.21859 0.21852
# Poissons Ratio (y) = 0.34797 -0.02210
# Poissons Ratio (z) = 0.17455 -0.01109
#
# Static dielectric constant tensor:
#      x y z
#    x 2.264720 0.000000 0.005220 
#    y 0.000000 2.187270 0.000000 
#    z 0.005220 0.000000 2.019190 
# 
# From -- ./inp_files/2477.got.cif
#   From: 2010.05.17/outbox.cif.g08.bks.cpg/sg4_2_cif.got.tgz:2477.got - 2010.06.03 18:43:04.
