data_PCOD9115880
_publ_section_title
;
Structure prediction by ZEFSAII (Michael W. Deem and Ramdas Pophale) SiO2 
 PCOD9115880
Probable space group: P 21
;
_chemical_formula_sum "Si O2"
_cell_formula_units_Z 14
_cell_length_a 10.391240
_cell_length_b 4.983617
_cell_length_c 15.853117
_cell_angle_alpha 90.000000
_cell_angle_beta 43.155833
_cell_angle_gamma 90.000000
_cell_volume 561.530380
_symmetry_space_group_name_H-M "P 21"
_symmetry_group_IT_number 4
_symmetry_cell_setting 'monoclinic'
loop_
_space_group_symop_operation_xyz
x,y,z
-x,1/2+y,-z
loop_
_atom_site_type_symbol
_atom_site_label
_atom_site_fract_x
_atom_site_fract_y
_atom_site_fract_z
Si Si1 0.230408 0.638920 0.864733
Si Si2 0.463527 0.789164 0.336270
Si Si3 0.845465 0.630165 0.986705
Si Si4 0.380633 0.260604 0.574609
Si Si5 0.870028 0.601853 0.452908
Si Si6 0.530334 0.336861 0.037269
Si Si7 0.268242 0.403010 0.310740
O O1 0.437082 0.566757 0.735728
O O2 0.195601 0.428680 0.959084
O O3 0.201519 0.933620 0.912908
O O4 0.070211 0.596998 0.870426
O O5 0.611653 0.664911 0.331729
O O6 0.263444 0.839547 0.476716
O O7 0.407684 0.627599 0.280900
O O8 0.715636 0.503308 0.977186
O O9 0.538133 0.060406 0.460971
O O10 0.202806 0.240348 0.598157
O O11 0.818178 0.753101 0.565722
O O12 0.087743 0.533018 0.351613
O O13 0.394306 0.256713 0.180283
O O14 0.575805 0.064737 0.966579
#
# Coordination Sequence:
#
# PCOD9115880 Si02
#       7
#     2   2   2   2   2   2   2
#     4  10  21  37  69  95 121 174 223 286 333 405
#     4  11  22  40  68  99 136 181 223 288 353 423
#     4  10  21  42  63  93 128 168 237 279 334 397
#     4  10  22  40  62  95 135 169 217 280 339 404
#     4  11  24  42  68 108 139 182 235 284 356 423
#     4  12  28  46  69 100 142 192 235 291 346 413
#     4  12  24  43  73 100 143 190 236 286 351 433
#
# _framework density 24.931864000000001
#
# number of rings (size 3 to 8) (size 9 to 14) (size 15 to 20)
#    0.000    1.143    4.286    1.714    2.000    1.143 
#    0.000    5.714    0.000    0.000    0.000    0.000 
#    0.000    0.000    0.000    0.000    0.000    0.000 
#
# Total GULP energy -78217.898191 kJ/mol
# GULP energy per Si atom -5586.992728 kJ/mol
# Density = 2.487512 g / cm^3
# Si number density = 24.931864 Si / 1000 Ang^3
#
#
#
# Elastic Constant Matrix: (Units=GPa)
#
#
# Indices 1 2 3 4 5 6 
#
# 1 175.4684 17.1893 34.6741 0.0000 -5.6274 0.0000
# 2 17.1893 65.1976 15.3504 0.0000 6.6073 0.0000
# 3 34.6741 15.3504 62.2841 0.0000 -10.4528 0.0000
# 4 0.0000 0.0000 0.0000 34.7799 0.0000 7.9112
# 5 -5.6274 6.6073 -10.4528 0.0000 42.1615 0.0000
# 6 0.0000 0.0000 0.0000 7.9112 0.0000 35.6414
#
#
#
# Elastic Compliance Matrix: (Units=1/GPa)
#
#
# Indices 1 2 3 4 5 6 
#
# 1 0.006455 -0.000936 -0.003332 0.000000 0.000182 0.000000
# 2 -0.000936 0.016991 -0.004314 0.000000 -0.003857 0.000000
# 3 -0.003332 -0.004314 0.019838 0.000000 0.005150 0.000000
# 4 0.000000 0.000000 0.000000 0.030281 0.000000 -0.006721
# 5 0.000182 -0.003857 0.005150 0.000000 0.025624 0.000000
# 6 0.000000 0.000000 0.000000 -0.006721 0.000000 0.029549
#
#
# Mechanical properties :
#
#
# Convention : Reuss Voigt Hill
#
# Bulk Modulus (GPa) = 38.28472 48.59753 43.44113
# Shear Modulus (GPa) = 32.33951 38.23232 35.28591
#
# Velocity S-wave (km/s) = 3.60546 3.92021 3.76612
# Velocity P-wave (km/s) = 5.72027 6.32654 6.03103
#
# Compressibility (1/GPa) = 0.02612008
#
# Stress axis : x y z
#
# Youngs Moduli (GPa) = 154.91747 58.85356 50.40804
#
# Poissons Ratio (x) = 0.05507 0.16798
# Poissons Ratio (y) = 0.14496 0.21746
# Poissons Ratio (z) = 0.51625 0.25390
#
# Static dielectric constant tensor:
#      x y z
#    x 2.056040 0.000000 0.044600 
#    y 0.000000 1.995560 0.000000 
#    z 0.044600 0.000000 1.942880 
# 
# From -- ./inp_files/7178.got.cif
#   From: 2010.05.17/outbox.cif.g08.bks.cpg/sg4_4_cif.got.tgz:7178.got - 2010.06.03 18:43:04.
