data_PCOD9115818
_publ_section_title
;
Structure prediction by ZEFSAII (Michael W. Deem and Ramdas Pophale) SiO2 
 PCOD9115818
Probable space group: P 21
;
_chemical_formula_sum "Si O2"
_cell_formula_units_Z 14
_cell_length_a 7.905145
_cell_length_b 6.858836
_cell_length_c 11.379448
_cell_angle_alpha 90.000000
_cell_angle_beta 105.291464
_cell_angle_gamma 90.000000
_cell_volume 595.151093
_symmetry_space_group_name_H-M "P 21"
_symmetry_group_IT_number 4
_symmetry_cell_setting 'monoclinic'
loop_
_space_group_symop_operation_xyz
x,y,z
-x,1/2+y,-z
loop_
_atom_site_type_symbol
_atom_site_label
_atom_site_fract_x
_atom_site_fract_y
_atom_site_fract_z
Si Si1 0.821600 0.091820 0.306839
Si Si2 0.392425 0.267745 0.853549
Si Si3 0.848589 0.395120 0.749558
Si Si4 0.766043 0.067639 0.565239
Si Si5 0.701894 0.544693 0.956082
Si Si6 0.472556 0.861507 0.786848
Si Si7 0.601742 0.688211 0.578411
O O1 0.844334 0.121997 0.450851
O O2 0.722504 0.274380 0.228391
O O3 0.989961 0.023690 0.266704
O O4 0.689861 0.909652 0.257896
O O5 0.537154 0.398246 0.948689
O O6 0.491083 0.087331 0.813892
O O7 0.253808 0.156884 0.914258
O O8 0.856561 0.181036 0.690267
O O9 0.824399 0.429085 0.885825
O O10 0.683721 0.499881 0.655708
O O11 0.560956 0.128833 0.530740
O O12 0.755369 0.832208 0.564126
O O13 0.619462 0.727746 0.872492
O O14 0.503087 0.811947 0.658612
#
# Coordination Sequence:
#
# PCOD9115818 Si02
#       7
#     2   2   2   2   2   2   2
#     4  10  26  39  57  95 131 168 205 249 335 382
#     4  11  20  41  67  91 125 160 216 269 309 374
#     4  11  24  43  58  93 132 160 216 250 319 396
#     4  11  22  39  64  89 122 168 204 268 306 373
#     4  10  21  39  67  94 116 167 216 265 310 361
#     4   9  20  39  62  89 123 160 214 263 309 372
#     4  10  21  36  63  89 115 163 215 260 308 362
#
# _framework density 23.523439
#
# number of rings (size 3 to 8) (size 9 to 14) (size 15 to 20)
#    0.000    1.714    2.857    1.714    4.000    1.143 
#    2.571    0.000    0.000    0.000    0.000    0.000 
#    0.000    0.000    0.000    0.000    0.000    0.000 
#
# Total GULP energy -78009.603374 kJ/mol
# GULP energy per Si atom -5572.114527 kJ/mol
# Density = 2.346990 g / cm^3
# Si number density = 23.523439 Si / 1000 Ang^3
#
#
#
# Elastic Constant Matrix: (Units=GPa)
#
#
# Indices 1 2 3 4 5 6 
#
# 1 54.1380 -12.5108 -4.2169 0.0000 -14.7848 0.0000
# 2 -12.5108 99.8160 16.0892 0.0000 0.0742 0.0000
# 3 -4.2169 16.0892 47.6929 0.0000 -15.5582 0.0000
# 4 0.0000 0.0000 0.0000 32.5033 0.0000 -10.4793
# 5 -14.7848 0.0742 -15.5582 0.0000 24.1472 0.0000
# 6 0.0000 0.0000 0.0000 -10.4793 0.0000 21.5413
#
#
#
# Elastic Compliance Matrix: (Units=1/GPa)
#
#
# Indices 1 2 3 4 5 6 
#
# 1 0.025249 0.001788 0.008446 0.000000 0.020895 0.000000
# 2 0.001788 0.010891 -0.004013 0.000000 -0.001525 0.000000
# 3 0.008446 -0.004013 0.031348 0.000000 0.025381 0.000000
# 4 0.000000 0.000000 0.000000 0.036489 0.000000 0.017751
# 5 0.020895 -0.001525 0.025381 0.000000 0.070564 0.000000
# 6 0.000000 0.000000 0.000000 0.017751 0.000000 0.055058
#
#
# Mechanical properties :
#
#
# Convention : Reuss Voigt Hill
#
# Bulk Modulus (GPa) = 12.51131 22.26333 17.38732
# Shear Modulus (GPa) = 20.50859 29.12406 24.81633
#
# Velocity S-wave (km/s) = 2.95589 3.52246 3.25154
# Velocity P-wave (km/s) = 4.12067 5.10182 4.63726
#
# Compressibility (1/GPa) = 0.07992769
#
# Stress axis : x y z
#
# Youngs Moduli (GPa) = 39.60596 91.82296 31.90017
#
# Poissons Ratio (x) = -0.16416 -0.26942
# Poissons Ratio (y) = -0.07081 0.12802
# Poissons Ratio (z) = -0.33450 0.36850
#
# Static dielectric constant tensor:
#      x y z
#    x 1.934430 0.000000 -0.028260 
#    y 0.000000 1.973780 0.000000 
#    z -0.028260 0.000000 1.969060 
# 
# From -- ./inp_files/10747.got.cif
#   From: 2010.05.17/outbox.cif.g08.bks.cpg/sg4_6_cif.got.tgz:10747.got - 2010.06.03 18:43:04.
