data_PCOD9115709
_publ_section_title
;
Structure prediction by ZEFSAII (Michael W. Deem and Ramdas Pophale) SiO2 
 PCOD9115709
Probable space group: P 21
;
_chemical_formula_sum "Si O2"
_cell_formula_units_Z 16
_cell_length_a 18.374814
_cell_length_b 8.082577
_cell_length_c 5.210469
_cell_angle_alpha 90.000000
_cell_angle_beta 114.732410
_cell_angle_gamma 90.000000
_cell_volume 702.854424
_symmetry_space_group_name_H-M "P 21"
_symmetry_group_IT_number 4
_symmetry_cell_setting 'monoclinic'
loop_
_space_group_symop_operation_xyz
x,y,z
-x,1/2+y,-z
loop_
_atom_site_type_symbol
_atom_site_label
_atom_site_fract_x
_atom_site_fract_y
_atom_site_fract_z
Si Si1 0.253740 0.182040 0.010002
Si Si2 0.063234 0.929190 0.346024
Si Si3 0.235474 0.832985 0.691157
Si Si4 0.596793 0.849259 0.917143
Si Si5 0.360789 0.976869 0.505599
Si Si6 0.505545 0.084147 0.085710
Si Si7 0.076130 0.162293 0.863972
Si Si8 0.620516 0.196388 0.857120
O O1 0.311109 0.297032 0.927242
O O2 0.165738 0.235938 0.961369
O O3 0.240903 0.007925 0.847301
O O4 0.311645 0.133591 0.328976
O O5 0.142747 0.814387 0.492002
O O6 0.987514 0.809441 0.209738
O O7 0.057742 0.046879 0.588763
O O8 0.074153 0.045938 0.113159
O O9 0.291000 0.864280 0.527878
O O10 0.285279 0.702393 0.932639
O O11 0.539539 0.693733 0.765120
O O12 0.561327 0.921923 0.132477
O O13 0.595563 0.012173 0.731448
O O14 0.395306 0.857216 0.335296
O O15 0.429466 0.041168 0.792986
O O16 0.568641 0.207609 0.039604
#
# Coordination Sequence:
#
# PCOD9115709 Si02
#       8
#     2   2   2   2   2   2   2   2
#     4  10  22  40  65  89 132 169 221 277 344 410
#     4  11  24  45  76 105 143 186 226 294 347 437
#     4  10  20  43  65  89 125 178 218 269 350 405
#     4  10  22  39  57  89 125 174 212 289 325 406
#     4  11  20  39  61  86 121 171 213 273 326 408
#     4  10  22  38  61  87 127 173 224 272 338 394
#     4  11  24  46  71 109 142 184 235 281 364 419
#     4   9  24  38  58  90 127 163 229 275 338 401
#
# _framework density 22.764316999999998
#
# number of rings (size 3 to 8) (size 9 to 14) (size 15 to 20)
#    0.750    1.000    2.500    1.500    3.500    1.000 
#    6.750    0.000    0.000    0.000    0.000    0.000 
#    0.000    0.000    0.000    0.000    0.000    0.000 
#
# Total GULP energy -89175.646797 kJ/mol
# GULP energy per Si atom -5573.477925 kJ/mol
# Density = 2.271250 g / cm^3
# Si number density = 22.764317 Si / 1000 Ang^3
#
#
#
# Elastic Constant Matrix: (Units=GPa)
#
#
# Indices 1 2 3 4 5 6 
#
# 1 158.9862 61.2621 32.4419 0.0000 45.3282 0.0000
# 2 61.2621 92.3117 28.2233 0.0000 22.3926 0.0000
# 3 32.4419 28.2233 65.4355 0.0000 16.4501 0.0000
# 4 0.0000 0.0000 0.0000 28.5011 0.0000 5.9874
# 5 45.3282 22.3926 16.4501 0.0000 43.3252 0.0000
# 6 0.0000 0.0000 0.0000 5.9874 0.0000 45.6595
#
#
#
# Elastic Compliance Matrix: (Units=1/GPa)
#
#
# Indices 1 2 3 4 5 6 
#
# 1 0.010733 -0.004741 -0.001182 0.000000 -0.008330 0.000000
# 2 -0.004741 0.015577 -0.003970 0.000000 -0.001584 0.000000
# 3 -0.001182 -0.003970 0.018522 0.000000 -0.003744 0.000000
# 4 0.000000 0.000000 0.000000 0.036080 0.000000 -0.004731
# 5 -0.008330 -0.001584 -0.003744 0.000000 0.034036 0.000000
# 6 0.000000 0.000000 0.000000 -0.004731 0.000000 0.022522
#
#
# Mechanical properties :
#
#
# Convention : Reuss Voigt Hill
#
# Bulk Modulus (GPa) = 39.92744 62.28757 51.10750
# Shear Modulus (GPa) = 30.19247 36.48422 33.33835
#
# Velocity S-wave (km/s) = 3.64580 4.00771 3.83103
# Velocity P-wave (km/s) = 5.94138 6.98835 6.48602
#
# Compressibility (1/GPa) = 0.02504543
#
# Stress axis : x y z
#
# Youngs Moduli (GPa) = 93.17328 64.19753 53.99010
#
# Poissons Ratio (x) = 0.30433 0.06384
# Poissons Ratio (y) = 0.44169 0.21435
# Poissons Ratio (z) = 0.11017 0.25487
#
# Static dielectric constant tensor:
#      x y z
#    x 1.868300 0.000000 -0.052870 
#    y 0.000000 1.919380 0.000000 
#    z -0.052870 0.000000 1.928370 
# 
# From -- ./inp_files/4053.got.cif
#   From: 2010.05.17/outbox.cif.g08.bks.cpg/sg4_3_cif.got.tgz:4053.got - 2010.06.03 18:43:04.
