data_PCOD9115496
_publ_section_title
;
Structure prediction by ZEFSAII (Michael W. Deem and Ramdas Pophale) SiO2 
 PCOD9115496
Probable space group: P 21
;
_chemical_formula_sum "Si O2"
_cell_formula_units_Z 16
_cell_length_a 13.174678
_cell_length_b 12.193166
_cell_length_c 9.397625
_cell_angle_alpha 90.000000
_cell_angle_beta 28.479236
_cell_angle_gamma 90.000000
_cell_volume 719.859118
_symmetry_space_group_name_H-M "P 21"
_symmetry_group_IT_number 4
_symmetry_cell_setting 'monoclinic'
loop_
_space_group_symop_operation_xyz
x,y,z
-x,1/2+y,-z
loop_
_atom_site_type_symbol
_atom_site_label
_atom_site_fract_x
_atom_site_fract_y
_atom_site_fract_z
Si Si1 0.014921 0.071900 0.019498
Si Si2 0.802400 0.801528 0.549186
Si Si3 0.984673 0.710757 0.727848
Si Si4 0.335584 0.404791 0.877900
Si Si5 0.835766 0.474770 0.895310
Si Si6 0.050950 0.058865 0.637450
Si Si7 0.365465 0.415981 0.503089
Si Si8 0.631598 0.366343 0.761869
O O1 0.028116 0.186688 0.085998
O O2 0.779291 0.024006 0.337660
O O3 0.060577 0.064686 0.798481
O O4 0.162398 0.993950 0.934813
O O5 0.881123 0.680483 0.489286
O O6 0.746734 0.820798 0.450571
O O7 0.586667 0.840770 0.889343
O O8 0.994108 0.883018 0.350733
O O9 0.214984 0.761094 0.415593
O O10 0.811204 0.800593 0.902630
O O11 0.925237 0.592812 0.734972
O O12 0.187289 0.511138 0.096725
O O13 0.371318 0.397145 0.664644
O O14 0.549534 0.395330 0.704287
O O15 0.598283 0.439965 0.154709
O O16 0.778041 0.469363 0.626449
#
# Coordination Sequence:
#
# PCOD9115496 Si02
#       8
#     2   2   2   2   2   2   2   2
#     4   8  18  36  63  94 125 157 197 265 312 357
#     4  11  25  41  63  91 128 171 203 258 311 372
#     4   9  21  39  63  92 125 158 207 259 305 370
#     4  10  22  41  65  94 121 164 210 259 312 369
#     4   9  21  38  60  98 121 158 207 257 303 372
#     4  10  22  42  61  91 129 160 212 259 309 370
#     4  10  20  39  66  93 124 161 210 253 312 369
#     4  11  25  42  63  91 127 171 204 254 316 373
#
# _framework density 22.226572999999998
#
# number of rings (size 3 to 8) (size 9 to 14) (size 15 to 20)
#    0.750    1.500    0.000    1.500    3.500    6.000 
#    4.500    0.000    0.000    0.000    0.000    0.000 
#    0.000    0.000    0.000    0.000    0.000    0.000 
#
# Total GULP energy -89306.706692 kJ/mol
# GULP energy per Si atom -5581.669168 kJ/mol
# Density = 2.217598 g / cm^3
# Si number density = 22.226573 Si / 1000 Ang^3
#
#
#
# Elastic Constant Matrix: (Units=GPa)
#
#
# Indices 1 2 3 4 5 6 
#
# 1 79.4222 24.3038 20.4034 0.0000 -10.3394 0.0000
# 2 24.3038 147.3444 59.8198 0.0000 -16.2747 0.0000
# 3 20.4034 59.8198 113.9138 0.0000 -11.8450 0.0000
# 4 0.0000 0.0000 0.0000 23.3936 0.0000 3.3885
# 5 -10.3394 -16.2747 -11.8450 0.0000 38.4230 0.0000
# 6 0.0000 0.0000 0.0000 3.3885 0.0000 23.0498
#
#
#
# Elastic Compliance Matrix: (Units=1/GPa)
#
#
# Indices 1 2 3 4 5 6 
#
# 1 0.013734 -0.001379 -0.001459 0.000000 0.002662 0.000000
# 2 -0.001379 0.008971 -0.004244 0.000000 0.002121 0.000000
# 3 -0.001459 -0.004244 0.011406 0.000000 0.001326 0.000000
# 4 0.000000 0.000000 0.000000 0.043677 0.000000 -0.006421
# 5 0.002662 0.002121 0.001326 0.000000 0.028049 0.000000
# 6 0.000000 0.000000 0.000000 -0.006421 0.000000 0.044328
#
#
# Mechanical properties :
#
#
# Convention : Reuss Voigt Hill
#
# Bulk Modulus (GPa) = 50.12902 61.08162 55.60532
# Shear Modulus (GPa) = 29.24331 32.71684 30.98007
#
# Velocity S-wave (km/s) = 3.63118 3.84079 3.73745
# Velocity P-wave (km/s) = 6.33903 6.87094 6.61034
#
# Compressibility (1/GPa) = 0.01994852
#
# Stress axis : x y z
#
# Youngs Moduli (GPa) = 72.81045 111.46548 87.67106
#
# Poissons Ratio (x) = 0.15372 0.12791
# Poissons Ratio (y) = 0.10041 0.37205
# Poissons Ratio (z) = 0.10623 0.47302
#
# Static dielectric constant tensor:
#      x y z
#    x 1.903170 0.000000 0.058290 
#    y 0.000000 1.784700 0.000000 
#    z 0.058290 0.000000 1.796350 
# 
# From -- ./inp_files/8504.got.cif
#   From: 2010.05.17/outbox.cif.g08.bks.cpg/sg4_5_cif.got.tgz:8504.got - 2010.06.03 18:43:04.
