data_PCOD9115226
_publ_section_title
;
Structure prediction by ZEFSAII (Michael W. Deem and Ramdas Pophale) SiO2 
 PCOD9115226
Probable space group: P 21
;
_chemical_formula_sum "Si O2"
_cell_formula_units_Z 16
_cell_length_a 14.891083
_cell_length_b 7.588734
_cell_length_c 12.738775
_cell_angle_alpha 90.000000
_cell_angle_beta 28.394960
_cell_angle_gamma 90.000000
_cell_volume 684.567965
_symmetry_space_group_name_H-M "P 21"
_symmetry_group_IT_number 4
_symmetry_cell_setting 'monoclinic'
loop_
_space_group_symop_operation_xyz
x,y,z
-x,1/2+y,-z
loop_
_atom_site_type_symbol
_atom_site_label
_atom_site_fract_x
_atom_site_fract_y
_atom_site_fract_z
Si Si1 0.258680 0.607470 0.558560
Si Si2 0.477312 0.183693 0.104964
Si Si3 0.456508 0.284839 0.896006
Si Si4 0.289471 0.822627 0.952316
Si Si5 0.379340 0.106770 0.503812
Si Si6 0.157868 0.213777 0.055879
Si Si7 0.858034 0.733305 0.421345
Si Si8 0.675801 0.916362 0.296672
O O1 0.422640 0.708117 0.326110
O O2 0.227425 0.413393 0.540136
O O3 0.283019 0.565782 0.658185
O O4 0.062316 0.698309 0.734645
O O5 0.253903 0.215433 0.354773
O O6 0.521462 0.991909 0.106248
O O7 0.519123 0.195382 0.939684
O O8 0.600560 0.319301 0.048870
O O9 0.239414 0.252850 0.087230
O O10 0.082140 0.741987 0.186364
O O11 0.247020 0.015722 0.946377
O O12 0.432097 0.709807 0.732531
O O13 0.231490 0.085595 0.562959
O O14 0.285818 0.235316 0.683059
O O15 0.460040 0.941538 0.482124
O O16 0.219808 0.376674 0.919109
#
# Coordination Sequence:
#
# PCOD9115226 Si02
#       8
#     2   2   2   2   2   2   2   2
#     4  10  24  42  63  92 131 172 220 273 322 385
#     4  11  24  41  70 100 133 175 215 266 329 394
#     4  12  24  44  68  98 135 173 219 271 327 392
#     4  10  21  40  64  93 130 168 211 265 323 389
#     4  10  20  36  57  87 124 164 213 266 319 380
#     4  11  23  42  65  92 129 171 218 274 327 384
#     4   9  20  40  62  90 125 166 211 263 321 384
#     4  11  22  39  63  90 125 173 219 268 328 380
#
# _framework density 23.372406000000002
#
# number of rings (size 3 to 8) (size 9 to 14) (size 15 to 20)
#    0.000    1.500    0.000    6.750    0.000    6.000 
#    0.000    5.000    0.000    0.000    0.000    0.000 
#    0.000    0.000    0.000    0.000    0.000    0.000 
#
# Total GULP energy -89304.392347 kJ/mol
# GULP energy per Si atom -5581.524522 kJ/mol
# Density = 2.331921 g / cm^3
# Si number density = 23.372406 Si / 1000 Ang^3
#
#
#
# Elastic Constant Matrix: (Units=GPa)
#
#
# Indices 1 2 3 4 5 6 
#
# 1 134.7513 24.9052 55.1579 0.0000 3.0826 0.0000
# 2 24.9052 84.3725 25.6182 0.0000 -1.4891 0.0000
# 3 55.1579 25.6182 64.8476 0.0000 -23.6482 0.0000
# 4 0.0000 0.0000 0.0000 39.3139 0.0000 0.1030
# 5 3.0826 -1.4891 -23.6482 0.0000 34.0272 0.0000
# 6 0.0000 0.0000 0.0000 0.1030 0.0000 39.0125
#
#
#
# Elastic Compliance Matrix: (Units=1/GPa)
#
#
# Indices 1 2 3 4 5 6 
#
# 1 0.015055 0.000850 -0.018251 0.000000 -0.014010 0.000000
# 2 0.000850 0.013971 -0.008101 0.000000 -0.005095 0.000000
# 3 -0.018251 -0.008101 0.046370 0.000000 0.033525 0.000000
# 4 0.000000 0.000000 0.000000 0.025436 0.000000 -0.000067
# 5 -0.014010 -0.005095 0.033525 0.000000 0.053734 0.000000
# 6 0.000000 0.000000 0.000000 -0.000067 0.000000 0.025633
#
#
# Mechanical properties :
#
#
# Convention : Reuss Voigt Hill
#
# Bulk Modulus (GPa) = 40.99313 55.03711 48.01512
# Shear Modulus (GPa) = 20.89144 34.35673 27.62408
#
# Velocity S-wave (km/s) = 2.99298 3.83818 3.44162
# Velocity P-wave (km/s) = 5.43333 6.57580 6.03168
#
# Compressibility (1/GPa) = 0.02439433
#
# Stress axis : x y z
#
# Youngs Moduli (GPa) = 66.42329 71.57739 21.56557
#
# Poissons Ratio (x) = -0.06086 0.39358
# Poissons Ratio (y) = -0.05647 0.17469
# Poissons Ratio (z) = 1.21226 0.57982
#
# Static dielectric constant tensor:
#      x y z
#    x 1.873610 0.000000 0.021630 
#    y 0.000000 2.022440 0.000000 
#    z 0.021630 0.000000 1.891020 
# 
# From -- ./inp_files/12620.got.cif
#   From: 2010.05.17/outbox.cif.g08.bks.cpg/sg4_7_cif.got.tgz:12620.got - 2010.06.03 18:43:04.
