data_PCOD9115158
_publ_section_title
;
Structure prediction by ZEFSAII (Michael W. Deem and Ramdas Pophale) SiO2 
 PCOD9115158
Probable space group: P 21
;
_chemical_formula_sum "Si O2"
_cell_formula_units_Z 12
_cell_length_a 25.255489
_cell_length_b 5.150910
_cell_length_c 10.312764
_cell_angle_alpha 90.000000
_cell_angle_beta 155.788986
_cell_angle_gamma 90.000000
_cell_volume 550.177543
_symmetry_space_group_name_H-M "P 21"
_symmetry_group_IT_number 4
_symmetry_cell_setting 'monoclinic'
loop_
_space_group_symop_operation_xyz
x,y,z
-x,1/2+y,-z
loop_
_atom_site_type_symbol
_atom_site_label
_atom_site_fract_x
_atom_site_fract_y
_atom_site_fract_z
Si Si1 0.534247 0.916170 0.940604
Si Si2 0.701074 0.772582 0.544586
Si Si3 0.658498 0.443509 0.875683
Si Si4 0.583679 0.061557 0.499289
Si Si5 0.917577 0.742624 0.822745
Si Si6 0.737117 0.963638 0.189741
O O1 0.514644 0.630515 0.837810
O O2 0.394484 0.028126 0.657706
O O3 0.626130 0.940915 0.268001
O O4 0.610220 0.037865 0.990405
O O5 0.834366 0.718892 0.769410
O O6 0.694188 0.903278 0.670835
O O7 0.639218 0.323511 0.689252
O O8 0.512289 0.439367 0.609061
O O9 0.710131 0.729810 0.027597
O O10 0.756404 0.233072 0.158410
O O11 0.834424 0.853884 0.515532
O O12 0.972876 0.460105 0.913177
#
# Coordination Sequence:
#
# PCOD9115158 Si02
#       6
#     2   2   2   2   2   2
#     4  10  20  34  57  96 128 161 199 258 343 374
#     4  11  22  36  64  93 136 163 209 276 322 391
#     4  11  22  36  58  96 132 177 197 250 314 397
#     4  11  22  35  58  94 139 168 208 246 323 407
#     4  11  26  45  68  95 124 172 224 274 325 377
#     4  10  22  40  63  88 133 163 211 260 321 384
#
# _framework density 21.811140999999999
#
# number of rings (size 3 to 8) (size 9 to 14) (size 15 to 20)
#    0.000    1.333    3.333    3.000    4.667    0.000 
#    0.000    0.000    0.000    4.000    0.000    0.000 
#    0.000    0.000    0.000    0.000    0.000    0.000 
#
# Total GULP energy -66836.701714 kJ/mol
# GULP energy per Si atom -5569.725143 kJ/mol
# Density = 2.176150 g / cm^3
# Si number density = 21.811141 Si / 1000 Ang^3
#
#
#
# Elastic Constant Matrix: (Units=GPa)
#
#
# Indices 1 2 3 4 5 6 
#
# 1 92.0997 26.0390 9.6673 0.0000 14.3841 0.0000
# 2 26.0390 91.6249 -1.1509 0.0000 -1.0454 0.0000
# 3 9.6673 -1.1509 30.7222 0.0000 -3.0572 0.0000
# 4 0.0000 0.0000 0.0000 36.5217 0.0000 -4.7570
# 5 14.3841 -1.0454 -3.0572 0.0000 35.8281 0.0000
# 6 0.0000 0.0000 0.0000 -4.7570 0.0000 44.4169
#
#
#
# Elastic Compliance Matrix: (Units=1/GPa)
#
#
# Indices 1 2 3 4 5 6 
#
# 1 0.013419 -0.003943 -0.004960 0.000000 -0.005926 0.000000
# 2 -0.003943 0.012083 0.001902 0.000000 0.002098 0.000000
# 3 -0.004960 0.001902 0.034680 0.000000 0.005006 0.000000
# 4 0.000000 0.000000 0.000000 0.027768 0.000000 0.002974
# 5 -0.005926 0.002098 0.005006 0.000000 0.030778 0.000000
# 6 0.000000 0.000000 0.000000 0.002974 0.000000 0.022832
#
#
# Mechanical properties :
#
#
# Convention : Reuss Voigt Hill
#
# Bulk Modulus (GPa) = 21.65474 31.50640 26.58057
# Shear Modulus (GPa) = 29.24737 35.34609 32.29673
#
# Velocity S-wave (km/s) = 3.66585 4.02998 3.85222
# Velocity P-wave (km/s) = 5.27900 6.01088 5.65679
#
# Compressibility (1/GPa) = 0.04617927
#
# Stress axis : x y z
#
# Youngs Moduli (GPa) = 74.52242 82.76373 28.83517
#
# Poissons Ratio (x) = 0.32637 0.14302
# Poissons Ratio (y) = 0.29387 -0.05485
# Poissons Ratio (z) = 0.36962 -0.15744
#
# Static dielectric constant tensor:
#      x y z
#    x 1.893840 0.000000 -0.058760 
#    y 0.000000 1.913870 0.000000 
#    z -0.058760 0.000000 1.862210 
# 
# From -- ./inp_files/9745.got.cif
#   From: 2010.05.17/outbox.cif.g08.bks.cpg/sg4_5_cif.got.tgz:9745.got - 2010.06.03 18:43:04.
