data_PCOD9115102
_publ_section_title
;
Structure prediction by ZEFSAII (Michael W. Deem and Ramdas Pophale) SiO2 
 PCOD9115102
Probable space group: P 21
;
_chemical_formula_sum "Si O2"
_cell_formula_units_Z 16
_cell_length_a 13.560824
_cell_length_b 5.185634
_cell_length_c 15.216520
_cell_angle_alpha 90.000000
_cell_angle_beta 64.931513
_cell_angle_gamma 90.000000
_cell_volume 969.251640
_symmetry_space_group_name_H-M "P 21"
_symmetry_group_IT_number 4
_symmetry_cell_setting 'monoclinic'
loop_
_space_group_symop_operation_xyz
x,y,z
-x,1/2+y,-z
loop_
_atom_site_type_symbol
_atom_site_label
_atom_site_fract_x
_atom_site_fract_y
_atom_site_fract_z
Si Si1 0.209374 0.619260 0.546350
Si Si2 0.567065 0.958683 0.453885
Si Si3 0.719003 0.985566 0.247792
Si Si4 0.002164 0.320480 0.712892
Si Si5 0.931670 0.535190 0.918917
Si Si6 0.178488 0.981359 0.702868
Si Si7 0.066188 0.659526 0.445308
Si Si8 0.852878 0.033368 0.040184
O O1 0.322261 0.488817 0.530880
O O2 0.106185 0.470794 0.630465
O O3 0.212636 0.900862 0.591239
O O4 0.178311 0.633490 0.456415
O O5 0.515957 0.678144 0.483629
O O6 0.603366 0.016030 0.339397
O O7 0.762232 0.718001 0.272481
O O8 0.741941 0.986485 0.136045
O O9 0.790508 0.227072 0.255437
O O10 0.947919 0.484957 0.809849
O O11 0.929385 0.234943 0.658381
O O12 0.054453 0.071855 0.741737
O O13 0.048616 0.519109 0.924943
O O14 0.878335 0.805809 0.963129
O O15 0.861731 0.306438 0.989332
O O16 0.000176 0.392269 0.482092
#
# Coordination Sequence:
#
# PCOD9115102 Si02
#       8
#     2   2   2   2   2   2   2   2
#     4  10  21  35  50  70 103 134 164 208 243 297
#     4  11  22  33  52  75  95 129 168 207 253 298
#     4  11  21  33  49  66  98 131 166 195 257 284
#     4  11  20  32  50  71 101 137 166 203 236 293
#     4  10  20  27  44  66  95 121 175 188 229 277
#     4  11  17  29  50  65  91 136 157 199 231 288
#     4  10  21  31  49  72  95 136 176 195 237 297
#     4  10  20  30  42  65  90 134 158 199 228 288
#
# _framework density 16.507581999999999
#
# number of rings (size 3 to 8) (size 9 to 14) (size 15 to 20)
#    0.000    1.500    5.000    2.250    5.250    0.000 
#    0.000    0.000    0.000    0.000    0.000    0.000 
#    0.000    4.000    0.000    0.500    0.000    0.000 
#
# Total GULP energy -89203.564428 kJ/mol
# GULP energy per Si atom -5575.222777 kJ/mol
# Density = 1.647001 g / cm^3
# Si number density = 16.507582 Si / 1000 Ang^3
#
#
#
# Elastic Constant Matrix: (Units=GPa)
#
#
# Indices 1 2 3 4 5 6 
#
# 1 40.9578 0.3583 10.2945 0.0000 1.6881 0.0000
# 2 0.3583 77.7357 -3.6554 0.0000 -3.5760 0.0000
# 3 10.2945 -3.6554 69.2007 0.0000 -4.5593 0.0000
# 4 0.0000 0.0000 0.0000 21.7290 0.0000 -4.3251
# 5 1.6881 -3.5760 -4.5593 0.0000 12.5821 0.0000
# 6 0.0000 0.0000 0.0000 -4.3251 0.0000 12.1174
#
#
#
# Elastic Compliance Matrix: (Units=1/GPa)
#
#
# Indices 1 2 3 4 5 6 
#
# 1 0.025684 -0.000551 -0.004187 0.000000 -0.005120 0.000000
# 2 -0.000551 0.013108 0.001050 0.000000 0.004180 0.000000
# 3 -0.004187 0.001050 0.015557 0.000000 0.006497 0.000000
# 4 0.000000 0.000000 0.000000 0.049541 0.000000 0.017683
# 5 -0.005120 0.004180 0.006497 0.000000 0.083707 0.000000
# 6 0.000000 0.000000 0.000000 0.017683 0.000000 0.088837
#
#
# Mechanical properties :
#
#
# Convention : Reuss Voigt Hill
#
# Bulk Modulus (GPa) = 21.28901 22.43212 21.86056
# Shear Modulus (GPa) = 16.69624 21.34551 19.02087
#
# Velocity S-wave (km/s) = 3.18375 3.59983 3.39816
# Velocity P-wave (km/s) = 5.14193 5.55850 5.35427
#
# Compressibility (1/GPa) = 0.04697260
#
# Stress axis : x y z
#
# Youngs Moduli (GPa) = 38.93534 76.28767 64.27915
#
# Poissons Ratio (x) = 0.04202 0.26915
# Poissons Ratio (y) = 0.02144 -0.06748
# Poissons Ratio (z) = 0.16303 -0.08008
#
# Static dielectric constant tensor:
#      x y z
#    x 1.547280 0.000000 0.001960 
#    y 0.000000 1.611550 0.000000 
#    z 0.001960 0.000000 1.612690 
# 
# From -- ./inp_files/13779.got.cif
#   From: 2010.05.17/outbox.cif.g08.bks.cpg/sg4_7_cif.got.tgz:13779.got - 2010.06.03 18:43:04.
