data_PCOD9115627
_publ_section_title
;
Structure prediction by ZEFSAII (Michael W. Deem and Ramdas Pophale) SiO2 
 PCOD9115627
Probable space group: P 21
;
_chemical_formula_sum "Si O2"
_cell_formula_units_Z 16
_cell_length_a 7.136150
_cell_length_b 13.265555
_cell_length_c 8.058530
_cell_angle_alpha 90.000000
_cell_angle_beta 59.655464
_cell_angle_gamma 90.000000
_cell_volume 658.351134
_symmetry_space_group_name_H-M "P 21"
_symmetry_group_IT_number 4
_symmetry_cell_setting 'monoclinic'
loop_
_space_group_symop_operation_xyz
x,y,z
-x,1/2+y,-z
loop_
_atom_site_type_symbol
_atom_site_label
_atom_site_fract_x
_atom_site_fract_y
_atom_site_fract_z
Si Si1 0.240753 0.891730 0.982118
Si Si2 0.816718 0.842081 0.965129
Si Si3 0.401050 0.568743 0.604292
Si Si4 0.801179 0.184284 0.803029
Si Si5 0.516242 0.525851 0.916843
Si Si6 0.751396 0.683678 0.274852
Si Si7 0.451454 0.359272 0.460156
Si Si8 0.143674 0.745480 0.594503
O O1 0.443704 0.879254 0.765151
O O2 0.269806 0.988787 0.085051
O O3 0.235657 0.793110 0.099290
O O4 0.022740 0.889375 0.971070
O O5 0.734526 0.750684 0.117949
O O6 0.921059 0.794823 0.753154
O O7 0.637638 0.926607 0.018885
O O8 0.570070 0.600968 0.385429
O O9 0.331927 0.456815 0.585808
O O10 0.220055 0.655859 0.685445
O O11 0.525190 0.563130 0.723725
O O12 0.602723 0.111543 0.926373
O O13 0.852820 0.198438 0.587789
O O14 0.010757 0.140340 0.805065
O O15 0.704655 0.764306 0.444512
O O16 0.663126 0.328390 0.476644
#
# Coordination Sequence:
#
# PCOD9115627 Si02
#       8
#     2   2   2   2   2   2   2   2
#     4  10  24  44  67  97 138 171 223 278 332 396
#     4  10  23  46  68  94 133 183 218 277 338 392
#     4  11  22  41  68  97 129 176 227 266 343 401
#     4  11  24  43  64 103 131 174 229 277 333 402
#     4  12  24  45  71  99 135 179 226 275 336 404
#     4  10  22  41  65  95 135 166 220 288 323 395
#     4  10  20  41  67  95 129 178 215 274 338 397
#     4  10  23  43  64  92 138 171 222 277 331 397
#
# _framework density 24.303139000000002
#
# number of rings (size 3 to 8) (size 9 to 14) (size 15 to 20)
#    0.000    1.500    1.250    4.500    7.000    0.000 
#    2.250    0.000    0.000    0.000    0.000    0.000 
#    0.000    0.000    0.000    0.000    0.000    0.000 
#
# Total GULP energy -89620.021767 kJ/mol
# GULP energy per Si atom -5601.251360 kJ/mol
# Density = 2.424782 g / cm^3
# Si number density = 24.303139 Si / 1000 Ang^3
#
#
#
# Elastic Constant Matrix: (Units=GPa)
#
#
# Indices 1 2 3 4 5 6 
#
# 1 53.3645 13.9313 10.2998 0.0000 6.4913 0.0000
# 2 13.9313 64.1391 -4.3091 0.0000 -3.7465 0.0000
# 3 10.2998 -4.3091 90.5428 0.0000 11.2725 0.0000
# 4 0.0000 0.0000 0.0000 33.3167 0.0000 3.2472
# 5 6.4913 -3.7465 11.2725 0.0000 34.5616 0.0000
# 6 0.0000 0.0000 0.0000 3.2472 0.0000 35.4955
#
#
#
# Elastic Compliance Matrix: (Units=1/GPa)
#
#
# Indices 1 2 3 4 5 6 
#
# 1 0.020889 -0.004900 -0.002142 0.000000 -0.003756 0.000000
# 2 -0.004900 0.016867 0.001061 0.000000 0.002403 0.000000
# 3 -0.002142 0.001061 0.011751 0.000000 -0.003316 0.000000
# 4 0.000000 0.000000 0.000000 0.030285 0.000000 -0.002770
# 5 -0.003756 0.002403 -0.003316 0.000000 0.030981 0.000000
# 6 0.000000 0.000000 0.000000 -0.002770 0.000000 0.028426
#
#
# Mechanical properties :
#
#
# Convention : Reuss Voigt Hill
#
# Bulk Modulus (GPa) = 26.63479 27.54336 27.08907
# Shear Modulus (GPa) = 30.54805 33.21638 31.88221
#
# Velocity S-wave (km/s) = 3.54921 3.70097 3.62588
# Velocity P-wave (km/s) = 5.27058 5.44250 5.35723
#
# Compressibility (1/GPa) = 0.03754488
#
# Stress axis : x y z
#
# Youngs Moduli (GPa) = 47.87300 59.28691 85.09607
#
# Poissons Ratio (x) = 0.29053 0.18226
# Poissons Ratio (y) = 0.23460 -0.09029
# Poissons Ratio (z) = 0.10253 -0.06291
#
# Static dielectric constant tensor:
#      x y z
#    x 1.990010 0.000000 0.004800 
#    y 0.000000 1.902880 0.000000 
#    z 0.004800 0.000000 1.919470 
# 
# From -- ./inp_files/6402.got.cif
#   From: 2010.05.17/outbox.cif.g08.bks.cpg/sg4_4_cif.got.tgz:6402.got - 2010.06.03 18:43:04.
