data_PCOD9115251
_publ_section_title
;
Structure prediction by ZEFSAII (Michael W. Deem and Ramdas Pophale) SiO2 
 PCOD9115251
Probable space group: P 21
;
_chemical_formula_sum "Si O2"
_cell_formula_units_Z 14
_cell_length_a 10.413538
_cell_length_b 7.319900
_cell_length_c 19.429074
_cell_angle_alpha 90.000000
_cell_angle_beta 160.181670
_cell_angle_gamma 90.000000
_cell_volume 502.117199
_symmetry_space_group_name_H-M "P 21"
_symmetry_group_IT_number 4
_symmetry_cell_setting 'monoclinic'
loop_
_space_group_symop_operation_xyz
x,y,z
-x,1/2+y,-z
loop_
_atom_site_type_symbol
_atom_site_label
_atom_site_fract_x
_atom_site_fract_y
_atom_site_fract_z
Si Si1 0.510912 0.862520 0.895074
Si Si2 0.039688 0.011863 0.530690
Si Si3 0.163748 0.736622 0.954616
Si Si4 0.448404 0.724785 0.393970
Si Si5 0.048112 0.469566 0.274986
Si Si6 0.855222 0.981294 0.285357
Si Si7 0.634947 0.320461 0.799543
O O1 0.464026 0.643040 0.873556
O O2 0.233713 0.901129 0.690013
O O3 0.339474 0.930986 0.881167
O O4 0.832600 0.016806 0.043898
O O5 0.588381 0.012544 0.319027
O O6 0.058092 0.953620 0.460691
O O7 0.292078 0.191845 0.653151
O O8 0.093996 0.810540 0.997638
O O9 0.588991 0.803952 0.144690
O O10 0.910064 0.834892 0.769670
O O11 0.129645 0.669583 0.287443
O O12 0.642256 0.913032 0.512546
O O13 0.281750 0.735622 0.232879
O O14 0.795860 0.577708 0.578861
#
# Coordination Sequence:
#
# PCOD9115251 Si02
#       7
#     2   2   2   2   2   2   2
#     4  10  20  36  60  94 124 156 204 260 302 366
#     4   9  13  31  58  91 113 147 202 251 301 343
#     4  10  23  38  66  91 120 157 217 259 318 341
#     4  10  22  42  60  84 131 164 208 241 307 386
#     4  11  24  41  59  91 126 172 199 249 318 379
#     4   9  19  37  64  91 120 159 204 266 297 360
#     4   9  17  35  61  84 120 155 204 262 291 367
#
# _framework density 27.881937000000001
#
# number of rings (size 3 to 8) (size 9 to 14) (size 15 to 20)
#    0.000    2.286    4.286    0.000    6.000    0.000 
#    2.571    1.429    6.286    0.000    0.000    0.000 
#    0.000    0.000    0.000    0.000    0.000    0.000 
#
# Total GULP energy -78082.420808 kJ/mol
# GULP energy per Si atom -5577.315772 kJ/mol
# Density = 2.781848 g / cm^3
# Si number density = 27.881937 Si / 1000 Ang^3
#
#
#
# Elastic Constant Matrix: (Units=GPa)
#
#
# Indices 1 2 3 4 5 6 
#
# 1 81.9678 8.5551 16.5924 0.0000 -19.0939 0.0000
# 2 8.5551 102.2872 4.7382 0.0000 11.2553 0.0000
# 3 16.5924 4.7382 77.5185 0.0000 -3.8983 0.0000
# 4 0.0000 0.0000 0.0000 37.0798 0.0000 5.3889
# 5 -19.0939 11.2553 -3.8983 0.0000 39.0296 0.0000
# 6 0.0000 0.0000 0.0000 5.3889 0.0000 43.5958
#
#
#
# Elastic Compliance Matrix: (Units=1/GPa)
#
#
# Indices 1 2 3 4 5 6 
#
# 1 0.014678 -0.001927 -0.002648 0.000000 0.007472 0.000000
# 2 -0.001927 0.010395 -0.000423 0.000000 -0.003983 0.000000
# 3 -0.002648 -0.000423 0.013502 0.000000 0.000175 0.000000
# 4 0.000000 0.000000 0.000000 0.027462 0.000000 -0.003395
# 5 0.007472 -0.003983 0.000175 0.000000 0.030443 0.000000
# 6 0.000000 0.000000 0.000000 -0.003395 0.000000 0.023358
#
#
# Mechanical properties :
#
#
# Convention : Reuss Voigt Hill
#
# Bulk Modulus (GPa) = 34.99222 35.72722 35.35972
# Shear Modulus (GPa) = 35.87823 39.40022 37.63923
#
# Velocity S-wave (km/s) = 3.59108 3.76321 3.67815
# Velocity P-wave (km/s) = 5.45636 5.63240 5.54508
#
# Compressibility (1/GPa) = 0.02857778
#
# Stress axis : x y z
#
# Youngs Moduli (GPa) = 68.13105 96.19602 74.06508
#
# Poissons Ratio (x) = 0.18538 0.19613
# Poissons Ratio (y) = 0.13130 0.03135
# Poissons Ratio (z) = 0.18042 0.04071
#
# Static dielectric constant tensor:
#      x y z
#    x 2.147620 0.000000 0.042960 
#    y 0.000000 2.419880 0.000000 
#    z 0.042960 0.000000 2.294910 
# 
# From -- ./inp_files/7745.got.cif
#   From: 2010.05.17/outbox.cif.g08.bks.cpg/sg4_4_cif.got.tgz:7745.got - 2010.06.03 18:43:04.
