data_PCOD9115412
_publ_section_title
;
Structure prediction by ZEFSAII (Michael W. Deem and Ramdas Pophale) SiO2 
 PCOD9115412
Probable space group: P 21
;
_chemical_formula_sum "Si O2"
_cell_formula_units_Z 16
_cell_length_a 12.530525
_cell_length_b 12.394534
_cell_length_c 7.776718
_cell_angle_alpha 90.000000
_cell_angle_beta 31.879076
_cell_angle_gamma 90.000000
_cell_volume 637.874483
_symmetry_space_group_name_H-M "P 21"
_symmetry_group_IT_number 4
_symmetry_cell_setting 'monoclinic'
loop_
_space_group_symop_operation_xyz
x,y,z
-x,1/2+y,-z
loop_
_atom_site_type_symbol
_atom_site_label
_atom_site_fract_x
_atom_site_fract_y
_atom_site_fract_z
Si Si1 0.298606 0.332360 0.878091
Si Si2 0.387803 0.572357 0.778764
Si Si3 0.018279 0.812558 0.963306
Si Si4 0.716649 0.701850 0.773704
Si Si5 0.303127 0.804413 0.867321
Si Si6 0.742500 0.509394 0.517477
Si Si7 0.695854 0.114186 0.503485
Si Si8 0.439818 0.404779 0.197020
O O1 0.281856 0.457434 0.957728
O O2 0.535382 0.310893 0.513115
O O3 0.209797 0.256738 0.149762
O O4 0.198413 0.308995 0.831051
O O5 0.303339 0.687180 0.958325
O O6 0.615626 0.562690 0.536615
O O7 0.372973 0.587499 0.595512
O O8 0.090420 0.819371 0.063259
O O9 0.103597 0.922427 0.762126
O O10 0.130036 0.703008 0.743060
O O11 0.827074 0.603547 0.525821
O O12 0.666125 0.794801 0.708506
O O13 0.496470 0.656022 0.128145
O O14 0.396322 0.888446 0.874367
O O15 0.575471 0.443356 0.852651
O O16 0.728747 0.995563 0.536302
#
# Coordination Sequence:
#
# PCOD9115412 Si02
#       8
#     2   2   2   2   2   2   2   2
#     4  12  23  44  65  95 132 175 219 272 324 397
#     4  11  19  39  67  90 125 172 221 265 326 384
#     4  11  23  44  65  94 135 171 219 272 328 386
#     4  11  21  38  65  95 125 167 213 265 329 381
#     4  11  22  42  67  96 126 173 224 271 321 396
#     4  11  21  39  65  97 126 171 210 274 333 384
#     4  10  20  38  64  93 123 171 215 260 319 389
#     4  11  19  36  70  94 124 170 217 259 334 387
#
# _framework density 25.083303999999998
#
# number of rings (size 3 to 8) (size 9 to 14) (size 15 to 20)
#    0.000    1.000    8.750    0.000    0.000    0.000 
#    6.750    1.250    0.000    0.000    0.000    0.000 
#    0.000    0.000    0.000    0.000    0.000    0.000 
#
# Total GULP energy -89469.977421 kJ/mol
# GULP energy per Si atom -5591.873589 kJ/mol
# Density = 2.502621 g / cm^3
# Si number density = 25.083304 Si / 1000 Ang^3
#
#
#
# Elastic Constant Matrix: (Units=GPa)
#
#
# Indices 1 2 3 4 5 6 
#
# 1 114.8565 35.9922 27.3854 0.0000 -7.1895 0.0000
# 2 35.9922 155.4861 20.6350 0.0000 -1.8407 0.0000
# 3 27.3854 20.6350 38.4746 0.0000 -9.2638 0.0000
# 4 0.0000 0.0000 0.0000 25.6684 0.0000 10.8019
# 5 -7.1895 -1.8407 -9.2638 0.0000 29.1551 0.0000
# 6 0.0000 0.0000 0.0000 10.8019 0.0000 42.8879
#
#
#
# Elastic Compliance Matrix: (Units=1/GPa)
#
#
# Indices 1 2 3 4 5 6 
#
# 1 0.010848 -0.001610 -0.006756 0.000000 0.000427 0.000000
# 2 -0.001610 0.007181 -0.002915 0.000000 -0.000870 0.000000
# 3 -0.006756 -0.002915 0.034562 0.000000 0.009132 0.000000
# 4 0.000000 0.000000 0.000000 0.043577 0.000000 -0.010976
# 5 0.000427 -0.000870 0.009132 0.000000 0.037251 0.000000
# 6 0.000000 0.000000 0.000000 -0.010976 0.000000 0.026081
#
#
# Mechanical properties :
#
#
# Convention : Reuss Voigt Hill
#
# Bulk Modulus (GPa) = 33.29943 52.98250 43.14097
# Shear Modulus (GPa) = 26.03215 34.52926 30.28070
#
# Velocity S-wave (km/s) = 3.22503 3.71426 3.47826
# Velocity P-wave (km/s) = 5.21269 6.28989 5.77645
#
# Compressibility (1/GPa) = 0.03003054
#
# Stress axis : x y z
#
# Youngs Moduli (GPa) = 92.17968 139.26449 28.93378
#
# Poissons Ratio (x) = 0.22416 0.19546
# Poissons Ratio (y) = 0.14837 0.08434
# Poissons Ratio (z) = 0.62273 0.40594
#
# Static dielectric constant tensor:
#      x y z
#    x 1.958110 0.000000 0.016510 
#    y 0.000000 2.046880 0.000000 
#    z 0.016510 0.000000 2.046950 
# 
# From -- ./inp_files/8145.got.cif
#   From: 2010.05.17/outbox.cif.g08.bks.cpg/sg4_5_cif.got.tgz:8145.got - 2010.06.03 18:43:04.
