data_PCOD9115826
_publ_section_title
;
Structure prediction by ZEFSAII (Michael W. Deem and Ramdas Pophale) SiO2 
 PCOD9115826
Probable space group: P 21
;
_chemical_formula_sum "Si O2"
_cell_formula_units_Z 12
_cell_length_a 14.110630
_cell_length_b 7.884760
_cell_length_c 9.454083
_cell_angle_alpha 90.000000
_cell_angle_beta 28.988718
_cell_angle_gamma 90.000000
_cell_volume 509.766406
_symmetry_space_group_name_H-M "P 21"
_symmetry_group_IT_number 4
_symmetry_cell_setting 'monoclinic'
loop_
_space_group_symop_operation_xyz
x,y,z
-x,1/2+y,-z
loop_
_atom_site_type_symbol
_atom_site_label
_atom_site_fract_x
_atom_site_fract_y
_atom_site_fract_z
Si Si1 0.640388 0.161120 0.473351
Si Si2 0.626771 0.523764 0.410787
Si Si3 0.288563 0.518078 0.074022
Si Si4 0.917458 0.722856 0.507102
Si Si5 0.469467 0.037115 0.955604
Si Si6 0.762210 0.830447 0.414731
O O1 0.712970 0.334447 0.308573
O O2 0.449243 0.091571 0.639748
O O3 0.567452 0.185363 0.730301
O O4 0.793074 0.004951 0.287151
O O5 0.747324 0.668841 0.333816
O O6 0.424153 0.502739 0.761431
O O7 0.155473 0.355704 0.281685
O O8 0.423287 0.536800 0.035623
O O9 0.135077 0.667015 0.251543
O O10 0.892407 0.801097 0.382744
O O11 0.757662 0.571153 0.727090
O O12 0.547636 0.874546 0.765315
#
# Coordination Sequence:
#
# PCOD9115826 Si02
#       6
#     2   2   2   2   2   2
#     4  10  21  36  67  91 123 165 214 251 317 376
#     4  12  20  39  66  96 120 172 211 257 315 375
#     4  11  24  36  67  92 126 164 209 258 319 370
#     4  11  22  39  63  99 126 160 214 262 313 375
#     4   9  20  41  61  92 124 164 209 260 306 372
#     4   9  21  37  62  90 127 159 205 262 306 366
#
# _framework density 23.540192999999999
#
# number of rings (size 3 to 8) (size 9 to 14) (size 15 to 20)
#    1.000    0.667    5.000    0.000    2.333    1.333 
#    0.000    0.000   11.000    0.000    0.000    0.000 
#    0.000    0.000    0.000    0.000    0.000    0.000 
#
# Total GULP energy -67010.583806 kJ/mol
# GULP energy per Si atom -5584.215317 kJ/mol
# Density = 2.348661 g / cm^3
# Si number density = 23.540193 Si / 1000 Ang^3
#
#
#
# Elastic Constant Matrix: (Units=GPa)
#
#
# Indices 1 2 3 4 5 6 
#
# 1 75.1124 23.8319 9.0443 0.0000 4.2638 0.0000
# 2 23.8319 137.1243 11.0298 0.0000 -3.9538 0.0000
# 3 9.0443 11.0298 66.6128 0.0000 -2.8029 0.0000
# 4 0.0000 0.0000 0.0000 22.9915 0.0000 0.8815
# 5 4.2638 -3.9538 -2.8029 0.0000 15.4887 0.0000
# 6 0.0000 0.0000 0.0000 0.8815 0.0000 29.0673
#
#
#
# Elastic Compliance Matrix: (Units=1/GPa)
#
#
# Indices 1 2 3 4 5 6 
#
# 1 0.014617 -0.002542 -0.001774 0.000000 -0.004994 0.000000
# 2 -0.002542 0.007877 -0.000852 0.000000 0.002556 0.000000
# 3 -0.001774 -0.000852 0.015524 0.000000 0.003080 0.000000
# 4 0.000000 0.000000 0.000000 0.043545 0.000000 -0.001321
# 5 -0.004994 0.002556 0.003080 0.000000 0.067148 0.000000
# 6 0.000000 0.000000 0.000000 -0.001321 0.000000 0.034443
#
#
# Mechanical properties :
#
#
# Convention : Reuss Voigt Hill
#
# Bulk Modulus (GPa) = 36.12345 40.74017 38.43181
# Shear Modulus (GPa) = 24.66522 29.17240 26.91881
#
# Velocity S-wave (km/s) = 3.24047 3.52413 3.38527
# Velocity P-wave (km/s) = 5.42030 5.82267 5.62509
#
# Compressibility (1/GPa) = 0.02768285
#
# Stress axis : x y z
#
# Youngs Moduli (GPa) = 68.41412 126.95844 64.41811
#
# Poissons Ratio (x) = 0.32269 0.11427
# Poissons Ratio (y) = 0.17389 0.05486
# Poissons Ratio (z) = 0.12136 0.10811
#
# Static dielectric constant tensor:
#      x y z
#    x 1.842240 0.000000 0.023350 
#    y 0.000000 2.040390 0.000000 
#    z 0.023350 0.000000 1.901320 
# 
# From -- ./inp_files/12525.got.cif
#   From: 2010.05.17/outbox.cif.g08.bks.cpg/sg4_7_cif.got.tgz:12525.got - 2010.06.03 18:43:04.
