data_PCOD9115376
_publ_section_title
;
Structure prediction by ZEFSAII (Michael W. Deem and Ramdas Pophale) SiO2 
 PCOD9115376
Probable space group: P 21
;
_chemical_formula_sum "Si O2"
_cell_formula_units_Z 14
_cell_length_a 7.504035
_cell_length_b 7.538856
_cell_length_c 12.752268
_cell_angle_alpha 90.000000
_cell_angle_beta 133.951538
_cell_angle_gamma 90.000000
_cell_volume 519.369273
_symmetry_space_group_name_H-M "P 21"
_symmetry_group_IT_number 4
_symmetry_cell_setting 'monoclinic'
loop_
_space_group_symop_operation_xyz
x,y,z
-x,1/2+y,-z
loop_
_atom_site_type_symbol
_atom_site_label
_atom_site_fract_x
_atom_site_fract_y
_atom_site_fract_z
Si Si1 0.456039 0.841040 0.721800
Si Si2 0.777885 0.529669 0.746253
Si Si3 0.209783 0.185527 0.667373
Si Si4 0.297491 0.045737 0.921493
Si Si5 0.036934 0.256362 0.988144
Si Si6 0.194519 0.661729 0.787766
Si Si7 0.691955 0.016288 0.436697
O O1 0.233801 0.725343 0.683472
O O2 0.530268 0.674087 0.675837
O O3 0.696194 0.860062 0.892691
O O4 0.347120 0.031386 0.655371
O O5 0.521663 0.428992 0.581752
O O6 0.817378 0.372226 0.851371
O O7 0.951684 0.555504 0.715413
O O8 0.972234 0.665973 0.902576
O O9 0.930298 0.114893 0.574216
O O10 0.321722 0.169623 0.828951
O O11 0.233450 0.372221 0.619652
O O12 0.096712 0.114437 0.921781
O O13 0.222087 0.854857 0.850156
O O14 0.561389 0.052642 0.084894
#
# Coordination Sequence:
#
# PCOD9115376 Si02
#       7
#     2   2   2   2   2   2   2
#     4   9  21  40  63  89 118 166 207 256 302 378
#     4  11  23  37  61  91 134 155 200 265 322 368
#     4  11  22  41  66  86 119 167 220 251 296 374
#     4  10  22  37  66  89 122 170 206 252 310 380
#     4  10  22  37  57  96 124 159 201 255 328 367
#     4  10  20  38  61  92 127 151 206 258 319 372
#     4  11  24  40  64  87 122 168 214 257 305 361
#
# _framework density 26.955773000000001
#
# number of rings (size 3 to 8) (size 9 to 14) (size 15 to 20)
#    0.000    1.714    1.429    3.429   12.000    0.000 
#    0.000    2.857    0.000    0.000    0.000    0.000 
#    0.000    0.000    0.000    0.000    0.000    0.000 
#
# Total GULP energy -77956.196601 kJ/mol
# GULP energy per Si atom -5568.299757 kJ/mol
# Density = 2.689442 g / cm^3
# Si number density = 26.955773 Si / 1000 Ang^3
#
#
#
# Elastic Constant Matrix: (Units=GPa)
#
#
# Indices 1 2 3 4 5 6 
#
# 1 63.5560 -5.5334 -1.7930 0.0000 11.8856 0.0000
# 2 -5.5334 129.3693 20.4911 0.0000 1.8346 0.0000
# 3 -1.7930 20.4911 85.5801 0.0000 19.4300 0.0000
# 4 0.0000 0.0000 0.0000 37.1058 0.0000 2.9380
# 5 11.8856 1.8346 19.4300 0.0000 30.5572 0.0000
# 6 0.0000 0.0000 0.0000 2.9380 0.0000 34.2453
#
#
#
# Elastic Compliance Matrix: (Units=1/GPa)
#
#
# Indices 1 2 3 4 5 6 
#
# 1 0.017354 0.000528 0.002077 0.000000 -0.008102 0.000000
# 2 0.000528 0.008070 -0.002062 0.000000 0.000621 0.000000
# 3 0.002077 -0.002062 0.014466 0.000000 -0.009882 0.000000
# 4 0.000000 0.000000 0.000000 0.027134 0.000000 -0.002328
# 5 -0.008102 0.000621 -0.009882 0.000000 0.042123 0.000000
# 6 0.000000 0.000000 0.000000 -0.002328 0.000000 0.029401
#
#
# Mechanical properties :
#
#
# Convention : Reuss Voigt Hill
#
# Bulk Modulus (GPa) = 24.40510 33.87053 29.13782
# Shear Modulus (GPa) = 33.08593 38.07103 35.57848
#
# Velocity S-wave (km/s) = 3.50725 3.76220 3.63696
# Velocity P-wave (km/s) = 5.04722 5.60934 5.33569
#
# Compressibility (1/GPa) = 0.04097504
#
# Stress axis : x y z
#
# Youngs Moduli (GPa) = 57.62392 123.91191 69.12818
#
# Poissons Ratio (x) = -0.06546 -0.14355
# Poissons Ratio (y) = -0.03044 0.14256
# Poissons Ratio (z) = -0.11966 0.25555
#
# Static dielectric constant tensor:
#      x y z
#    x 2.351430 0.000000 -0.057150 
#    y 0.000000 2.304870 0.000000 
#    z -0.057150 0.000000 2.088560 
# 
# From -- ./inp_files/7799.got.cif
#   From: 2010.05.17/outbox.cif.g08.bks.cpg/sg4_4_cif.got.tgz:7799.got - 2010.06.03 18:43:04.
