data_PCOD9115700
_publ_section_title
;
Structure prediction by ZEFSAII (Michael W. Deem and Ramdas Pophale) SiO2 
 PCOD9115700
Probable space group: P 21
;
_chemical_formula_sum "Si O2"
_cell_formula_units_Z 14
_cell_length_a 7.397340
_cell_length_b 7.563196
_cell_length_c 10.072252
_cell_angle_alpha 90.000000
_cell_angle_beta 68.540696
_cell_angle_gamma 90.000000
_cell_volume 524.453278
_symmetry_space_group_name_H-M "P 21"
_symmetry_group_IT_number 4
_symmetry_cell_setting 'monoclinic'
loop_
_space_group_symop_operation_xyz
x,y,z
-x,1/2+y,-z
loop_
_atom_site_type_symbol
_atom_site_label
_atom_site_fract_x
_atom_site_fract_y
_atom_site_fract_z
Si Si1 0.002734 0.538390 0.591106
Si Si2 0.191704 0.245890 0.728613
Si Si3 0.589163 0.080533 0.581761
Si Si4 0.374751 0.966495 0.181318
Si Si5 0.993697 0.885461 0.750692
Si Si6 0.622256 0.223224 0.278491
Si Si7 0.707010 0.743278 0.007110
O O1 0.094907 0.406406 0.677350
O O2 0.183561 0.563169 0.441023
O O3 0.969751 0.744211 0.639304
O O4 0.781920 0.463259 0.655801
O O5 0.425535 0.227840 0.656199
O O6 0.166699 0.243483 0.893164
O O7 0.097626 0.068983 0.692077
O O8 0.599905 0.114394 0.420924
O O9 0.497033 0.902317 0.664439
O O10 0.539518 0.103210 0.185478
O O11 0.485649 0.792265 0.103883
O O12 0.279477 0.061728 0.078934
O O13 0.156104 0.783144 0.796370
O O14 0.795767 0.890854 0.884976
#
# Coordination Sequence:
#
# PCOD9115700 Si02
#       7
#     2   2   2   2   2   2   2
#     4  10  22  46  66 102 135 171 222 280 345 394
#     4  11  23  41  74  99 120 187 229 270 331 415
#     4  10  20  42  72  94 126 174 235 272 321 411
#     4  11  27  43  64 103 144 174 212 294 347 392
#     4   9  23  40  70  95 126 176 231 270 319 415
#     4  10  21  42  69  97 129 171 227 281 331 392
#     4  11  26  42  65  98 140 177 222 277 344 399
#
# _framework density 26.694465999999998
#
# number of rings (size 3 to 8) (size 9 to 14) (size 15 to 20)
#    0.000    1.714    1.429    1.714   12.000    0.000 
#    2.571    2.857    0.000    0.000    0.000    0.000 
#    0.000    0.000    0.000    0.000    0.000    0.000 
#
# Total GULP energy -78197.101563 kJ/mol
# GULP energy per Si atom -5585.507254 kJ/mol
# Density = 2.663371 g / cm^3
# Si number density = 26.694466 Si / 1000 Ang^3
#
#
#
# Elastic Constant Matrix: (Units=GPa)
#
#
# Indices 1 2 3 4 5 6 
#
# 1 96.5052 13.1880 22.0127 0.0000 -18.5946 0.0000
# 2 13.1880 110.7484 12.5102 0.0000 -4.0871 0.0000
# 3 22.0127 12.5102 63.1523 0.0000 -26.8160 0.0000
# 4 0.0000 0.0000 0.0000 32.7182 0.0000 -3.2273
# 5 -18.5946 -4.0871 -26.8160 0.0000 52.8080 0.0000
# 6 0.0000 0.0000 0.0000 -3.2273 0.0000 47.2078
#
#
#
# Elastic Compliance Matrix: (Units=1/GPa)
#
#
# Indices 1 2 3 4 5 6 
#
# 1 0.011628 -0.000978 -0.002745 0.000000 0.002625 0.000000
# 2 -0.000978 0.009321 -0.001715 0.000000 -0.000494 0.000000
# 3 -0.002745 -0.001715 0.021246 0.000000 0.009689 0.000000
# 4 0.000000 0.000000 0.000000 0.030772 0.000000 0.002104
# 5 0.002625 -0.000494 0.009689 0.000000 0.024743 0.000000
# 6 0.000000 0.000000 0.000000 0.002104 0.000000 0.021327
#
#
# Mechanical properties :
#
#
# Convention : Reuss Voigt Hill
#
# Bulk Modulus (GPa) = 31.92970 40.64751 36.28860
# Shear Modulus (GPa) = 35.62490 41.39312 38.50901
#
# Velocity S-wave (km/s) = 3.65710 3.94207 3.80226
# Velocity P-wave (km/s) = 5.46074 5.99832 5.73583
#
# Compressibility (1/GPa) = 0.03131881
#
# Stress axis : x y z
#
# Youngs Moduli (GPa) = 86.00258 107.27936 47.06849
#
# Poissons Ratio (x) = 0.10489 0.12919
# Poissons Ratio (y) = 0.08408 0.08075
# Poissons Ratio (z) = 0.23605 0.18404
#
# Static dielectric constant tensor:
#      x y z
#    x 2.159460 0.000000 0.065280 
#    y 0.000000 2.087840 0.000000 
#    z 0.065280 0.000000 2.156920 
# 
# From -- ./inp_files/10916.got.cif
#   From: 2010.05.17/outbox.cif.g08.bks.cpg/sg4_6_cif.got.tgz:10916.got - 2010.06.03 18:43:04.
