data_PCOD9115233
_publ_section_title
;
Structure prediction by ZEFSAII (Michael W. Deem and Ramdas Pophale) SiO2 
 PCOD9115233
Probable space group: P 21
;
_chemical_formula_sum "Si O2"
_cell_formula_units_Z 16
_cell_length_a 23.676581
_cell_length_b 5.162473
_cell_length_c 10.273707
_cell_angle_alpha 90.000000
_cell_angle_beta 144.534525
_cell_angle_gamma 90.000000
_cell_volume 728.602870
_symmetry_space_group_name_H-M "P 21"
_symmetry_group_IT_number 4
_symmetry_cell_setting 'monoclinic'
loop_
_space_group_symop_operation_xyz
x,y,z
-x,1/2+y,-z
loop_
_atom_site_type_symbol
_atom_site_label
_atom_site_fract_x
_atom_site_fract_y
_atom_site_fract_z
Si Si1 0.621993 0.668480 0.142382
Si Si2 0.484139 0.224561 0.300275
Si Si3 0.291698 0.689389 0.810050
Si Si4 0.960839 0.004677 0.256555
Si Si5 0.081793 0.505878 0.515223
Si Si6 0.361732 0.064265 0.535131
Si Si7 0.243850 0.574866 0.230351
Si Si8 0.637670 0.067243 0.793890
O O1 0.704350 0.457466 0.259794
O O2 0.597856 0.620927 0.246099
O O3 0.657054 0.960009 0.176502
O O4 0.533435 0.613472 0.876097
O O5 0.549524 0.482530 0.392716
O O6 0.546975 0.082110 0.525509
O O7 0.380610 0.294187 0.169752
O O8 0.187055 0.583856 0.658565
O O9 0.349999 0.738589 0.054933
O O10 0.043528 0.224281 0.401613
O O11 0.923515 0.015470 0.337001
O O12 0.871916 0.053567 0.991202
O O13 0.006219 0.722164 0.323965
O O14 0.298796 0.311584 0.373869
O O15 0.290268 0.814232 0.395334
O O16 0.274134 0.614124 0.136362
#
# Coordination Sequence:
#
# PCOD9115233 Si02
#       8
#     2   2   2   2   2   2   2   2
#     4  11  25  41  62  87 120 172 214 254 297 360
#     4  10  22  38  62  88 126 158 206 262 306 368
#     4  11  22  40  64  90 127 159 200 258 309 377
#     4  10  20  36  61  96 128 156 193 248 316 385
#     4  10  20  36  61  96 128 156 193 248 316 385
#     4  11  25  41  62  87 120 172 214 254 297 360
#     4  11  22  40  64  90 127 159 200 258 309 377
#     4  10  20  36  58  94 118 156 192 248 326 364
#
# _framework density 21.959838999999999
#
# number of rings (size 3 to 8) (size 9 to 14) (size 15 to 20)
#    0.000    1.500    1.250    3.750    0.000   10.000 
#    0.000    0.000    0.000   15.000    0.000    0.000 
#    0.000    0.000    0.000    0.000    0.000    0.000 
#
# Total GULP energy -89335.028074 kJ/mol
# GULP energy per Si atom -5583.439255 kJ/mol
# Density = 2.190986 g / cm^3
# Si number density = 21.959839 Si / 1000 Ang^3
#
#
#
# Elastic Constant Matrix: (Units=GPa)
#
#
# Indices 1 2 3 4 5 6 
#
# 1 43.0606 10.5331 22.2187 0.0000 -14.5603 0.0000
# 2 10.5331 104.2556 8.6392 0.0000 -20.9269 0.0000
# 3 22.2187 8.6392 76.5315 0.0000 -14.9623 0.0000
# 4 0.0000 0.0000 0.0000 23.6856 0.0000 -2.0989
# 5 -14.5603 -20.9269 -14.9623 0.0000 30.9290 0.0000
# 6 0.0000 0.0000 0.0000 -2.0989 0.0000 28.3285
#
#
#
# Elastic Compliance Matrix: (Units=1/GPa)
#
#
# Indices 1 2 3 4 5 6 
#
# 1 0.030421 -0.000340 -0.006669 0.000000 0.010865 0.000000
# 2 -0.000340 0.011107 0.000312 0.000000 0.007506 0.000000
# 3 -0.006669 0.000312 0.015899 0.000000 0.004763 0.000000
# 4 0.000000 0.000000 0.000000 0.042499 0.000000 0.003149
# 5 0.010865 0.007506 0.004763 0.000000 0.044830 0.000000
# 6 0.000000 0.000000 0.000000 0.003149 0.000000 0.035533
#
#
# Mechanical properties :
#
#
# Convention : Reuss Voigt Hill
#
# Bulk Modulus (GPa) = 22.71028 34.06997 28.39012
# Shear Modulus (GPa) = 23.99685 28.75240 26.37463
#
# Velocity S-wave (km/s) = 3.30928 3.62237 3.46936
# Velocity P-wave (km/s) = 4.99659 5.74838 5.38562
#
# Compressibility (1/GPa) = 0.04403292
#
# Stress axis : x y z
#
# Youngs Moduli (GPa) = 32.87163 90.03369 62.89822
#
# Poissons Ratio (x) = 0.03061 0.41950
# Poissons Ratio (y) = 0.01118 -0.01965
# Poissons Ratio (z) = 0.21924 -0.02813
#
# Static dielectric constant tensor:
#      x y z
#    x 1.784450 0.000000 0.021940 
#    y 0.000000 1.851040 0.000000 
#    z 0.021940 0.000000 1.822880 
# 
# From -- ./inp_files/9809.got.cif
#   From: 2010.05.17/outbox.cif.g08.bks.cpg/sg4_5_cif.got.tgz:9809.got - 2010.06.03 18:43:04.
