data_PCOD9115712
_publ_section_title
;
Structure prediction by ZEFSAII (Michael W. Deem and Ramdas Pophale) SiO2 
 PCOD9115712
Probable space group: P 21
;
_chemical_formula_sum "Si O2"
_cell_formula_units_Z 16
_cell_length_a 9.722342
_cell_length_b 10.251842
_cell_length_c 13.675629
_cell_angle_alpha 90.000000
_cell_angle_beta 150.639507
_cell_angle_gamma 90.000000
_cell_volume 668.320189
_symmetry_space_group_name_H-M "P 21"
_symmetry_group_IT_number 4
_symmetry_cell_setting 'monoclinic'
loop_
_space_group_symop_operation_xyz
x,y,z
-x,1/2+y,-z
loop_
_atom_site_type_symbol
_atom_site_label
_atom_site_fract_x
_atom_site_fract_y
_atom_site_fract_z
Si Si1 0.775923 0.623620 0.191318
Si Si2 0.030095 0.279106 0.316673
Si Si3 0.092065 0.024561 0.239712
Si Si4 0.352810 0.598303 0.202398
Si Si5 0.042081 0.999184 0.882902
Si Si6 0.000381 0.591046 0.537591
Si Si7 0.571079 0.400187 0.715989
Si Si8 0.687886 0.910393 0.138103
O O1 0.920857 0.611219 0.175339
O O2 0.981980 0.620976 0.411914
O O3 0.613569 0.760036 0.101749
O O4 0.557117 0.502872 0.055751
O O5 0.167274 0.155795 0.344771
O O6 0.886531 0.206408 0.320520
O O7 0.243844 0.374857 0.503918
O O8 0.930051 0.367993 0.164520
O O9 0.335327 0.959836 0.328927
O O10 0.949849 0.926363 0.227600
O O11 0.849784 0.060702 0.012160
O O12 0.672874 0.572716 0.366987
O O13 0.313868 0.752739 0.198242
O O14 0.235320 0.519179 0.223459
O O15 0.294206 0.990619 0.117490
O O16 0.191211 0.469503 0.686727
#
# Coordination Sequence:
#
# PCOD9115712 Si02
#       8
#     2   2   2   2   2   2   2   2
#     4  12  28  46  74 102 143 183 242 293 345 427
#     4  10  23  38  68  98 134 182 229 288 350 413
#     4  10  20  43  65  99 134 186 227 289 352 414
#     4  10  20  44  67 101 135 182 227 290 350 417
#     4  11  25  41  68 103 136 181 231 295 340 419
#     4  10  25  45  73  96 139 185 233 286 363 421
#     4  10  22  38  68  96 140 172 233 279 353 415
#     4  11  27  45  73 101 139 187 236 290 357 414
#
# _framework density 23.940619000000002
#
# number of rings (size 3 to 8) (size 9 to 14) (size 15 to 20)
#    0.000    1.500    2.500    0.750   14.000    0.000 
#    0.000    0.000    0.000    0.000    0.000    0.000 
#    0.000    0.000    0.000    0.000    0.000    0.000 
#
# Total GULP energy -89399.979143 kJ/mol
# GULP energy per Si atom -5587.498696 kJ/mol
# Density = 2.388613 g / cm^3
# Si number density = 23.940619 Si / 1000 Ang^3
#
#
#
# Elastic Constant Matrix: (Units=GPa)
#
#
# Indices 1 2 3 4 5 6 
#
# 1 101.4071 7.5674 13.6523 0.0000 -23.5547 0.0000
# 2 7.5674 77.1832 -6.6102 0.0000 -5.4614 0.0000
# 3 13.6523 -6.6102 91.8057 0.0000 -37.7422 0.0000
# 4 0.0000 0.0000 0.0000 38.3225 0.0000 -4.2918
# 5 -23.5547 -5.4614 -37.7422 0.0000 38.0330 0.0000
# 6 0.0000 0.0000 0.0000 -4.2918 0.0000 22.3800
#
#
#
# Elastic Compliance Matrix: (Units=1/GPa)
#
#
# Indices 1 2 3 4 5 6 
#
# 1 0.011761 -0.000324 0.002032 0.000000 0.009254 0.000000
# 2 -0.000324 0.013571 0.002946 0.000000 0.004671 0.000000
# 3 0.002032 0.002946 0.019414 0.000000 0.020947 0.000000
# 4 0.000000 0.000000 0.000000 0.026667 0.000000 0.005114
# 5 0.009254 0.004671 0.020947 0.000000 0.053482 0.000000
# 6 0.000000 0.000000 0.000000 0.005114 0.000000 0.045664
#
#
# Mechanical properties :
#
#
# Convention : Reuss Voigt Hill
#
# Bulk Modulus (GPa) = 18.50039 33.29056 25.89547
# Shear Modulus (GPa) = 27.89096 36.79951 32.34524
#
# Velocity S-wave (km/s) = 3.41692 3.92486 3.67967
# Velocity P-wave (km/s) = 4.82820 5.87154 5.37525
#
# Compressibility (1/GPa) = 0.05405292
#
# Stress axis : x y z
#
# Youngs Moduli (GPa) = 85.02405 73.68777 51.50912
#
# Poissons Ratio (x) = 0.02390 -0.10467
# Poissons Ratio (y) = 0.02757 -0.15173
# Poissons Ratio (z) = -0.17277 -0.21706
#
# Static dielectric constant tensor:
#      x y z
#    x 1.951190 0.000000 0.048600 
#    y 0.000000 1.924420 0.000000 
#    z 0.048600 0.000000 1.962410 
# 
# From -- ./inp_files/13974.got.cif
#   From: 2010.05.17/outbox.cif.g08.bks.cpg/sg4_7_cif.got.tgz:13974.got - 2010.06.03 18:43:04.
