data_PCOD9115421
_publ_section_title
;
Structure prediction by ZEFSAII (Michael W. Deem and Ramdas Pophale) SiO2 
 PCOD9115421
Probable space group: P 21
;
_chemical_formula_sum "Si O2"
_cell_formula_units_Z 14
_cell_length_a 9.380961
_cell_length_b 14.613685
_cell_length_c 5.091097
_cell_angle_alpha 90.000000
_cell_angle_beta 104.537631
_cell_angle_gamma 90.000000
_cell_volume 675.594597
_symmetry_space_group_name_H-M "P 21"
_symmetry_group_IT_number 4
_symmetry_cell_setting 'monoclinic'
loop_
_space_group_symop_operation_xyz
x,y,z
-x,1/2+y,-z
loop_
_atom_site_type_symbol
_atom_site_label
_atom_site_fract_x
_atom_site_fract_y
_atom_site_fract_z
Si Si1 0.073006 0.044450 0.866637
Si Si2 0.807053 0.979887 0.988998
Si Si3 0.295839 0.962923 0.325691
Si Si4 0.034684 0.881016 0.478680
Si Si5 0.828406 0.717258 0.369421
Si Si6 0.514054 0.443336 0.099284
Si Si7 0.313763 0.299989 0.219811
O O1 0.115366 0.116451 0.666215
O O2 0.076493 0.942439 0.747577
O O3 0.908167 0.056065 0.902276
O O4 0.193128 0.041985 0.153131
O O5 0.641022 0.997346 0.006904
O O6 0.776295 0.895167 0.774388
O O7 0.908049 0.937513 0.264362
O O8 0.180483 0.885138 0.365410
O O9 0.387624 0.988534 0.627889
O O10 0.405136 0.936046 0.140495
O O11 0.968707 0.781677 0.499266
O O12 0.708026 0.737569 0.537857
O O13 0.759974 0.752323 0.063774
O O14 0.467868 0.343637 0.196267
#
# Coordination Sequence:
#
# PCOD9115421 Si02
#       7
#     2   2   2   2   2   2   2
#     4  11  22  38  64  95 125 161 212 260 308 361
#     4   8  20  35  65  85 117 159 211 241 303 371
#     4  11  22  36  63  93 119 156 202 259 317 364
#     4  10  20  41  59  94 122 159 213 252 310 363
#     4  11  22  37  65  89 124 163 213 260 296 365
#     4  10  20  38  66  85 119 165 199 252 315 373
#     4   9  20  37  60  91 112 161 212 242 299 375
#
# _framework density 20.722486
#
# number of rings (size 3 to 8) (size 9 to 14) (size 15 to 20)
#    0.857    1.143    2.857    0.857    6.000    0.000 
#    0.000    0.000    9.429    0.000    0.000    0.000 
#    0.000    0.000    0.000    0.000    0.000    0.000 
#
# Total GULP energy -77981.081637 kJ/mol
# GULP energy per Si atom -5570.077260 kJ/mol
# Density = 2.067532 g / cm^3
# Si number density = 20.722486 Si / 1000 Ang^3
#
#
#
# Elastic Constant Matrix: (Units=GPa)
#
#
# Indices 1 2 3 4 5 6 
#
# 1 141.0569 7.4861 40.9049 0.0000 -9.4867 0.0000
# 2 7.4861 33.4906 -2.3970 0.0000 -1.2750 0.0000
# 3 40.9049 -2.3970 62.6265 0.0000 -13.3097 0.0000
# 4 0.0000 0.0000 0.0000 17.4898 0.0000 -1.9592
# 5 -9.4867 -1.2750 -13.3097 0.0000 36.9523 0.0000
# 6 0.0000 0.0000 0.0000 -1.9592 0.0000 9.3626
#
#
#
# Elastic Compliance Matrix: (Units=1/GPa)
#
#
# Indices 1 2 3 4 5 6 
#
# 1 0.008938 -0.002418 -0.005913 0.000000 0.000081 0.000000
# 2 -0.002418 0.030679 0.003083 0.000000 0.001548 0.000000
# 3 -0.005913 0.003083 0.021276 0.000000 0.006252 0.000000
# 4 0.000000 0.000000 0.000000 0.058548 0.000000 0.012251
# 5 0.000081 0.001548 0.006252 0.000000 0.029388 0.000000
# 6 0.000000 0.000000 0.000000 0.012251 0.000000 0.109372
#
#
# Mechanical properties :
#
#
# Convention : Reuss Voigt Hill
#
# Bulk Modulus (GPa) = 19.84262 36.57356 28.20809
# Shear Modulus (GPa) = 17.51329 25.50628 21.50979
#
# Velocity S-wave (km/s) = 2.91027 3.51215 3.22528
# Velocity P-wave (km/s) = 4.57046 5.84247 5.24517
#
# Compressibility (1/GPa) = 0.05039656
#
# Stress axis : x y z
#
# Youngs Moduli (GPa) = 111.88360 32.59536 47.00026
#
# Poissons Ratio (x) = 0.07882 0.27792
# Poissons Ratio (y) = 0.27053 -0.14488
# Poissons Ratio (z) = 0.66158 -0.10048
#
# Static dielectric constant tensor:
#      x y z
#    x 1.812690 0.000000 -0.015300 
#    y 0.000000 1.770240 0.000000 
#    z -0.015300 0.000000 1.759670 
# 
# From -- ./inp_files/1630.got.cif
#   From: 2010.05.17/outbox.cif.g08.bks.cpg/sg4_1_cif.got.tgz:1630.got - 2010.06.03 18:43:04.
