data_PCOD9115503
_publ_section_title
;
Structure prediction by ZEFSAII (Michael W. Deem and Ramdas Pophale) SiO2 
 PCOD9115503
Probable space group: P 21
;
_chemical_formula_sum "Si O2"
_cell_formula_units_Z 14
_cell_length_a 15.324626
_cell_length_b 6.409905
_cell_length_c 5.568388
_cell_angle_alpha 90.000000
_cell_angle_beta 111.571168
_cell_angle_gamma 90.000000
_cell_volume 508.669840
_symmetry_space_group_name_H-M "P 21"
_symmetry_group_IT_number 4
_symmetry_cell_setting 'monoclinic'
loop_
_space_group_symop_operation_xyz
x,y,z
-x,1/2+y,-z
loop_
_atom_site_type_symbol
_atom_site_label
_atom_site_fract_x
_atom_site_fract_y
_atom_site_fract_z
Si Si1 0.883221 0.991940 0.847405
Si Si2 0.293395 0.241515 0.562346
Si Si3 0.025273 0.951467 0.595947
Si Si4 0.794597 0.342859 0.493954
Si Si5 0.528904 0.028949 0.221530
Si Si6 0.241339 0.490300 0.904508
Si Si7 0.412887 0.700643 0.238293
O O1 0.800712 0.840210 0.658709
O O2 0.980475 0.946908 0.819171
O O3 0.854738 0.229013 0.758185
O O4 0.864648 0.969718 0.110697
O O5 0.393440 0.350586 0.629250
O O6 0.283140 0.000472 0.493256
O O7 0.276285 0.277514 0.829588
O O8 0.000032 0.701742 0.495546
O O9 0.132751 0.947966 0.617109
O O10 0.750145 0.152997 0.303522
O O11 0.426211 0.933998 0.158105
O O12 0.542669 0.190939 0.451497
O O13 0.545070 0.083121 0.958953
O O14 0.311608 0.595005 0.161538
#
# Coordination Sequence:
#
# PCOD9115503 Si02
#       7
#     2   2   2   2   2   2   2
#     4  10  20  41  63  89 130 168 220 279 342 414
#     4  10  21  41  63  88 128 169 221 276 343 414
#     4  10  20  39  67  97 135 182 232 289 356 424
#     4  10  22  39  63  93 125 177 221 278 348 417
#     4  11  24  42  67  97 135 177 224 286 349 422
#     4  10  23  41  61  93 130 169 222 283 342 418
#     4  11  24  43  66  99 135 174 228 283 350 421
#
# _framework density 27.522765
#
# number of rings (size 3 to 8) (size 9 to 14) (size 15 to 20)
#    0.000    1.714    2.857    0.857    2.000    2.286 
#    2.571    0.000    0.000    0.000    0.000    0.000 
#    0.000    0.000    0.000    0.000    0.000    0.000 
#
# Total GULP energy -77988.800616 kJ/mol
# GULP energy per Si atom -5570.628615 kJ/mol
# Density = 2.746012 g / cm^3
# Si number density = 27.522765 Si / 1000 Ang^3
#
#
#
# Elastic Constant Matrix: (Units=GPa)
#
#
# Indices 1 2 3 4 5 6 
#
# 1 114.9233 36.6491 30.5333 0.0000 -32.7351 0.0000
# 2 36.6491 116.3406 45.4805 0.0000 16.0858 0.0000
# 3 30.5333 45.4805 76.0212 0.0000 -7.4571 0.0000
# 4 0.0000 0.0000 0.0000 26.1266 0.0000 6.0072
# 5 -32.7351 16.0858 -7.4571 0.0000 50.8019 0.0000
# 6 0.0000 0.0000 0.0000 6.0072 0.0000 62.1346
#
#
#
# Elastic Compliance Matrix: (Units=1/GPa)
#
#
# Indices 1 2 3 4 5 6 
#
# 1 0.013623 -0.005164 -0.001381 0.000000 0.010211 0.000000
# 2 -0.005164 0.014349 -0.007389 0.000000 -0.008955 0.000000
# 3 -0.001381 -0.007389 0.018538 0.000000 0.004171 0.000000
# 4 0.000000 0.000000 0.000000 0.039145 0.000000 -0.003785
# 5 0.010211 -0.008955 0.004171 0.000000 0.029712 0.000000
# 6 0.000000 0.000000 0.000000 -0.003785 0.000000 0.016460
#
#
# Mechanical properties :
#
#
# Convention : Reuss Voigt Hill
#
# Bulk Modulus (GPa) = 53.63674 59.17900 56.40787
# Shear Modulus (GPa) = 30.13703 40.78744 35.46224
#
# Velocity S-wave (km/s) = 3.31265 3.85379 3.59342
# Velocity P-wave (km/s) = 5.84482 6.43046 6.14462
#
# Compressibility (1/GPa) = 0.01864394
#
# Stress axis : x y z
#
# Youngs Moduli (GPa) = 73.40258 69.69286 53.94193
#
# Poissons Ratio (x) = 0.35986 0.07450
# Poissons Ratio (y) = 0.37902 0.39857
# Poissons Ratio (z) = 0.10137 0.51495
#
# Static dielectric constant tensor:
#      x y z
#    x 2.078340 0.000000 0.083420 
#    y 0.000000 2.213510 0.000000 
#    z 0.083420 0.000000 2.346830 
# 
# From -- ./inp_files/3846.got.cif
#   From: 2010.05.17/outbox.cif.g08.bks.cpg/sg4_2_cif.got.tgz:3846.got - 2010.06.03 18:43:04.
