data_PCOD9115960
_publ_section_title
;
Structure prediction by ZEFSAII (Michael W. Deem and Ramdas Pophale) SiO2 
 PCOD9115960
Probable space group: P 21
;
_chemical_formula_sum "Si O2"
_cell_formula_units_Z 16
_cell_length_a 8.460209
_cell_length_b 9.373741
_cell_length_c 10.743661
_cell_angle_alpha 90.000000
_cell_angle_beta 57.863313
_cell_angle_gamma 90.000000
_cell_volume 721.469030
_symmetry_space_group_name_H-M "P 21"
_symmetry_group_IT_number 4
_symmetry_cell_setting 'monoclinic'
loop_
_space_group_symop_operation_xyz
x,y,z
-x,1/2+y,-z
loop_
_atom_site_type_symbol
_atom_site_label
_atom_site_fract_x
_atom_site_fract_y
_atom_site_fract_z
Si Si1 0.152327 0.376440 0.220487
Si Si2 0.812639 0.032232 0.457465
Si Si3 0.884047 0.764680 0.040661
Si Si4 0.305890 0.687183 0.160295
Si Si5 0.426653 0.063405 0.756070
Si Si6 0.968757 0.287777 0.527162
Si Si7 0.460420 0.767769 0.835974
Si Si8 0.207737 0.573962 0.824185
O O1 0.156161 0.292930 0.089332
O O2 0.185879 0.544437 0.183181
O O3 0.324348 0.308844 0.228087
O O4 0.976376 0.361218 0.387127
O O5 0.602824 0.069229 0.590035
O O6 0.955611 0.123896 0.483677
O O7 0.821070 0.076821 0.311202
O O8 0.869730 0.868412 0.461712
O O9 0.080496 0.686918 0.950213
O O10 0.751292 0.663127 0.179383
O O11 0.861897 0.919379 0.107569
O O12 0.486735 0.619958 0.150343
O O13 0.203593 0.788100 0.303415
O O14 0.366845 0.765131 0.010812
O O15 0.378611 0.898059 0.789742
O O16 0.413974 0.620266 0.784588
#
# Coordination Sequence:
#
# PCOD9115960 Si02
#       8
#     2   2   2   2   2   2   2   2
#     4  11  21  43  69  98 133 173 230 274 323 407
#     4  11  25  45  67 101 138 174 227 279 340 405
#     4  12  25  45  67  98 136 180 224 278 335 408
#     4  10  21  38  67 101 128 167 231 279 322 390
#     4  10  23  44  64  94 134 175 228 278 321 400
#     4  11  21  43  67  96 135 174 221 277 329 399
#     4  11  22  43  69  97 134 176 224 283 332 393
#     4  12  28  43  68 103 138 179 221 280 354 392
#
# _framework density 22.176973
#
# number of rings (size 3 to 8) (size 9 to 14) (size 15 to 20)
#    0.000    1.000    7.500    0.750    3.500    1.000 
#    4.500    0.000    0.000    0.000    0.000    0.000 
#    0.000    0.000    0.000    0.000    0.000    0.000 
#
# Total GULP energy -89154.222432 kJ/mol
# GULP energy per Si atom -5572.138902 kJ/mol
# Density = 2.212650 g / cm^3
# Si number density = 22.176973 Si / 1000 Ang^3
#
#
#
# Elastic Constant Matrix: (Units=GPa)
#
#
# Indices 1 2 3 4 5 6 
#
# 1 41.3890 14.5467 20.8358 0.0000 3.2116 0.0000
# 2 14.5467 55.2161 43.2635 0.0000 -12.8419 0.0000
# 3 20.8358 43.2635 112.3669 0.0000 2.7538 0.0000
# 4 0.0000 0.0000 0.0000 37.0163 0.0000 -4.1339
# 5 3.2116 -12.8419 2.7538 0.0000 23.5361 0.0000
# 6 0.0000 0.0000 0.0000 -4.1339 0.0000 31.9136
#
#
#
# Elastic Compliance Matrix: (Units=1/GPa)
#
#
# Indices 1 2 3 4 5 6 
#
# 1 0.028541 -0.007647 -0.002156 0.000000 -0.007814 0.000000
# 2 -0.007647 0.035026 -0.012598 0.000000 0.021629 0.000000
# 3 -0.002156 -0.012598 0.014352 0.000000 -0.008259 0.000000
# 4 0.000000 0.000000 0.000000 0.027412 0.000000 0.003551
# 5 -0.007814 0.021629 -0.008259 0.000000 0.056322 0.000000
# 6 0.000000 0.000000 0.000000 0.003551 0.000000 0.031795
#
#
# Mechanical properties :
#
#
# Convention : Reuss Voigt Hill
#
# Bulk Modulus (GPa) = 30.19636 40.69598 35.44617
# Shear Modulus (GPa) = 20.05708 27.18161 23.61935
#
# Velocity S-wave (km/s) = 3.01060 3.50475 3.26703
# Velocity P-wave (km/s) = 5.07254 5.89645 5.49994
#
# Compressibility (1/GPa) = 0.03311657
#
# Stress axis : x y z
#
# Youngs Moduli (GPa) = 35.03782 28.54984 69.67585
#
# Poissons Ratio (x) = 0.21832 0.15025
# Poissons Ratio (y) = 0.26793 0.87778
# Poissons Ratio (z) = 0.07556 0.35967
#
# Static dielectric constant tensor:
#      x y z
#    x 1.928360 0.000000 -0.037190 
#    y 0.000000 1.847090 0.000000 
#    z -0.037190 0.000000 1.796290 
# 
# From -- ./inp_files/10927.got.cif
#   From: 2010.05.17/outbox.cif.g08.bks.cpg/sg4_6_cif.got.tgz:10927.got - 2010.06.03 18:43:04.
