data_PCOD9115978
_publ_section_title
;
Structure prediction by ZEFSAII (Michael W. Deem and Ramdas Pophale) SiO2 
 PCOD9115978
Probable space group: P 21
;
_chemical_formula_sum "Si O2"
_cell_formula_units_Z 16
_cell_length_a 7.557142
_cell_length_b 16.611504
_cell_length_c 4.799835
_cell_angle_alpha 90.000000
_cell_angle_beta 82.829029
_cell_angle_gamma 90.000000
_cell_volume 597.836562
_symmetry_space_group_name_H-M "P 21"
_symmetry_group_IT_number 4
_symmetry_cell_setting 'monoclinic'
loop_
_space_group_symop_operation_xyz
x,y,z
-x,1/2+y,-z
loop_
_atom_site_type_symbol
_atom_site_label
_atom_site_fract_x
_atom_site_fract_y
_atom_site_fract_z
Si Si1 0.183369 0.820330 0.952323
Si Si2 0.992495 0.049648 0.463464
Si Si3 0.455170 0.520895 0.949344
Si Si4 0.714276 0.162712 0.379705
Si Si5 0.904377 0.947253 0.960613
Si Si6 0.409252 0.876568 0.416483
Si Si7 0.264696 0.143695 0.015411
Si Si8 0.647021 0.740249 0.472714
O O1 0.194728 0.730880 0.827938
O O2 0.324609 0.870771 0.737133
O O3 0.990077 0.859354 0.943362
O O4 0.261743 0.833499 0.244870
O O5 0.029912 0.003364 0.740030
O O6 0.846861 0.117891 0.558806
O O7 0.920475 0.980272 0.270484
O O8 0.131462 0.096788 0.244060
O O9 0.357389 0.591668 0.800361
O O10 0.561030 0.463954 0.715326
O O11 0.595657 0.572984 0.096514
O O12 0.297065 0.465187 0.103231
O O13 0.546208 0.201978 0.561222
O O14 0.601818 0.831604 0.402557
O O15 0.333535 0.215399 0.209311
O O16 0.214157 0.192470 0.747491
#
# Coordination Sequence:
#
# PCOD9115978 Si02
#       8
#     2   2   2   2   2   2   2   2
#     4  11  23  42  64  88 124 165 206 252 313 374
#     4  11  23  40  62  91 123 161 206 253 306 370
#     4  10  22  39  63  90 122 159 206 257 308 364
#     4   9  22  42  63  89 125 168 206 252 313 375
#     4  11  23  40  60  90 123 159 206 256 306 366
#     4  11  23  40  63  89 121 160 205 256 311 368
#     4  11  21  38  62  88 120 159 200 250 304 367
#     4  10  21  39  59  87 120 155 199 248 307 366
#
# _framework density 26.763166999999999
#
# number of rings (size 3 to 8) (size 9 to 14) (size 15 to 20)
#    0.000    1.500    0.000    6.000    0.000    9.000 
#    0.000    5.000    0.000    0.000    0.000    0.000 
#    0.000    0.000    0.000    0.000    0.000    0.000 
#
# Total GULP energy -89509.684248 kJ/mol
# GULP energy per Si atom -5594.355266 kJ/mol
# Density = 2.670225 g / cm^3
# Si number density = 26.763167 Si / 1000 Ang^3
#
#
#
# Elastic Constant Matrix: (Units=GPa)
#
#
# Indices 1 2 3 4 5 6 
#
# 1 38.1105 9.9177 3.2516 0.0000 -0.1457 0.0000
# 2 9.9177 120.2235 6.7738 0.0000 11.1039 0.0000
# 3 3.2516 6.7738 102.8056 0.0000 10.5075 0.0000
# 4 0.0000 0.0000 0.0000 44.8907 0.0000 -11.3418
# 5 -0.1457 11.1039 10.5075 0.0000 29.0985 0.0000
# 6 0.0000 0.0000 0.0000 -11.3418 0.0000 44.1095
#
#
#
# Elastic Compliance Matrix: (Units=1/GPa)
#
#
# Indices 1 2 3 4 5 6 
#
# 1 0.026913 -0.002294 -0.000834 0.000000 0.001311 0.000000
# 2 -0.002294 0.008823 -0.000170 0.000000 -0.003317 0.000000
# 3 -0.000834 -0.000170 0.010132 0.000000 -0.003598 0.000000
# 4 0.000000 0.000000 0.000000 0.023824 0.000000 0.006126
# 5 0.001311 -0.003317 -0.003598 0.000000 0.036938 0.000000
# 6 0.000000 0.000000 0.000000 0.006126 0.000000 0.024246
#
#
# Mechanical properties :
#
#
# Convention : Reuss Voigt Hill
#
# Bulk Modulus (GPa) = 25.46345 33.44732 29.45538
# Shear Modulus (GPa) = 33.20876 39.69951 36.45414
#
# Velocity S-wave (km/s) = 3.52637 3.85562 3.69467
# Velocity P-wave (km/s) = 5.11033 5.68733 5.40653
#
# Compressibility (1/GPa) = 0.03927198
#
# Stress axis : x y z
#
# Youngs Moduli (GPa) = 37.15715 113.33977 98.69304
#
# Poissons Ratio (x) = 0.26003 0.08232
# Poissons Ratio (y) = 0.08525 0.01675
# Poissons Ratio (z) = 0.03099 0.01924
#
# Static dielectric constant tensor:
#      x y z
#    x 2.216350 0.000000 -0.059580 
#    y 0.000000 2.111710 0.000000 
#    z -0.059580 0.000000 2.035720 
# 
# From -- ./inp_files/1685.got.cif
#   From: 2010.05.17/outbox.cif.g08.bks.cpg/sg4_1_cif.got.tgz:1685.got - 2010.06.03 18:43:04.
