data_PCOD9115420
_publ_section_title
;
Structure prediction by ZEFSAII (Michael W. Deem and Ramdas Pophale) SiO2 
 PCOD9115420
Probable space group: P 21
;
_chemical_formula_sum "Si O2"
_cell_formula_units_Z 16
_cell_length_a 4.889905
_cell_length_b 14.470275
_cell_length_c 12.402361
_cell_angle_alpha 90.000000
_cell_angle_beta 63.925933
_cell_angle_gamma 90.000000
_cell_volume 788.256373
_symmetry_space_group_name_H-M "P 21"
_symmetry_group_IT_number 4
_symmetry_cell_setting 'monoclinic'
loop_
_space_group_symop_operation_xyz
x,y,z
-x,1/2+y,-z
loop_
_atom_site_type_symbol
_atom_site_label
_atom_site_fract_x
_atom_site_fract_y
_atom_site_fract_z
Si Si1 0.866000 0.125000 0.643369
Si Si2 0.729037 0.279843 0.832813
Si Si3 0.802625 0.045001 0.345836
Si Si4 0.777973 0.846603 0.938146
Si Si5 0.255566 0.403872 0.833355
Si Si6 0.265541 0.168695 0.378622
Si Si7 0.408596 0.001731 0.609812
Si Si8 0.461333 0.842563 0.775809
O O1 0.810083 0.187784 0.756128
O O2 0.553473 0.088816 0.647490
O O3 0.044369 0.180956 0.519198
O O4 0.077264 0.035365 0.629609
O O5 0.589368 0.356597 0.773774
O O6 0.017723 0.324371 0.840736
O O7 0.454956 0.273096 0.967268
O O8 0.588299 0.133954 0.366566
O O9 0.628606 0.986973 0.468870
O O10 0.118758 0.085126 0.334702
O O11 0.804237 0.987237 0.236355
O O12 0.619205 0.880866 0.856770
O O13 0.117112 0.810374 0.861239
O O14 0.795312 0.923131 0.030631
O O15 0.324361 0.259662 0.300469
O O16 0.418556 0.916592 0.688617
#
# Coordination Sequence:
#
# PCOD9115420 Si02
#       8
#     2   2   2   2   2   2   2   2
#     4  10  21  42  60  95 123 150 208 255 308 354
#     4  10  20  38  66  85 118 162 202 257 292 352
#     4  10  21  42  60  95 123 150 208 255 308 354
#     4  10  22  40  60  88 124 158 214 252 270 386
#     4  10  20  38  66  85 118 162 202 257 292 352
#     4  10  23  38  63  91 128 155 193 262 305 380
#     4  10  23  38  63  91 128 155 193 262 305 380
#     4  12  22  42  62  88 126 168 198 238 332 354
#
# _framework density 20.297965999999999
#
# number of rings (size 3 to 8) (size 9 to 14) (size 15 to 20)
#    0.750    1.000    1.250    3.000    1.750    0.000 
#    2.250    5.000    0.000    0.000    0.000    0.000 
#    0.000    0.000    0.000    0.000    0.000    0.000 
#
# Total GULP energy -89231.698136 kJ/mol
# GULP energy per Si atom -5576.981133 kJ/mol
# Density = 2.025177 g / cm^3
# Si number density = 20.297966 Si / 1000 Ang^3
#
#
#
# Elastic Constant Matrix: (Units=GPa)
#
#
# Indices 1 2 3 4 5 6 
#
# 1 81.2460 -5.9232 13.3330 0.0000 15.7666 0.0000
# 2 -5.9232 32.5467 42.7653 0.0000 2.4939 0.0000
# 3 13.3330 42.7653 109.7906 0.0000 16.9060 0.0000
# 4 0.0000 0.0000 0.0000 33.1034 0.0000 9.6483
# 5 15.7666 2.4939 16.9060 0.0000 29.4066 0.0000
# 6 0.0000 0.0000 0.0000 9.6483 0.0000 18.1691
#
#
#
# Elastic Compliance Matrix: (Units=1/GPa)
#
#
# Indices 1 2 3 4 5 6 
#
# 1 0.014864 0.008787 -0.004263 0.000000 -0.006264 0.000000
# 2 0.008787 0.070706 -0.029578 0.000000 0.006297 0.000000
# 3 -0.004263 -0.029578 0.022391 0.000000 -0.008079 0.000000
# 4 0.000000 0.000000 0.000000 0.035740 0.000000 -0.018979
# 5 -0.006264 0.006297 -0.008079 0.000000 0.041475 0.000000
# 6 0.000000 0.000000 0.000000 -0.018979 0.000000 0.065117
#
#
# Mechanical properties :
#
#
# Convention : Reuss Voigt Hill
#
# Bulk Modulus (GPa) = 17.28535 35.99259 26.63897
# Shear Modulus (GPa) = 15.64040 27.69637 21.66838
#
# Velocity S-wave (km/s) = 2.77887 3.69791 3.27083
# Velocity P-wave (km/s) = 4.33941 6.00028 5.23611
#
# Compressibility (1/GPa) = 0.05785245
#
# Stress axis : x y z
#
# Youngs Moduli (GPa) = 67.27634 14.14310 44.66083
#
# Poissons Ratio (x) = -0.12427 0.19040
# Poissons Ratio (y) = -0.59114 1.32097
# Poissons Ratio (z) = 0.28681 0.41832
#
# Static dielectric constant tensor:
#      x y z
#    x 1.709030 0.000000 0.000590 
#    y 0.000000 1.686980 0.000000 
#    z 0.000590 0.000000 1.744980 
# 
# From -- ./inp_files/10564.got.cif
#   From: 2010.05.17/outbox.cif.g08.bks.cpg/sg4_6_cif.got.tgz:10564.got - 2010.06.03 18:43:04.
