data_PCOD9115706
_publ_section_title
;
Structure prediction by ZEFSAII (Michael W. Deem and Ramdas Pophale) SiO2 
 PCOD9115706
Probable space group: P 21
;
_chemical_formula_sum "Si O2"
_cell_formula_units_Z 16
_cell_length_a 6.902325
_cell_length_b 22.426583
_cell_length_c 6.771181
_cell_angle_alpha 90.000000
_cell_angle_beta 42.368488
_cell_angle_gamma 90.000000
_cell_volume 706.343425
_symmetry_space_group_name_H-M "P 21"
_symmetry_group_IT_number 4
_symmetry_cell_setting 'monoclinic'
loop_
_space_group_symop_operation_xyz
x,y,z
-x,1/2+y,-z
loop_
_atom_site_type_symbol
_atom_site_label
_atom_site_fract_x
_atom_site_fract_y
_atom_site_fract_z
Si Si1 0.376678 0.498700 0.797767
Si Si2 0.355291 0.310440 0.816908
Si Si3 0.916217 0.570550 0.368728
Si Si4 0.195162 0.739494 0.731351
Si Si5 0.141986 0.159596 0.272392
Si Si6 0.211006 0.687988 0.124893
Si Si7 0.298459 0.407790 0.516973
Si Si8 0.665887 0.400275 0.857342
O O1 0.587346 0.553196 0.584780
O O2 0.280930 0.465856 0.670471
O O3 0.566735 0.453397 0.786591
O O4 0.115951 0.518670 0.134642
O O5 0.524773 0.253220 0.606944
O O6 0.345179 0.354952 0.638724
O O7 0.525365 0.341540 0.866460
O O8 0.036202 0.292282 0.120339
O O9 0.932499 0.594055 0.584378
O O10 0.041869 0.629677 0.172402
O O11 0.260771 0.733636 0.912971
O O12 0.032528 0.679916 0.784265
O O13 0.483139 0.167680 0.016640
O O14 0.007405 0.205636 0.537249
O O15 0.006644 0.397728 0.616789
O O16 0.547893 0.410832 0.166921
#
# Coordination Sequence:
#
# PCOD9115706 Si02
#       8
#     2   2   2   2   2   2   2   2
#     4  11  22  42  64  92 126 156 208 249 308 360
#     4  11  26  40  66  92 126 156 206 259 302 362
#     4  10  20  43  62  88 132 163 190 268 294 346
#     4  12  24  41  64  94 120 171 202 246 308 362
#     4  10  22  41  59  88 129 162 204 250 291 358
#     4  10  22  41  59  88 129 162 204 250 291 358
#     4  11  24  44  64  94 121 159 205 255 308 374
#     4  11  24  44  64  94 121 159 205 255 308 374
#
# _framework density 22.651872999999998
#
# number of rings (size 3 to 8) (size 9 to 14) (size 15 to 20)
#    0.750    0.500    1.250    4.500    0.000   10.000 
#    6.750    0.000    0.000    0.000    0.000    0.000 
#    0.000    0.000    0.000    0.000    0.000    0.000 
#
# Total GULP energy -89336.968115 kJ/mol
# GULP energy per Si atom -5583.560507 kJ/mol
# Density = 2.260032 g / cm^3
# Si number density = 22.651873 Si / 1000 Ang^3
#
#
#
# Elastic Constant Matrix: (Units=GPa)
#
#
# Indices 1 2 3 4 5 6 
#
# 1 48.5523 0.4182 4.4176 0.0000 6.9253 0.0000
# 2 0.4182 14.4786 5.5225 0.0000 7.7699 0.0000
# 3 4.4176 5.5225 83.2616 0.0000 -11.7644 0.0000
# 4 0.0000 0.0000 0.0000 38.6809 0.0000 -2.0210
# 5 6.9253 7.7699 -11.7644 0.0000 34.8675 0.0000
# 6 0.0000 0.0000 0.0000 -2.0210 0.0000 20.5523
#
#
#
# Elastic Compliance Matrix: (Units=1/GPa)
#
#
# Indices 1 2 3 4 5 6 
#
# 1 0.021587 0.003296 -0.002177 0.000000 -0.005757 0.000000
# 2 0.003296 0.084462 -0.008956 0.000000 -0.022498 0.000000
# 3 -0.002177 -0.008956 0.013717 0.000000 0.007056 0.000000
# 4 0.000000 0.000000 0.000000 0.025986 0.000000 0.002555
# 5 -0.005757 -0.022498 0.007056 0.000000 0.037218 0.000000
# 6 0.000000 0.000000 0.000000 0.002555 0.000000 0.048908
#
#
# Mechanical properties :
#
#
# Convention : Reuss Voigt Hill
#
# Bulk Modulus (GPa) = 9.60687 18.55658 14.08172
# Shear Modulus (GPa) = 17.71487 27.88242 22.79865
#
# Velocity S-wave (km/s) = 2.79955 3.51224 3.17595
# Velocity P-wave (km/s) = 3.83409 4.96564 4.43609
#
# Compressibility (1/GPa) = 0.10409217
#
# Stress axis : x y z
#
# Youngs Moduli (GPa) = 46.32379 11.83965 72.90273
#
# Poissons Ratio (x) = -0.03903 0.15874
# Poissons Ratio (y) = -0.15270 0.65291
# Poissons Ratio (z) = 0.10087 0.10603
#
# Static dielectric constant tensor:
#      x y z
#    x 1.823740 0.000000 0.037190 
#    y 0.000000 1.905600 0.000000 
#    z 0.037190 0.000000 1.793480 
# 
# From -- ./inp_files/721.got.cif
#   From: 2010.05.17/outbox.cif.g08.bks.cpg/sg4_1_cif.got.tgz:721.got - 2010.06.03 18:43:04.
