data_PCOD9115516
_publ_section_title
;
Structure prediction by ZEFSAII (Michael W. Deem and Ramdas Pophale) SiO2 
 PCOD9115516
Probable space group: P 21
;
_chemical_formula_sum "Si O2"
_cell_formula_units_Z 16
_cell_length_a 7.152907
_cell_length_b 4.973568
_cell_length_c 26.398338
_cell_angle_alpha 90.000000
_cell_angle_beta 39.491129
_cell_angle_gamma 90.000000
_cell_volume 597.250011
_symmetry_space_group_name_H-M "P 21"
_symmetry_group_IT_number 4
_symmetry_cell_setting 'monoclinic'
loop_
_space_group_symop_operation_xyz
x,y,z
-x,1/2+y,-z
loop_
_atom_site_type_symbol
_atom_site_label
_atom_site_fract_x
_atom_site_fract_y
_atom_site_fract_z
Si Si1 0.968268 0.036960 0.284974
Si Si2 0.284188 0.307475 0.132385
Si Si3 0.800242 0.006655 0.045737
Si Si4 0.668392 0.985135 0.486934
Si Si5 0.544243 0.899762 0.625078
Si Si6 0.450336 0.637872 0.192608
Si Si7 0.250725 0.109804 0.324638
Si Si8 0.767063 0.684751 0.222276
O O1 0.064878 0.096286 0.206301
O O2 0.635913 0.134264 0.355058
O O3 0.126010 0.761022 0.266615
O O4 0.129806 0.209032 0.295673
O O5 0.438982 0.441546 0.148104
O O6 0.096565 0.551181 0.147380
O O7 0.556675 0.124737 0.056645
O O8 0.643096 0.887212 0.128788
O O9 0.973462 0.745939 0.988978
O O10 0.443472 0.758835 0.515073
O O11 0.673625 0.013699 0.546656
O O12 0.989581 0.912763 0.398521
O O13 0.748928 0.815648 0.628642
O O14 0.321003 0.093350 0.702541
O O15 0.607018 0.529642 0.209457
O O16 0.565625 0.956981 0.256618
#
# Coordination Sequence:
#
# PCOD9115516 Si02
#       8
#     2   2   2   2   2   2   2   2
#     4   9  20  40  62 102 137 188 232 310 363 428
#     4  10  20  39  72 103 145 184 243 295 356 423
#     4  11  22  42  76 106 147 206 232 280 363 438
#     4  12  30  48  72  98 146 198 248 308 384 448
#     4  11  24  42  68  98 144 186 251 303 379 431
#     4  10  20  39  72 103 145 184 243 295 356 423
#     4  11  24  42  68  98 144 186 251 303 379 431
#     4  10  24  40  72 112 138 186 252 304 366 418
#
# _framework density 26.789455
#
# number of rings (size 3 to 8) (size 9 to 14) (size 15 to 20)
#    0.000    1.500    2.500    1.500    5.250    4.000 
#    0.000    0.000    5.500    0.000    0.000    0.000 
#    0.000    0.000    0.000    0.000    0.000    0.000 
#
# Total GULP energy -89187.014012 kJ/mol
# GULP energy per Si atom -5574.188376 kJ/mol
# Density = 2.672848 g / cm^3
# Si number density = 26.789455 Si / 1000 Ang^3
#
#
#
# Elastic Constant Matrix: (Units=GPa)
#
#
# Indices 1 2 3 4 5 6 
#
# 1 143.5576 3.8161 13.6716 0.0000 -5.0162 0.0000
# 2 3.8161 95.4398 7.8568 0.0000 -14.0121 0.0000
# 3 13.6716 7.8568 53.5744 0.0000 -15.5857 0.0000
# 4 0.0000 0.0000 0.0000 31.9627 0.0000 -4.4229
# 5 -5.0162 -14.0121 -15.5857 0.0000 27.6798 0.0000
# 6 0.0000 0.0000 0.0000 -4.4229 0.0000 31.2540
#
#
#
# Elastic Compliance Matrix: (Units=1/GPa)
#
#
# Indices 1 2 3 4 5 6 
#
# 1 0.007143 -0.000104 -0.001730 0.000000 0.000268 0.000000
# 2 -0.000104 0.011321 0.000034 0.000000 0.005731 0.000000
# 3 -0.001730 0.000034 0.022741 0.000000 0.012508 0.000000
# 4 0.000000 0.000000 0.000000 0.031911 0.000000 0.004516
# 5 0.000268 0.005731 0.012508 0.000000 0.046120 0.000000
# 6 0.000000 0.000000 0.000000 0.004516 0.000000 0.032635
#
#
# Mechanical properties :
#
#
# Convention : Reuss Voigt Hill
#
# Bulk Modulus (GPa) = 26.59267 38.14008 32.36637
# Shear Modulus (GPa) = 29.76099 35.99445 32.87772
#
# Velocity S-wave (km/s) = 3.33667 3.66950 3.50703
# Velocity P-wave (km/s) = 4.97921 5.67640 5.33920
#
# Compressibility (1/GPa) = 0.03760435
#
# Stress axis : x y z
#
# Youngs Moduli (GPa) = 140.00339 88.33473 43.97361
#
# Poissons Ratio (x) = 0.00918 0.07605
# Poissons Ratio (y) = 0.01454 -0.00147
# Poissons Ratio (z) = 0.24214 -0.00296
#
# Static dielectric constant tensor:
#      x y z
#    x 2.119490 0.000000 -0.055430 
#    y 0.000000 2.345080 0.000000 
#    z -0.055430 0.000000 2.203850 
# 
# From -- ./inp_files/16291.got.cif
#   From: 2010.05.17/outbox.cif.g08.bks.cpg/sg4_9_cif.got.tgz:16291.got - 2010.06.03 18:43:04.
