data_PCOD9115309
_publ_section_title
;
Structure prediction by ZEFSAII (Michael W. Deem and Ramdas Pophale) SiO2 
 PCOD9115309
Probable space group: P 21
;
_chemical_formula_sum "Si O2"
_cell_formula_units_Z 14
_cell_length_a 9.412352
_cell_length_b 9.908713
_cell_length_c 7.545495
_cell_angle_alpha 90.000000
_cell_angle_beta 49.071648
_cell_angle_gamma 90.000000
_cell_volume 531.685121
_symmetry_space_group_name_H-M "P 21"
_symmetry_group_IT_number 4
_symmetry_cell_setting 'monoclinic'
loop_
_space_group_symop_operation_xyz
x,y,z
-x,1/2+y,-z
loop_
_atom_site_type_symbol
_atom_site_label
_atom_site_fract_x
_atom_site_fract_y
_atom_site_fract_z
Si Si1 0.009356 0.648860 0.950343
Si Si2 0.637327 0.787853 0.854604
Si Si3 0.380150 0.579423 0.509195
Si Si4 0.421485 0.893487 0.370070
Si Si5 0.698665 0.531556 0.025999
Si Si6 0.963855 0.328104 0.403960
Si Si7 0.223956 0.738130 0.115875
O O1 0.160249 0.559520 0.719383
O O2 0.993950 0.779007 0.832861
O O3 0.103422 0.668421 0.062951
O O4 0.804000 0.586632 0.114328
O O5 0.839664 0.859410 0.658933
O O6 0.539224 0.870295 0.094955
O O7 0.713887 0.646098 0.869431
O O8 0.450729 0.732938 0.903962
O O9 0.412727 0.742728 0.469974
O O10 0.478643 0.500036 0.587956
O O11 0.480032 0.515697 0.254736
O O12 0.208244 0.930088 0.491002
O O13 0.801902 0.397437 0.891334
O O14 0.855437 0.218321 0.620849
#
# Coordination Sequence:
#
# PCOD9115309 Si02
#       7
#     2   2   2   2   2   2   2
#     4  10  23  41  63  92 126 164 212 263 317 382
#     4   9  21  41  61  87 127 167 208 262 320 380
#     4  10  20  37  61  90 126 163 206 262 316 368
#     4   9  19  36  60  91 126 166 212 263 317 381
#     4  10  22  40  62  92 129 164 210 267 319 381
#     4   9  20  42  63  88 129 165 204 266 323 374
#     4  11  23  41  66  94 123 167 218 259 318 386
#
# _framework density 26.331374
#
# number of rings (size 3 to 8) (size 9 to 14) (size 15 to 20)
#    0.000    2.286    0.000    2.571    0.000    9.143 
#    0.000    8.571    0.000    0.000    0.000    0.000 
#    0.000    0.000    0.000    0.000    0.000    0.000 
#
# Total GULP energy -78098.735741 kJ/mol
# GULP energy per Si atom -5578.481124 kJ/mol
# Density = 2.627144 g / cm^3
# Si number density = 26.331374 Si / 1000 Ang^3
#
#
#
# Elastic Constant Matrix: (Units=GPa)
#
#
# Indices 1 2 3 4 5 6 
#
# 1 164.7739 30.0356 15.7003 0.0000 -28.4110 0.0000
# 2 30.0356 40.6695 14.0607 0.0000 0.9207 0.0000
# 3 15.7003 14.0607 80.2838 0.0000 -18.3646 0.0000
# 4 0.0000 0.0000 0.0000 17.5192 0.0000 7.5661
# 5 -28.4110 0.9207 -18.3646 0.0000 62.0579 0.0000
# 6 0.0000 0.0000 0.0000 7.5661 0.0000 39.0125
#
#
#
# Elastic Compliance Matrix: (Units=1/GPa)
#
#
# Indices 1 2 3 4 5 6 
#
# 1 0.007765 -0.005952 0.000383 0.000000 0.003757 0.000000
# 2 -0.005952 0.030940 -0.005345 0.000000 -0.004766 0.000000
# 3 0.000383 -0.005345 0.014346 0.000000 0.004500 0.000000
# 4 0.000000 0.000000 0.000000 0.062298 0.000000 -0.012082
# 5 0.003757 -0.004766 0.004500 0.000000 0.019236 0.000000
# 6 0.000000 0.000000 0.000000 -0.012082 0.000000 0.027976
#
#
# Mechanical properties :
#
#
# Convention : Reuss Voigt Hill
#
# Bulk Modulus (GPa) = 32.02690 45.03561 38.53126
# Shear Modulus (GPa) = 25.66755 38.77994 32.22374
#
# Velocity S-wave (km/s) = 3.12555 3.84183 3.50205
# Velocity P-wave (km/s) = 5.02144 6.06795 5.56933
#
# Compressibility (1/GPa) = 0.03122375
#
# Stress axis : x y z
#
# Youngs Moduli (GPa) = 128.78019 32.32036 69.70404
#
# Poissons Ratio (x) = 0.19238 -0.02671
# Poissons Ratio (y) = 0.76655 0.37256
# Poissons Ratio (z) = -0.04936 0.17275
#
# Static dielectric constant tensor:
#      x y z
#    x 2.119040 0.000000 0.001420 
#    y 0.000000 2.122920 0.000000 
#    z 0.001420 0.000000 2.100060 
# 
# From -- ./inp_files/6373.got.cif
#   From: 2010.05.17/outbox.cif.g08.bks.cpg/sg4_4_cif.got.tgz:6373.got - 2010.06.03 18:43:04.
