data_PCOD9115352
_publ_section_title
;
Structure prediction by ZEFSAII (Michael W. Deem and Ramdas Pophale) SiO2 
 PCOD9115352
Probable space group: P 21
;
_chemical_formula_sum "Si O2"
_cell_formula_units_Z 12
_cell_length_a 8.153324
_cell_length_b 7.634509
_cell_length_c 8.314670
_cell_angle_alpha 90.000000
_cell_angle_beta 118.248860
_cell_angle_gamma 90.000000
_cell_volume 455.918816
_symmetry_space_group_name_H-M "P 21"
_symmetry_group_IT_number 4
_symmetry_cell_setting 'monoclinic'
loop_
_space_group_symop_operation_xyz
x,y,z
-x,1/2+y,-z
loop_
_atom_site_type_symbol
_atom_site_label
_atom_site_fract_x
_atom_site_fract_y
_atom_site_fract_z
Si Si1 0.766293 0.047830 0.649942
Si Si2 0.111531 0.009370 0.340239
Si Si3 0.106986 0.868410 0.690338
Si Si4 0.772780 0.882574 0.004535
Si Si5 0.567244 0.574850 0.057169
Si Si6 0.436599 0.238810 0.589145
O O1 0.648030 0.222903 0.624477
O O2 0.978149 0.027894 0.695895
O O3 0.655963 0.926611 0.472524
O O4 0.750682 0.949384 0.813647
O O5 0.988857 0.187214 0.310594
O O6 0.989084 0.905783 0.151680
O O7 0.111338 0.894633 0.501973
O O8 0.313746 0.101070 0.427567
O O9 0.308357 0.900257 0.859014
O O10 0.675986 0.693810 0.980164
O O11 0.642366 0.006890 0.055796
O O12 0.578218 0.674854 0.234278
#
# Coordination Sequence:
#
# PCOD9115352 Si02
#       6
#     2   2   2   2   2   2
#     4  10  22  37  57  84 111 142 185 234 277 319
#     4  10  20  38  58  81 112 148 188 226 271 337
#     4  10  21  38  59  82 111 151 188 222 274 336
#     4  11  22  37  58  85 113 143 186 236 277 321
#     4  10  22  39  58  81 112 152 186 222 278 338
#     4   9  21  39  56  79 111 148 185 220 275 339
#
# _framework density 26.320475999999999
#
# number of rings (size 3 to 8) (size 9 to 14) (size 15 to 20)
#    0.000    2.000    0.000    4.000    0.000   10.667 
#    0.000    3.333    0.000    0.000    0.000    0.000 
#    0.000    0.000    0.000    0.000    0.000    0.000 
#
# Total GULP energy -67146.799045 kJ/mol
# GULP energy per Si atom -5595.566587 kJ/mol
# Density = 2.626057 g / cm^3
# Si number density = 26.320476 Si / 1000 Ang^3
#
#
#
# Elastic Constant Matrix: (Units=GPa)
#
#
# Indices 1 2 3 4 5 6 
#
# 1 103.0604 -26.2564 21.6652 0.0000 21.0928 0.0000
# 2 -26.2564 46.5992 -3.0458 0.0000 -3.8625 0.0000
# 3 21.6652 -3.0458 58.6288 0.0000 10.9830 0.0000
# 4 0.0000 0.0000 0.0000 30.1978 0.0000 5.5154
# 5 21.0928 -3.8625 10.9830 0.0000 45.2715 0.0000
# 6 0.0000 0.0000 0.0000 5.5154 0.0000 41.7778
#
#
#
# Elastic Compliance Matrix: (Units=1/GPa)
#
#
# Indices 1 2 3 4 5 6 
#
# 1 0.013151 0.006785 -0.003633 0.000000 -0.004667 0.000000
# 2 0.006785 0.025151 -0.001059 0.000000 -0.000759 0.000000
# 3 -0.003633 -0.001059 0.018903 0.000000 -0.002984 0.000000
# 4 0.000000 0.000000 0.000000 0.033933 0.000000 -0.004480
# 5 -0.004667 -0.000759 -0.002984 0.000000 0.024922 0.000000
# 6 0.000000 0.000000 0.000000 -0.004480 0.000000 0.024528
#
#
# Mechanical properties :
#
#
# Convention : Reuss Voigt Hill
#
# Bulk Modulus (GPa) = 16.28874 21.44603 18.86739
# Shear Modulus (GPa) = 31.87485 37.84446 34.85965
#
# Velocity S-wave (km/s) = 3.48376 3.79599 3.64322
# Velocity P-wave (km/s) = 4.73119 5.23244 4.98812
#
# Compressibility (1/GPa) = 0.06139211
#
# Stress axis : x y z
#
# Youngs Moduli (GPa) = 76.04234 39.76017 52.90218
#
# Poissons Ratio (x) = -0.26979 0.19218
# Poissons Ratio (y) = -0.51598 0.05601
# Poissons Ratio (z) = 0.27625 0.04209
#
# Static dielectric constant tensor:
#      x y z
#    x 2.029300 0.000000 0.036930 
#    y 0.000000 2.146710 0.000000 
#    z 0.036930 0.000000 1.978980 
# 
# From -- ./inp_files/5200.got.cif
#   From: 2010.05.17/outbox.cif.g08.bks.cpg/sg4_3_cif.got.tgz:5200.got - 2010.06.03 18:43:04.
