data_PCOD9115949
_publ_section_title
;
Structure prediction by ZEFSAII (Michael W. Deem and Ramdas Pophale) SiO2 
 PCOD9115949
Probable space group: P 21
;
_chemical_formula_sum "Si O2"
_cell_formula_units_Z 14
_cell_length_a 8.359217
_cell_length_b 9.628986
_cell_length_c 12.726071
_cell_angle_alpha 90.000000
_cell_angle_beta 34.232428
_cell_angle_gamma 90.000000
_cell_volume 576.239072
_symmetry_space_group_name_H-M "P 21"
_symmetry_group_IT_number 4
_symmetry_cell_setting 'monoclinic'
loop_
_space_group_symop_operation_xyz
x,y,z
-x,1/2+y,-z
loop_
_atom_site_type_symbol
_atom_site_label
_atom_site_fract_x
_atom_site_fract_y
_atom_site_fract_z
Si Si1 0.531218 0.696280 0.674672
Si Si2 0.848311 0.075869 0.283020
Si Si3 0.395739 0.245627 0.051881
Si Si4 0.628256 0.007389 0.055759
Si Si5 0.877667 0.446367 0.059499
Si Si6 0.310664 0.606385 0.395333
Si Si7 0.955108 0.858295 0.559072
O O1 0.815156 0.782843 0.533949
O O2 0.428662 0.647471 0.617607
O O3 0.277275 0.799007 0.850416
O O4 0.530543 0.570227 0.757324
O O5 0.129023 0.171751 0.140518
O O6 0.765606 0.049217 0.447493
O O7 0.941902 0.962081 0.145651
O O8 0.510429 0.369856 0.918188
O O9 0.253878 0.317773 0.230793
O O10 0.608595 0.127890 0.978521
O O11 0.932180 0.969391 0.939969
O O12 0.630068 0.562653 0.195424
O O13 0.107064 0.519020 0.427808
O O14 0.237956 0.770037 0.430610
#
# Coordination Sequence:
#
# PCOD9115949 Si02
#       7
#     2   2   2   2   2   2   2
#     4   9  19  41  66  90 137 162 211 280 315 379
#     4  10  21  41  66  94 128 169 217 262 329 386
#     4  10  21  39  66  93 135 171 214 273 322 390
#     4  10  21  38  65  95 130 175 212 266 332 378
#     4  10  21  43  67  97 124 174 217 270 319 391
#     4  10  22  45  65  91 135 168 212 273 322 381
#     4   9  21  43  61  92 129 173 209 270 323 377
#
# _framework density 24.295473000000001
#
# number of rings (size 3 to 8) (size 9 to 14) (size 15 to 20)
#    0.000    2.286    1.429    0.000    6.000    0.000 
#   12.857    4.286    0.000    0.000    0.000    0.000 
#    0.000    0.000    0.000    0.000    0.000    0.000 
#
# Total GULP energy -78186.951898 kJ/mol
# GULP energy per Si atom -5584.782278 kJ/mol
# Density = 2.424018 g / cm^3
# Si number density = 24.295473 Si / 1000 Ang^3
#
#
#
# Elastic Constant Matrix: (Units=GPa)
#
#
# Indices 1 2 3 4 5 6 
#
# 1 111.8493 38.4368 22.8006 0.0000 6.8622 0.0000
# 2 38.4368 45.3529 11.0815 0.0000 23.6139 0.0000
# 3 22.8006 11.0815 75.6171 0.0000 17.3924 0.0000
# 4 0.0000 0.0000 0.0000 28.6926 0.0000 7.8326
# 5 6.8622 23.6139 17.3924 0.0000 36.6559 0.0000
# 6 0.0000 0.0000 0.0000 7.8326 0.0000 43.7801
#
#
#
# Elastic Compliance Matrix: (Units=1/GPa)
#
#
# Indices 1 2 3 4 5 6 
#
# 1 0.015055 -0.017008 -0.004399 0.000000 0.010226 0.000000
# 2 -0.017008 0.052393 0.005030 0.000000 -0.032955 0.000000
# 3 -0.004399 0.005030 0.016130 0.000000 -0.010070 0.000000
# 4 0.000000 0.000000 0.000000 0.036642 0.000000 -0.006555
# 5 0.010226 -0.032955 -0.010070 0.000000 0.051374 0.000000
# 6 0.000000 0.000000 0.000000 -0.006555 0.000000 0.024014
#
#
# Mechanical properties :
#
#
# Convention : Reuss Voigt Hill
#
# Bulk Modulus (GPa) = 19.67578 41.93967 30.80773
# Shear Modulus (GPa) = 20.38288 32.52577 26.45432
#
# Velocity S-wave (km/s) = 2.89962 3.66287 3.30336
# Velocity P-wave (km/s) = 4.39619 5.93200 5.22088
#
# Compressibility (1/GPa) = 0.05082390
#
# Stress axis : x y z
#
# Youngs Moduli (GPa) = 66.42370 19.08635 61.99649
#
# Poissons Ratio (x) = 0.32463 0.27271
# Poissons Ratio (y) = 1.12977 -0.31185
# Poissons Ratio (z) = 0.29219 -0.09601
#
# Static dielectric constant tensor:
#      x y z
#    x 1.948190 0.000000 -0.007590 
#    y 0.000000 1.955480 0.000000 
#    z -0.007590 0.000000 1.957570 
# 
# From -- ./inp_files/5713.got.cif
#   From: 2010.05.17/outbox.cif.g08.bks.cpg/sg4_3_cif.got.tgz:5713.got - 2010.06.03 18:43:04.
