data_PCOD9115424
_publ_section_title
;
Structure prediction by ZEFSAII (Michael W. Deem and Ramdas Pophale) SiO2 
 PCOD9115424
Probable space group: P 21
;
_chemical_formula_sum "Si O2"
_cell_formula_units_Z 14
_cell_length_a 8.778782
_cell_length_b 8.013256
_cell_length_c 11.514389
_cell_angle_alpha 90.000000
_cell_angle_beta 140.785744
_cell_angle_gamma 90.000000
_cell_volume 512.098911
_symmetry_space_group_name_H-M "P 21"
_symmetry_group_IT_number 4
_symmetry_cell_setting 'monoclinic'
loop_
_space_group_symop_operation_xyz
x,y,z
-x,1/2+y,-z
loop_
_atom_site_type_symbol
_atom_site_label
_atom_site_fract_x
_atom_site_fract_y
_atom_site_fract_z
Si Si1 0.721884 0.793250 0.881819
Si Si2 0.359832 0.840828 0.472614
Si Si3 0.694833 0.116519 0.233618
Si Si4 0.057665 0.536051 0.406813
Si Si5 0.369266 0.200636 0.574318
Si Si6 0.776915 0.469853 0.023952
Si Si7 0.745225 0.122773 0.989208
O O1 0.613853 0.824162 0.692110
O O2 0.471857 0.764589 0.812609
O O3 0.853963 0.947468 0.017406
O O4 0.852488 0.620975 0.987042
O O5 0.199857 0.691422 0.431756
O O6 0.419811 0.790249 0.377284
O O7 0.286619 0.032554 0.455521
O O8 0.931266 0.085083 0.450997
O O9 0.719134 0.128399 0.112082
O O10 0.512896 0.963544 0.153729
O O11 0.180646 0.353033 0.471657
O O12 0.832424 0.516410 0.189553
O O13 0.499867 0.134571 0.768020
O O14 0.881016 0.295595 0.045370
#
# Coordination Sequence:
#
# PCOD9115424 Si02
#       7
#     2   2   2   2   2   2   2
#     4   8  20  35  60  83 119 156 202 245 304 359
#     4  10  20  38  66  91 119 165 207 251 312 363
#     4   9  20  41  61  84 127 156 198 255 301 362
#     4  11  22  42  62  94 122 160 206 262 303 364
#     4  11  21  37  71  87 122 169 205 248 316 363
#     4  10  22  38  64  91 123 155 205 257 307 362
#     4  11  19  39  64  88 120 167 201 244 315 365
#
# _framework density 27.338467999999999
#
# number of rings (size 3 to 8) (size 9 to 14) (size 15 to 20)
#    0.857    1.143    2.857    0.857    0.000    1.143 
#    5.143    1.429    0.000    0.000    0.000    0.000 
#    0.000    0.000    0.000    0.000    0.000    0.000 
#
# Total GULP energy -78281.834869 kJ/mol
# GULP energy per Si atom -5591.559633 kJ/mol
# Density = 2.727624 g / cm^3
# Si number density = 27.338468 Si / 1000 Ang^3
#
#
#
# Elastic Constant Matrix: (Units=GPa)
#
#
# Indices 1 2 3 4 5 6 
#
# 1 50.3420 32.6427 19.7515 0.0000 -16.7905 0.0000
# 2 32.6427 233.0380 9.8954 0.0000 -7.8171 0.0000
# 3 19.7515 9.8954 128.8885 0.0000 -17.8342 0.0000
# 4 0.0000 0.0000 0.0000 41.4458 0.0000 -2.0272
# 5 -16.7905 -7.8171 -17.8342 0.0000 44.2089 0.0000
# 6 0.0000 0.0000 0.0000 -2.0272 0.0000 31.5800
#
#
#
# Elastic Compliance Matrix: (Units=1/GPa)
#
#
# Indices 1 2 3 4 5 6 
#
# 1 0.025670 -0.003214 -0.002560 0.000000 0.008149 0.000000
# 2 -0.003214 0.004726 0.000081 0.000000 -0.000352 0.000000
# 3 -0.002560 0.000081 0.008486 0.000000 0.002465 0.000000
# 4 0.000000 0.000000 0.000000 0.024204 0.000000 0.001554
# 5 0.008149 -0.000352 0.002465 0.000000 0.026647 0.000000
# 6 0.000000 0.000000 0.000000 0.001554 0.000000 0.031765
#
#
# Mechanical properties :
#
#
# Convention : Reuss Voigt Hill
#
# Bulk Modulus (GPa) = 36.36739 59.64975 48.00857
# Shear Modulus (GPa) = 35.19926 46.77888 40.98907
#
# Velocity S-wave (km/s) = 3.59212 4.14103 3.87630
# Velocity P-wave (km/s) = 5.52593 6.68809 6.13459
#
# Compressibility (1/GPa) = 0.02749716
#
# Stress axis : x y z
#
# Youngs Moduli (GPa) = 38.95603 211.59315 117.84378
#
# Poissons Ratio (x) = 0.67999 0.30163
# Poissons Ratio (y) = 0.12519 -0.00953
# Poissons Ratio (z) = 0.09971 -0.01712
#
# Static dielectric constant tensor:
#      x y z
#    x 2.194640 0.000000 0.021910 
#    y 0.000000 2.132680 0.000000 
#    z 0.021910 0.000000 2.069100 
# 
# From -- ./inp_files/12133.got.cif
#   From: 2010.05.17/outbox.cif.g08.bks.cpg/sg4_7_cif.got.tgz:12133.got - 2010.06.03 18:43:04.
