data_PCOD9115090
_publ_section_title
;
Structure prediction by ZEFSAII (Michael W. Deem and Ramdas Pophale) SiO2 
 PCOD9115090
Probable space group: P 21
;
_chemical_formula_sum "Si O2"
_cell_formula_units_Z 14
_cell_length_a 12.319068
_cell_length_b 5.499964
_cell_length_c 7.918220
_cell_angle_alpha 90.000000
_cell_angle_beta 112.730111
_cell_angle_gamma 90.000000
_cell_volume 494.827725
_symmetry_space_group_name_H-M "P 21"
_symmetry_group_IT_number 4
_symmetry_cell_setting 'monoclinic'
loop_
_space_group_symop_operation_xyz
x,y,z
-x,1/2+y,-z
loop_
_atom_site_type_symbol
_atom_site_label
_atom_site_fract_x
_atom_site_fract_y
_atom_site_fract_z
Si Si1 0.565688 0.892370 0.281927
Si Si2 0.744178 0.881642 0.801742
Si Si3 0.377846 0.874976 0.389623
Si Si4 0.037933 0.898985 0.262657
Si Si5 0.257218 0.995172 0.639636
Si Si6 0.651426 0.164021 0.032452
Si Si7 0.017515 0.891973 0.859509
O O1 0.516224 0.932964 0.438643
O O2 0.694920 0.772218 0.342910
O O3 0.568025 0.078061 0.132031
O O4 0.444247 0.750404 0.161251
O O5 0.685438 0.622295 0.722348
O O6 0.699892 0.136223 0.695904
O O7 0.878157 0.872237 0.819423
O O8 0.721886 0.946557 0.985135
O O9 0.360259 0.886859 0.581439
O O10 0.139685 0.934035 0.463458
O O11 0.959876 0.142552 0.224857
O O12 0.970791 0.641430 0.237047
O O13 0.073025 0.891644 0.081085
O O14 0.270960 0.875225 0.832567
#
# Coordination Sequence:
#
# PCOD9115090 Si02
#       7
#     2   2   2   2   2   2   2
#     4  11  25  42  61  86 133 180 215 267 330 399
#     4  11  22  44  68  94 131 175 216 269 343 408
#     4  11  26  40  68  97 126 170 231 275 322 390
#     4  10  22  38  69  99 127 163 220 284 333 396
#     4  12  25  41  64 100 128 172 230 281 322 395
#     4  11  25  41  63  88 136 179 219 265 339 404
#     4  10  19  42  67  98 129 165 213 279 351 392
#
# _framework density 28.292674999999999
#
# number of rings (size 3 to 8) (size 9 to 14) (size 15 to 20)
#    0.000    1.143    4.286    0.857   10.000    0.000 
#    0.000    0.000    3.143    0.000    0.000    0.000 
#    0.000    0.000    0.000    0.000    0.000    0.000 
#
# Total GULP energy -78154.474464 kJ/mol
# GULP energy per Si atom -5582.462462 kJ/mol
# Density = 2.822828 g / cm^3
# Si number density = 28.292675 Si / 1000 Ang^3
#
#
#
# Elastic Constant Matrix: (Units=GPa)
#
#
# Indices 1 2 3 4 5 6 
#
# 1 67.7681 94.5808 85.4203 0.0000 -11.7219 0.0000
# 2 94.5808 -337.9849 -512.3370 0.0000 295.1157 0.0000
# 3 85.4203 -512.3370 -473.4691 0.0000 321.0453 0.0000
# 4 0.0000 0.0000 0.0000 51.9524 0.0000 9.4493
# 5 -11.7219 295.1157 321.0453 0.0000 -91.9239 0.0000
# 6 0.0000 0.0000 0.0000 9.4493 0.0000 43.8118
#
#
#
# Elastic Compliance Matrix: (Units=1/GPa)
#
#
# Indices 1 2 3 4 5 6 
#
# 1 0.015658 -0.001718 0.000299 0.000000 -0.006466 0.000000
# 2 -0.001718 0.005325 -0.004143 0.000000 0.002845 0.000000
# 3 0.000299 -0.004143 0.004839 0.000000 0.003559 0.000000
# 4 0.000000 0.000000 0.000000 0.020034 0.000000 -0.004321
# 5 -0.006466 0.002845 0.003559 0.000000 0.011509 0.000000
# 6 0.000000 0.000000 0.000000 -0.004321 0.000000 0.023757
#
#
# Mechanical properties :
#
#
# Convention : Reuss Voigt Hill
#
# Bulk Modulus (GPa) = 68.03478 -156.48419 -44.22470
# Shear Modulus (GPa) = 51.46978 -26.65529 12.40725
#
# Velocity S-wave (km/s) = 4.26982 -3.07274 2.09639
# Velocity P-wave (km/s) = 6.95755 8.24731 3.13134
#
# Compressibility (1/GPa) = 0.01469836
#
# Stress axis : x y z
#
# Youngs Moduli (GPa) = 63.86599 187.78708 206.67041
#
# Poissons Ratio (x) = 0.32253 -0.06184
# Poissons Ratio (y) = 0.10969 0.85629
# Poissons Ratio (z) = -0.01911 0.77805
#
# Static dielectric constant tensor:
#      x y z
#    x 2.302380 0.000000 -0.154470 
#    y 0.000000 3.129230 0.000000 
#    z -0.154470 0.000000 2.379380 
# 
# From -- ./inp_files/8822.got.cif
#   From: 2010.05.17/outbox.cif.g08.bks.cpg/sg4_5_cif.got.tgz:8822.got - 2010.06.03 18:43:04.
