data_PCOD9115843
_publ_section_title
;
Structure prediction by ZEFSAII (Michael W. Deem and Ramdas Pophale) SiO2 
 PCOD9115843
Probable space group: P 21
;
_chemical_formula_sum "Si O2"
_cell_formula_units_Z 14
_cell_length_a 9.199737
_cell_length_b 7.722326
_cell_length_c 17.949413
_cell_angle_alpha 90.000000
_cell_angle_beta 22.865190
_cell_angle_gamma 90.000000
_cell_volume 495.491939
_symmetry_space_group_name_H-M "P 21"
_symmetry_group_IT_number 4
_symmetry_cell_setting 'monoclinic'
loop_
_space_group_symop_operation_xyz
x,y,z
-x,1/2+y,-z
loop_
_atom_site_type_symbol
_atom_site_label
_atom_site_fract_x
_atom_site_fract_y
_atom_site_fract_z
Si Si1 0.719351 0.091090 0.622992
Si Si2 0.708225 0.101567 0.993197
Si Si3 0.330477 0.440843 0.132448
Si Si4 0.591809 0.138925 0.368972
Si Si5 0.430570 0.707820 0.781759
Si Si6 0.266759 0.773922 0.238287
Si Si7 0.657846 0.268164 0.502653
O O1 0.618704 0.237601 0.730697
O O2 0.589149 0.136372 0.601176
O O3 0.174982 0.100812 0.406748
O O4 0.548108 0.909037 0.727751
O O5 0.620633 0.285091 0.996053
O O6 0.795741 0.146325 0.038049
O O7 0.361049 0.965873 0.166921
O O8 0.896683 0.992710 0.836225
O O9 0.476629 0.623522 0.092649
O O10 0.050874 0.366378 0.326798
O O11 0.759211 0.186868 0.209404
O O12 0.702116 0.192531 0.399875
O O13 0.171311 0.224933 0.562602
O O14 0.611548 0.930943 0.363208
#
# Coordination Sequence:
#
# PCOD9115843 Si02
#       7
#     2   2   2   2   2   2   2
#     4  11  19  34  59  92 123 150 197 259 309 353
#     4  12  21  38  61  86 124 162 205 249 289 354
#     4  11  23  37  60  90 122 161 205 243 296 357
#     4  10  22  36  57  89 122 156 191 253 316 361
#     4  11  20  34  59  90 119 158 199 251 305 354
#     4  10  21  37  59  92 122 152 200 253 306 355
#     4  11  22  38  57  91 124 155 199 248 311 366
#
# _framework density 28.254746999999998
#
# number of rings (size 3 to 8) (size 9 to 14) (size 15 to 20)
#    0.000    1.143    4.286    5.143    2.000    0.000 
#    0.000    0.000    0.000   10.286    0.000    0.000 
#    0.000    0.000    0.000    0.000    0.000    0.000 
#
# Total GULP energy -78278.345810 kJ/mol
# GULP energy per Si atom -5591.310415 kJ/mol
# Density = 2.819044 g / cm^3
# Si number density = 28.254747 Si / 1000 Ang^3
#
#
#
# Elastic Constant Matrix: (Units=GPa)
#
#
# Indices 1 2 3 4 5 6 
#
# 1 240.3722 75.1284 32.8490 0.0000 52.7270 0.0000
# 2 75.1284 154.3038 40.7883 0.0000 12.5667 0.0000
# 3 32.8490 40.7883 85.7483 0.0000 15.5578 0.0000
# 4 0.0000 0.0000 0.0000 33.4870 0.0000 23.6953
# 5 52.7270 12.5667 15.5578 0.0000 49.0539 0.0000
# 6 0.0000 0.0000 0.0000 23.6953 0.0000 42.7577
#
#
#
# Elastic Compliance Matrix: (Units=1/GPa)
#
#
# Indices 1 2 3 4 5 6 
#
# 1 0.006307 -0.002549 -0.000098 0.000000 -0.006096 0.000000
# 2 -0.002549 0.008474 -0.003351 0.000000 0.001631 0.000000
# 3 -0.000098 -0.003351 0.013920 0.000000 -0.003451 0.000000
# 4 0.000000 0.000000 0.000000 0.049126 0.000000 -0.027225
# 5 -0.006096 0.001631 -0.003451 0.000000 0.027614 0.000000
# 6 0.000000 0.000000 0.000000 -0.027225 0.000000 0.038475
#
#
# Mechanical properties :
#
#
# Convention : Reuss Voigt Hill
#
# Bulk Modulus (GPa) = 59.85603 86.43951 73.14777
# Shear Modulus (GPa) = 30.96354 47.17028 39.06691
#
# Velocity S-wave (km/s) = 3.31398 4.09034 3.72246
# Velocity P-wave (km/s) = 5.98947 7.27785 6.66487
#
# Compressibility (1/GPa) = 0.01670675
#
# Stress axis : x y z
#
# Youngs Moduli (GPa) = 158.54722 118.00137 71.84134
#
# Poissons Ratio (x) = 0.30074 0.00704
# Poissons Ratio (y) = 0.40407 0.24072
# Poissons Ratio (z) = 0.01553 0.39539
#
# Static dielectric constant tensor:
#      x y z
#    x 2.261540 0.000000 -0.056600 
#    y 0.000000 2.253540 0.000000 
#    z -0.056600 0.000000 2.326860 
# 
# From -- ./inp_files/9129.got.cif
#   From: 2010.05.17/outbox.cif.g08.bks.cpg/sg4_5_cif.got.tgz:9129.got - 2010.06.03 18:43:04.
