data_PCOD9115643
_publ_section_title
;
Structure prediction by ZEFSAII (Michael W. Deem and Ramdas Pophale) SiO2 
 PCOD9115643
Probable space group: P 21
;
_chemical_formula_sum "Si O2"
_cell_formula_units_Z 16
_cell_length_a 7.832554
_cell_length_b 8.576468
_cell_length_c 9.875590
_cell_angle_alpha 90.000000
_cell_angle_beta 82.451666
_cell_angle_gamma 90.000000
_cell_volume 657.650412
_symmetry_space_group_name_H-M "P 21"
_symmetry_group_IT_number 4
_symmetry_cell_setting 'monoclinic'
loop_
_space_group_symop_operation_xyz
x,y,z
-x,1/2+y,-z
loop_
_atom_site_type_symbol
_atom_site_label
_atom_site_fract_x
_atom_site_fract_y
_atom_site_fract_z
Si Si1 0.954396 0.665820 0.430609
Si Si2 0.781276 0.135754 0.108556
Si Si3 0.741356 0.860994 0.942661
Si Si4 0.988939 0.338446 0.302714
Si Si5 0.618897 0.611592 0.777717
Si Si6 0.351750 0.662111 0.361700
Si Si7 0.372949 0.321045 0.490017
Si Si8 0.383030 0.802364 0.107557
O O1 0.911159 0.489059 0.388479
O O2 0.797566 0.779218 0.404178
O O3 0.973162 0.708579 0.587738
O O4 0.149443 0.694612 0.364237
O O5 0.883003 0.241962 0.202677
O O6 0.585937 0.121994 0.180036
O O7 0.830472 0.960122 0.053958
O O8 0.762547 0.234959 0.972707
O O9 0.537783 0.875865 0.001877
O O10 0.724205 0.680935 0.896316
O O11 0.847438 0.909707 0.797096
O O12 0.637217 0.704835 0.637141
O O13 0.669978 0.433615 0.780440
O O14 0.367638 0.495660 0.435328
O O15 0.456483 0.780638 0.445893
O O16 0.441132 0.665159 0.203922
#
# Coordination Sequence:
#
# PCOD9115643 Si02
#       8
#     2   2   2   2   2   2   2   2
#     4  12  27  50  74 111 160 202 258 346 386 473
#     4  10  23  43  72 102 145 200 248 315 390 470
#     4  10  22  48  68 105 151 194 251 316 381 470
#     4  12  26  49  72 108 154 201 264 318 401 469
#     4  10  20  41  70 101 148 191 256 316 381 465
#     4  12  27  47  76 119 156 208 268 326 404 477
#     4  12  26  46  77 111 158 211 265 328 405 472
#     4  10  23  44  75 107 150 201 250 323 388 466
#
# _framework density 24.329032999999999
#
# number of rings (size 3 to 8) (size 9 to 14) (size 15 to 20)
#    0.000    1.000    2.500    3.000    5.250    3.000 
#    4.500    0.000    0.000    0.000    0.000    0.000 
#    0.000    0.000    0.000    0.000    0.000    0.000 
#
# Total GULP energy -89069.028965 kJ/mol
# GULP energy per Si atom -5566.814310 kJ/mol
# Density = 2.427366 g / cm^3
# Si number density = 24.329033 Si / 1000 Ang^3
#
#
#
# Elastic Constant Matrix: (Units=GPa)
#
#
# Indices 1 2 3 4 5 6 
#
# 1 82.5857 54.1009 30.9866 0.0000 0.1013 0.0000
# 2 54.1009 106.3428 62.6568 0.0000 2.5137 0.0000
# 3 30.9866 62.6568 110.0059 0.0000 1.5623 0.0000
# 4 0.0000 0.0000 0.0000 56.4909 0.0000 6.2796
# 5 0.1013 2.5137 1.5623 0.0000 34.5482 0.0000
# 6 0.0000 0.0000 0.0000 6.2796 0.0000 14.4142
#
#
#
# Elastic Compliance Matrix: (Units=1/GPa)
#
#
# Indices 1 2 3 4 5 6 
#
# 1 0.018178 -0.009393 0.000221 0.000000 0.000620 0.000000
# 2 -0.009393 0.019022 -0.008175 0.000000 -0.000987 0.000000
# 3 0.000221 -0.008175 0.013685 0.000000 -0.000025 0.000000
# 4 0.000000 0.000000 0.000000 0.018603 0.000000 -0.008104
# 5 0.000620 -0.000987 -0.000025 0.000000 0.029016 0.000000
# 6 0.000000 0.000000 0.000000 -0.008104 0.000000 0.072907
#
#
# Mechanical properties :
#
#
# Convention : Reuss Voigt Hill
#
# Bulk Modulus (GPa) = 61.76159 66.04700 63.90429
# Shear Modulus (GPa) = 23.64059 31.16999 27.40529
#
# Velocity S-wave (km/s) = 3.12060 3.58325 3.35989
# Velocity P-wave (km/s) = 6.19881 6.65777 6.43238
#
# Compressibility (1/GPa) = 0.01619129
#
# Stress axis : x y z
#
# Youngs Moduli (GPa) = 55.01139 52.57163 73.07420
#
# Poissons Ratio (x) = 0.49378 -0.01611
# Poissons Ratio (y) = 0.51669 0.59735
# Poissons Ratio (z) = -0.01213 0.42975
#
# Static dielectric constant tensor:
#      x y z
#    x 2.027790 0.000000 -0.053680 
#    y 0.000000 2.009970 0.000000 
#    z -0.053680 0.000000 2.004940 
# 
# From -- ./inp_files/5821.got.cif
#   From: 2010.05.17/outbox.cif.g08.bks.cpg/sg4_3_cif.got.tgz:5821.got - 2010.06.03 18:43:04.
