data_PCOD9115654
_publ_section_title
;
Structure prediction by ZEFSAII (Michael W. Deem and Ramdas Pophale) SiO2 
 PCOD9115654
Probable space group: P 21
;
_chemical_formula_sum "Si O2"
_cell_formula_units_Z 16
_cell_length_a 12.537461
_cell_length_b 11.647509
_cell_length_c 6.139976
_cell_angle_alpha 90.000000
_cell_angle_beta 127.339516
_cell_angle_gamma 90.000000
_cell_volume 712.864008
_symmetry_space_group_name_H-M "P 21"
_symmetry_group_IT_number 4
_symmetry_cell_setting 'monoclinic'
loop_
_space_group_symop_operation_xyz
x,y,z
-x,1/2+y,-z
loop_
_atom_site_type_symbol
_atom_site_label
_atom_site_fract_x
_atom_site_fract_y
_atom_site_fract_z
Si Si1 0.370384 0.494670 0.911993
Si Si2 0.259809 0.268516 0.650895
Si Si3 0.629349 0.176478 0.474197
Si Si4 0.977159 0.921847 0.830389
Si Si5 0.888405 0.568859 0.381539
Si Si6 0.769268 0.402357 0.600055
Si Si7 0.400461 0.100729 0.495421
Si Si8 0.151389 0.577954 0.959987
O O1 0.372240 0.360675 0.855773
O O2 0.356934 0.575072 0.684131
O O3 0.492869 0.543945 0.203679
O O4 0.236761 0.507587 0.890382
O O5 0.212324 0.175649 0.771843
O O6 0.314855 0.195019 0.517076
O O7 0.129742 0.339800 0.415038
O O8 0.669742 0.298451 0.423508
O O9 0.485707 0.157951 0.408960
O O10 0.739555 0.162892 0.802851
O O11 0.049555 0.004988 0.747215
O O12 0.094079 0.861215 0.114861
O O13 0.897593 0.998805 0.904470
O O14 0.814609 0.475417 0.444935
O O15 0.016661 0.618548 0.674492
O O16 0.695405 0.492462 0.670654
#
# Coordination Sequence:
#
# PCOD9115654 Si02
#       8
#     2   2   2   2   2   2   2   2
#     4  11  24  44  67  97 133 182 224 273 341 400
#     4  11  23  46  68  98 137 179 221 282 339 400
#     4  11  23  42  70  91 134 185 219 281 334 401
#     4  11  22  44  71  96 138 177 218 287 340 402
#     4  10  22  41  66 104 135 171 223 281 345 405
#     4  10  25  43  63 103 134 169 231 285 335 407
#     4  10  27  44  64 102 133 173 236 273 336 412
#     4  10  20  42  61 103 132 166 232 264 334 411
#
# _framework density 22.444673000000002
#
# number of rings (size 3 to 8) (size 9 to 14) (size 15 to 20)
#    0.000    1.500    2.500    0.750    3.500    6.000 
#    6.750    0.000    0.000    0.000    0.000    0.000 
#    0.000    0.000    0.000    0.000    0.000    0.000 
#
# Total GULP energy -89415.985610 kJ/mol
# GULP energy per Si atom -5588.499101 kJ/mol
# Density = 2.239359 g / cm^3
# Si number density = 22.444673 Si / 1000 Ang^3
#
#
#
# Elastic Constant Matrix: (Units=GPa)
#
#
# Indices 1 2 3 4 5 6 
#
# 1 140.0668 47.3425 16.9489 0.0000 -9.2978 0.0000
# 2 47.3425 81.9978 27.4099 0.0000 4.9738 0.0000
# 3 16.9489 27.4099 65.2871 0.0000 19.4335 0.0000
# 4 0.0000 0.0000 0.0000 9.7338 0.0000 8.9903
# 5 -9.2978 4.9738 19.4335 0.0000 37.4961 0.0000
# 6 0.0000 0.0000 0.0000 8.9903 0.0000 30.3256
#
#
#
# Elastic Compliance Matrix: (Units=1/GPa)
#
#
# Indices 1 2 3 4 5 6 
#
# 1 0.009282 -0.005130 -0.001352 0.000000 0.003683 0.000000
# 2 -0.005130 0.017087 -0.005662 0.000000 -0.000604 0.000000
# 3 -0.001352 -0.005662 0.021190 0.000000 -0.010567 0.000000
# 4 0.000000 0.000000 0.000000 0.141471 0.000000 -0.041941
# 5 0.003683 -0.000604 -0.010567 0.000000 0.033139 0.000000
# 6 0.000000 0.000000 0.000000 -0.041941 0.000000 0.045409
#
#
# Mechanical properties :
#
#
# Convention : Reuss Voigt Hill
#
# Bulk Modulus (GPa) = 42.97301 52.30603 47.63952
# Shear Modulus (GPa) = 16.68761 28.55447 22.62104
#
# Velocity S-wave (km/s) = 2.72968 3.57068 3.17812
# Velocity P-wave (km/s) = 5.39654 6.35254 5.89395
#
# Compressibility (1/GPa) = 0.02327042
#
# Stress axis : x y z
#
# Youngs Moduli (GPa) = 107.74091 58.52467 47.19137
#
# Poissons Ratio (x) = 0.30025 0.06379
# Poissons Ratio (y) = 0.55274 0.26720
# Poissons Ratio (z) = 0.14565 0.33137
#
# Static dielectric constant tensor:
#      x y z
#    x 1.799370 0.000000 0.037880 
#    y 0.000000 1.835490 0.000000 
#    z 0.037880 0.000000 1.869390 
# 
# From -- ./inp_files/3042.got.cif
#   From: 2010.05.17/outbox.cif.g08.bks.cpg/sg4_2_cif.got.tgz:3042.got - 2010.06.03 18:43:04.
