data_PCOD9115571
_publ_section_title
;
Structure prediction by ZEFSAII (Michael W. Deem and Ramdas Pophale) SiO2 
 PCOD9115571
Probable space group: P 21
;
_chemical_formula_sum "Si O2"
_cell_formula_units_Z 12
_cell_length_a 8.745595
_cell_length_b 4.884236
_cell_length_c 22.299548
_cell_angle_alpha 90.000000
_cell_angle_beta 32.006569
_cell_angle_gamma 90.000000
_cell_volume 504.860559
_symmetry_space_group_name_H-M "P 21"
_symmetry_group_IT_number 4
_symmetry_cell_setting 'monoclinic'
loop_
_space_group_symop_operation_xyz
x,y,z
-x,1/2+y,-z
loop_
_atom_site_type_symbol
_atom_site_label
_atom_site_fract_x
_atom_site_fract_y
_atom_site_fract_z
Si Si1 0.460859 0.138430 0.850337
Si Si2 0.412762 0.410382 0.493764
Si Si3 0.814837 0.314599 0.254968
Si Si4 0.553288 0.914762 0.941474
Si Si5 0.714325 0.831433 0.206793
Si Si6 0.229307 0.106333 0.299043
O O1 0.383103 0.021578 0.940338
O O2 0.214739 0.228685 0.884601
O O3 0.650603 0.412784 0.794566
O O4 0.655522 0.909960 0.751539
O O5 0.390183 0.162088 0.548537
O O6 0.566086 0.270472 0.386068
O O7 0.106822 0.552463 0.583158
O O8 0.877408 0.062006 0.190038
O O9 0.114036 0.378999 0.188393
O O10 0.715735 0.567843 0.247620
O O11 0.559470 0.136336 0.992614
O O12 0.403908 0.975317 0.296975
#
# Coordination Sequence:
#
# PCOD9115571 Si02
#       6
#     2   2   2   2   2   2
#     4  10  21  44  69  93 132 177 215 266 337 403
#     4  12  25  39  64 103 136 180 221 269 328 396
#     4  12  24  43  68 100 136 164 237 279 318 398
#     4  12  26  44  70  97 130 176 226 283 344 390
#     4  10  22  42  69  96 134 179 209 278 335 389
#     4  10  20  40  68  91 138 174 216 249 346 390
#
# _framework density 23.768939
#
# number of rings (size 3 to 8) (size 9 to 14) (size 15 to 20)
#    1.000    0.000    1.667    6.000    0.000    1.333 
#    0.000    3.333    0.000    0.000    0.000    0.000 
#    0.000    0.000    0.000    0.000    0.000    0.000 
#
# Total GULP energy -67049.561677 kJ/mol
# GULP energy per Si atom -5587.463473 kJ/mol
# Density = 2.371484 g / cm^3
# Si number density = 23.768939 Si / 1000 Ang^3
#
#
#
# Elastic Constant Matrix: (Units=GPa)
#
#
# Indices 1 2 3 4 5 6 
#
# 1 97.8244 20.7379 21.4476 0.0000 15.0977 0.0000
# 2 20.7379 112.4595 6.8747 0.0000 8.0119 0.0000
# 3 21.4476 6.8747 70.9265 0.0000 5.8364 0.0000
# 4 0.0000 0.0000 0.0000 21.8339 0.0000 8.9368
# 5 15.0977 8.0119 5.8364 0.0000 18.9375 0.0000
# 6 0.0000 0.0000 0.0000 8.9368 0.0000 36.7712
#
#
#
# Elastic Compliance Matrix: (Units=1/GPa)
#
#
# Indices 1 2 3 4 5 6 
#
# 1 0.012486 -0.001524 -0.002936 0.000000 -0.008405 0.000000
# 2 -0.001524 0.009378 -0.000227 0.000000 -0.002682 0.000000
# 3 -0.002936 -0.000227 0.015194 0.000000 -0.002245 0.000000
# 4 0.000000 0.000000 0.000000 0.050860 0.000000 -0.012361
# 5 -0.008405 -0.002682 -0.002245 0.000000 0.061333 0.000000
# 6 0.000000 0.000000 0.000000 -0.012361 0.000000 0.030199
#
#
# Mechanical properties :
#
#
# Convention : Reuss Voigt Hill
#
# Bulk Modulus (GPa) = 36.12405 42.14788 39.13597
# Shear Modulus (GPa) = 25.24564 30.98521 28.11543
#
# Velocity S-wave (km/s) = 3.26257 3.61446 3.44301
# Velocity P-wave (km/s) = 5.42434 5.93211 5.68390
#
# Compressibility (1/GPa) = 0.02768239
#
# Stress axis : x y z
#
# Youngs Moduli (GPa) = 80.08653 106.63074 65.81603
#
# Poissons Ratio (x) = 0.16253 0.19327
# Poissons Ratio (y) = 0.12207 0.01496
# Poissons Ratio (z) = 0.23517 0.02424
#
# Static dielectric constant tensor:
#      x y z
#    x 1.918850 0.000000 0.011700 
#    y 0.000000 1.872920 0.000000 
#    z 0.011700 0.000000 1.881670 
# 
# From -- ./inp_files/10672.got.cif
#   From: 2010.05.17/outbox.cif.g08.bks.cpg/sg4_6_cif.got.tgz:10672.got - 2010.06.03 18:43:04.
