data_PCOD9115007
_publ_section_title
;
Structure prediction by ZEFSAII (Michael W. Deem and Ramdas Pophale) SiO2 
 PCOD9115007
Probable space group: P 21
;
_chemical_formula_sum "Si O2"
_cell_formula_units_Z 16
_cell_length_a 20.536078
_cell_length_b 5.163033
_cell_length_c 17.753958
_cell_angle_alpha 90.000000
_cell_angle_beta 21.105923
_cell_angle_gamma 90.000000
_cell_volume 677.848401
_symmetry_space_group_name_H-M "P 21"
_symmetry_group_IT_number 4
_symmetry_cell_setting 'monoclinic'
loop_
_space_group_symop_operation_xyz
x,y,z
-x,1/2+y,-z
loop_
_atom_site_type_symbol
_atom_site_label
_atom_site_fract_x
_atom_site_fract_y
_atom_site_fract_z
Si Si1 0.809386 0.415280 0.900818
Si Si2 0.435766 0.604424 0.241884
Si Si3 0.148984 0.235544 0.462061
Si Si4 0.820902 0.087204 0.033454
Si Si5 0.417208 0.357984 0.058076
Si Si6 0.493034 0.817526 0.459538
Si Si7 0.099620 0.825951 0.648049
Si Si8 0.888919 0.412897 0.107573
O O1 0.943457 0.332988 0.688554
O O2 0.936950 0.629880 0.803359
O O3 0.611586 0.480232 0.087077
O O4 0.781254 0.199605 0.994256
O O5 0.299524 0.418583 0.341038
O O6 0.294598 0.708739 0.455070
O O7 0.526196 0.815209 0.088687
O O8 0.226924 0.243349 0.293405
O O9 0.138139 0.986572 0.528846
O O10 0.664227 0.885154 0.223735
O O11 0.835730 0.301178 0.082582
O O12 0.021880 0.981276 0.802036
O O13 0.445018 0.658575 0.047906
O O14 0.517113 0.020464 0.503474
O O15 0.294217 0.895532 0.646584
O O16 0.964785 0.702501 0.022424
#
# Coordination Sequence:
#
# PCOD9115007 Si02
#       8
#     2   2   2   2   2   2   2   2
#     4  10  23  42  63  96 136 172 229 277 336 411
#     4  10  21  41  65  95 131 179 230 280 331 409
#     4   9  20  41  61  91 134 174 221 288 337 388
#     4  10  24  44  65  92 136 180 210 275 347 394
#     4  10  19  38  69  94 132 181 228 283 349 384
#     4  10  22  43  71  94 135 172 215 271 332 396
#     4  10  21  42  65  90 139 171 222 278 335 401
#     4  11  24  45  71 102 133 167 227 280 327 403
#
# _framework density 23.604096999999999
#
# number of rings (size 3 to 8) (size 9 to 14) (size 15 to 20)
#    0.000    2.000    1.250    1.500    5.250    2.000 
#   11.250    0.000    0.000    0.000    0.000    0.000 
#    0.000    0.000    0.000    0.000    0.000    0.000 
#
# Total GULP energy -89254.108357 kJ/mol
# GULP energy per Si atom -5578.381772 kJ/mol
# Density = 2.355037 g / cm^3
# Si number density = 23.604097 Si / 1000 Ang^3
#
#
#
# Elastic Constant Matrix: (Units=GPa)
#
#
# Indices 1 2 3 4 5 6 
#
# 1 28.3155 -5.0346 51.9363 0.0000 -6.4334 0.0000
# 2 -5.0346 47.4468 36.6486 0.0000 3.0720 0.0000
# 3 51.9363 36.6486 216.1289 0.0000 -4.1051 0.0000
# 4 0.0000 0.0000 0.0000 47.5695 0.0000 3.0031
# 5 -6.4334 3.0720 -4.1051 0.0000 41.9861 0.0000
# 6 0.0000 0.0000 0.0000 3.0031 0.0000 16.5935
#
#
#
# Elastic Compliance Matrix: (Units=1/GPa)
#
#
# Indices 1 2 3 4 5 6 
#
# 1 0.092869 0.030321 -0.027281 0.000000 0.009344 0.000000
# 2 0.030321 0.034353 -0.013095 0.000000 0.000852 0.000000
# 3 -0.027281 -0.013095 0.013367 0.000000 -0.001915 0.000000
# 4 0.000000 0.000000 0.000000 0.021265 0.000000 -0.003849
# 5 0.009344 0.000852 -0.001915 0.000000 0.025000 0.000000
# 6 0.000000 0.000000 0.000000 -0.003849 0.000000 0.060961
#
#
# Mechanical properties :
#
#
# Convention : Reuss Voigt Hill
#
# Bulk Modulus (GPa) = 8.30017 50.99908 29.64963
# Shear Modulus (GPa) = 16.22937 35.11924 25.67430
#
# Velocity S-wave (km/s) = 2.62499 3.86144 3.30162
# Velocity P-wave (km/s) = 3.56532 6.44468 5.20795
#
# Compressibility (1/GPa) = 0.12047942
#
# Stress axis : x y z
#
# Youngs Moduli (GPa) = 10.76789 29.10915 74.81309
#
# Poissons Ratio (x) = -0.88263 2.04095
# Poissons Ratio (y) = -0.32650 0.97970
# Poissons Ratio (z) = 0.29375 0.38119
#
# Static dielectric constant tensor:
#      x y z
#    x 1.923960 0.000000 0.004240 
#    y 0.000000 1.983520 0.000000 
#    z 0.004240 0.000000 1.937490 
# 
# From -- ./inp_files/15368.got.cif
#   From: 2010.05.17/outbox.cif.g08.bks.cpg/sg4_8_cif.got.tgz:15368.got - 2010.06.03 18:43:04.
