data_PCOD9115404
_publ_section_title
;
Structure prediction by ZEFSAII (Michael W. Deem and Ramdas Pophale) SiO2 
 PCOD9115404
Probable space group: P 21
;
_chemical_formula_sum "Si O2"
_cell_formula_units_Z 16
_cell_length_a 24.419217
_cell_length_b 5.194975
_cell_length_c 9.681131
_cell_angle_alpha 90.000000
_cell_angle_beta 38.339690
_cell_angle_gamma 90.000000
_cell_volume 761.831344
_symmetry_space_group_name_H-M "P 21"
_symmetry_group_IT_number 4
_symmetry_cell_setting 'monoclinic'
loop_
_space_group_symop_operation_xyz
x,y,z
-x,1/2+y,-z
loop_
_atom_site_type_symbol
_atom_site_label
_atom_site_fract_x
_atom_site_fract_y
_atom_site_fract_z
Si Si1 0.868514 0.698040 0.215834
Si Si2 0.975317 0.943084 0.216246
Si Si3 0.535360 0.572227 0.258440
Si Si4 0.871097 0.078779 0.975103
Si Si5 0.445617 0.874403 0.074758
Si Si6 0.285044 0.894215 0.577086
Si Si7 0.048890 0.675052 0.446685
Si Si8 0.418006 0.078130 0.533168
O O1 0.886536 0.879519 0.308680
O O2 0.774828 0.565512 0.405323
O O3 0.874278 0.810524 0.048522
O O4 0.956962 0.528479 0.038695
O O5 0.947241 0.127647 0.397880
O O6 0.037995 0.725511 0.162508
O O7 0.488340 0.852204 0.352715
O O8 0.595899 0.550696 0.274602
O O9 0.458885 0.359196 0.430571
O O10 0.577557 0.486683 0.030361
O O11 0.786042 0.209418 0.211388
O O12 0.870108 0.088668 0.811752
O O13 0.363074 0.781650 0.329442
O O14 0.509536 0.625727 0.942007
O O15 0.333195 0.043783 0.605598
O O16 0.025420 0.969675 0.458698
#
# Coordination Sequence:
#
# PCOD9115404 Si02
#       8
#     2   2   2   2   2   2   2   2
#     4  11  21  38  61  93 128 170 217 267 328 379
#     4  10  20  38  64  89 120 174 221 258 317 395
#     4  10  20  40  66  93 115 170 217 251 314 390
#     4  10  22  38  61  90 127 168 215 268 322 378
#     4  12  23  41  68  95 129 172 216 264 323 395
#     4  11  25  38  62  97 129 170 212 280 323 376
#     4  10  20  38  64  89 116 162 219 261 308 382
#     4  10  21  39  66  90 124 162 213 263 313 385
#
# _framework density 21.002023999999999
#
# number of rings (size 3 to 8) (size 9 to 14) (size 15 to 20)
#    0.000    1.500    5.000    0.000    3.500    0.000 
#    0.000    2.500    0.000    0.000    0.000    0.000 
#    0.000    0.000    0.000    0.000    0.000    0.000 
#
# Total GULP energy -89143.037787 kJ/mol
# GULP energy per Si atom -5571.439862 kJ/mol
# Density = 2.095422 g / cm^3
# Si number density = 21.002024 Si / 1000 Ang^3
#
#
#
# Elastic Constant Matrix: (Units=GPa)
#
#
# Indices 1 2 3 4 5 6 
#
# 1 97.8711 -3.1426 31.7499 0.0000 7.6028 0.0000
# 2 -3.1426 50.7159 -2.1925 0.0000 -5.5339 0.0000
# 3 31.7499 -2.1925 94.7783 0.0000 13.9197 0.0000
# 4 0.0000 0.0000 0.0000 21.1930 0.0000 11.2641
# 5 7.6028 -5.5339 13.9197 0.0000 33.4100 0.0000
# 6 0.0000 0.0000 0.0000 11.2641 0.0000 21.8964
#
#
#
# Elastic Compliance Matrix: (Units=1/GPa)
#
#
# Indices 1 2 3 4 5 6 
#
# 1 0.011509 0.000444 -0.003698 0.000000 -0.001005 0.000000
# 2 0.000444 0.020098 -0.000168 0.000000 0.003298 0.000000
# 3 -0.003698 -0.000168 0.012427 0.000000 -0.004364 0.000000
# 4 0.000000 0.000000 0.000000 0.064942 0.000000 -0.033408
# 5 -0.001005 0.003298 -0.004364 0.000000 0.032524 0.000000
# 6 0.000000 0.000000 0.000000 -0.033408 0.000000 0.062855
#
#
# Mechanical properties :
#
#
# Convention : Reuss Voigt Hill
#
# Bulk Modulus (GPa) = 26.88920 32.91054 29.89987
# Shear Modulus (GPa) = 22.36179 29.76324 26.06251
#
# Velocity S-wave (km/s) = 3.26658 3.76860 3.52654
# Velocity P-wave (km/s) = 5.20176 5.88563 5.55423
#
# Compressibility (1/GPa) = 0.03718965
#
# Stress axis : x y z
#
# Youngs Moduli (GPa) = 86.88557 49.75674 80.47238
#
# Poissons Ratio (x) = -0.02207 0.29756
# Poissons Ratio (y) = -0.03855 0.01352
# Poissons Ratio (z) = 0.32127 0.00836
#
# Static dielectric constant tensor:
#      x y z
#    x 1.822340 0.000000 0.049810 
#    y 0.000000 1.839450 0.000000 
#    z 0.049810 0.000000 1.771920 
# 
# From -- ./inp_files/8831.got.cif
#   From: 2010.05.17/outbox.cif.g08.bks.cpg/sg4_5_cif.got.tgz:8831.got - 2010.06.03 18:43:04.
