data_PCOD9115904
_publ_section_title
;
Structure prediction by ZEFSAII (Michael W. Deem and Ramdas Pophale) SiO2 
 PCOD9115904
Probable space group: P 21
;
_chemical_formula_sum "Si O2"
_cell_formula_units_Z 12
_cell_length_a 4.812411
_cell_length_b 6.764715
_cell_length_c 14.121809
_cell_angle_alpha 90.000000
_cell_angle_beta 74.557448
_cell_angle_gamma 90.000000
_cell_volume 443.132487
_symmetry_space_group_name_H-M "P 21"
_symmetry_group_IT_number 4
_symmetry_cell_setting 'monoclinic'
loop_
_space_group_symop_operation_xyz
x,y,z
-x,1/2+y,-z
loop_
_atom_site_type_symbol
_atom_site_label
_atom_site_fract_x
_atom_site_fract_y
_atom_site_fract_z
Si Si1 0.027990 0.830120 0.224732
Si Si2 0.589572 0.452845 0.487828
Si Si3 0.973065 0.083141 0.393485
Si Si4 0.303840 0.593119 0.042993
Si Si5 0.522231 0.093424 0.708485
Si Si6 0.251993 0.857735 0.885423
O O1 0.057780 0.035690 0.277445
O O2 0.698815 0.765873 0.241125
O O3 0.169929 0.665606 0.282643
O O4 0.188666 0.782995 0.112516
O O5 0.272451 0.419113 0.561302
O O6 0.491190 0.563135 0.401102
O O7 0.765506 0.555545 0.557406
O O8 0.805391 0.285197 0.429281
O O9 0.600849 0.525823 0.061439
O O10 0.081503 0.417049 0.087017
O O11 0.302392 0.652742 0.933870
O O12 0.410070 0.897297 0.772003
#
# Coordination Sequence:
#
# PCOD9115904 Si02
#       6
#     2   2   2   2   2   2
#     4  10  21  39  60  83 116 154 191 234 286 339
#     4  12  24  39  60  86 116 153 193 238 286 340
#     4  12  24  39  60  86 116 153 193 238 286 340
#     4  10  21  38  61  87 117 153 190 236 288 339
#     4  10  21  39  60  83 116 154 191 234 286 339
#     4  10  21  38  61  87 117 153 190 236 288 339
#
# _framework density 27.079937999999999
#
# number of rings (size 3 to 8) (size 9 to 14) (size 15 to 20)
#    0.000    1.333    0.000    7.000    0.000    1.333 
#    0.000    3.333    0.000    0.000    0.000    0.000 
#    0.000    0.000    0.000    0.000    0.000    0.000 
#
# Total GULP energy -67201.797897 kJ/mol
# GULP energy per Si atom -5600.149825 kJ/mol
# Density = 2.701830 g / cm^3
# Si number density = 27.079938 Si / 1000 Ang^3
#
#
#
# Elastic Constant Matrix: (Units=GPa)
#
#
# Indices 1 2 3 4 5 6 
#
# 1 106.4313 0.5797 14.3605 0.0000 15.8941 0.0000
# 2 0.5797 30.9037 -0.1980 0.0000 -1.7297 0.0000
# 3 14.3605 -0.1980 71.9721 0.0000 5.5957 0.0000
# 4 0.0000 0.0000 0.0000 49.5365 0.0000 8.3784
# 5 15.8941 -1.7297 5.5957 0.0000 32.0525 0.0000
# 6 0.0000 0.0000 0.0000 8.3784 0.0000 28.6782
#
#
#
# Elastic Compliance Matrix: (Units=1/GPa)
#
#
# Indices 1 2 3 4 5 6 
#
# 1 0.010353 -0.000477 -0.001689 0.000000 -0.004865 0.000000
# 2 -0.000477 0.032479 0.000030 0.000000 0.001984 0.000000
# 3 -0.001689 0.000030 0.014361 0.000000 -0.001668 0.000000
# 4 0.000000 0.000000 0.000000 0.021237 0.000000 -0.006204
# 5 -0.004865 0.001984 -0.001668 0.000000 0.034009 0.000000
# 6 0.000000 0.000000 0.000000 -0.006204 0.000000 0.036682
#
#
# Mechanical properties :
#
#
# Convention : Reuss Voigt Hill
#
# Bulk Modulus (GPa) = 18.89607 26.53239 22.71423
# Shear Modulus (GPa) = 29.23422 35.02443 32.12932
#
# Velocity S-wave (km/s) = 3.28922 3.60025 3.44824
# Velocity P-wave (km/s) = 4.62799 5.20591 4.92543
#
# Compressibility (1/GPa) = 0.05292104
#
# Stress axis : x y z
#
# Youngs Moduli (GPa) = 96.59355 30.78928 69.63297
#
# Poissons Ratio (x) = 0.01470 0.11759
# Poissons Ratio (y) = 0.04610 -0.00211
# Poissons Ratio (z) = 0.16312 -0.00093
#
# Static dielectric constant tensor:
#      x y z
#    x 1.979980 0.000000 -0.017270 
#    y 0.000000 2.273470 0.000000 
#    z -0.017270 0.000000 2.042840 
# 
# From -- ./inp_files/10310.got.cif
#   From: 2010.05.17/outbox.cif.g08.bks.cpg/sg4_6_cif.got.tgz:10310.got - 2010.06.03 18:43:04.
