data_PCOD9115476
_publ_section_title
;
Structure prediction by ZEFSAII (Michael W. Deem and Ramdas Pophale) SiO2 
 PCOD9115476
Probable space group: P 21
;
_chemical_formula_sum "Si O2"
_cell_formula_units_Z 16
_cell_length_a 13.786468
_cell_length_b 12.040471
_cell_length_c 6.613055
_cell_angle_alpha 90.000000
_cell_angle_beta 44.147997
_cell_angle_gamma 90.000000
_cell_volume 764.589905
_symmetry_space_group_name_H-M "P 21"
_symmetry_group_IT_number 4
_symmetry_cell_setting 'monoclinic'
loop_
_space_group_symop_operation_xyz
x,y,z
-x,1/2+y,-z
loop_
_atom_site_type_symbol
_atom_site_label
_atom_site_fract_x
_atom_site_fract_y
_atom_site_fract_z
Si Si1 0.292342 0.470230 0.152726
Si Si2 0.124390 0.107176 0.849270
Si Si3 0.887990 0.749446 0.524247
Si Si4 0.658584 0.636658 0.133268
Si Si5 0.479892 0.933114 0.863982
Si Si6 0.491301 0.847817 0.447919
Si Si7 0.756761 0.379838 0.457163
Si Si8 0.110952 0.677651 0.500611
O O1 0.178958 0.371250 0.345847
O O2 0.384398 0.468365 0.218271
O O3 0.220098 0.589587 0.247217
O O4 0.399969 0.437577 0.811324
O O5 0.098980 0.203383 0.721970
O O6 0.265745 0.131789 0.763530
O O7 0.142580 0.985544 0.723088
O O8 0.000605 0.109925 0.197182
O O9 0.029355 0.737957 0.440234
O O10 0.779123 0.664992 0.792874
O O11 0.581351 0.525055 0.193392
O O12 0.547185 0.733378 0.274491
O O13 0.508301 0.836177 0.662973
O O14 0.362416 0.908647 0.202268
O O15 0.332788 0.862949 0.613180
O O16 0.827563 0.270398 0.440959
#
# Coordination Sequence:
#
# PCOD9115476 Si02
#       8
#     2   2   2   2   2   2   2   2
#     4  10  24  42  61  98 127 161 221 261 322 373
#     4  11  23  41  66  90 128 174 210 264 317 382
#     4  10  23  42  63  86 128 174 210 264 308 382
#     4  10  20  39  63  95 124 165 215 249 332 372
#     4  11  21  39  67  92 130 165 203 276 314 383
#     4  10  22  40  68  94 129 167 205 271 315 383
#     4  11  24  42  64  99 127 164 220 258 326 380
#     4  11  27  41  66  96 129 172 214 269 308 387
#
# _framework density 20.926251000000001
#
# number of rings (size 3 to 8) (size 9 to 14) (size 15 to 20)
#    0.000    1.500    2.500    1.500    3.500    3.000 
#    0.000    0.000    0.000    0.000    0.000    0.000 
#    0.000    0.000    0.000    0.000    0.000    0.000 
#
# Total GULP energy -89348.808919 kJ/mol
# GULP energy per Si atom -5584.300557 kJ/mol
# Density = 2.087862 g / cm^3
# Si number density = 20.926251 Si / 1000 Ang^3
#
#
#
# Elastic Constant Matrix: (Units=GPa)
#
#
# Indices 1 2 3 4 5 6 
#
# 1 117.8406 34.5113 16.6121 0.0000 -0.1715 0.0000
# 2 34.5113 73.5942 4.3915 0.0000 -16.7069 0.0000
# 3 16.6121 4.3915 23.9938 0.0000 7.9721 0.0000
# 4 0.0000 0.0000 0.0000 17.6655 0.0000 5.8316
# 5 -0.1715 -16.7069 7.9721 0.0000 27.9775 0.0000
# 6 0.0000 0.0000 0.0000 5.8316 0.0000 24.6201
#
#
#
# Elastic Compliance Matrix: (Units=1/GPa)
#
#
# Indices 1 2 3 4 5 6 
#
# 1 0.010810 -0.004954 -0.006204 0.000000 -0.001124 0.000000
# 2 -0.004954 0.019004 -0.004207 0.000000 0.012517 0.000000
# 3 -0.006204 -0.004207 0.052567 0.000000 -0.017529 0.000000
# 4 0.000000 0.000000 0.000000 0.061409 0.000000 -0.014545
# 5 -0.001124 0.012517 -0.017529 0.000000 0.048205 0.000000
# 6 0.000000 0.000000 0.000000 -0.014545 0.000000 0.044063
#
#
# Mechanical properties :
#
#
# Convention : Reuss Voigt Hill
#
# Bulk Modulus (GPa) = 19.36092 36.27316 27.81704
# Shear Modulus (GPa) = 17.60538 24.71353 21.15945
#
# Velocity S-wave (km/s) = 2.90367 3.44027 3.18330
# Velocity P-wave (km/s) = 4.52922 5.75778 5.18005
#
# Compressibility (1/GPa) = 0.05165044
#
# Stress axis : x y z
#
# Youngs Moduli (GPa) = 92.50789 52.62119 19.02345
#
# Poissons Ratio (x) = 0.26070 0.11802
# Poissons Ratio (y) = 0.45831 0.08003
# Poissons Ratio (z) = 0.57390 0.22137
#
# Static dielectric constant tensor:
#      x y z
#    x 1.749770 0.000000 0.020280 
#    y 0.000000 1.741520 0.000000 
#    z 0.020280 0.000000 1.772600 
# 
# From -- ./inp_files/1385.got.cif
#   From: 2010.05.17/outbox.cif.g08.bks.cpg/sg4_1_cif.got.tgz:1385.got - 2010.06.03 18:43:04.
