data_PCOD9115792
_publ_section_title
;
Structure prediction by ZEFSAII (Michael W. Deem and Ramdas Pophale) SiO2 
 PCOD9115792
Probable space group: P 21
;
_chemical_formula_sum "Si O2"
_cell_formula_units_Z 16
_cell_length_a 9.677773
_cell_length_b 8.641925
_cell_length_c 15.055346
_cell_angle_alpha 90.000000
_cell_angle_beta 33.137976
_cell_angle_gamma 90.000000
_cell_volume 688.321994
_symmetry_space_group_name_H-M "P 21"
_symmetry_group_IT_number 4
_symmetry_cell_setting 'monoclinic'
loop_
_space_group_symop_operation_xyz
x,y,z
-x,1/2+y,-z
loop_
_atom_site_type_symbol
_atom_site_label
_atom_site_fract_x
_atom_site_fract_y
_atom_site_fract_z
Si Si1 0.241504 0.196880 0.986360
Si Si2 0.250318 0.641357 0.379749
Si Si3 0.069653 0.400303 0.345844
Si Si4 0.969171 0.002726 0.829489
Si Si5 0.753312 0.066092 0.296038
Si Si6 0.029134 0.459007 0.647153
Si Si7 0.680520 0.744632 0.397393
Si Si8 0.565605 0.648513 0.915379
O O1 0.112077 0.364799 0.062649
O O2 0.376104 0.166218 0.010645
O O3 0.998309 0.085591 0.103377
O O4 0.463200 0.179940 0.796889
O O5 0.118144 0.565680 0.364776
O O6 0.206835 0.498458 0.470223
O O7 0.106764 0.788490 0.499561
O O8 0.974305 0.429708 0.297740
O O9 0.328514 0.301712 0.190259
O O10 0.215577 0.104115 0.716877
O O11 0.719654 0.108396 0.953433
O O12 0.539051 0.194456 0.417336
O O13 0.876795 0.078819 0.328014
O O14 0.633407 0.895131 0.362301
O O15 0.090154 0.300392 0.662264
O O16 0.740435 0.504594 0.787001
#
# Coordination Sequence:
#
# PCOD9115792 Si02
#       8
#     2   2   2   2   2   2   2   2
#     4  10  21  35  59  84 120 158 200 250 287 352
#     4  11  22  38  56  88 129 167 188 241 313 365
#     4  10  24  34  57  84 132 160 194 234 304 370
#     4  11  22  35  61  91 120 155 208 241 294 351
#     4   9  20  39  62  88 109 155 212 253 289 340
#     4   8  21  36  59  83 122 152 190 248 299 354
#     4  10  21  37  70  85 117 152 209 253 299 343
#     4   9  19  36  54  89 117 155 203 240 281 349
#
# _framework density 23.244935000000002
#
# number of rings (size 3 to 8) (size 9 to 14) (size 15 to 20)
#    0.750    1.500    1.250    1.500   10.500    0.000 
#    0.000    0.000    5.500    0.000    0.000    0.000 
#    0.000    0.000    0.000    0.000    0.000    0.000 
#
# Total GULP energy -89245.754640 kJ/mol
# GULP energy per Si atom -5577.859665 kJ/mol
# Density = 2.319203 g / cm^3
# Si number density = 23.244935 Si / 1000 Ang^3
#
#
#
# Elastic Constant Matrix: (Units=GPa)
#
#
# Indices 1 2 3 4 5 6 
#
# 1 12.5861 5.5883 8.2350 0.0000 0.7305 0.0000
# 2 5.5883 89.1287 51.7303 0.0000 -3.7622 0.0000
# 3 8.2350 51.7303 165.7774 0.0000 -3.0428 0.0000
# 4 0.0000 0.0000 0.0000 41.8919 0.0000 -4.4064
# 5 0.7305 -3.7622 -3.0428 0.0000 20.2550 0.0000
# 6 0.0000 0.0000 0.0000 -4.4064 0.0000 18.1590
#
#
#
# Elastic Compliance Matrix: (Units=1/GPa)
#
#
# Indices 1 2 3 4 5 6 
#
# 1 0.083316 -0.003605 -0.003090 0.000000 -0.004139 0.000000
# 2 -0.003605 0.013931 -0.004130 0.000000 0.002097 0.000000
# 3 -0.003090 -0.004130 0.007483 0.000000 0.000469 0.000000
# 4 0.000000 0.000000 0.000000 0.024496 0.000000 0.005944
# 5 -0.004139 0.002097 0.000469 0.000000 0.049980 0.000000
# 6 0.000000 0.000000 0.000000 0.005944 0.000000 0.056512
#
#
# Mechanical properties :
#
#
# Convention : Reuss Voigt Hill
#
# Bulk Modulus (GPa) = 12.03652 44.28883 28.16267
# Shear Modulus (GPa) = 17.54018 29.52372 23.53195
#
# Velocity S-wave (km/s) = 2.74994 3.56773 3.18519
# Velocity P-wave (km/s) = 3.90798 6.00551 5.06648
#
# Compressibility (1/GPa) = 0.08308047
#
# Stress axis : x y z
#
# Youngs Moduli (GPa) = 12.00256 71.78177 133.63833
#
# Poissons Ratio (x) = 0.25880 0.41289
# Poissons Ratio (y) = 0.04327 0.55187
# Poissons Ratio (z) = 0.03708 0.29643
#
# Static dielectric constant tensor:
#      x y z
#    x 1.933190 0.000000 -0.012490 
#    y 0.000000 1.933380 0.000000 
#    z -0.012490 0.000000 1.903990 
# 
# From -- ./inp_files/10941.got.cif
#   From: 2010.05.17/outbox.cif.g08.bks.cpg/sg4_6_cif.got.tgz:10941.got - 2010.06.03 18:43:04.
