data_PCOD9115373
_publ_section_title
;
Structure prediction by ZEFSAII (Michael W. Deem and Ramdas Pophale) SiO2 
 PCOD9115373
Probable space group: P 21
;
_chemical_formula_sum "Si O2"
_cell_formula_units_Z 16
_cell_length_a 12.155015
_cell_length_b 5.053482
_cell_length_c 23.193486
_cell_angle_alpha 90.000000
_cell_angle_beta 25.897857
_cell_angle_gamma 90.000000
_cell_volume 622.247563
_symmetry_space_group_name_H-M "P 21"
_symmetry_group_IT_number 4
_symmetry_cell_setting 'monoclinic'
loop_
_space_group_symop_operation_xyz
x,y,z
-x,1/2+y,-z
loop_
_atom_site_type_symbol
_atom_site_label
_atom_site_fract_x
_atom_site_fract_y
_atom_site_fract_z
Si Si1 0.974845 0.712650 0.403988
Si Si2 0.391164 0.497589 0.797229
Si Si3 0.646940 0.474594 0.862804
Si Si4 0.913746 0.239980 0.970385
Si Si5 0.237397 0.700970 0.441727
Si Si6 0.309150 0.888885 0.732348
Si Si7 0.308938 0.985673 0.030975
Si Si8 0.514200 0.654831 0.531098
O O1 0.949538 0.423078 0.444689
O O2 0.759180 0.688555 0.455908
O O3 0.200390 0.850449 0.262321
O O4 0.900946 0.923135 0.488303
O O5 0.622529 0.296624 0.682502
O O6 0.412741 0.686564 0.731625
O O7 0.123922 0.348377 0.915344
O O8 0.344230 0.670097 0.875737
O O9 0.540633 0.774185 0.910809
O O10 0.409160 0.281964 0.981324
O O11 0.787583 0.439698 0.858329
O O12 0.871058 0.432625 0.937440
O O13 0.046865 0.990882 0.879075
O O14 0.490175 0.634311 0.361383
O O15 0.297169 0.756270 0.676242
O O16 0.479051 0.362192 0.524221
#
# Coordination Sequence:
#
# PCOD9115373 Si02
#       8
#     2   2   2   2   2   2   2   2
#     4  11  21  39  64  87 119 173 203 259 324 371
#     4  11  21  40  63 100 131 168 207 255 327 401
#     4  10  23  45  66  92 126 171 226 266 320 368
#     4  11  24  38  67  97 130 176 209 263 326 381
#     4  10  20  38  61  90 123 162 203 254 313 386
#     4  10  22  39  56  92 135 160 208 246 310 402
#     4  10  24  44  65  95 129 167 221 278 308 370
#     4  11  23  35  54  91 129 159 203 251 312 391
#
# _framework density 25.713238
#
# number of rings (size 3 to 8) (size 9 to 14) (size 15 to 20)
#    0.000    1.500    3.750    2.250    5.250    0.000 
#    2.250    0.000    0.000    3.000    0.000    0.000 
#    0.000    0.000    0.000    0.000    0.000    0.000 
#
# Total GULP energy -89492.198791 kJ/mol
# GULP energy per Si atom -5593.262424 kJ/mol
# Density = 2.565471 g / cm^3
# Si number density = 25.713238 Si / 1000 Ang^3
#
#
#
# Elastic Constant Matrix: (Units=GPa)
#
#
# Indices 1 2 3 4 5 6 
#
# 1 81.7872 4.1248 15.2131 0.0000 2.5500 0.0000
# 2 4.1248 96.0785 2.8234 0.0000 -10.8165 0.0000
# 3 15.2131 2.8234 87.8883 0.0000 18.9525 0.0000
# 4 0.0000 0.0000 0.0000 45.7451 0.0000 5.9776
# 5 2.5500 -10.8165 18.9525 0.0000 28.9687 0.0000
# 6 0.0000 0.0000 0.0000 5.9776 0.0000 24.0601
#
#
#
# Elastic Compliance Matrix: (Units=1/GPa)
#
#
# Indices 1 2 3 4 5 6 
#
# 1 0.012656 -0.000460 -0.002211 0.000000 0.000160 0.000000
# 2 -0.000460 0.011037 -0.001365 0.000000 0.005055 0.000000
# 3 -0.002211 -0.001365 0.013823 0.000000 -0.009358 0.000000
# 4 0.000000 0.000000 0.000000 0.022594 0.000000 -0.005613
# 5 0.000160 0.005055 -0.009358 0.000000 0.042516 0.000000
# 6 0.000000 0.000000 0.000000 -0.005613 0.000000 0.042957
#
#
# Mechanical properties :
#
#
# Convention : Reuss Voigt Hill
#
# Bulk Modulus (GPa) = 33.96224 34.45298 34.20761
# Shear Modulus (GPa) = 30.58683 35.99429 33.29056
#
# Velocity S-wave (km/s) = 3.45271 3.74550 3.60208
# Velocity P-wave (km/s) = 5.39738 5.66860 5.53465
#
# Compressibility (1/GPa) = 0.02944447
#
# Stress axis : x y z
#
# Youngs Moduli (GPa) = 79.01236 90.60375 72.34517
#
# Poissons Ratio (x) = 0.04171 0.15992
# Poissons Ratio (y) = 0.03637 0.09874
# Poissons Ratio (z) = 0.17466 0.12366
#
# Static dielectric constant tensor:
#      x y z
#    x 2.079430 0.000000 -0.045400 
#    y 0.000000 2.030490 0.000000 
#    z -0.045400 0.000000 2.054300 
# 
# From -- ./inp_files/12962.got.cif
#   From: 2010.05.17/outbox.cif.g08.bks.cpg/sg4_7_cif.got.tgz:12962.got - 2010.06.03 18:43:04.
