data_PCOD9115575
_publ_section_title
;
Structure prediction by ZEFSAII (Michael W. Deem and Ramdas Pophale) SiO2 
 PCOD9115575
Probable space group: P 21
;
_chemical_formula_sum "Si O2"
_cell_formula_units_Z 16
_cell_length_a 12.327814
_cell_length_b 7.306207
_cell_length_c 11.211482
_cell_angle_alpha 90.000000
_cell_angle_beta 143.350482
_cell_angle_gamma 90.000000
_cell_volume 602.776206
_symmetry_space_group_name_H-M "P 21"
_symmetry_group_IT_number 4
_symmetry_cell_setting 'monoclinic'
loop_
_space_group_symop_operation_xyz
x,y,z
-x,1/2+y,-z
loop_
_atom_site_type_symbol
_atom_site_label
_atom_site_fract_x
_atom_site_fract_y
_atom_site_fract_z
Si Si1 0.213396 0.895170 0.450365
Si Si2 0.753965 0.464783 0.859110
Si Si3 0.500509 0.505745 0.131524
Si Si4 0.678157 0.509546 0.055582
Si Si5 0.132623 0.377023 0.702243
Si Si6 0.289239 0.225683 0.359787
Si Si7 0.151771 0.611555 0.203509
Si Si8 0.654895 0.893648 0.331923
O O1 0.418546 0.927372 0.675084
O O2 0.190076 0.699659 0.367351
O O3 0.065715 0.918139 0.423954
O O4 0.174847 0.062652 0.324683
O O5 0.749930 0.425047 0.996488
O O6 0.618170 0.596482 0.660786
O O7 0.768899 0.267002 0.812141
O O8 0.935811 0.586501 0.005951
O O9 0.558098 0.716676 0.187083
O O10 0.622257 0.422842 0.131733
O O11 0.290872 0.486891 0.912776
O O12 0.476079 0.559282 0.823419
O O13 0.811262 0.673053 0.208181
O O14 0.162282 0.406386 0.586066
O O15 0.219338 0.408791 0.234778
O O16 0.354928 0.331284 0.539692
#
# Coordination Sequence:
#
# PCOD9115575 Si02
#       8
#     2   2   2   2   2   2   2   2
#     4  10  22  42  70 102 132 172 221 271 335 408
#     4  11  22  41  64  93 130 174 229 276 328 394
#     4   9  21  42  67  99 139 170 217 278 337 407
#     4  10  21  41  65  94 135 174 222 275 341 403
#     4  10  20  40  69 100 135 174 217 274 344 407
#     4  10  23  43  64  92 137 173 225 281 324 395
#     4  11  22  40  66  93 129 173 224 276 328 394
#     4   9  21  43  61  95 137 172 219 279 337 402
#
# _framework density 26.543845999999998
#
# number of rings (size 3 to 8) (size 9 to 14) (size 15 to 20)
#    0.000    2.000    2.500    0.000    1.750    2.000 
#    6.750    0.000    0.000    0.000    0.000    0.000 
#    0.000    0.000    0.000    0.000    0.000    0.000 
#
# Total GULP energy -89145.324544 kJ/mol
# GULP energy per Si atom -5571.582784 kJ/mol
# Density = 2.648343 g / cm^3
# Si number density = 26.543846 Si / 1000 Ang^3
#
#
#
# Elastic Constant Matrix: (Units=GPa)
#
#
# Indices 1 2 3 4 5 6 
#
# 1 111.8674 32.5377 15.6796 0.0000 -10.9767 0.0000
# 2 32.5377 146.7974 36.5874 0.0000 1.9502 0.0000
# 3 15.6796 36.5874 44.1178 0.0000 -18.6115 0.0000
# 4 0.0000 0.0000 0.0000 34.9952 0.0000 -6.2746
# 5 -10.9767 1.9502 -18.6115 0.0000 27.7755 0.0000
# 6 0.0000 0.0000 0.0000 -6.2746 0.0000 29.2806
#
#
#
# Elastic Compliance Matrix: (Units=1/GPa)
#
#
# Indices 1 2 3 4 5 6 
#
# 1 0.010004 -0.002305 0.000129 0.000000 0.004202 0.000000
# 2 -0.002305 0.010404 -0.011852 0.000000 -0.009583 0.000000
# 3 0.000129 -0.011852 0.045756 0.000000 0.031543 0.000000
# 4 0.000000 0.000000 0.000000 0.029717 0.000000 0.006368
# 5 0.004202 -0.009583 0.031543 0.000000 0.059472 0.000000
# 6 0.000000 0.000000 0.000000 0.006368 0.000000 0.035517
#
#
# Mechanical properties :
#
#
# Convention : Reuss Voigt Hill
#
# Bulk Modulus (GPa) = 26.24114 52.48801 39.36458
# Shear Modulus (GPa) = 21.58617 32.94212 27.26414
#
# Velocity S-wave (km/s) = 2.85481 3.52667 3.20837
# Velocity P-wave (km/s) = 4.55785 6.03326 5.34669
#
# Compressibility (1/GPa) = 0.03810810
#
# Stress axis : x y z
#
# Youngs Moduli (GPa) = 99.96112 96.11403 21.85493
#
# Poissons Ratio (x) = 0.22157 -0.00282
# Poissons Ratio (y) = 0.23044 0.25902
# Poissons Ratio (z) = -0.01289 1.13912
#
# Static dielectric constant tensor:
#      x y z
#    x 2.181380 0.000000 -0.003180 
#    y 0.000000 2.098230 0.000000 
#    z -0.003180 0.000000 2.237110 
# 
# From -- ./inp_files/12034.got.cif
#   From: 2010.05.17/outbox.cif.g08.bks.cpg/sg4_7_cif.got.tgz:12034.got - 2010.06.03 18:43:04.
