data_PCOD9115265
_publ_section_title
;
Structure prediction by ZEFSAII (Michael W. Deem and Ramdas Pophale) SiO2 
 PCOD9115265
Probable space group: P 21
;
_chemical_formula_sum "Si O2"
_cell_formula_units_Z 16
_cell_length_a 14.948714
_cell_length_b 12.210425
_cell_length_c 6.753652
_cell_angle_alpha 90.000000
_cell_angle_beta 32.856376
_cell_angle_gamma 90.000000
_cell_volume 668.807399
_symmetry_space_group_name_H-M "P 21"
_symmetry_group_IT_number 4
_symmetry_cell_setting 'monoclinic'
loop_
_space_group_symop_operation_xyz
x,y,z
-x,1/2+y,-z
loop_
_atom_site_type_symbol
_atom_site_label
_atom_site_fract_x
_atom_site_fract_y
_atom_site_fract_z
Si Si1 0.223478 0.440560 0.154489
Si Si2 0.767968 0.435540 0.325859
Si Si3 0.137481 0.900336 0.315235
Si Si4 0.498963 0.288282 0.742165
Si Si5 0.668130 0.188426 0.072097
Si Si6 0.287647 0.175930 0.682346
Si Si7 0.910144 0.816499 0.236168
Si Si8 0.790270 0.637294 0.711099
O O1 0.183532 0.405097 0.454331
O O2 0.059852 0.409184 0.338322
O O3 0.387216 0.368548 0.809252
O O4 0.255515 0.568558 0.082076
O O5 0.600158 0.371731 0.688957
O O6 0.758010 0.565794 0.353786
O O7 0.797471 0.418326 0.032659
O O8 0.921097 0.373360 0.136723
O O9 0.199557 0.007007 0.319369
O O10 0.213713 0.783354 0.229738
O O11 0.626943 0.218745 0.375839
O O12 0.374014 0.199131 0.062164
O O13 0.485083 0.186231 0.319018
O O14 0.195997 0.275057 0.748052
O O15 0.221018 0.160630 0.031079
O O16 0.931457 0.710354 0.343369
#
# Coordination Sequence:
#
# PCOD9115265 Si02
#       8
#     2   2   2   2   2   2   2   2
#     4  10  20  36  62  92 131 163 211 270 315 379
#     4   9  18  38  61  90 126 167 209 265 316 369
#     4   9  20  34  60  93 130 163 216 257 321 384
#     4   9  18  33  61  88 122 168 204 255 322 365
#     4  10  20  36  62  91 128 171 206 267 324 373
#     4  10  20  42  66  86 137 165 211 267 314 380
#     4  10  22  40  66  88 126 173 209 263 322 371
#     4   9  20  39  64  96 128 166 212 264 312 389
#
# _framework density 23.923181
#
# number of rings (size 3 to 8) (size 9 to 14) (size 15 to 20)
#    0.000    2.500    1.250    0.000    8.750    0.000 
#    2.250    7.500   13.750    0.000    0.000    0.000 
#    0.000    0.000    0.000    0.000    0.000    0.000 
#
# Total GULP energy -89422.946175 kJ/mol
# GULP energy per Si atom -5588.934136 kJ/mol
# Density = 2.386873 g / cm^3
# Si number density = 23.923181 Si / 1000 Ang^3
#
#
#
# Elastic Constant Matrix: (Units=GPa)
#
#
# Indices 1 2 3 4 5 6 
#
# 1 58.5211 29.0020 33.2443 0.0000 -9.2235 0.0000
# 2 29.0020 219.1510 78.8748 0.0000 -15.5321 0.0000
# 3 33.2443 78.8748 97.9856 0.0000 -18.8091 0.0000
# 4 0.0000 0.0000 0.0000 44.4940 0.0000 -1.0514
# 5 -9.2235 -15.5321 -18.8091 0.0000 42.0327 0.0000
# 6 0.0000 0.0000 0.0000 -1.0514 0.0000 45.2194
#
#
#
# Elastic Compliance Matrix: (Units=1/GPa)
#
#
# Indices 1 2 3 4 5 6 
#
# 1 0.021276 -0.000302 -0.006674 0.000000 0.001571 0.000000
# 2 -0.000302 0.006429 -0.005064 0.000000 0.000043 0.000000
# 3 -0.006674 -0.005064 0.017400 0.000000 0.004451 0.000000
# 4 0.000000 0.000000 0.000000 0.022487 0.000000 0.000523
# 5 0.001571 0.000043 0.004451 0.000000 0.026143 0.000000
# 6 0.000000 0.000000 0.000000 0.000523 0.000000 0.022127
#
#
# Mechanical properties :
#
#
# Convention : Reuss Voigt Hill
#
# Bulk Modulus (GPa) = 47.56138 73.09998 60.33068
# Shear Modulus (GPa) = 34.02485 41.98500 38.00492
#
# Velocity S-wave (km/s) = 3.77537 4.19381 3.99008
# Velocity P-wave (km/s) = 6.23928 7.35345 6.81916
#
# Compressibility (1/GPa) = 0.02102546
#
# Stress axis : x y z
#
# Youngs Moduli (GPa) = 47.00045 155.55167 57.46962
#
# Poissons Ratio (x) = 0.04705 0.38353
# Poissons Ratio (y) = 0.01422 0.29103
# Poissons Ratio (z) = 0.31366 0.78771
#
# Static dielectric constant tensor:
#      x y z
#    x 2.011820 0.000000 0.046590 
#    y 0.000000 1.877710 0.000000 
#    z 0.046590 0.000000 1.988100 
# 
# From -- ./inp_files/9719.got.cif
#   From: 2010.05.17/outbox.cif.g08.bks.cpg/sg4_5_cif.got.tgz:9719.got - 2010.06.03 18:43:04.
