data_PCOD9115405
_publ_section_title
;
Structure prediction by ZEFSAII (Michael W. Deem and Ramdas Pophale) SiO2 
 PCOD9115405
Probable space group: P 21
;
_chemical_formula_sum "Si O2"
_cell_formula_units_Z 14
_cell_length_a 14.132833
_cell_length_b 4.884441
_cell_length_c 9.017668
_cell_angle_alpha 90.000000
_cell_angle_beta 59.569731
_cell_angle_gamma 90.000000
_cell_volume 536.747010
_symmetry_space_group_name_H-M "P 21"
_symmetry_group_IT_number 4
_symmetry_cell_setting 'monoclinic'
loop_
_space_group_symop_operation_xyz
x,y,z
-x,1/2+y,-z
loop_
_atom_site_type_symbol
_atom_site_label
_atom_site_fract_x
_atom_site_fract_y
_atom_site_fract_z
Si Si1 0.961107 0.378000 0.939034
Si Si2 0.573102 0.760701 0.989099
Si Si3 0.446407 0.971570 0.704319
Si Si4 0.884701 0.136202 0.407203
Si Si5 0.357977 0.184567 0.504904
Si Si6 0.240271 0.605261 0.798582
Si Si7 0.779429 0.602231 0.635085
O O1 0.003862 0.506688 0.750595
O O2 0.852148 0.193655 0.009139
O O3 0.957971 0.648660 0.049272
O O4 0.694937 0.674550 0.833230
O O5 0.522112 0.059279 0.000748
O O6 0.582041 0.702998 0.156134
O O7 0.570689 0.895253 0.645891
O O8 0.347020 0.755892 0.776202
O O9 0.449912 0.043603 0.528701
O O10 0.825042 0.212981 0.297439
O O11 0.877835 0.383758 0.531245
O O12 0.822890 0.887447 0.535645
O O13 0.280468 0.320105 0.691714
O O14 0.304026 0.996517 0.426307
#
# Coordination Sequence:
#
# PCOD9115405 Si02
#       7
#     2   2   2   2   2   2   2
#     4  10  21  37  60  96 131 162 207 270 330 380
#     4  12  28  43  61  90 131 178 216 259 311 385
#     4  12  24  39  62  92 133 170 213 260 322 381
#     4  10  20  38  64  89 124 163 211 261 316 376
#     4  11  23  38  63  95 130 172 212 266 323 387
#     4  10  22  36  59  94 128 162 204 267 324 373
#     4  11  22  41  61  90 125 167 213 259 312 380
#
# _framework density 26.083054000000001
#
# number of rings (size 3 to 8) (size 9 to 14) (size 15 to 20)
#    0.000    1.143    4.286    2.571   10.000    0.000 
#    0.000    0.000    0.000    1.714    0.000    0.000 
#    0.000    0.000    0.000    0.000    0.000    0.000 
#
# Total GULP energy -77934.100075 kJ/mol
# GULP energy per Si atom -5566.721434 kJ/mol
# Density = 2.602369 g / cm^3
# Si number density = 26.083054 Si / 1000 Ang^3
#
#
#
# Elastic Constant Matrix: (Units=GPa)
#
#
# Indices 1 2 3 4 5 6 
#
# 1 34.2151 -1.5236 10.5646 0.0000 -13.6068 0.0000
# 2 -1.5236 94.2459 9.9461 0.0000 -10.8847 0.0000
# 3 10.5646 9.9461 123.7867 0.0000 -31.4987 0.0000
# 4 0.0000 0.0000 0.0000 32.4143 0.0000 -8.6855
# 5 -13.6068 -10.8847 -31.4987 0.0000 47.0134 0.0000
# 6 0.0000 0.0000 0.0000 -8.6855 0.0000 23.5749
#
#
#
# Elastic Compliance Matrix: (Units=1/GPa)
#
#
# Indices 1 2 3 4 5 6 
#
# 1 0.033317 0.001713 -0.000514 0.000000 0.009695 0.000000
# 2 0.001713 0.010998 -0.000308 0.000000 0.002835 0.000000
# 3 -0.000514 -0.000308 0.009754 0.000000 0.006315 0.000000
# 4 0.000000 0.000000 0.000000 0.034230 0.000000 0.012611
# 5 0.009695 0.002835 0.006315 0.000000 0.028964 0.000000
# 6 0.000000 0.000000 0.000000 0.012611 0.000000 0.047064
#
#
# Mechanical properties :
#
#
# Convention : Reuss Voigt Hill
#
# Bulk Modulus (GPa) = 17.90515 32.24686 25.07600
# Shear Modulus (GPa) = 27.59935 36.15124 31.87530
#
# Velocity S-wave (km/s) = 3.25643 3.72695 3.49960
# Velocity P-wave (km/s) = 4.58461 5.55969 5.09553
#
# Compressibility (1/GPa) = 0.05584986
#
# Stress axis : x y z
#
# Youngs Moduli (GPa) = 30.01434 90.92365 102.52252
#
# Poissons Ratio (x) = -0.15571 0.05271
# Poissons Ratio (y) = -0.05140 0.03161
# Poissons Ratio (z) = 0.01543 0.02804
#
# Static dielectric constant tensor:
#      x y z
#    x 2.131270 0.000000 -0.078580 
#    y 0.000000 2.250020 0.000000 
#    z -0.078580 0.000000 2.135500 
# 
# From -- ./inp_files/9479.got.cif
#   From: 2010.05.17/outbox.cif.g08.bks.cpg/sg4_5_cif.got.tgz:9479.got - 2010.06.03 18:43:04.
