data_PCOD9115232
_publ_section_title
;
Structure prediction by ZEFSAII (Michael W. Deem and Ramdas Pophale) SiO2 
 PCOD9115232
Probable space group: P 21
;
_chemical_formula_sum "Si O2"
_cell_formula_units_Z 16
_cell_length_a 10.942319
_cell_length_b 8.931280
_cell_length_c 10.221594
_cell_angle_alpha 90.000000
_cell_angle_beta 139.330212
_cell_angle_gamma 90.000000
_cell_volume 651.011197
_symmetry_space_group_name_H-M "P 21"
_symmetry_group_IT_number 4
_symmetry_cell_setting 'monoclinic'
loop_
_space_group_symop_operation_xyz
x,y,z
-x,1/2+y,-z
loop_
_atom_site_type_symbol
_atom_site_label
_atom_site_fract_x
_atom_site_fract_y
_atom_site_fract_z
Si Si1 0.587528 0.205020 0.639994
Si Si2 0.969669 0.991318 0.141702
Si Si3 0.956424 0.331552 0.564354
Si Si4 0.614431 0.161630 0.351737
Si Si5 0.207895 0.110234 0.672513
Si Si6 0.977576 0.316682 0.063348
Si Si7 0.569291 0.967280 0.854879
Si Si8 0.249797 0.357414 0.485828
O O1 0.632459 0.169142 0.525898
O O2 0.396054 0.296103 0.497356
O O3 0.556825 0.058477 0.706662
O O4 0.757704 0.298971 0.847186
O O5 0.105644 0.908964 0.350079
O O6 0.036153 0.146624 0.139118
O O7 0.779098 0.008818 0.069250
O O8 0.929301 0.885444 0.987976
O O9 0.140342 0.229475 0.725001
O O10 0.789505 0.217170 0.407505
O O11 0.935303 0.470315 0.449526
O O12 0.464012 0.290258 0.193486
O O13 0.627462 0.983332 0.340436
O O14 0.193234 0.221837 0.535519
O O15 0.413068 0.037389 0.825166
O O16 0.060551 0.406083 0.254892
#
# Coordination Sequence:
#
# PCOD9115232 Si02
#       8
#     2   2   2   2   2   2   2   2
#     4  10  20  36  58  92 129 168 211 264 327 394
#     4  11  22  41  64  97 136 169 214 277 338 394
#     4  11  22  41  66  88 124 169 223 273 319 390
#     4  11  20  37  58  92 125 166 215 263 331 397
#     4  10  22  43  63  88 120 175 225 266 321 388
#     4  11  22  37  62  99 132 169 211 271 334 406
#     4   9  22  39  60  88 132 168 216 269 321 400
#     4  11  22  38  63  90 130 174 213 269 329 387
#
# _framework density 24.577148000000001
#
# number of rings (size 3 to 8) (size 9 to 14) (size 15 to 20)
#    0.000    1.500    2.500    3.750    0.000    2.000 
#    0.000    3.750    2.750    0.000    0.000    0.000 
#    0.000    0.000    0.000    0.000    0.000    0.000 
#
# Total GULP energy -89179.681921 kJ/mol
# GULP energy per Si atom -5573.730120 kJ/mol
# Density = 2.452121 g / cm^3
# Si number density = 24.577148 Si / 1000 Ang^3
#
#
#
# Elastic Constant Matrix: (Units=GPa)
#
#
# Indices 1 2 3 4 5 6 
#
# 1 52.7840 42.0258 7.2528 0.0000 12.1195 0.0000
# 2 42.0258 125.6984 5.8953 0.0000 16.5332 0.0000
# 3 7.2528 5.8953 51.4023 0.0000 15.4078 0.0000
# 4 0.0000 0.0000 0.0000 26.1574 0.0000 0.8349
# 5 12.1195 16.5332 15.4078 0.0000 28.9126 0.0000
# 6 0.0000 0.0000 0.0000 0.8349 0.0000 51.3872
#
#
#
# Elastic Compliance Matrix: (Units=1/GPa)
#
#
# Indices 1 2 3 4 5 6 
#
# 1 0.026996 -0.008177 -0.001048 0.000000 -0.006082 0.000000
# 2 -0.008177 0.011094 0.000899 0.000000 -0.003396 0.000000
# 3 -0.001048 0.000899 0.023233 0.000000 -0.012456 0.000000
# 4 0.000000 0.000000 0.000000 0.038250 0.000000 -0.000621
# 5 -0.006082 -0.003396 -0.012456 0.000000 0.045716 0.000000
# 6 0.000000 0.000000 0.000000 -0.000621 0.000000 0.019470
#
#
# Mechanical properties :
#
#
# Convention : Reuss Voigt Hill
#
# Bulk Modulus (GPa) = 22.38603 37.80362 30.09482
# Shear Modulus (GPa) = 25.47126 32.93883 29.20505
#
# Velocity S-wave (km/s) = 3.22278 3.66488 3.45091
# Velocity P-wave (km/s) = 4.79340 5.77264 5.30566
#
# Compressibility (1/GPa) = 0.04467073
#
# Stress axis : x y z
#
# Youngs Moduli (GPa) = 37.04299 90.14084 43.04268
#
# Poissons Ratio (x) = 0.73705 0.04512
# Poissons Ratio (y) = 0.30289 -0.03870
# Poissons Ratio (z) = 0.03883 -0.08105
#
# Static dielectric constant tensor:
#      x y z
#    x 1.965020 0.000000 0.018520 
#    y 0.000000 1.961430 0.000000 
#    z 0.018520 0.000000 2.036640 
# 
# From -- ./inp_files/7553.got.cif
#   From: 2010.05.17/outbox.cif.g08.bks.cpg/sg4_4_cif.got.tgz:7553.got - 2010.06.03 18:43:04.
