data_PCOD9115349
_publ_section_title
;
Structure prediction by ZEFSAII (Michael W. Deem and Ramdas Pophale) SiO2 
 PCOD9115349
Probable space group: P 21
;
_chemical_formula_sum "Si O2"
_cell_formula_units_Z 16
_cell_length_a 13.075548
_cell_length_b 13.019919
_cell_length_c 13.783384
_cell_angle_alpha 90.000000
_cell_angle_beta 20.930100
_cell_angle_gamma 90.000000
_cell_volume 838.243927
_symmetry_space_group_name_H-M "P 21"
_symmetry_group_IT_number 4
_symmetry_cell_setting 'monoclinic'
loop_
_space_group_symop_operation_xyz
x,y,z
-x,1/2+y,-z
loop_
_atom_site_type_symbol
_atom_site_label
_atom_site_fract_x
_atom_site_fract_y
_atom_site_fract_z
Si Si1 0.132590 0.664150 0.341959
Si Si2 0.588527 0.695827 0.573586
Si Si3 0.313418 0.433358 0.156106
Si Si4 0.282882 0.841195 0.351395
Si Si5 0.938649 0.693508 0.088420
Si Si6 0.461816 0.255058 0.164806
Si Si7 0.683291 0.860435 0.179884
Si Si8 0.227513 0.997730 0.665807
O O1 0.231687 0.547864 0.256076
O O2 0.270931 0.733761 0.303898
O O3 0.793453 0.680988 0.646332
O O4 0.245874 0.713821 0.140803
O O5 0.811794 0.744039 0.299952
O O6 0.546086 0.749863 0.712961
O O7 0.709238 0.578724 0.477699
O O8 0.279753 0.688148 0.795164
O O9 0.392818 0.365363 0.179636
O O10 0.040143 0.378874 0.348196
O O11 0.568967 0.421832 0.853195
O O12 0.463896 0.835219 0.288409
O O13 0.828407 0.760238 0.097369
O O14 0.809870 0.578040 0.211947
O O15 0.493447 0.920783 0.428381
O O16 0.934811 0.935043 0.919402
#
# Coordination Sequence:
#
# PCOD9115349 Si02
#       8
#     2   2   2   2   2   2   2   2
#     4  10  21  36  55  83 119 147 186 236 287 331
#     4  10  20  38  56  85 113 141 194 243 280 341
#     4  10  21  36  55  81 116 153 186 230 284 345
#     4  10  23  36  55  91 111 149 197 229 283 342
#     4  10  22  38  56  85 121 144 187 250 286 339
#     4  10  21  34  58  82 111 145 191 237 278 334
#     4  12  22  38  62  85 119 153 189 249 285 344
#     4  10  22  36  59  88 110 144 202 230 291 340
#
# _framework density 19.087523000000001
#
# number of rings (size 3 to 8) (size 9 to 14) (size 15 to 20)
#    0.750    1.000    1.250    3.000    5.250    0.000 
#    0.000    2.500    0.000    1.500    0.000    0.000 
#    0.000    0.000    0.000    0.000    0.000    0.000 
#
# Total GULP energy -89236.129449 kJ/mol
# GULP energy per Si atom -5577.258091 kJ/mol
# Density = 1.904408 g / cm^3
# Si number density = 19.087523 Si / 1000 Ang^3
#
#
#
# Elastic Constant Matrix: (Units=GPa)
#
#
# Indices 1 2 3 4 5 6 
#
# 1 58.4204 28.2805 5.9412 0.0000 -5.7612 0.0000
# 2 28.2805 62.2028 -12.5742 0.0000 -1.9892 0.0000
# 3 5.9412 -12.5742 72.5988 0.0000 -11.6138 0.0000
# 4 0.0000 0.0000 0.0000 23.8057 0.0000 -2.5773
# 5 -5.7612 -1.9892 -11.6138 0.0000 20.1480 0.0000
# 6 0.0000 0.0000 0.0000 -2.5773 0.0000 10.5843
#
#
#
# Elastic Compliance Matrix: (Units=1/GPa)
#
#
# Indices 1 2 3 4 5 6 
#
# 1 0.023164 -0.011066 -0.003225 0.000000 0.003672 0.000000
# 2 -0.011066 0.022193 0.005060 0.000000 0.001944 0.000000
# 3 -0.003225 0.005060 0.016355 0.000000 0.009005 0.000000
# 4 0.000000 0.000000 0.000000 0.043144 0.000000 0.010506
# 5 0.003672 0.001944 0.009005 0.000000 0.056065 0.000000
# 6 0.000000 0.000000 0.000000 0.010506 0.000000 0.097038
#
#
# Mechanical properties :
#
#
# Convention : Reuss Voigt Hill
#
# Bulk Modulus (GPa) = 23.12083 26.27968 24.70026
# Shear Modulus (GPa) = 17.19169 22.34589 19.76879
#
# Velocity S-wave (km/s) = 3.00438 3.42527 3.22171
# Velocity P-wave (km/s) = 4.91675 5.42597 5.17763
#
# Compressibility (1/GPa) = 0.04325104
#
# Stress axis : x y z
#
# Youngs Moduli (GPa) = 43.16975 45.05968 61.14241
#
# Poissons Ratio (x) = 0.49864 0.19718
# Poissons Ratio (y) = 0.47772 -0.30940
# Poissons Ratio (z) = 0.13922 -0.22802
#
# Static dielectric constant tensor:
#      x y z
#    x 1.653850 0.000000 0.016610 
#    y 0.000000 1.672510 0.000000 
#    z 0.016610 0.000000 1.672390 
# 
# From -- ./inp_files/12349.got.cif
#   From: 2010.05.17/outbox.cif.g08.bks.cpg/sg4_7_cif.got.tgz:12349.got - 2010.06.03 18:43:04.
