data_PCOD9115311
_publ_section_title
;
Structure prediction by ZEFSAII (Michael W. Deem and Ramdas Pophale) SiO2 
 PCOD9115311
Probable space group: P 21
;
_chemical_formula_sum "Si O2"
_cell_formula_units_Z 16
_cell_length_a 13.024436
_cell_length_b 6.281057
_cell_length_c 24.188672
_cell_angle_alpha 90.000000
_cell_angle_beta 25.234930
_cell_angle_gamma 90.000000
_cell_volume 843.626921
_symmetry_space_group_name_H-M "P 21"
_symmetry_group_IT_number 4
_symmetry_cell_setting 'monoclinic'
loop_
_space_group_symop_operation_xyz
x,y,z
-x,1/2+y,-z
loop_
_atom_site_type_symbol
_atom_site_label
_atom_site_fract_x
_atom_site_fract_y
_atom_site_fract_z
Si Si1 0.003599 0.751950 0.119654
Si Si2 0.298644 0.815906 0.336224
Si Si3 0.931894 0.954754 0.609365
Si Si4 0.308074 0.022650 0.639632
Si Si5 0.335670 0.983843 0.795452
Si Si6 0.696934 0.353935 0.479241
Si Si7 0.433941 0.704077 0.843759
Si Si8 0.701046 0.137539 0.275895
O O1 0.890277 0.668287 0.232615
O O2 0.862839 0.621913 0.139856
O O3 0.281052 0.696443 0.974205
O O4 0.939304 0.001936 0.146994
O O5 0.158861 0.698317 0.354031
O O6 0.438382 0.633863 0.302435
O O7 0.106984 0.918678 0.471369
O O8 0.501086 0.978330 0.215363
O O9 0.692587 0.813759 0.722407
O O10 0.066724 0.877089 0.598854
O O11 0.569962 0.128488 0.525542
O O12 0.279559 0.988910 0.588511
O O13 0.277643 0.792778 0.682442
O O14 0.277896 0.861751 0.880304
O O15 0.389160 0.789229 0.728587
O O16 0.497701 0.463358 0.614814
#
# Coordination Sequence:
#
# PCOD9115311 Si02
#       8
#     2   2   2   2   2   2   2   2
#     4  10  23  38  60  87 124 165 204 258 314 363
#     4  11  22  40  57  93 124 169 206 252 301 373
#     4  11  23  37  63  87 128 164 207 251 314 372
#     4  10  21  39  64  92 124 153 209 269 308 366
#     4  10  22  34  62  90 122 166 202 256 299 374
#     4  11  21  38  65  97 119 161 206 264 320 354
#     4  11  24  39  58  86 131 164 210 248 307 376
#     4  10  20  37  61  92 124 154 200 262 313 366
#
# _framework density 18.965727999999999
#
# number of rings (size 3 to 8) (size 9 to 14) (size 15 to 20)
#    0.000    1.500    2.500    3.750    5.250    4.000 
#    0.000    0.000    5.500    0.000    0.000    0.000 
#    0.000    0.000    0.000    0.000    0.000    0.000 
#
# Total GULP energy -89202.950703 kJ/mol
# GULP energy per Si atom -5575.184419 kJ/mol
# Density = 1.892256 g / cm^3
# Si number density = 18.965728 Si / 1000 Ang^3
#
#
#
# Elastic Constant Matrix: (Units=GPa)
#
#
# Indices 1 2 3 4 5 6 
#
# 1 75.8595 27.3483 21.0398 0.0000 6.5842 0.0000
# 2 27.3483 93.9437 28.8534 0.0000 -1.6853 0.0000
# 3 21.0398 28.8534 89.3909 0.0000 10.4362 0.0000
# 4 0.0000 0.0000 0.0000 23.2300 0.0000 4.1712
# 5 6.5842 -1.6853 10.4362 0.0000 12.7226 0.0000
# 6 0.0000 0.0000 0.0000 4.1712 0.0000 24.7253
#
#
#
# Elastic Compliance Matrix: (Units=1/GPa)
#
#
# Indices 1 2 3 4 5 6 
#
# 1 0.015784 -0.004285 -0.001451 0.000000 -0.007546 0.000000
# 2 -0.004285 0.013298 -0.004145 0.000000 0.007379 0.000000
# 3 -0.001451 -0.004145 0.014203 0.000000 -0.011449 0.000000
# 4 0.000000 0.000000 0.000000 0.044392 0.000000 -0.007489
# 5 -0.007546 0.007379 -0.011449 0.000000 0.092874 0.000000
# 6 0.000000 0.000000 0.000000 -0.007489 0.000000 0.041708
#
#
# Mechanical properties :
#
#
# Convention : Reuss Voigt Hill
#
# Bulk Modulus (GPa) = 42.51201 45.96413 44.23807
# Shear Modulus (GPa) = 20.01105 24.26576 22.13841
#
# Velocity S-wave (km/s) = 3.25178 3.58083 3.42026
# Velocity P-wave (km/s) = 6.04670 6.43307 6.24288
#
# Compressibility (1/GPa) = 0.02352276
#
# Stress axis : x y z
#
# Youngs Moduli (GPa) = 63.35369 75.20198 70.40797
#
# Poissons Ratio (x) = 0.32222 0.10217
# Poissons Ratio (y) = 0.27145 0.29185
# Poissons Ratio (z) = 0.09194 0.31172
#
# Static dielectric constant tensor:
#      x y z
#    x 1.699300 0.000000 0.006110 
#    y 0.000000 1.706910 0.000000 
#    z 0.006110 0.000000 1.670390 
# 
# From -- ./inp_files/16108.got.cif
#   From: 2010.05.17/outbox.cif.g08.bks.cpg/sg4_9_cif.got.tgz:16108.got - 2010.06.03 18:43:04.
