data_PCOD9115034
_publ_section_title
;
Structure prediction by ZEFSAII (Michael W. Deem and Ramdas Pophale) SiO2 
 PCOD9115034
Probable space group: P 21
;
_chemical_formula_sum "Si O2"
_cell_formula_units_Z 16
_cell_length_a 12.374602
_cell_length_b 10.256389
_cell_length_c 9.127813
_cell_angle_alpha 90.000000
_cell_angle_beta 38.699174
_cell_angle_gamma 90.000000
_cell_volume 724.324612
_symmetry_space_group_name_H-M "P 21"
_symmetry_group_IT_number 4
_symmetry_cell_setting 'monoclinic'
loop_
_space_group_symop_operation_xyz
x,y,z
-x,1/2+y,-z
loop_
_atom_site_type_symbol
_atom_site_label
_atom_site_fract_x
_atom_site_fract_y
_atom_site_fract_z
Si Si1 0.945562 0.769760 0.611760
Si Si2 0.235108 0.913946 0.447756
Si Si3 0.843003 0.031858 0.584817
Si Si4 0.574280 0.062247 0.105071
Si Si5 0.426591 0.155628 0.544563
Si Si6 0.933128 0.542178 0.128667
Si Si7 0.228579 0.658547 0.646849
Si Si8 0.212066 0.364473 0.924704
O O1 0.130126 0.841867 0.434183
O O2 0.989812 0.618279 0.540670
O O3 0.849163 0.876203 0.611831
O O4 0.862027 0.777539 0.863214
O O5 0.419250 0.970263 0.215332
O O6 0.118389 0.027115 0.645991
O O7 0.255917 0.802746 0.551178
O O8 0.815035 0.066079 0.444929
O O9 0.686948 0.093572 0.845168
O O10 0.701471 0.982300 0.077617
O O11 0.485458 0.162087 0.312383
O O12 0.593730 0.118633 0.462536
O O13 0.354007 0.290572 0.681759
O O14 0.257566 0.061156 0.738189
O O15 0.064816 0.650793 0.929912
O O16 0.060472 0.418242 0.981562
#
# Coordination Sequence:
#
# PCOD9115034 Si02
#       8
#     2   2   2   2   2   2   2   2
#     4   9  20  41  65  88 126 175 213 262 323 388
#     4   9  19  38  63  86 123 171 207 258 335 379
#     4  10  22  42  62  95 130 169 217 265 322 396
#     4  10  20  39  62  89 124 164 209 267 316 385
#     4  11  21  37  67  92 119 165 212 267 319 380
#     4  10  20  36  59  93 117 157 210 260 305 382
#     4  11  21  40  63  94 125 164 221 264 319 392
#     4  10  19  39  65  87 124 167 211 259 331 380
#
# _framework density 22.089544
#
# number of rings (size 3 to 8) (size 9 to 14) (size 15 to 20)
#    0.000    2.000    2.500    2.250    0.000    0.000 
#    6.750    7.500    0.000    0.000    0.000    0.000 
#    0.000    0.000    0.000    0.000    0.000    0.000 
#
# Total GULP energy -89075.324271 kJ/mol
# GULP energy per Si atom -5567.207767 kJ/mol
# Density = 2.203927 g / cm^3
# Si number density = 22.089544 Si / 1000 Ang^3
#
#
#
# Elastic Constant Matrix: (Units=GPa)
#
#
# Indices 1 2 3 4 5 6 
#
# 1 81.2102 -4.4023 9.3566 0.0000 -19.9571 0.0000
# 2 -4.4023 20.7188 9.9096 0.0000 -1.2062 0.0000
# 3 9.3566 9.9096 101.5257 0.0000 -20.3538 0.0000
# 4 0.0000 0.0000 0.0000 46.2308 0.0000 -4.7803
# 5 -19.9571 -1.2062 -20.3538 0.0000 26.5942 0.0000
# 6 0.0000 0.0000 0.0000 -4.7803 0.0000 27.9889
#
#
#
# Elastic Compliance Matrix: (Units=1/GPa)
#
#
# Indices 1 2 3 4 5 6 
#
# 1 0.015453 0.003673 0.000680 0.000000 0.012283 0.000000
# 2 0.003673 0.051572 -0.005139 0.000000 0.001163 0.000000
# 3 0.000680 -0.005139 0.012219 0.000000 0.009629 0.000000
# 4 0.000000 0.000000 0.000000 0.022019 0.000000 0.003761
# 5 0.012283 0.001163 0.009629 0.000000 0.054242 0.000000
# 6 0.000000 0.000000 0.000000 0.003761 0.000000 0.036371
#
#
# Mechanical properties :
#
#
# Convention : Reuss Voigt Hill
#
# Bulk Modulus (GPa) = 12.87465 25.90917 19.39191
# Shear Modulus (GPa) = 22.79576 32.73550 27.76563
#
# Velocity S-wave (km/s) = 3.21591 3.85378 3.54921
# Velocity P-wave (km/s) = 4.43063 5.61754 5.05902
#
# Compressibility (1/GPa) = 0.07767204
#
# Stress axis : x y z
#
# Youngs Moduli (GPa) = 64.71179 19.39047 81.83908
#
# Poissons Ratio (x) = -0.07123 -0.05564
# Poissons Ratio (y) = -0.23771 0.42059
# Poissons Ratio (z) = -0.04400 0.09965
#
# Static dielectric constant tensor:
#      x y z
#    x 1.846380 0.000000 -0.023750 
#    y 0.000000 1.910160 0.000000 
#    z -0.023750 0.000000 1.808870 
# 
# From -- ./inp_files/8154.got.cif
#   From: 2010.05.17/outbox.cif.g08.bks.cpg/sg4_5_cif.got.tgz:8154.got - 2010.06.03 18:43:04.
