data_PCOD9115665
_publ_section_title
;
Structure prediction by ZEFSAII (Michael W. Deem and Ramdas Pophale) SiO2 
 PCOD9115665
Probable space group: P 21
;
_chemical_formula_sum "Si O2"
_cell_formula_units_Z 16
_cell_length_a 17.222766
_cell_length_b 7.479236
_cell_length_c 13.684260
_cell_angle_alpha 90.000000
_cell_angle_beta 156.934517
_cell_angle_gamma 90.000000
_cell_volume 690.600591
_symmetry_space_group_name_H-M "P 21"
_symmetry_group_IT_number 4
_symmetry_cell_setting 'monoclinic'
loop_
_space_group_symop_operation_xyz
x,y,z
-x,1/2+y,-z
loop_
_atom_site_type_symbol
_atom_site_label
_atom_site_fract_x
_atom_site_fract_y
_atom_site_fract_z
Si Si1 0.925257 0.091860 0.888199
Si Si2 0.706133 0.358088 0.361188
Si Si3 0.722740 0.467423 0.594514
Si Si4 0.239009 0.023395 0.097232
Si Si5 0.207074 0.492280 0.731098
Si Si6 0.578791 0.881850 0.598066
Si Si7 0.568161 0.681817 0.090135
Si Si8 0.096269 0.190628 0.746012
O O1 0.826841 0.277531 0.742061
O O2 0.754234 0.982781 0.745327
O O3 0.031679 0.004847 0.915821
O O4 0.109976 0.106902 0.177760
O O5 0.676809 0.459340 0.427901
O O6 0.691519 0.505255 0.257826
O O7 0.915644 0.262686 0.602945
O O8 0.539177 0.212500 0.139238
O O9 0.525424 0.478789 0.430171
O O10 0.393773 0.871204 0.308185
O O11 0.335297 0.202672 0.255340
O O12 0.219841 0.064532 0.960750
O O13 0.293075 0.355743 0.747050
O O14 0.184907 0.368975 0.800053
O O15 0.006905 0.579525 0.460430
O O16 0.373846 0.646721 0.932422
#
# Coordination Sequence:
#
# PCOD9115665 Si02
#       8
#     2   2   2   2   2   2   2   2
#     4  11  21  43  64  94 130 173 221 276 327 404
#     4  10  20  42  64  96 130 176 217 282 341 395
#     4  11  23  40  68  94 135 175 218 274 339 399
#     4  11  24  42  68  97 133 178 220 278 340 397
#     4  10  22  41  69  97 136 175 229 276 337 405
#     4  11  23  40  66  97 129 174 226 269 334 407
#     4   9  21  38  64  95 132 173 223 274 326 405
#     4  11  22  42  69  98 133 180 220 279 344 402
#
# _framework density 23.168240999999998
#
# number of rings (size 3 to 8) (size 9 to 14) (size 15 to 20)
#    0.000    1.500    3.750    0.750    3.500    0.000 
#    4.500    1.250    8.250    0.000    0.000    0.000 
#    0.000    0.000    0.000    0.000    0.000    0.000 
#
# Total GULP energy -89236.396809 kJ/mol
# GULP energy per Si atom -5577.274801 kJ/mol
# Density = 2.311551 g / cm^3
# Si number density = 23.168241 Si / 1000 Ang^3
#
#
#
# Elastic Constant Matrix: (Units=GPa)
#
#
# Indices 1 2 3 4 5 6 
#
# 1 115.4871 12.3905 40.2032 0.0000 7.1839 0.0000
# 2 12.3905 62.7793 7.6484 0.0000 4.7776 0.0000
# 3 40.2032 7.6484 58.1229 0.0000 4.9925 0.0000
# 4 0.0000 0.0000 0.0000 52.4762 0.0000 0.2140
# 5 7.1839 4.7776 4.9925 0.0000 34.4465 0.0000
# 6 0.0000 0.0000 0.0000 0.2140 0.0000 44.0029
#
#
#
# Elastic Compliance Matrix: (Units=1/GPa)
#
#
# Indices 1 2 3 4 5 6 
#
# 1 0.011554 -0.001254 -0.007731 0.000000 -0.001115 0.000000
# 2 -0.001254 0.016456 -0.001139 0.000000 -0.001856 0.000000
# 3 -0.007731 -0.001139 0.022835 0.000000 -0.001539 0.000000
# 4 0.000000 0.000000 0.000000 0.019057 0.000000 -0.000093
# 5 -0.001115 -0.001856 -0.001539 0.000000 0.029744 0.000000
# 6 0.000000 0.000000 0.000000 -0.000093 0.000000 0.022726
#
#
# Mechanical properties :
#
#
# Convention : Reuss Voigt Hill
#
# Bulk Modulus (GPa) = 32.68238 39.65262 36.16750
# Shear Modulus (GPa) = 32.71858 37.92826 35.32342
#
# Velocity S-wave (km/s) = 3.76202 4.05047 3.90891
# Velocity P-wave (km/s) = 5.74522 6.24719 6.00146
#
# Compressibility (1/GPa) = 0.03059752
#
# Stress axis : x y z
#
# Youngs Moduli (GPa) = 86.54838 60.76724 43.79310
#
# Poissons Ratio (x) = 0.07618 0.33857
# Poissons Ratio (y) = 0.10850 0.04988
# Poissons Ratio (z) = 0.66912 0.06921
#
# Static dielectric constant tensor:
#      x y z
#    x 1.905950 0.000000 0.049050 
#    y 0.000000 1.926380 0.000000 
#    z 0.049050 0.000000 1.909160 
# 
# From -- ./inp_files/12688.got.cif
#   From: 2010.05.17/outbox.cif.g08.bks.cpg/sg4_7_cif.got.tgz:12688.got - 2010.06.03 18:43:04.
