data_PCOD9115148
_publ_section_title
;
Structure prediction by ZEFSAII (Michael W. Deem and Ramdas Pophale) SiO2 
 PCOD9115148
Probable space group: P 21
;
_chemical_formula_sum "Si O2"
_cell_formula_units_Z 16
_cell_length_a 15.417266
_cell_length_b 5.032221
_cell_length_c 21.986519
_cell_angle_alpha 90.000000
_cell_angle_beta 148.325877
_cell_angle_gamma 90.000000
_cell_volume 895.684570
_symmetry_space_group_name_H-M "P 21"
_symmetry_group_IT_number 4
_symmetry_cell_setting 'monoclinic'
loop_
_space_group_symop_operation_xyz
x,y,z
-x,1/2+y,-z
loop_
_atom_site_type_symbol
_atom_site_label
_atom_site_fract_x
_atom_site_fract_y
_atom_site_fract_z
Si Si1 0.117043 0.637600 0.431617
Si Si2 0.420601 0.615957 0.355250
Si Si3 0.075669 0.376766 0.576802
Si Si4 0.972127 0.199401 0.024311
Si Si5 0.232115 0.139875 0.285049
Si Si6 0.606684 0.039440 0.804134
Si Si7 0.194880 0.148200 0.401962
Si Si8 0.613228 0.047626 0.301856
O O1 0.096474 0.364438 0.382981
O O2 0.266923 0.603279 0.569116
O O3 0.969249 0.749238 0.385386
O O4 0.163919 0.861131 0.411636
O O5 0.378935 0.356572 0.369829
O O6 0.386591 0.528430 0.265404
O O7 0.609728 0.704238 0.473450
O O8 0.304363 0.856089 0.307545
O O9 0.258037 0.493005 0.675720
O O10 0.957136 0.629043 0.489555
O O11 0.094368 0.222806 0.153910
O O12 0.792482 0.093296 0.936169
O O13 0.956701 0.478992 0.980061
O O14 0.160593 0.143056 0.310034
O O15 0.490726 0.285964 0.749368
O O16 0.516557 0.785803 0.778615
#
# Coordination Sequence:
#
# PCOD9115148 Si02
#       8
#     2   2   2   2   2   2   2   2
#     4  11  20  35  54  81 113 145 173 217 281 335
#     4  12  21  37  55  77 111 149 187 222 273 324
#     4  10  20  34  54  82 116 149 173 218 281 346
#     4  12  23  38  56  75 106 147 192 233 275 309
#     4  12  24  39  52  77 110 150 194 230 266 317
#     4  12  21  34  58  79 106 151 183 225 277 318
#     4  12  23  34  55  80 111 149 185 220 267 335
#     4  11  20  35  54  83 113 138 181 223 272 338
#
# _framework density 17.863432
#
# number of rings (size 3 to 8) (size 9 to 14) (size 15 to 20)
#    0.000    0.500    5.000    6.750    0.000    0.000 
#    0.000    0.000    0.000    0.000    0.000    3.500 
#    0.000    2.000    0.000    0.000    0.000    0.000 
#
# Total GULP energy -89420.447756 kJ/mol
# GULP energy per Si atom -5588.777985 kJ/mol
# Density = 1.782277 g / cm^3
# Si number density = 17.863432 Si / 1000 Ang^3
#
#
#
# Elastic Constant Matrix: (Units=GPa)
#
#
# Indices 1 2 3 4 5 6 
#
# 1 84.7829 21.9302 35.1089 0.0000 7.9511 0.0000
# 2 21.9302 110.7127 8.2326 0.0000 12.2872 0.0000
# 3 35.1089 8.2326 52.1927 0.0000 0.5515 0.0000
# 4 0.0000 0.0000 0.0000 16.5176 0.0000 10.0322
# 5 7.9511 12.2872 0.5515 0.0000 29.0824 0.0000
# 6 0.0000 0.0000 0.0000 10.0322 0.0000 37.9741
#
#
#
# Elastic Compliance Matrix: (Units=1/GPa)
#
#
# Indices 1 2 3 4 5 6 
#
# 1 0.017386 -0.002202 -0.011310 0.000000 -0.003608 0.000000
# 2 -0.002202 0.009867 -0.000037 0.000000 -0.003566 0.000000
# 3 -0.011310 -0.000037 0.026746 0.000000 0.002601 0.000000
# 4 0.000000 0.000000 0.000000 0.072112 0.000000 -0.019051
# 5 -0.003608 -0.003566 0.002601 0.000000 0.036829 0.000000
# 6 0.000000 0.000000 0.000000 -0.019051 0.000000 0.031367
#
#
# Mechanical properties :
#
#
# Convention : Reuss Voigt Hill
#
# Bulk Modulus (GPa) = 37.17390 42.02573 39.59981
# Shear Modulus (GPa) = 21.70389 28.87595 25.28992
#
# Velocity S-wave (km/s) = 3.48945 4.02491 3.76671
# Velocity P-wave (km/s) = 6.09018 6.72139 6.41355
#
# Compressibility (1/GPa) = 0.02690059
#
# Stress axis : x y z
#
# Youngs Moduli (GPa) = 57.51620 101.34614 37.38862
#
# Poissons Ratio (x) = 0.22321 0.42286
# Poissons Ratio (y) = 0.12668 0.00139
# Poissons Ratio (z) = 0.65050 0.00377
#
# Static dielectric constant tensor:
#      x y z
#    x 1.630720 0.000000 0.001720 
#    y 0.000000 1.629470 0.000000 
#    z 0.001720 0.000000 1.587940 
# 
# From -- ./inp_files/15740.got.cif
#   From: 2010.05.17/outbox.cif.g08.bks.cpg/sg4_8_cif.got.tgz:15740.got - 2010.06.03 18:43:04.
