data_PCOD9115661
_publ_section_title
;
Structure prediction by ZEFSAII (Michael W. Deem and Ramdas Pophale) SiO2 
 PCOD9115661
Probable space group: P 21
;
_chemical_formula_sum "Si O2"
_cell_formula_units_Z 16
_cell_length_a 11.990673
_cell_length_b 8.045115
_cell_length_c 11.612348
_cell_angle_alpha 90.000000
_cell_angle_beta 143.967829
_cell_angle_gamma 90.000000
_cell_volume 658.946232
_symmetry_space_group_name_H-M "P 21"
_symmetry_group_IT_number 4
_symmetry_cell_setting 'monoclinic'
loop_
_space_group_symop_operation_xyz
x,y,z
-x,1/2+y,-z
loop_
_atom_site_type_symbol
_atom_site_label
_atom_site_fract_x
_atom_site_fract_y
_atom_site_fract_z
Si Si1 0.734759 0.520260 0.686697
Si Si2 0.665549 0.009328 0.768571
Si Si3 0.202922 0.810215 0.738794
Si Si4 0.165368 0.648323 0.305454
Si Si5 0.935116 0.807330 0.299865
Si Si6 0.577278 0.627255 0.040450
Si Si7 0.066418 0.656336 0.830171
Si Si8 0.563065 0.637428 0.762506
O O1 0.536762 0.557270 0.455426
O O2 0.799101 0.333224 0.715901
O O3 0.695683 0.535023 0.788415
O O4 0.888744 0.648256 0.767311
O O5 0.630121 0.828132 0.794870
O O6 0.814418 0.024025 0.785935
O O7 0.748789 0.126017 0.937394
O O8 0.080386 0.807321 0.753056
O O9 0.075692 0.772076 0.522688
O O10 0.316129 0.978835 0.807493
O O11 0.368999 0.678362 0.902705
O O12 0.347948 0.617678 0.538469
O O13 0.986460 0.679444 0.239131
O O14 0.722664 0.781065 0.166363
O O15 0.962597 0.991662 0.273716
O O16 0.566629 0.585484 0.896619
#
# Coordination Sequence:
#
# PCOD9115661 Si02
#       8
#     2   2   2   2   2   2   2   2
#     4   9  22  38  64  95 134 170 213 272 328 400
#     4  10  21  38  64  97 134 171 212 268 335 395
#     4  12  28  46  67  99 133 176 235 276 333 401
#     4   9  20  39  66  95 136 170 210 275 331 400
#     4  11  23  46  69  96 135 179 224 279 335 390
#     4  12  26  44  72  94 133 182 221 283 333 397
#     4  11  24  41  67  95 131 176 218 277 332 400
#     4  10  20  42  63  95 134 174 217 266 335 389
#
# _framework density 24.281192000000001
#
# number of rings (size 3 to 8) (size 9 to 14) (size 15 to 20)
#    0.000    1.500    2.500    1.500    3.500    2.000 
#    0.000    0.000    0.000    0.000    0.000    0.000 
#    0.000    0.000    0.000    0.000    0.000    0.000 
#
# Total GULP energy -89533.541393 kJ/mol
# GULP energy per Si atom -5595.846337 kJ/mol
# Density = 2.422593 g / cm^3
# Si number density = 24.281192 Si / 1000 Ang^3
#
#
#
# Elastic Constant Matrix: (Units=GPa)
#
#
# Indices 1 2 3 4 5 6 
#
# 1 51.4390 7.9165 17.9091 0.0000 -0.8659 0.0000
# 2 7.9165 39.6019 -2.9324 0.0000 6.0242 0.0000
# 3 17.9091 -2.9324 78.5709 0.0000 -13.1169 0.0000
# 4 0.0000 0.0000 0.0000 20.5743 0.0000 0.5701
# 5 -0.8659 6.0242 -13.1169 0.0000 32.9457 0.0000
# 6 0.0000 0.0000 0.0000 0.5701 0.0000 30.6295
#
#
#
# Elastic Compliance Matrix: (Units=1/GPa)
#
#
# Indices 1 2 3 4 5 6 
#
# 1 0.021996 -0.004687 -0.005301 0.000000 -0.000676 0.000000
# 2 -0.004687 0.026975 0.001319 0.000000 -0.004531 0.000000
# 3 -0.005301 0.001319 0.014913 0.000000 0.005557 0.000000
# 4 0.000000 0.000000 0.000000 0.048629 0.000000 -0.000905
# 5 -0.000676 -0.004531 0.005557 0.000000 0.033376 0.000000
# 6 0.000000 0.000000 0.000000 -0.000905 0.000000 0.032665
#
#
# Mechanical properties :
#
#
# Convention : Reuss Voigt Hill
#
# Bulk Modulus (GPa) = 21.48468 23.93310 22.70889
# Shear Modulus (GPa) = 23.65090 26.61114 25.13102
#
# Velocity S-wave (km/s) = 3.12435 3.31412 3.22063
# Velocity P-wave (km/s) = 4.67792 4.95202 4.81692
#
# Compressibility (1/GPa) = 0.04654479
#
# Stress axis : x y z
#
# Youngs Moduli (GPa) = 45.46238 37.07124 67.05727
#
# Poissons Ratio (x) = 0.17375 0.35550
# Poissons Ratio (y) = 0.21308 -0.08843
# Poissons Ratio (z) = 0.24102 -0.04889
#
# Static dielectric constant tensor:
#      x y z
#    x 1.909680 0.000000 0.021760 
#    y 0.000000 1.971950 0.000000 
#    z 0.021760 0.000000 1.889280 
# 
# From -- ./inp_files/11913.got.cif
#   From: 2010.05.17/outbox.cif.g08.bks.cpg/sg4_6_cif.got.tgz:11913.got - 2010.06.03 18:43:04.
