data_PCOD9115673
_publ_section_title
;
Structure prediction by ZEFSAII (Michael W. Deem and Ramdas Pophale) SiO2 
 PCOD9115673
Probable space group: P 21
;
_chemical_formula_sum "Si O2"
_cell_formula_units_Z 16
_cell_length_a 11.641037
_cell_length_b 11.900536
_cell_length_c 5.037832
_cell_angle_alpha 90.000000
_cell_angle_beta 111.976665
_cell_angle_gamma 90.000000
_cell_volume 647.200962
_symmetry_space_group_name_H-M "P 21"
_symmetry_group_IT_number 4
_symmetry_cell_setting 'monoclinic'
loop_
_space_group_symop_operation_xyz
x,y,z
-x,1/2+y,-z
loop_
_atom_site_type_symbol
_atom_site_label
_atom_site_fract_x
_atom_site_fract_y
_atom_site_fract_z
Si Si1 0.511516 0.566520 0.720638
Si Si2 0.184568 0.753461 0.402589
Si Si3 0.748330 0.559432 0.180437
Si Si4 0.164174 0.599872 0.889092
Si Si5 0.092850 0.987106 0.184966
Si Si6 0.564452 0.300317 0.105169
Si Si7 0.368564 0.230257 0.584088
Si Si8 0.343675 0.419877 0.224286
O O1 0.453189 0.666658 0.837799
O O2 0.592668 0.623618 0.557660
O O3 0.400868 0.500955 0.494667
O O4 0.616269 0.502330 0.984544
O O5 0.091304 0.852125 0.227247
O O6 0.214615 0.687529 0.155532
O O7 0.300003 0.814766 0.651119
O O8 0.142667 0.664615 0.592836
O O9 0.701805 0.686427 0.213920
O O10 0.842418 0.527029 0.029801
O O11 0.037642 0.547401 0.890828
O O12 0.257344 0.494161 0.962536
O O13 0.818498 0.528504 0.505384
O O14 0.460174 0.369859 0.169866
O O15 0.500692 0.291150 0.759317
O O16 0.287303 0.315625 0.340168
#
# Coordination Sequence:
#
# PCOD9115673 Si02
#       8
#     2   2   2   2   2   2   2   2
#     4  10  20  42  66 107 147 192 245 315 384 459
#     4  12  27  52  79 111 154 202 265 320 391 476
#     4  11  23  46  74 108 146 191 265 316 374 467
#     4  12  29  52  76 111 159 204 260 329 383 467
#     4  12  27  50  80 106 146 212 260 316 389 451
#     4  10  23  38  72 107 150 197 245 306 400 469
#     4  10  23  40  69 114 150 197 251 320 391 472
#     4  11  24  42  72 114 158 197 247 320 400 465
#
# _framework density 24.72184
#
# number of rings (size 3 to 8) (size 9 to 14) (size 15 to 20)
#    0.000    1.000    2.500    3.000    5.250    2.000 
#    6.750    0.000    0.000    0.000    0.000    0.000 
#    0.000    0.000    0.000    0.000    0.000    0.000 
#
# Total GULP energy -89408.537069 kJ/mol
# GULP energy per Si atom -5588.033567 kJ/mol
# Density = 2.466557 g / cm^3
# Si number density = 24.721840 Si / 1000 Ang^3
#
#
#
# Elastic Constant Matrix: (Units=GPa)
#
#
# Indices 1 2 3 4 5 6 
#
# 1 56.0400 29.8354 -0.8288 0.0000 -7.5422 0.0000
# 2 29.8354 70.9573 26.1344 0.0000 -4.2461 0.0000
# 3 -0.8288 26.1344 103.6185 0.0000 -24.5040 0.0000
# 4 0.0000 0.0000 0.0000 32.6873 0.0000 0.5587
# 5 -7.5422 -4.2461 -24.5040 0.0000 37.6867 0.0000
# 6 0.0000 0.0000 0.0000 0.5587 0.0000 32.4039
#
#
#
# Elastic Compliance Matrix: (Units=1/GPa)
#
#
# Indices 1 2 3 4 5 6 
#
# 1 0.025212 -0.011974 0.004840 0.000000 0.006844 0.000000
# 2 -0.011974 0.021251 -0.006448 0.000000 -0.004194 0.000000
# 3 0.004840 -0.006448 0.013439 0.000000 0.008981 0.000000
# 4 0.000000 0.000000 0.000000 0.030602 0.000000 -0.000528
# 5 0.006844 -0.004194 0.008981 0.000000 0.033271 0.000000
# 6 0.000000 0.000000 0.000000 -0.000528 0.000000 0.030870
#
#
# Mechanical properties :
#
#
# Convention : Reuss Voigt Hill
#
# Bulk Modulus (GPa) = 30.54389 37.87753 34.21071
# Shear Modulus (GPa) = 25.94420 32.25390 29.09905
#
# Velocity S-wave (km/s) = 3.24303 3.61594 3.43455
# Velocity P-wave (km/s) = 5.13856 5.72609 5.44026
#
# Compressibility (1/GPa) = 0.03273978
#
# Stress axis : x y z
#
# Youngs Moduli (GPa) = 39.66381 47.05568 74.40782
#
# Poissons Ratio (x) = 0.56344 -0.36014
# Poissons Ratio (y) = 0.47493 0.47975
# Poissons Ratio (z) = -0.19198 0.30340
#
# Static dielectric constant tensor:
#      x y z
#    x 1.955040 0.000000 -0.006410 
#    y 0.000000 2.168460 0.000000 
#    z -0.006410 0.000000 2.023510 
# 
# From -- ./inp_files/2840.got.cif
#   From: 2010.05.17/outbox.cif.g08.bks.cpg/sg4_2_cif.got.tgz:2840.got - 2010.06.03 18:43:04.
