data_PCOD9115941
_publ_section_title
;
Structure prediction by ZEFSAII (Michael W. Deem and Ramdas Pophale) SiO2 
 PCOD9115941
Probable space group: P 21
;
_chemical_formula_sum "Si O2"
_cell_formula_units_Z 16
_cell_length_a 7.713161
_cell_length_b 16.145525
_cell_length_c 8.834477
_cell_angle_alpha 90.000000
_cell_angle_beta 145.395607
_cell_angle_gamma 90.000000
_cell_volume 624.802162
_symmetry_space_group_name_H-M "P 21"
_symmetry_group_IT_number 4
_symmetry_cell_setting 'monoclinic'
loop_
_space_group_symop_operation_xyz
x,y,z
-x,1/2+y,-z
loop_
_atom_site_type_symbol
_atom_site_label
_atom_site_fract_x
_atom_site_fract_y
_atom_site_fract_z
Si Si1 0.214637 0.541340 0.170076
Si Si2 0.635523 0.113360 0.226569
Si Si3 0.121552 0.346063 0.421896
Si Si4 0.367692 0.809065 0.406743
Si Si5 0.706023 0.867234 0.925666
Si Si6 0.684154 0.636188 0.675374
Si Si7 0.510496 0.277349 0.944664
Si Si8 0.887160 0.519394 0.263937
O O1 0.548447 0.568516 0.462938
O O2 0.037831 0.526327 0.203239
O O3 0.215541 0.459808 0.068667
O O4 0.037542 0.615490 0.956113
O O5 0.465856 0.126930 0.265703
O O6 0.970247 0.087244 0.520683
O O7 0.576181 0.193871 0.083090
O O8 0.464681 0.038827 0.017420
O O9 0.422264 0.369510 0.542612
O O10 0.248593 0.279199 0.631500
O O11 0.988659 0.430154 0.395586
O O12 0.840447 0.308978 0.124624
O O13 0.543294 0.722154 0.516875
O O14 0.012502 0.812798 0.116676
O O15 0.428620 0.836641 0.621637
O O16 0.608533 0.846116 0.023473
#
# Coordination Sequence:
#
# PCOD9115941 Si02
#       8
#     2   2   2   2   2   2   2   2
#     4  10  21  38  64  98 127 164 220 278 322 374
#     4  10  21  39  66  94 125 170 222 266 318 393
#     4  12  26  44  65  99 138 175 216 267 332 394
#     4  12  24  42  69  97 130 170 224 271 325 383
#     4  12  24  42  69  97 130 170 224 271 325 383
#     4  10  21  38  64  98 127 164 220 278 322 374
#     4  12  26  44  65  99 138 175 216 267 332 394
#     4  10  21  39  66  94 125 170 222 266 318 393
#
# _framework density 25.608104000000001
#
# number of rings (size 3 to 8) (size 9 to 14) (size 15 to 20)
#    0.000    1.000    2.500    4.500    7.000    0.000 
#    0.000    7.500    0.000    0.000    0.000    0.000 
#    0.000    0.000    0.000    0.000    0.000    0.000 
#
# Total GULP energy -89537.568556 kJ/mol
# GULP energy per Si atom -5596.098035 kJ/mol
# Density = 2.554982 g / cm^3
# Si number density = 25.608104 Si / 1000 Ang^3
#
#
#
# Elastic Constant Matrix: (Units=GPa)
#
#
# Indices 1 2 3 4 5 6 
#
# 1 63.4588 6.5981 33.8010 0.0000 0.6224 0.0000
# 2 6.5981 91.2139 31.1635 0.0000 -8.6230 0.0000
# 3 33.8010 31.1635 116.9172 0.0000 2.5207 0.0000
# 4 0.0000 0.0000 0.0000 46.3854 0.0000 -8.8334
# 5 0.6224 -8.6230 2.5207 0.0000 22.9194 0.0000
# 6 0.0000 0.0000 0.0000 -8.8334 0.0000 25.5877
#
#
#
# Elastic Compliance Matrix: (Units=1/GPa)
#
#
# Indices 1 2 3 4 5 6 
#
# 1 0.018653 0.000579 -0.005554 0.000000 0.000322 0.000000
# 2 0.000579 0.012656 -0.003652 0.000000 0.005147 0.000000
# 3 -0.005554 -0.003652 0.011185 0.000000 -0.002453 0.000000
# 4 0.000000 0.000000 0.000000 0.023076 0.000000 0.007966
# 5 0.000322 0.005147 -0.002453 0.000000 0.045829 0.000000
# 6 0.000000 0.000000 0.000000 0.007966 0.000000 0.041831
#
#
# Mechanical properties :
#
#
# Convention : Reuss Voigt Hill
#
# Bulk Modulus (GPa) = 39.61946 46.07946 42.84946
# Shear Modulus (GPa) = 27.94919 32.31365 30.13142
#
# Velocity S-wave (km/s) = 3.30725 3.55611 3.43393
# Velocity P-wave (km/s) = 5.48533 5.90715 5.70014
#
# Compressibility (1/GPa) = 0.02524012
#
# Stress axis : x y z
#
# Youngs Moduli (GPa) = 53.61017 79.01682 89.40652
#
# Poissons Ratio (x) = -0.04572 0.49655
# Poissons Ratio (y) = -0.03102 0.32647
# Poissons Ratio (z) = 0.29774 0.28853
#
# Static dielectric constant tensor:
#      x y z
#    x 2.052910 0.000000 -0.020130 
#    y 0.000000 2.056910 0.000000 
#    z -0.020130 0.000000 1.929850 
# 
# From -- ./inp_files/6915.got.cif
#   From: 2010.05.17/outbox.cif.g08.bks.cpg/sg4_4_cif.got.tgz:6915.got - 2010.06.03 18:43:04.
