data_PCOD9115901
_publ_section_title
;
Structure prediction by ZEFSAII (Michael W. Deem and Ramdas Pophale) SiO2 
 PCOD9115901
Probable space group: P 21
;
_chemical_formula_sum "Si O2"
_cell_formula_units_Z 14
_cell_length_a 13.982402
_cell_length_b 5.076631
_cell_length_c 19.149400
_cell_angle_alpha 90.000000
_cell_angle_beta 156.126753
_cell_angle_gamma 90.000000
_cell_volume 550.125125
_symmetry_space_group_name_H-M "P 21"
_symmetry_group_IT_number 4
_symmetry_cell_setting 'monoclinic'
loop_
_space_group_symop_operation_xyz
x,y,z
-x,1/2+y,-z
loop_
_atom_site_type_symbol
_atom_site_label
_atom_site_fract_x
_atom_site_fract_y
_atom_site_fract_z
Si Si1 0.593981 0.173470 0.088826
Si Si2 0.017035 0.732885 0.754838
Si Si3 0.746085 0.899243 0.774246
Si Si4 0.976436 0.394809 0.895510
Si Si5 0.370470 0.083237 0.076103
Si Si6 0.113478 0.593951 0.536172
Si Si7 0.218836 0.724330 0.447918
O O1 0.848407 0.244440 0.230818
O O2 0.431889 0.358750 0.931596
O O3 0.484871 0.249431 0.089379
O O4 0.925272 0.436507 0.694765
O O5 0.810409 0.943638 0.608663
O O6 0.211478 0.847755 0.938181
O O7 0.860553 0.675250 0.801721
O O8 0.488702 0.817021 0.627888
O O9 0.767021 0.181961 0.753002
O O10 0.917556 0.925048 0.955731
O O11 0.197147 0.269227 0.003034
O O12 0.610614 0.998978 0.274544
O O13 0.111950 0.699250 0.454937
O O14 0.963463 0.344365 0.466113
#
# Coordination Sequence:
#
# PCOD9115901 Si02
#       7
#     2   2   2   2   2   2   2
#     4  10  21  38  60  90 129 174 221 270 331 412
#     4  11  25  41  70  96 142 190 232 272 366 441
#     4  10  22  42  68  97 137 178 228 294 366 407
#     4  10  22  41  69 101 128 179 239 293 346 420
#     4  11  24  45  69 104 136 187 241 294 342 431
#     4  12  27  43  69 107 145 183 241 308 355 418
#     4  12  23  46  65 101 141 191 222 295 368 423
#
# _framework density 25.448758999999999
#
# number of rings (size 3 to 8) (size 9 to 14) (size 15 to 20)
#    0.000    1.143    1.429    5.143    0.000   10.286 
#    0.000    2.857    0.000    0.000    0.000    0.000 
#    0.000    0.000    0.000    0.000    0.000    0.000 
#
# Total GULP energy -78205.995554 kJ/mol
# GULP energy per Si atom -5586.142540 kJ/mol
# Density = 2.539084 g / cm^3
# Si number density = 25.448759 Si / 1000 Ang^3
#
#
#
# Elastic Constant Matrix: (Units=GPa)
#
#
# Indices 1 2 3 4 5 6 
#
# 1 71.8056 31.7029 3.9648 0.0000 13.4472 0.0000
# 2 31.7029 125.3015 44.1632 0.0000 4.4010 0.0000
# 3 3.9648 44.1632 102.1876 0.0000 14.4762 0.0000
# 4 0.0000 0.0000 0.0000 28.3989 0.0000 6.9137
# 5 13.4472 4.4010 14.4762 0.0000 39.2884 0.0000
# 6 0.0000 0.0000 0.0000 6.9137 0.0000 34.1173
#
#
#
# Elastic Compliance Matrix: (Units=1/GPa)
#
#
# Indices 1 2 3 4 5 6 
#
# 1 0.017138 -0.004947 0.002348 0.000000 -0.006177 0.000000
# 2 -0.004947 0.010851 -0.004817 0.000000 0.002252 0.000000
# 3 0.002348 -0.004817 0.012465 0.000000 -0.004857 0.000000
# 4 0.000000 0.000000 0.000000 0.037040 0.000000 -0.007506
# 5 -0.006177 0.002252 -0.004857 0.000000 0.029104 0.000000
# 6 0.000000 0.000000 0.000000 -0.007506 0.000000 0.030832
#
#
# Mechanical properties :
#
#
# Convention : Reuss Voigt Hill
#
# Bulk Modulus (GPa) = 39.02870 50.99518 45.01194
# Shear Modulus (GPa) = 31.09451 34.99185 33.04318
#
# Velocity S-wave (km/s) = 3.49929 3.71211 3.60727
# Velocity P-wave (km/s) = 5.62993 6.20120 5.92246
#
# Compressibility (1/GPa) = 0.02562217
#
# Stress axis : x y z
#
# Youngs Moduli (GPa) = 58.35141 92.15857 80.22784
#
# Poissons Ratio (x) = 0.45587 -0.18837
# Poissons Ratio (y) = 0.28864 0.38643
# Poissons Ratio (z) = -0.13700 0.44390
#
# Static dielectric constant tensor:
#      x y z
#    x 2.063010 0.000000 -0.095450 
#    y 0.000000 1.973070 0.000000 
#    z -0.095450 0.000000 2.013710 
# 
# From -- ./inp_files/15772.got.cif
#   From: 2010.05.17/outbox.cif.g08.bks.cpg/sg4_8_cif.got.tgz:15772.got - 2010.06.03 18:43:04.
