data_PCOD9115616
_publ_section_title
;
Structure prediction by ZEFSAII (Michael W. Deem and Ramdas Pophale) SiO2 
 PCOD9115616
Probable space group: P 21
;
_chemical_formula_sum "Si O2"
_cell_formula_units_Z 16
_cell_length_a 7.845880
_cell_length_b 10.893190
_cell_length_c 11.477329
_cell_angle_alpha 90.000000
_cell_angle_beta 140.406116
_cell_angle_gamma 90.000000
_cell_volume 625.186990
_symmetry_space_group_name_H-M "P 21"
_symmetry_group_IT_number 4
_symmetry_cell_setting 'monoclinic'
loop_
_space_group_symop_operation_xyz
x,y,z
-x,1/2+y,-z
loop_
_atom_site_type_symbol
_atom_site_label
_atom_site_fract_x
_atom_site_fract_y
_atom_site_fract_z
Si Si1 0.400653 0.049720 0.199791
Si Si2 0.026836 0.819345 0.683203
Si Si3 0.876837 0.338544 0.539511
Si Si4 0.865230 0.082746 0.625157
Si Si5 0.963713 0.445232 0.807853
Si Si6 0.301564 0.313310 0.148601
Si Si7 0.443767 0.717205 0.351825
Si Si8 0.271426 0.794167 0.030175
O O1 0.675512 0.055412 0.414884
O O2 0.345222 0.180059 0.112905
O O3 0.173676 0.045032 0.182453
O O4 0.399993 0.927947 0.122618
O O5 0.740698 0.753419 0.544291
O O6 0.066185 0.832014 0.566564
O O7 0.242013 0.755775 0.881102
O O8 0.027752 0.960063 0.728614
O O9 0.992544 0.213424 0.658215
O O10 0.970216 0.449610 0.671739
O O11 0.552887 0.336305 0.364336
O O12 0.678938 0.106781 0.639345
O O13 0.751499 0.332379 0.719735
O O14 0.241888 0.409016 0.014421
O O15 0.032867 0.310611 0.083295
O O16 0.416072 0.704409 0.198159
#
# Coordination Sequence:
#
# PCOD9115616 Si02
#       8
#     2   2   2   2   2   2   2   2
#     4   9  17  34  63  87 109 150 211 246 294 348
#     4  12  22  39  62  90 129 160 197 248 307 368
#     4  10  23  38  56  88 127 163 196 234 309 372
#     4  10  20  41  65  84 120 166 200 252 302 352
#     4   9  18  37  60  85 118 154 198 258 292 342
#     4   9  19  37  58  85 115 157 195 254 296 350
#     4   9  20  40  60  93 110 151 212 258 289 348
#     4  10  21  34  62  90 114 149 207 258 293 342
#
# _framework density 25.592345999999999
#
# number of rings (size 3 to 8) (size 9 to 14) (size 15 to 20)
#    0.000    2.500    2.500    2.250    5.250    1.000 
#    4.500    0.000    0.000    0.000    0.000    0.000 
#    0.000    0.000    0.000    0.000    0.000    0.000 
#
# Total GULP energy -89416.256243 kJ/mol
# GULP energy per Si atom -5588.516015 kJ/mol
# Density = 2.553410 g / cm^3
# Si number density = 25.592346 Si / 1000 Ang^3
#
#
#
# Elastic Constant Matrix: (Units=GPa)
#
#
# Indices 1 2 3 4 5 6 
#
# 1 71.5276 5.3698 16.8707 0.0000 -30.3754 0.0000
# 2 5.3698 47.3663 3.5212 0.0000 -8.4101 0.0000
# 3 16.8707 3.5212 112.7397 0.0000 -35.8864 0.0000
# 4 0.0000 0.0000 0.0000 20.6546 0.0000 -4.0319
# 5 -30.3754 -8.4101 -35.8864 0.0000 39.7192 0.0000
# 6 0.0000 0.0000 0.0000 -4.0319 0.0000 13.6295
#
#
#
# Elastic Compliance Matrix: (Units=1/GPa)
#
#
# Indices 1 2 3 4 5 6 
#
# 1 0.021345 0.000752 0.002848 0.000000 0.019056 0.000000
# 2 0.000752 0.022063 0.001219 0.000000 0.006348 0.000000
# 3 0.002848 0.001219 0.012888 0.000000 0.014080 0.000000
# 4 0.000000 0.000000 0.000000 0.051383 0.000000 0.015200
# 5 0.019056 0.006348 0.014080 0.000000 0.053816 0.000000
# 6 0.000000 0.000000 0.000000 0.015200 0.000000 0.077867
#
#
# Mechanical properties :
#
#
# Convention : Reuss Voigt Hill
#
# Bulk Modulus (GPa) = 15.16662 31.46190 23.31426
# Shear Modulus (GPa) = 19.86487 28.52545 24.19516
#
# Velocity S-wave (km/s) = 2.78907 3.34220 3.07808
# Velocity P-wave (km/s) = 4.03868 5.21669 4.66502
#
# Compressibility (1/GPa) = 0.06593426
#
# Stress axis : x y z
#
# Youngs Moduli (GPa) = 46.84968 45.32406 77.59371
#
# Poissons Ratio (x) = -0.03408 -0.22100
# Poissons Ratio (y) = -0.03523 -0.09459
# Poissons Ratio (z) = -0.13344 -0.05525
#
# Static dielectric constant tensor:
#      x y z
#    x 2.131870 0.000000 -0.039650 
#    y 0.000000 2.126410 0.000000 
#    z -0.039650 0.000000 2.030230 
# 
# From -- ./inp_files/8320.got.cif
#   From: 2010.05.17/outbox.cif.g08.bks.cpg/sg4_5_cif.got.tgz:8320.got - 2010.06.03 18:43:04.
