data_PCOD9115753
_publ_section_title
;
Structure prediction by ZEFSAII (Michael W. Deem and Ramdas Pophale) SiO2 
 PCOD9115753
Probable space group: P 21
;
_chemical_formula_sum "Si O2"
_cell_formula_units_Z 16
_cell_length_a 9.268131
_cell_length_b 5.326340
_cell_length_c 15.273087
_cell_angle_alpha 90.000000
_cell_angle_beta 120.841896
_cell_angle_gamma 90.000000
_cell_volume 647.338293
_symmetry_space_group_name_H-M "P 21"
_symmetry_group_IT_number 4
_symmetry_cell_setting 'monoclinic'
loop_
_space_group_symop_operation_xyz
x,y,z
-x,1/2+y,-z
loop_
_atom_site_type_symbol
_atom_site_label
_atom_site_fract_x
_atom_site_fract_y
_atom_site_fract_z
Si Si1 0.785599 0.297590 0.408969
Si Si2 0.865467 0.923559 0.010126
Si Si3 0.571514 0.645495 0.746606
Si Si4 0.419497 0.068221 0.438679
Si Si5 0.862435 0.789498 0.542233
Si Si6 0.938020 0.801809 0.842037
Si Si7 0.441096 0.783622 0.092888
Si Si8 0.260370 0.038339 0.891423
O O1 0.603681 0.288700 0.310064
O O2 0.811267 0.570747 0.458464
O O3 0.937913 0.270727 0.388068
O O4 0.813084 0.062381 0.486322
O O5 0.708438 0.093104 0.932339
O O6 0.969045 0.884918 0.953442
O O7 0.994744 0.019742 0.124992
O O8 0.773159 0.707197 0.033993
O O9 0.565432 0.477898 0.656438
O O10 0.738030 0.806745 0.776617
O O11 0.574915 0.492262 0.836939
O O12 0.535652 0.316872 0.492560
O O13 0.239698 0.192059 0.405738
O O14 0.071820 0.930518 0.819048
O O15 0.632147 0.681052 0.147941
O O16 0.390107 0.840036 0.975073
#
# Coordination Sequence:
#
# PCOD9115753 Si02
#       8
#     2   2   2   2   2   2   2   2
#     4  10  22  41  74  97 138 179 235 300 360 447
#     4  11  20  41  67  91 137 191 227 283 362 436
#     4  12  25  44  68 111 138 185 251 313 357 444
#     4  12  24  46  73 104 142 189 235 303 382 446
#     4  10  20  45  69 101 131 189 234 283 382 450
#     4  11  23  39  65 103 138 184 240 298 360 429
#     4  11  24  41  68 101 135 191 243 292 358 435
#     4  11  22  43  66  94 143 194 233 288 369 441
#
# _framework density 24.716598000000001
#
# number of rings (size 3 to 8) (size 9 to 14) (size 15 to 20)
#    0.000    1.000    6.250    0.750    0.000    2.000 
#    2.250    3.750    0.000    0.000    0.000    0.000 
#    0.000    0.000    0.000    0.000    0.000    0.000 
#
# Total GULP energy -89183.791788 kJ/mol
# GULP energy per Si atom -5573.986987 kJ/mol
# Density = 2.466034 g / cm^3
# Si number density = 24.716598 Si / 1000 Ang^3
#
#
#
# Elastic Constant Matrix: (Units=GPa)
#
#
# Indices 1 2 3 4 5 6 
#
# 1 197.7854 27.3557 48.5717 0.0000 33.7437 0.0000
# 2 27.3557 71.1375 18.8284 0.0000 4.6925 0.0000
# 3 48.5717 18.8284 67.2808 0.0000 15.2883 0.0000
# 4 0.0000 0.0000 0.0000 14.6023 0.0000 0.7518
# 5 33.7437 4.6925 15.2883 0.0000 58.5069 0.0000
# 6 0.0000 0.0000 0.0000 0.7518 0.0000 47.0325
#
#
#
# Elastic Compliance Matrix: (Units=1/GPa)
#
#
# Indices 1 2 3 4 5 6 
#
# 1 0.006642 -0.001371 -0.003791 0.000000 -0.002730 0.000000
# 2 -0.001371 0.015465 -0.003440 0.000000 0.000449 0.000000
# 3 -0.003791 -0.003440 0.019140 0.000000 -0.002539 0.000000
# 4 0.000000 0.000000 0.000000 0.068539 0.000000 -0.001096
# 5 -0.002730 0.000449 -0.002539 0.000000 0.019294 0.000000
# 6 0.000000 0.000000 0.000000 -0.001096 0.000000 0.021279
#
#
# Mechanical properties :
#
#
# Convention : Reuss Voigt Hill
#
# Bulk Modulus (GPa) = 41.59284 58.41282 50.00283
# Shear Modulus (GPa) = 28.47714 40.12484 34.30099
#
# Velocity S-wave (km/s) = 3.39801 4.03351 3.72932
# Velocity P-wave (km/s) = 5.67977 6.73622 6.23042
#
# Compressibility (1/GPa) = 0.02404260
#
# Stress axis : x y z
#
# Youngs Moduli (GPa) = 150.54649 64.66056 52.24706
#
# Poissons Ratio (x) = 0.08863 0.19809
# Poissons Ratio (y) = 0.20636 0.17975
# Poissons Ratio (z) = 0.57077 0.22246
#
# Static dielectric constant tensor:
#      x y z
#    x 1.990580 0.000000 0.009490 
#    y 0.000000 2.151390 0.000000 
#    z 0.009490 0.000000 2.035330 
# 
# From -- ./inp_files/13526.got.cif
#   From: 2010.05.17/outbox.cif.g08.bks.cpg/sg4_7_cif.got.tgz:13526.got - 2010.06.03 18:43:04.
