data_PCOD9115539
_publ_section_title
;
Structure prediction by ZEFSAII (Michael W. Deem and Ramdas Pophale) SiO2 
 PCOD9115539
Probable space group: P 21
;
_chemical_formula_sum "Si O2"
_cell_formula_units_Z 16
_cell_length_a 8.480143
_cell_length_b 15.716908
_cell_length_c 6.411800
_cell_angle_alpha 90.000000
_cell_angle_beta 116.123149
_cell_angle_gamma 90.000000
_cell_volume 767.280079
_symmetry_space_group_name_H-M "P 21"
_symmetry_group_IT_number 4
_symmetry_cell_setting 'monoclinic'
loop_
_space_group_symop_operation_xyz
x,y,z
-x,1/2+y,-z
loop_
_atom_site_type_symbol
_atom_site_label
_atom_site_fract_x
_atom_site_fract_y
_atom_site_fract_z
Si Si1 0.942863 0.029790 0.245952
Si Si2 0.608276 0.509749 0.103612
Si Si3 0.696575 0.089948 0.797109
Si Si4 0.647036 0.973318 0.388850
Si Si5 0.813990 0.388982 0.492729
Si Si6 0.105971 0.752405 0.138710
Si Si7 0.117394 0.157311 0.639764
Si Si8 0.128179 0.316844 0.382975
O O1 0.985707 0.115714 0.394259
O O2 0.790950 0.984759 0.290434
O O3 0.873831 0.043286 0.975817
O O4 0.112650 0.972519 0.351047
O O5 0.455614 0.559378 0.138364
O O6 0.658276 0.424916 0.261436
O O7 0.764991 0.579347 0.204320
O O8 0.537966 0.478940 0.838586
O O9 0.745867 0.187850 0.856060
O O10 0.654959 0.054307 0.546022
O O11 0.718026 0.888079 0.545304
O O12 0.792993 0.321042 0.661389
O O13 0.967400 0.354023 0.429495
O O14 0.986827 0.698469 0.230325
O O15 0.971551 0.790463 0.889016
O O16 0.201449 0.234920 0.554702
#
# Coordination Sequence:
#
# PCOD9115539 Si02
#       8
#     2   2   2   2   2   2   2   2
#     4   9  17  37  63  83 117 159 204 246 294 356
#     4  10  24  42  60  89 130 164 195 247 317 370
#     4  11  21  37  63  90 121 159 202 253 302 360
#     4  10  21  39  59  88 122 163 196 247 308 365
#     4   9  21  39  61  88 121 161 205 250 299 365
#     4  11  21  37  68  95 114 155 218 257 291 356
#     4  10  20  40  63  89 120 158 204 254 299 356
#     4  10  21  39  65  90 117 159 210 256 296 354
#
# _framework density 20.852879999999999
#
# number of rings (size 3 to 8) (size 9 to 14) (size 15 to 20)
#    0.000    2.000    2.500    0.750    0.000    3.000 
#    6.750    0.000    0.000    0.000    0.000    0.000 
#    0.000    0.000    0.000    0.000    0.000    0.000 
#
# Total GULP energy -89169.430688 kJ/mol
# GULP energy per Si atom -5573.089418 kJ/mol
# Density = 2.080542 g / cm^3
# Si number density = 20.852880 Si / 1000 Ang^3
#
#
#
# Elastic Constant Matrix: (Units=GPa)
#
#
# Indices 1 2 3 4 5 6 
#
# 1 25.7796 12.0197 18.3304 0.0000 3.7076 0.0000
# 2 12.0197 90.4155 46.0306 0.0000 6.6741 0.0000
# 3 18.3304 46.0306 133.0439 0.0000 26.6574 0.0000
# 4 0.0000 0.0000 0.0000 37.9890 0.0000 4.3020
# 5 3.7076 6.6741 26.6574 0.0000 19.0708 0.0000
# 6 0.0000 0.0000 0.0000 4.3020 0.0000 26.5917
#
#
#
# Elastic Compliance Matrix: (Units=1/GPa)
#
#
# Indices 1 2 3 4 5 6 
#
# 1 0.043826 -0.003366 -0.004726 0.000000 -0.000736 0.000000
# 2 -0.003366 0.013769 -0.004814 0.000000 0.002565 0.000000
# 3 -0.004726 -0.004814 0.012934 0.000000 -0.015475 0.000000
# 4 0.000000 0.000000 0.000000 0.026815 0.000000 -0.004338
# 5 -0.000736 0.002565 -0.015475 0.000000 0.073313 0.000000
# 6 0.000000 0.000000 0.000000 -0.004338 0.000000 0.038307
#
#
# Mechanical properties :
#
#
# Convention : Reuss Voigt Hill
#
# Bulk Modulus (GPa) = 22.36291 44.66672 33.51482
# Shear Modulus (GPa) = 20.02552 28.25420 24.13986
#
# Velocity S-wave (km/s) = 3.10227 3.68493 3.40608
# Velocity P-wave (km/s) = 4.85588 6.29058 5.61920
#
# Compressibility (1/GPa) = 0.04471690
#
# Stress axis : x y z
#
# Youngs Moduli (GPa) = 22.81749 72.62713 77.31717
#
# Poissons Ratio (x) = 0.24444 0.36542
# Poissons Ratio (y) = 0.07680 0.37220
# Poissons Ratio (z) = 0.10784 0.34962
#
# Static dielectric constant tensor:
#      x y z
#    x 1.753080 0.000000 0.021570 
#    y 0.000000 1.812410 0.000000 
#    z 0.021570 0.000000 1.777700 
# 
# From -- ./inp_files/1586.got.cif
#   From: 2010.05.17/outbox.cif.g08.bks.cpg/sg4_1_cif.got.tgz:1586.got - 2010.06.03 18:43:04.
