data_PCOD9115312
_publ_section_title
;
Structure prediction by ZEFSAII (Michael W. Deem and Ramdas Pophale) SiO2 
 PCOD9115312
Probable space group: P 21
;
_chemical_formula_sum "Si O2"
_cell_formula_units_Z 12
_cell_length_a 7.330017
_cell_length_b 9.543848
_cell_length_c 12.005568
_cell_angle_alpha 90.000000
_cell_angle_beta 150.077853
_cell_angle_gamma 90.000000
_cell_volume 418.945467
_symmetry_space_group_name_H-M "P 21"
_symmetry_group_IT_number 4
_symmetry_cell_setting 'monoclinic'
loop_
_space_group_symop_operation_xyz
x,y,z
-x,1/2+y,-z
loop_
_atom_site_type_symbol
_atom_site_label
_atom_site_fract_x
_atom_site_fract_y
_atom_site_fract_z
Si Si1 0.727946 0.855630 0.598136
Si Si2 0.940101 0.095848 0.326857
Si Si3 0.565422 0.498009 0.759761
Si Si4 0.926182 0.815034 0.180743
Si Si5 0.240688 0.225701 0.681696
Si Si6 0.633939 0.793236 0.783414
O O1 0.018794 0.746060 0.707006
O O2 0.760836 0.888506 0.746103
O O3 0.345737 0.768590 0.389997
O O4 0.684843 0.977754 0.484724
O O5 0.566968 0.067031 0.194099
O O6 0.218368 0.099568 0.581703
O O7 0.974052 0.969290 0.260383
O O8 0.793487 0.635463 0.843196
O O9 0.525388 0.337084 0.781333
O O10 0.724865 0.720078 0.166947
O O11 0.773550 0.840608 0.977066
O O12 0.812485 0.282516 0.449608
#
# Coordination Sequence:
#
# PCOD9115312 Si02
#       6
#     2   2   2   2   2   2
#     4  10  20  38  60  86 122 158 198 254 316 368
#     4   9  18  38  61  83 118 158 200 248 299 364
#     4   9  18  38  61  83 118 158 200 248 299 364
#     4  10  20  37  61  92 124 158 205 254 306 365
#     4   8  18  38  62  88 122 160 200 246 302 362
#     4  10  20  37  61  92 124 158 205 254 306 365
#
# _framework density 28.643345
#
# number of rings (size 3 to 8) (size 9 to 14) (size 15 to 20)
#    0.000    2.667    0.000    1.000    0.000    0.000 
#    0.000   60.000    0.000    0.000    0.000    0.000 
#    0.000    0.000    0.000    0.000    0.000    0.000 
#
# Total GULP energy -66875.871803 kJ/mol
# GULP energy per Si atom -5572.989317 kJ/mol
# Density = 2.857815 g / cm^3
# Si number density = 28.643345 Si / 1000 Ang^3
#
#
#
# Elastic Constant Matrix: (Units=GPa)
#
#
# Indices 1 2 3 4 5 6 
#
# 1 152.8112 20.3258 55.3368 0.0000 -59.7976 0.0000
# 2 20.3258 99.0413 14.1582 0.0000 -25.7357 0.0000
# 3 55.3368 14.1582 171.1052 0.0000 -44.3516 0.0000
# 4 0.0000 0.0000 0.0000 31.8036 0.0000 -13.7221
# 5 -59.7976 -25.7357 -44.3516 0.0000 72.5585 0.0000
# 6 0.0000 0.0000 0.0000 -13.7221 0.0000 49.2091
#
#
#
# Elastic Compliance Matrix: (Units=1/GPa)
#
#
# Indices 1 2 3 4 5 6 
#
# 1 0.009894 0.000075 -0.001290 0.000000 0.007392 0.000000
# 2 0.000075 0.011125 0.000112 0.000000 0.004076 0.000000
# 3 -0.001290 0.000112 0.007114 0.000000 0.003325 0.000000
# 4 0.000000 0.000000 0.000000 0.035743 0.000000 0.009967
# 5 0.007392 0.004076 0.003325 0.000000 0.023352 0.000000
# 6 0.000000 0.000000 0.000000 0.009967 0.000000 0.023101
#
#
# Mechanical properties :
#
#
# Convention : Reuss Voigt Hill
#
# Bulk Modulus (GPa) = 38.57205 66.95548 52.76376
# Shear Modulus (GPa) = 41.26186 52.92335 47.09261
#
# Velocity S-wave (km/s) = 3.79956 4.30311 4.05915
# Velocity P-wave (km/s) = 5.72228 6.93652 6.35845
#
# Compressibility (1/GPa) = 0.02592551
#
# Stress axis : x y z
#
# Youngs Moduli (GPa) = 101.07446 89.89145 140.56436
#
# Poissons Ratio (x) = -0.00671 0.18131
# Poissons Ratio (y) = -0.00755 -0.01571
# Poissons Ratio (z) = 0.13038 -0.01005
#
# Static dielectric constant tensor:
#      x y z
#    x 2.363720 0.000000 0.121720 
#    y 0.000000 2.459730 0.000000 
#    z 0.121720 0.000000 2.407390 
# 
# From -- ./inp_files/11115.got.cif
#   From: 2010.05.17/outbox.cif.g08.bks.cpg/sg4_6_cif.got.tgz:11115.got - 2010.06.03 18:43:04.
