data_PCOD9115039
_publ_section_title
;
Structure prediction by ZEFSAII (Michael W. Deem and Ramdas Pophale) SiO2 
 PCOD9115039
Probable space group: P 21
;
_chemical_formula_sum "Si O2"
_cell_formula_units_Z 16
_cell_length_a 8.764499
_cell_length_b 14.530838
_cell_length_c 6.196198
_cell_angle_alpha 90.000000
_cell_angle_beta 114.207698
_cell_angle_gamma 90.000000
_cell_volume 719.728748
_symmetry_space_group_name_H-M "P 21"
_symmetry_group_IT_number 4
_symmetry_cell_setting 'monoclinic'
loop_
_space_group_symop_operation_xyz
x,y,z
-x,1/2+y,-z
loop_
_atom_site_type_symbol
_atom_site_label
_atom_site_fract_x
_atom_site_fract_y
_atom_site_fract_z
Si Si1 0.726571 0.512660 0.037810
Si Si2 0.764444 0.184157 0.418124
Si Si3 0.511997 0.955238 0.746009
Si Si4 0.698335 0.836533 0.224108
Si Si5 0.632447 0.007349 0.400906
Si Si6 0.924401 0.700159 0.097146
Si Si7 0.125551 0.814497 0.900671
Si Si8 0.565477 0.284899 0.607091
O O1 0.640945 0.507232 0.226304
O O2 0.812374 0.608292 0.020460
O O3 0.855490 0.425550 0.104573
O O4 0.560284 0.499451 0.792948
O O5 0.720153 0.084434 0.304056
O O6 0.815352 0.263716 0.283123
O O7 0.592628 0.208870 0.442187
O O8 0.910203 0.171121 0.676472
O O9 0.456124 0.876616 0.546118
O O10 0.623059 0.019808 0.654631
O O11 0.607365 0.895867 0.984083
O O12 0.836922 0.775304 0.198587
O O13 0.574273 0.773473 0.292914
O O14 0.741401 0.915792 0.420164
O O15 0.967399 0.757214 0.903061
O O16 0.265596 0.793838 0.161158
#
# Coordination Sequence:
#
# PCOD9115039 Si02
#       8
#     2   2   2   2   2   2   2   2
#     4  11  23  42  67 100 130 177 229 280 327 400
#     4  11  25  43  64 100 137 183 212 277 337 402
#     4  10  19  40  69  96 126 171 222 282 324 378
#     4  10  22  42  64 102 132 171 224 283 322 393
#     4  10  24  40  72 101 130 175 232 276 324 399
#     4  11  29  40  66 102 140 178 218 272 346 405
#     4  11  23  46  65  92 143 178 214 280 336 398
#     4  10  19  39  69  95 124 173 225 270 326 383
#
# _framework density 22.230596999999999
#
# number of rings (size 3 to 8) (size 9 to 14) (size 15 to 20)
#    0.000    1.500    5.000    0.000    5.250    9.000 
#    0.000    0.000    0.000    0.000    0.000    0.000 
#    0.000    0.000    0.000    0.000    0.000    0.000 
#
# Total GULP energy -89116.859232 kJ/mol
# GULP energy per Si atom -5569.803702 kJ/mol
# Density = 2.218000 g / cm^3
# Si number density = 22.230597 Si / 1000 Ang^3
#
#
#
# Elastic Constant Matrix: (Units=GPa)
#
#
# Indices 1 2 3 4 5 6 
#
# 1 86.7615 56.0165 19.5950 0.0000 -26.6106 0.0000
# 2 56.0165 123.5396 3.2736 0.0000 -9.1207 0.0000
# 3 19.5950 3.2736 57.3056 0.0000 -17.8178 0.0000
# 4 0.0000 0.0000 0.0000 17.0433 0.0000 -2.4559
# 5 -26.6106 -9.1207 -17.8178 0.0000 33.2774 0.0000
# 6 0.0000 0.0000 0.0000 -2.4559 0.0000 42.3607
#
#
#
# Elastic Compliance Matrix: (Units=1/GPa)
#
#
# Indices 1 2 3 4 5 6 
#
# 1 0.022165 -0.008959 -0.002783 0.000000 0.013779 0.000000
# 2 -0.008959 0.011887 0.001404 0.000000 -0.003155 0.000000
# 3 -0.002783 0.001404 0.021295 0.000000 0.009561 0.000000
# 4 0.000000 0.000000 0.000000 0.059168 0.000000 0.003430
# 5 0.013779 -0.003155 0.009561 0.000000 0.045323 0.000000
# 6 0.000000 0.000000 0.000000 0.003430 0.000000 0.023806
#
#
# Mechanical properties :
#
#
# Convention : Reuss Voigt Hill
#
# Bulk Modulus (GPa) = 28.84447 47.26411 38.05429
# Shear Modulus (GPa) = 23.16131 31.11772 27.13952
#
# Velocity S-wave (km/s) = 3.23130 3.74541 3.49781
# Velocity P-wave (km/s) = 5.18893 6.32543 5.78516
#
# Compressibility (1/GPa) = 0.03466869
#
# Stress axis : x y z
#
# Youngs Moduli (GPa) = 45.11645 84.12674 46.96048
#
# Poissons Ratio (x) = 0.75371 0.13069
# Poissons Ratio (y) = 0.40421 -0.06591
# Poissons Ratio (z) = 0.12556 -0.11807
#
# Static dielectric constant tensor:
#      x y z
#    x 1.870210 0.000000 -0.030070 
#    y 0.000000 1.935320 0.000000 
#    z -0.030070 0.000000 1.853540 
# 
# From -- ./inp_files/1534.got.cif
#   From: 2010.05.17/outbox.cif.g08.bks.cpg/sg4_1_cif.got.tgz:1534.got - 2010.06.03 18:43:04.
