data_PCOD9115812
_publ_section_title
;
Structure prediction by ZEFSAII (Michael W. Deem and Ramdas Pophale) SiO2 
 PCOD9115812
Probable space group: P 21
;
_chemical_formula_sum "Si O2"
_cell_formula_units_Z 14
_cell_length_a 15.421105
_cell_length_b 4.969611
_cell_length_c 8.914326
_cell_angle_alpha 90.000000
_cell_angle_beta 114.416759
_cell_angle_gamma 90.000000
_cell_volume 622.065764
_symmetry_space_group_name_H-M "P 21"
_symmetry_group_IT_number 4
_symmetry_cell_setting 'monoclinic'
loop_
_space_group_symop_operation_xyz
x,y,z
-x,1/2+y,-z
loop_
_atom_site_type_symbol
_atom_site_label
_atom_site_fract_x
_atom_site_fract_y
_atom_site_fract_z
Si Si1 0.725952 0.336560 0.092078
Si Si2 0.537833 0.905844 0.613611
Si Si3 0.463281 0.741881 0.888192
Si Si4 0.059554 0.338703 0.085802
Si Si5 0.731709 0.817577 0.891763
Si Si6 0.124040 0.127440 0.601808
Si Si7 0.910490 0.128020 0.577771
O O1 0.647257 0.302256 0.163250
O O2 0.816544 0.482518 0.227726
O O3 0.692242 0.548972 0.942104
O O4 0.741324 0.055386 0.020405
O O5 0.502470 0.692407 0.465533
O O6 0.496723 0.817486 0.746282
O O7 0.652410 0.906272 0.714564
O O8 0.482902 0.438070 0.955140
O O9 0.162587 0.266055 0.093659
O O10 0.078002 0.489198 0.255143
O O11 0.004206 0.568984 0.949931
O O12 0.128828 0.927951 0.462395
O O13 0.016289 0.143238 0.584014
O O14 0.150560 0.426312 0.570522
#
# Coordination Sequence:
#
# PCOD9115812 Si02
#       7
#     2   2   2   2   2   2   2
#     4  12  23  42  70  97 128 174 235 273 337 404
#     4  12  26  44  69 104 144 182 227 294 363 408
#     4  12  23  45  70  97 134 175 227 282 337 414
#     4  12  25  42  66  95 135 178 223 274 340 410
#     4  12  25  43  68  98 136 178 229 284 335 422
#     4  10  21  36  61  88 120 166 208 271 322 387
#     4  10  21  38  56  87 129 159 211 266 326 381
#
# _framework density 22.505659999999999
#
# number of rings (size 3 to 8) (size 9 to 14) (size 15 to 20)
#    0.000    0.571    2.857    6.000    0.000    4.571 
#    0.000    0.000    0.000    0.000    0.000    0.000 
#    0.000    0.000    0.000    0.000    0.000    0.000 
#
# Total GULP energy -78337.413607 kJ/mol
# GULP energy per Si atom -5595.529543 kJ/mol
# Density = 2.245444 g / cm^3
# Si number density = 22.505660 Si / 1000 Ang^3
#
#
#
# Elastic Constant Matrix: (Units=GPa)
#
#
# Indices 1 2 3 4 5 6 
#
# 1 72.6336 7.1874 7.6365 0.0000 9.2210 0.0000
# 2 7.1874 60.7864 -4.3888 0.0000 5.7131 0.0000
# 3 7.6365 -4.3888 54.1271 0.0000 3.6508 0.0000
# 4 0.0000 0.0000 0.0000 44.8127 0.0000 -0.6013
# 5 9.2210 5.7131 3.6508 0.0000 37.1836 0.0000
# 6 0.0000 0.0000 0.0000 -0.6013 0.0000 19.6739
#
#
#
# Elastic Compliance Matrix: (Units=1/GPa)
#
#
# Indices 1 2 3 4 5 6 
#
# 1 0.014531 -0.001562 -0.001963 0.000000 -0.003171 0.000000
# 2 -0.001562 0.016988 0.001759 0.000000 -0.002396 0.000000
# 3 -0.001963 0.001759 0.019006 0.000000 -0.001650 0.000000
# 4 0.000000 0.000000 0.000000 0.022324 0.000000 0.000682
# 5 -0.003171 -0.002396 -0.001650 0.000000 0.028210 0.000000
# 6 0.000000 0.000000 0.000000 0.000682 0.000000 0.050850
#
#
# Mechanical properties :
#
#
# Convention : Reuss Voigt Hill
#
# Bulk Modulus (GPa) = 21.27925 23.15748 22.21836
# Shear Modulus (GPa) = 29.22191 32.14149 30.68170
#
# Velocity S-wave (km/s) = 3.60728 3.78319 3.69628
# Velocity P-wave (km/s) = 5.17933 5.42174 5.30193
#
# Compressibility (1/GPa) = 0.04699414
#
# Stress axis : x y z
#
# Youngs Moduli (GPa) = 68.81738 58.86540 52.61532
#
# Poissons Ratio (x) = 0.09194 0.10328
# Poissons Ratio (y) = 0.10748 -0.09257
# Poissons Ratio (z) = 0.13508 -0.10356
#
# Static dielectric constant tensor:
#      x y z
#    x 1.812680 0.000000 0.017670 
#    y 0.000000 1.804500 0.000000 
#    z 0.017670 0.000000 1.874300 
# 
# From -- ./inp_files/7341.got.cif
#   From: 2010.05.17/outbox.cif.g08.bks.cpg/sg4_4_cif.got.tgz:7341.got - 2010.06.03 18:43:04.
