data_PCOD9115620
_publ_section_title
;
Structure prediction by ZEFSAII (Michael W. Deem and Ramdas Pophale) SiO2 
 PCOD9115620
Probable space group: P 21
;
_chemical_formula_sum "Si O2"
_cell_formula_units_Z 16
_cell_length_a 11.377176
_cell_length_b 12.324780
_cell_length_c 6.264872
_cell_angle_alpha 90.000000
_cell_angle_beta 49.572414
_cell_angle_gamma 90.000000
_cell_volume 668.712691
_symmetry_space_group_name_H-M "P 21"
_symmetry_group_IT_number 4
_symmetry_cell_setting 'monoclinic'
loop_
_space_group_symop_operation_xyz
x,y,z
-x,1/2+y,-z
loop_
_atom_site_type_symbol
_atom_site_label
_atom_site_fract_x
_atom_site_fract_y
_atom_site_fract_z
Si Si1 0.763392 0.336990 0.524747
Si Si2 0.088485 0.953836 0.311154
Si Si3 0.620444 0.182949 0.051057
Si Si4 0.840964 0.054711 0.105086
Si Si5 0.957021 0.671597 0.855788
Si Si6 0.385900 0.881251 0.716974
Si Si7 0.799305 0.854791 0.835099
Si Si8 0.609618 0.996058 0.752963
O O1 0.823463 0.444298 0.568960
O O2 0.692449 0.262436 0.791518
O O3 0.634530 0.367876 0.507938
O O4 0.908469 0.263176 0.280636
O O5 0.032505 0.074880 0.330872
O O6 0.947612 0.870136 0.504692
O O7 0.209496 0.908801 0.995698
O O8 0.555042 0.085170 0.989313
O O9 0.749205 0.136677 0.060329
O O10 0.533319 0.269123 0.300496
O O11 0.008980 0.101475 0.970401
O O12 0.751264 0.038855 0.437445
O O13 0.827070 0.943983 0.988693
O O14 0.810091 0.740669 0.945744
O O15 0.484011 0.970918 0.721636
O O16 0.663021 0.894915 0.839152
#
# Coordination Sequence:
#
# PCOD9115620 Si02
#       8
#     2   2   2   2   2   2   2   2
#     4  10  21  40  63  99 122 175 221 267 337 395
#     4  10  23  40  64  97 130 166 218 280 326 393
#     4  10  20  41  66  88 126 176 217 263 333 398
#     4  11  21  40  67  96 127 174 220 274 337 403
#     4  11  20  39  66  94 131 170 220 274 340 387
#     4  11  24  41  68  95 135 173 226 269 330 414
#     4  10  24  40  65  98 130 171 228 278 330 398
#     4  11  23  43  65  97 133 175 222 273 337 400
#
# _framework density 23.926566999999999
#
# number of rings (size 3 to 8) (size 9 to 14) (size 15 to 20)
#    0.000    1.500    3.750    0.750    3.500    5.000 
#    2.250    2.500    0.000    0.000    0.000    0.000 
#    0.000    0.000    0.000    0.000    0.000    0.000 
#
# Total GULP energy -89151.153099 kJ/mol
# GULP energy per Si atom -5571.947069 kJ/mol
# Density = 2.387211 g / cm^3
# Si number density = 23.926567 Si / 1000 Ang^3
#
#
#
# Elastic Constant Matrix: (Units=GPa)
#
#
# Indices 1 2 3 4 5 6 
#
# 1 111.2182 57.4007 27.9681 0.0000 46.5214 0.0000
# 2 57.4007 81.0868 15.4995 0.0000 25.3412 0.0000
# 3 27.9681 15.4995 56.3523 0.0000 11.9106 0.0000
# 4 0.0000 0.0000 0.0000 30.4600 0.0000 17.5340
# 5 46.5214 25.3412 11.9106 0.0000 42.9730 0.0000
# 6 0.0000 0.0000 0.0000 17.5340 0.0000 39.8045
#
#
#
# Elastic Compliance Matrix: (Units=1/GPa)
#
#
# Indices 1 2 3 4 5 6 
#
# 1 0.022297 -0.009484 -0.004820 0.000000 -0.017209 0.000000
# 2 -0.009484 0.019469 -0.000416 0.000000 -0.001098 0.000000
# 3 -0.004820 -0.000416 0.020286 0.000000 -0.000159 0.000000
# 4 0.000000 0.000000 0.000000 0.043983 0.000000 -0.019374
# 5 -0.017209 -0.001098 -0.000159 0.000000 0.042592 0.000000
# 6 0.000000 0.000000 0.000000 -0.019374 0.000000 0.033657
#
#
# Mechanical properties :
#
#
# Convention : Reuss Voigt Hill
#
# Bulk Modulus (GPa) = 30.66406 50.04376 40.35391
# Shear Modulus (GPa) = 22.46245 32.50009 27.48127
#
# Velocity S-wave (km/s) = 3.06732 3.68955 3.39273
# Velocity P-wave (km/s) = 5.03868 6.25390 5.67889
#
# Compressibility (1/GPa) = 0.03261147
#
# Stress axis : x y z
#
# Youngs Moduli (GPa) = 44.84990 51.36390 49.29568
#
# Poissons Ratio (x) = 0.48714 0.23761
# Poissons Ratio (y) = 0.42536 0.02049
# Poissons Ratio (z) = 0.21618 0.02135
#
# Static dielectric constant tensor:
#      x y z
#    x 1.963740 0.000000 -0.040220 
#    y 0.000000 1.971200 0.000000 
#    z -0.040220 0.000000 1.998120 
# 
# From -- ./inp_files/2887.got.cif
#   From: 2010.05.17/outbox.cif.g08.bks.cpg/sg4_2_cif.got.tgz:2887.got - 2010.06.03 18:43:04.
