data_PCOD9115358
_publ_section_title
;
Structure prediction by ZEFSAII (Michael W. Deem and Ramdas Pophale) SiO2 
 PCOD9115358
Probable space group: P 21
;
_chemical_formula_sum "Si O2"
_cell_formula_units_Z 16
_cell_length_a 7.874163
_cell_length_b 12.142052
_cell_length_c 10.678971
_cell_angle_alpha 90.000000
_cell_angle_beta 43.214271
_cell_angle_gamma 90.000000
_cell_volume 699.108203
_symmetry_space_group_name_H-M "P 21"
_symmetry_group_IT_number 4
_symmetry_cell_setting 'monoclinic'
loop_
_space_group_symop_operation_xyz
x,y,z
-x,1/2+y,-z
loop_
_atom_site_type_symbol
_atom_site_label
_atom_site_fract_x
_atom_site_fract_y
_atom_site_fract_z
Si Si1 0.647993 0.625000 0.119296
Si Si2 0.826792 0.129011 0.249484
Si Si3 0.336416 0.216040 0.615595
Si Si4 0.084064 0.041517 0.592987
Si Si5 0.396800 0.810164 0.139176
Si Si6 0.404483 0.430857 0.725383
Si Si7 0.610012 0.914829 0.805441
Si Si8 0.940212 0.965895 0.413197
O O1 0.642977 0.641117 0.269982
O O2 0.412872 0.688866 0.187124
O O3 0.614406 0.500389 0.092932
O O4 0.903442 0.674309 0.928261
O O5 0.602572 0.210241 0.402365
O O6 0.852115 0.045825 0.352733
O O7 0.747755 0.043639 0.183247
O O8 0.137683 0.154576 0.635214
O O9 0.330829 0.966741 0.476628
O O10 0.710221 0.837046 0.303193
O O11 0.058275 0.046779 0.455978
O O12 0.836024 0.974070 0.759604
O O13 0.546369 0.877700 0.166226
O O14 0.141128 0.875301 0.269436
O O15 0.520679 0.814499 0.936428
O O16 0.725766 0.901917 0.605523
#
# Coordination Sequence:
#
# PCOD9115358 Si02
#       8
#     2   2   2   2   2   2   2   2
#     4  11  23  35  61  89 111 157 189 245 293 339
#     4  11  21  37  61  85 120 146 194 243 289 343
#     4  10  20  40  56  83 118 148 196 235 287 352
#     4   8  19  35  59  78 109 155 185 231 285 332
#     4  10  21  38  57  84 117 149 199 231 291 349
#     4   9  21  37  59  83 112 156 190 237 289 339
#     4  10  20  38  59  82 115 153 188 233 295 332
#     4   9  19  38  58  82 114 152 185 239 281 344
#
# _framework density 22.886299999999999
#
# number of rings (size 3 to 8) (size 9 to 14) (size 15 to 20)
#    0.750    1.500    2.500    0.000    3.500    1.000 
#    0.000    0.000    0.000    0.000    0.000    0.000 
#    0.000    0.000    0.000    0.000    0.000    0.000 
#
# Total GULP energy -89240.516002 kJ/mol
# GULP energy per Si atom -5577.532250 kJ/mol
# Density = 2.283421 g / cm^3
# Si number density = 22.886300 Si / 1000 Ang^3
#
#
#
# Elastic Constant Matrix: (Units=GPa)
#
#
# Indices 1 2 3 4 5 6 
#
# 1 46.2815 6.0165 0.2661 0.0000 -1.7533 0.0000
# 2 6.0165 37.3856 -4.8789 0.0000 4.5004 0.0000
# 3 0.2661 -4.8789 87.5914 0.0000 -5.4427 0.0000
# 4 0.0000 0.0000 0.0000 16.7817 0.0000 -2.4171
# 5 -1.7533 4.5004 -5.4427 0.0000 22.3804 0.0000
# 6 0.0000 0.0000 0.0000 -2.4171 0.0000 32.2865
#
#
#
# Elastic Compliance Matrix: (Units=1/GPa)
#
#
# Indices 1 2 3 4 5 6 
#
# 1 0.022208 -0.003891 -0.000129 0.000000 0.002491 0.000000
# 2 -0.003891 0.028219 0.001231 0.000000 -0.005680 0.000000
# 3 -0.000129 0.001231 0.011646 0.000000 0.002574 0.000000
# 4 0.000000 0.000000 0.000000 0.060238 0.000000 0.004510
# 5 0.002491 -0.005680 0.002574 0.000000 0.046645 0.000000
# 6 0.000000 0.000000 0.000000 0.004510 0.000000 0.031310
#
#
# Mechanical properties :
#
#
# Convention : Reuss Voigt Hill
#
# Bulk Modulus (GPa) = 17.70118 19.34064 18.52091
# Shear Modulus (GPa) = 22.25430 25.61338 23.93384
#
# Velocity S-wave (km/s) = 3.12169 3.34901 3.23735
# Velocity P-wave (km/s) = 4.55461 4.83979 4.69937
#
# Compressibility (1/GPa) = 0.05649341
#
# Stress axis : x y z
#
# Youngs Moduli (GPa) = 45.02928 35.43749 85.86964
#
# Poissons Ratio (x) = 0.13787 0.01111
# Poissons Ratio (y) = 0.17519 -0.10568
# Poissons Ratio (z) = 0.00583 -0.04361
#
# Static dielectric constant tensor:
#      x y z
#    x 1.883840 0.000000 -0.016990 
#    y 0.000000 1.845080 0.000000 
#    z -0.016990 0.000000 1.845430 
# 
# From -- ./inp_files/11345.got.cif
#   From: 2010.05.17/outbox.cif.g08.bks.cpg/sg4_6_cif.got.tgz:11345.got - 2010.06.03 18:43:04.
