data_PCOD9115319
_publ_section_title
;
Structure prediction by ZEFSAII (Michael W. Deem and Ramdas Pophale) SiO2 
 PCOD9115319
Probable space group: P 21
;
_chemical_formula_sum "Si O2"
_cell_formula_units_Z 14
_cell_length_a 6.867490
_cell_length_b 12.701001
_cell_length_c 7.285662
_cell_angle_alpha 90.000000
_cell_angle_beta 120.845989
_cell_angle_gamma 90.000000
_cell_volume 545.594397
_symmetry_space_group_name_H-M "P 21"
_symmetry_group_IT_number 4
_symmetry_cell_setting 'monoclinic'
loop_
_space_group_symop_operation_xyz
x,y,z
-x,1/2+y,-z
loop_
_atom_site_type_symbol
_atom_site_label
_atom_site_fract_x
_atom_site_fract_y
_atom_site_fract_z
Si Si1 0.912239 0.046930 0.544699
Si Si2 0.894592 0.273639 0.491897
Si Si3 0.214504 0.733266 0.972869
Si Si4 0.372892 0.361960 0.741277
Si Si5 0.904593 0.567090 0.989610
Si Si6 0.363974 0.510790 0.075727
Si Si7 0.275559 0.990990 0.441413
O O1 0.800103 0.160881 0.507674
O O2 0.054317 0.047434 0.424242
O O3 0.743275 0.948086 0.450969
O O4 0.098739 0.044845 0.797417
O O5 0.780278 0.369472 0.543464
O O6 0.164817 0.279922 0.659622
O O7 0.858714 0.284684 0.254628
O O8 0.389346 0.803522 0.173478
O O9 0.356476 0.627809 0.988139
O O10 0.003856 0.683099 0.985641
O O11 0.414140 0.423799 0.950875
O O12 0.707898 0.533085 0.757502
O O13 0.109682 0.490749 0.024265
O O14 0.516621 0.516657 0.328232
#
# Coordination Sequence:
#
# PCOD9115319 Si02
#       7
#     2   2   2   2   2   2   2
#     4  11  22  44  65  91 133 164 211 263 317 375
#     4  11  19  38  65  92 122 168 209 256 316 371
#     4  10  20  37  62  90 129 160 207 261 310 367
#     4  11  21  39  69  92 123 172 211 255 318 379
#     4  10  23  44  57  93 133 160 208 275 305 378
#     4  10  20  40  63  90 127 161 208 265 308 373
#     4  11  21  42  67  88 125 173 206 259 320 379
#
# _framework density 25.660087000000001
#
# number of rings (size 3 to 8) (size 9 to 14) (size 15 to 20)
#    0.857    0.571    7.143    0.857    0.000    0.000 
#   10.286    0.000    0.000    0.000    0.000    0.000 
#    0.000    0.000    0.000    0.000    0.000    0.000 
#
# Total GULP energy -78258.109786 kJ/mol
# GULP energy per Si atom -5589.864985 kJ/mol
# Density = 2.560168 g / cm^3
# Si number density = 25.660087 Si / 1000 Ang^3
#
#
#
# Elastic Constant Matrix: (Units=GPa)
#
#
# Indices 1 2 3 4 5 6 
#
# 1 43.2903 11.8458 33.5355 0.0000 1.4741 0.0000
# 2 11.8458 126.8565 34.4235 0.0000 9.1533 0.0000
# 3 33.5355 34.4235 208.2666 0.0000 11.3982 0.0000
# 4 0.0000 0.0000 0.0000 26.8615 0.0000 10.4636
# 5 1.4741 9.1533 11.3982 0.0000 41.4939 0.0000
# 6 0.0000 0.0000 0.0000 10.4636 0.0000 26.3161
#
#
#
# Elastic Compliance Matrix: (Units=1/GPa)
#
#
# Indices 1 2 3 4 5 6 
#
# 1 0.026632 -0.001415 -0.004081 0.000000 0.000487 0.000000
# 2 -0.001415 0.008417 -0.001081 0.000000 -0.001510 0.000000
# 3 -0.004081 -0.001081 0.005702 0.000000 -0.001183 0.000000
# 4 0.000000 0.000000 0.000000 0.044051 0.000000 -0.017515
# 5 0.000487 -0.001510 -0.001183 0.000000 0.024741 0.000000
# 6 0.000000 0.000000 0.000000 -0.017515 0.000000 0.044964
#
#
# Mechanical properties :
#
#
# Convention : Reuss Voigt Hill
#
# Bulk Modulus (GPa) = 36.23447 59.78036 48.00741
# Shear Modulus (GPa) = 28.27112 38.84155 33.55633
#
# Velocity S-wave (km/s) = 3.32287 3.89484 3.62017
# Velocity P-wave (km/s) = 5.37341 6.60106 6.01862
#
# Compressibility (1/GPa) = 0.02759803
#
# Stress axis : x y z
#
# Youngs Moduli (GPa) = 37.54899 118.80376 175.37445
#
# Poissons Ratio (x) = 0.16806 0.71573
# Poissons Ratio (y) = 0.05312 0.18955
# Poissons Ratio (z) = 0.15324 0.12841
#
# Static dielectric constant tensor:
#      x y z
#    x 2.033980 0.000000 0.001530 
#    y 0.000000 2.058570 0.000000 
#    z 0.001530 0.000000 2.009280 
# 
# From -- ./inp_files/8234.got.cif
#   From: 2010.05.17/outbox.cif.g08.bks.cpg/sg4_5_cif.got.tgz:8234.got - 2010.06.03 18:43:04.
