data_PCOD9115614
_publ_section_title
;
Structure prediction by ZEFSAII (Michael W. Deem and Ramdas Pophale) SiO2 
 PCOD9115614
Probable space group: P 21
;
_chemical_formula_sum "Si O2"
_cell_formula_units_Z 16
_cell_length_a 4.999164
_cell_length_b 12.431591
_cell_length_c 11.344331
_cell_angle_alpha 90.000000
_cell_angle_beta 117.129214
_cell_angle_gamma 90.000000
_cell_volume 627.456232
_symmetry_space_group_name_H-M "P 21"
_symmetry_group_IT_number 4
_symmetry_cell_setting 'monoclinic'
loop_
_space_group_symop_operation_xyz
x,y,z
-x,1/2+y,-z
loop_
_atom_site_type_symbol
_atom_site_label
_atom_site_fract_x
_atom_site_fract_y
_atom_site_fract_z
Si Si1 0.003638 0.526800 0.818327
Si Si2 0.596267 0.542272 0.026747
Si Si3 0.611878 0.241263 0.685509
Si Si4 0.793542 0.338642 0.944596
Si Si5 0.774758 0.016299 0.731248
Si Si6 0.950181 0.876383 0.380948
Si Si7 0.766551 0.389771 0.320649
Si Si8 0.329300 0.210169 0.170939
O O1 0.125428 0.476327 0.720415
O O2 0.848868 0.426345 0.852654
O O3 0.804039 0.631798 0.755488
O O4 0.241062 0.558248 0.968589
O O5 0.909278 0.562705 0.155405
O O6 0.611744 0.412986 0.999260
O O7 0.618088 0.625211 0.921818
O O8 0.643037 0.245598 0.835715
O O9 0.602180 0.118264 0.642834
O O10 0.327361 0.318185 0.611062
O O11 0.892532 0.289579 0.671736
O O12 0.076849 0.291992 0.070809
O O13 0.519712 0.967177 0.765569
O O14 0.923801 0.923415 0.680386
O O15 0.178739 0.906309 0.529968
O O16 0.630577 0.273340 0.265149
#
# Coordination Sequence:
#
# PCOD9115614 Si02
#       8
#     2   2   2   2   2   2   2   2
#     4  10  24  40  69 104 140 195 246 295 370 450
#     4  11  22  40  69 102 141 180 237 299 372 446
#     4  11  23  46  75 103 134 195 243 292 368 436
#     4  10  20  41  65 100 143 180 232 302 362 437
#     4  12  26  45  73 108 142 185 243 311 373 442
#     4  11  25  49  73  97 146 194 247 299 356 441
#     4  12  28  48  69 105 150 192 243 307 367 436
#     4  11  24  41  69 105 146 189 237 305 380 444
#
# _framework density 25.499789
#
# number of rings (size 3 to 8) (size 9 to 14) (size 15 to 20)
#    0.000    1.000    3.750    2.250    3.500    3.000 
#    4.500    0.000    0.000    0.000    0.000    0.000 
#    0.000    0.000    0.000    0.000    0.000    0.000 
#
# Total GULP energy -89253.051186 kJ/mol
# GULP energy per Si atom -5578.315699 kJ/mol
# Density = 2.544175 g / cm^3
# Si number density = 25.499789 Si / 1000 Ang^3
#
#
#
# Elastic Constant Matrix: (Units=GPa)
#
#
# Indices 1 2 3 4 5 6 
#
# 1 99.0509 32.0173 -5.3694 0.0000 12.1819 0.0000
# 2 32.0173 108.7052 20.2672 0.0000 12.7518 0.0000
# 3 -5.3694 20.2672 85.6351 0.0000 12.0822 0.0000
# 4 0.0000 0.0000 0.0000 13.9970 0.0000 3.9840
# 5 12.1819 12.7518 12.0822 0.0000 21.7126 0.0000
# 6 0.0000 0.0000 0.0000 3.9840 0.0000 41.5625
#
#
#
# Elastic Compliance Matrix: (Units=1/GPa)
#
#
# Indices 1 2 3 4 5 6 
#
# 1 0.012042 -0.003270 0.002400 0.000000 -0.006171 0.000000
# 2 -0.003270 0.010987 -0.002337 0.000000 -0.003317 0.000000
# 3 0.002400 -0.002337 0.013432 0.000000 -0.007448 0.000000
# 4 0.000000 0.000000 0.000000 0.073448 0.000000 -0.007040
# 5 -0.006171 -0.003317 -0.007448 0.000000 0.055611 0.000000
# 6 0.000000 0.000000 0.000000 -0.007040 0.000000 0.024735
#
#
# Mechanical properties :
#
#
# Convention : Reuss Voigt Hill
#
# Bulk Modulus (GPa) = 33.28320 43.02460 38.15390
# Shear Modulus (GPa) = 24.19128 31.88616 28.03872
#
# Velocity S-wave (km/s) = 3.08342 3.54000 3.31957
# Velocity P-wave (km/s) = 5.07516 5.79810 5.44864
#
# Compressibility (1/GPa) = 0.03004518
#
# Stress axis : x y z
#
# Youngs Moduli (GPa) = 83.04331 91.01398 74.44952
#
# Poissons Ratio (x) = 0.29764 -0.17865
# Poissons Ratio (y) = 0.27157 0.17402
# Poissons Ratio (z) = -0.19927 0.21273
#
# Static dielectric constant tensor:
#      x y z
#    x 2.100890 0.000000 -0.005260 
#    y 0.000000 2.089680 0.000000 
#    z -0.005260 0.000000 2.103830 
# 
# From -- ./inp_files/3800.got.cif
#   From: 2010.05.17/outbox.cif.g08.bks.cpg/sg4_2_cif.got.tgz:3800.got - 2010.06.03 18:43:04.
