data_PCOD9115267
_publ_section_title
;
Structure prediction by ZEFSAII (Michael W. Deem and Ramdas Pophale) SiO2 
 PCOD9115267
Probable space group: P 21
;
_chemical_formula_sum "Si O2"
_cell_formula_units_Z 16
_cell_length_a 20.996760
_cell_length_b 5.183427
_cell_length_c 7.021876
_cell_angle_alpha 90.000000
_cell_angle_beta 68.248008
_cell_angle_gamma 90.000000
_cell_volume 709.811573
_symmetry_space_group_name_H-M "P 21"
_symmetry_group_IT_number 4
_symmetry_cell_setting 'monoclinic'
loop_
_space_group_symop_operation_xyz
x,y,z
-x,1/2+y,-z
loop_
_atom_site_type_symbol
_atom_site_label
_atom_site_fract_x
_atom_site_fract_y
_atom_site_fract_z
Si Si1 0.007301 0.993260 0.863797
Si Si2 0.136198 0.385569 0.042828
Si Si3 0.517855 0.511193 0.230138
Si Si4 0.849314 0.386067 0.228167
Si Si5 0.441317 0.014294 0.369905
Si Si6 0.664782 0.307189 0.014832
Si Si7 0.277141 0.313643 0.062096
Si Si8 0.291336 0.975816 0.402509
O O1 0.083933 0.928363 0.710999
O O2 0.996388 0.782615 0.047325
O O3 0.941380 0.944108 0.804053
O O4 0.149768 0.602638 0.865725
O O5 0.139225 0.101424 0.947796
O O6 0.199363 0.400243 0.117132
O O7 0.486193 0.788836 0.222789
O O8 0.536858 0.513717 0.433787
O O9 0.461859 0.289616 0.262240
O O10 0.589601 0.419415 0.062265
O O11 0.778312 0.442186 0.409347
O O12 0.360768 0.967314 0.444610
O O13 0.707754 0.538571 0.060127
O O14 0.700795 0.261571 0.771137
O O15 0.671843 0.023348 0.090270
O O16 0.290861 0.224981 0.263682
#
# Coordination Sequence:
#
# PCOD9115267 Si02
#       8
#     2   2   2   2   2   2   2   2
#     4   8  16  33  56  86 115 145 198 242 285 331
#     4  10  20  36  63  87 115 159 202 243 288 350
#     4  10  22  42  59  85 112 147 200 244 292 352
#     4  10  21  36  62  90 116 156 197 253 289 342
#     4  10  23  38  62  86 111 147 195 252 291 344
#     4  10  23  40  58  81 120 158 185 243 287 371
#     4  10  23  38  56  88 119 154 193 238 291 361
#     4  10  26  37  60  87 126 150 194 241 303 357
#
# _framework density 22.541191000000001
#
# number of rings (size 3 to 8) (size 9 to 14) (size 15 to 20)
#    0.750    1.500    0.000    1.500    7.000    1.000 
#    0.000    0.000    2.750    0.000    0.000    0.000 
#    0.000    0.000    0.000    0.000    0.000    0.000 
#
# Total GULP energy -89203.861305 kJ/mol
# GULP energy per Si atom -5575.241332 kJ/mol
# Density = 2.248989 g / cm^3
# Si number density = 22.541191 Si / 1000 Ang^3
#
#
#
# Elastic Constant Matrix: (Units=GPa)
#
#
# Indices 1 2 3 4 5 6 
#
# 1 128.8170 -1.0763 22.7580 0.0000 -28.3932 0.0000
# 2 -1.0763 96.5040 -4.6490 0.0000 10.5858 0.0000
# 3 22.7580 -4.6490 37.3515 0.0000 -14.7664 0.0000
# 4 0.0000 0.0000 0.0000 9.7935 0.0000 -6.6101
# 5 -28.3932 10.5858 -14.7664 0.0000 26.9134 0.0000
# 6 0.0000 0.0000 0.0000 -6.6101 0.0000 24.2884
#
#
#
# Elastic Compliance Matrix: (Units=1/GPa)
#
#
# Indices 1 2 3 4 5 6 
#
# 1 0.010410 -0.001106 -0.002512 0.000000 0.010040 0.000000
# 2 -0.001106 0.010952 -0.000162 0.000000 -0.005564 0.000000
# 3 -0.002512 -0.000162 0.034811 0.000000 0.016514 0.000000
# 4 0.000000 0.000000 0.000000 0.125086 0.000000 0.034042
# 5 0.010040 -0.005564 0.016514 0.000000 0.058997 0.000000
# 6 0.000000 0.000000 0.000000 0.034042 0.000000 0.050436
#
#
# Mechanical properties :
#
#
# Convention : Reuss Voigt Hill
#
# Bulk Modulus (GPa) = 20.57035 32.97087 26.77061
# Shear Modulus (GPa) = 15.90037 28.57505 22.23771
#
# Velocity S-wave (km/s) = 2.65880 3.56431 3.14433
# Velocity P-wave (km/s) = 4.30942 5.62119 5.00844
#
# Compressibility (1/GPa) = 0.04861366
#
# Stress axis : x y z
#
# Youngs Moduli (GPa) = 96.05824 91.30380 28.72633
#
# Poissons Ratio (x) = 0.10100 0.07215
# Poissons Ratio (y) = 0.10626 0.00467
# Poissons Ratio (z) = 0.24126 0.01483
#
# Static dielectric constant tensor:
#      x y z
#    x 1.877460 0.000000 -0.002470 
#    y 0.000000 1.939000 0.000000 
#    z -0.002470 0.000000 1.853350 
# 
# From -- ./inp_files/9785.got.cif
#   From: 2010.05.17/outbox.cif.g08.bks.cpg/sg4_5_cif.got.tgz:9785.got - 2010.06.03 18:43:04.
