data_PCOD9115736
_publ_section_title
;
Structure prediction by ZEFSAII (Michael W. Deem and Ramdas Pophale) SiO2 
 PCOD9115736
Probable space group: P 21
;
_chemical_formula_sum "Si O2"
_cell_formula_units_Z 16
_cell_length_a 9.191651
_cell_length_b 10.160131
_cell_length_c 7.949488
_cell_angle_alpha 90.000000
_cell_angle_beta 83.400793
_cell_angle_gamma 90.000000
_cell_volume 737.470982
_symmetry_space_group_name_H-M "P 21"
_symmetry_group_IT_number 4
_symmetry_cell_setting 'monoclinic'
loop_
_space_group_symop_operation_xyz
x,y,z
-x,1/2+y,-z
loop_
_atom_site_type_symbol
_atom_site_label
_atom_site_fract_x
_atom_site_fract_y
_atom_site_fract_z
Si Si1 0.064656 0.331360 0.020432
Si Si2 0.495536 0.037449 0.482817
Si Si3 0.736541 0.847276 0.313843
Si Si4 0.695787 0.190156 0.670103
Si Si5 0.899072 0.936114 0.624119
Si Si6 0.187513 0.979165 0.403618
Si Si7 0.580710 0.599133 0.175504
Si Si8 0.858381 0.546729 0.948850
O O1 0.121974 0.357131 0.200660
O O2 0.059081 0.175159 0.990898
O O3 0.314590 0.059872 0.988839
O O4 0.916392 0.412647 0.021027
O O5 0.595578 0.163615 0.516136
O O6 0.460286 0.988604 0.680034
O O7 0.596569 0.938542 0.367205
O O8 0.338845 0.052896 0.420302
O O9 0.835134 0.859782 0.468863
O O10 0.676546 0.704600 0.269290
O O11 0.829345 0.889237 0.138108
O O12 0.766920 0.331330 0.654765
O O13 0.576422 0.167371 0.834628
O O14 0.812833 0.073450 0.652958
O O15 0.069395 0.967828 0.566825
O O16 0.112756 0.043369 0.252650
#
# Coordination Sequence:
#
# PCOD9115736 Si02
#       8
#     2   2   2   2   2   2   2   2
#     4  11  26  44  69 104 144 183 232 294 356 409
#     4   9  19  39  68  94 130 181 224 279 352 410
#     4  10  20  44  65  99 141 179 228 296 342 418
#     4   9  23  42  65 100 137 185 225 296 354 408
#     4  11  25  40  74  99 137 186 234 284 357 419
#     4  12  23  41  71 103 136 188 236 284 359 427
#     4   9  20  42  66  90 143 178 225 292 348 401
#     4  11  26  44  68 107 142 184 238 293 350 422
#
# _framework density 21.695768000000001
#
# number of rings (size 3 to 8) (size 9 to 14) (size 15 to 20)
#    0.750    1.000    2.500    0.750    5.250    1.000 
#    0.000    0.000    2.750    0.000    0.000    0.000 
#    0.000    0.000    0.000    0.000    0.000    0.000 
#
# Total GULP energy -89195.781247 kJ/mol
# GULP energy per Si atom -5574.736328 kJ/mol
# Density = 2.164639 g / cm^3
# Si number density = 21.695768 Si / 1000 Ang^3
#
#
#
# Elastic Constant Matrix: (Units=GPa)
#
#
# Indices 1 2 3 4 5 6 
#
# 1 90.3673 18.3414 13.8213 0.0000 -16.3128 0.0000
# 2 18.3414 59.7967 -1.5380 0.0000 -12.2405 0.0000
# 3 13.8213 -1.5380 99.6469 0.0000 -17.5903 0.0000
# 4 0.0000 0.0000 0.0000 23.9604 0.0000 -2.4082
# 5 -16.3128 -12.2405 -17.5903 0.0000 36.5393 0.0000
# 6 0.0000 0.0000 0.0000 -2.4082 0.0000 29.5528
#
#
#
# Elastic Compliance Matrix: (Units=1/GPa)
#
#
# Indices 1 2 3 4 5 6 
#
# 1 0.012586 -0.003053 -0.001073 0.000000 0.004080 0.000000
# 2 -0.003053 0.018892 0.001739 0.000000 0.005803 0.000000
# 3 -0.001073 0.001739 0.011179 0.000000 0.005486 0.000000
# 4 0.000000 0.000000 0.000000 0.042080 0.000000 0.003429
# 5 0.004080 0.005803 0.005486 0.000000 0.033774 0.000000
# 6 0.000000 0.000000 0.000000 0.003429 0.000000 0.034117
#
#
# Mechanical properties :
#
#
# Convention : Reuss Voigt Hill
#
# Bulk Modulus (GPa) = 26.39512 34.56226 30.47869
# Shear Modulus (GPa) = 29.40649 32.62289 31.01469
#
# Velocity S-wave (km/s) = 3.68557 3.88190 3.78501
# Velocity P-wave (km/s) = 5.50488 6.00477 5.76025
#
# Compressibility (1/GPa) = 0.03788579
#
# Stress axis : x y z
#
# Youngs Moduli (GPa) = 79.45243 52.93114 89.44994
#
# Poissons Ratio (x) = 0.16160 0.09595
# Poissons Ratio (y) = 0.24257 -0.15560
# Poissons Ratio (z) = 0.08522 -0.09207
#
# Static dielectric constant tensor:
#      x y z
#    x 1.829650 0.000000 -0.005410 
#    y 0.000000 1.809990 0.000000 
#    z -0.005410 0.000000 1.822070 
# 
# From -- ./inp_files/5928.got.cif
#   From: 2010.05.17/outbox.cif.g08.bks.cpg/sg4_3_cif.got.tgz:5928.got - 2010.06.03 18:43:04.
