data_PCOD9115588
_publ_section_title
;
Structure prediction by ZEFSAII (Michael W. Deem and Ramdas Pophale) SiO2 
 PCOD9115588
Probable space group: P 21
;
_chemical_formula_sum "Si O2"
_cell_formula_units_Z 16
_cell_length_a 21.827214
_cell_length_b 5.072594
_cell_length_c 5.171995
_cell_angle_alpha 90.000000
_cell_angle_beta 85.936985
_cell_angle_gamma 90.000000
_cell_volume 571.207146
_symmetry_space_group_name_H-M "P 21"
_symmetry_group_IT_number 4
_symmetry_cell_setting 'monoclinic'
loop_
_space_group_symop_operation_xyz
x,y,z
-x,1/2+y,-z
loop_
_atom_site_type_symbol
_atom_site_label
_atom_site_fract_x
_atom_site_fract_y
_atom_site_fract_z
Si Si1 0.607319 0.039520 0.923983
Si Si2 0.987077 0.271663 0.847923
Si Si3 0.888983 0.680449 0.407003
Si Si4 0.767259 0.520177 0.316706
Si Si5 0.537572 0.732965 0.574862
Si Si6 0.743974 0.851629 0.827219
Si Si7 0.863124 0.026940 0.906183
Si Si8 0.633196 0.366115 0.407418
O O1 0.613097 0.237663 0.680741
O O2 0.554416 0.835303 0.856771
O O3 0.673440 0.901588 0.904768
O O4 0.603343 0.217394 0.176469
O O5 0.914778 0.240826 0.821984
O O6 0.037683 0.146919 0.639897
O O7 0.997801 0.070289 0.084917
O O8 0.838682 0.452730 0.356250
O O9 0.875683 0.804076 0.686752
O O10 0.874222 0.892690 0.181526
O O11 0.753476 0.748335 0.534812
O O12 0.706931 0.342599 0.368902
O O13 0.763299 0.635337 0.031935
O O14 0.603949 0.659244 0.426753
O O15 0.501111 0.967694 0.448361
O O16 0.791423 0.087947 0.880004
#
# Coordination Sequence:
#
# PCOD9115588 Si02
#       8
#     2   2   2   2   2   2   2   2
#     4  12  27  49  78 116 156 201 256 318 383 454
#     4  10  22  42  66  94 140 186 244 302 364 438
#     4   9  20  38  62  98 138 187 240 300 366 438
#     4  10  20  40  71 102 145 190 246 307 375 445
#     4  12  28  58  82 120 160 210 258 322 388 474
#     4  10  20  40  71 102 145 190 246 307 375 445
#     4   9  20  38  62  98 138 187 240 300 366 438
#     4  12  27  49  78 116 156 201 256 318 383 454
#
# _framework density 28.010856
#
# number of rings (size 3 to 8) (size 9 to 14) (size 15 to 20)
#    0.000    1.500    2.500    1.500    0.000    5.000 
#    4.500    6.250    0.000    0.000    0.000    0.000 
#    0.000    0.000    0.000    0.000    0.000    0.000 
#
# Total GULP energy -89667.215733 kJ/mol
# GULP energy per Si atom -5604.200983 kJ/mol
# Density = 2.794710 g / cm^3
# Si number density = 28.010856 Si / 1000 Ang^3
#
#
#
# Elastic Constant Matrix: (Units=GPa)
#
#
# Indices 1 2 3 4 5 6 
#
# 1 151.7250 45.7157 32.6638 0.0000 9.9410 0.0000
# 2 45.7157 115.0580 49.5202 0.0000 18.7833 0.0000
# 3 32.6638 49.5202 152.1213 0.0000 5.1135 0.0000
# 4 0.0000 0.0000 0.0000 26.6663 0.0000 -9.3582
# 5 9.9410 18.7833 5.1135 0.0000 48.3001 0.0000
# 6 0.0000 0.0000 0.0000 -9.3582 0.0000 49.0195
#
#
#
# Elastic Compliance Matrix: (Units=1/GPa)
#
#
# Indices 1 2 3 4 5 6 
#
# 1 0.007570 -0.002604 -0.000762 0.000000 -0.000465 0.000000
# 2 -0.002604 0.011666 -0.003115 0.000000 -0.003671 0.000000
# 3 -0.000762 -0.003115 0.007733 0.000000 0.000550 0.000000
# 4 0.000000 0.000000 0.000000 0.040193 0.000000 0.007673
# 5 -0.000465 -0.003671 0.000550 0.000000 0.022169 0.000000
# 6 0.000000 0.000000 0.000000 0.007673 0.000000 0.021865
#
#
# Mechanical properties :
#
#
# Convention : Reuss Voigt Hill
#
# Bulk Modulus (GPa) = 71.39536 74.96709 73.18122
# Shear Modulus (GPa) = 38.81170 44.19748 41.50459
#
# Velocity S-wave (km/s) = 3.72640 3.97655 3.85350
# Velocity P-wave (km/s) = 6.63766 6.92139 6.78101
#
# Compressibility (1/GPa) = 0.01400651
#
# Stress axis : x y z
#
# Youngs Moduli (GPa) = 132.10105 85.72019 129.31683
#
# Poissons Ratio (x) = 0.22320 0.09856
# Poissons Ratio (y) = 0.34397 0.40283
# Poissons Ratio (z) = 0.10069 0.26703
#
# Static dielectric constant tensor:
#      x y z
#    x 2.341550 0.000000 -0.035070 
#    y 0.000000 2.191680 0.000000 
#    z -0.035070 0.000000 2.132930 
# 
# From -- ./inp_files/4298.got.cif
#   From: 2010.05.17/outbox.cif.g08.bks.cpg/sg4_3_cif.got.tgz:4298.got - 2010.06.03 18:43:04.
