data_PCOD9115832
_publ_section_title
;
Structure prediction by ZEFSAII (Michael W. Deem and Ramdas Pophale) SiO2 
 PCOD9115832
Probable space group: P 21
;
_chemical_formula_sum "Si O2"
_cell_formula_units_Z 16
_cell_length_a 18.798766
_cell_length_b 8.136590
_cell_length_c 6.973911
_cell_angle_alpha 90.000000
_cell_angle_beta 46.905939
_cell_angle_gamma 90.000000
_cell_volume 778.950192
_symmetry_space_group_name_H-M "P 21"
_symmetry_group_IT_number 4
_symmetry_cell_setting 'monoclinic'
loop_
_space_group_symop_operation_xyz
x,y,z
-x,1/2+y,-z
loop_
_atom_site_type_symbol
_atom_site_label
_atom_site_fract_x
_atom_site_fract_y
_atom_site_fract_z
Si Si1 0.899521 0.021850 0.408197
Si Si2 0.015727 0.177739 0.901795
Si Si3 0.384846 0.907628 0.013834
Si Si4 0.269629 0.409106 0.522103
Si Si5 0.841979 0.059074 0.947367
Si Si6 0.318816 0.841555 0.717058
Si Si7 0.447204 0.642537 0.184069
Si Si8 0.774952 0.540566 0.442442
O O1 0.795131 0.024704 0.496394
O O2 0.882102 0.015678 0.665220
O O3 0.948332 0.854619 0.236633
O O4 0.965891 0.168668 0.203632
O O5 0.110198 0.060466 0.738914
O O6 0.932796 0.115279 0.910037
O O7 0.278872 0.924964 0.306597
O O8 0.435297 0.743877 0.008598
O O9 0.448943 0.064316 0.960796
O O10 0.369042 0.903965 0.816881
O O11 0.375178 0.486613 0.325631
O O12 0.264907 0.224725 0.460190
O O13 0.215479 0.418807 0.827941
O O14 0.760998 0.202596 0.084211
O O15 0.402609 0.764916 0.426383
O O16 0.259221 0.973562 0.700989
#
# Coordination Sequence:
#
# PCOD9115832 Si02
#       8
#     2   2   2   2   2   2   2   2
#     4  10  21  37  57  82 113 155 197 242 297 349
#     4  10  22  37  57  85 118 154 197 247 290 348
#     4  11  23  40  64  88 118 160 196 241 301 354
#     4   9  20  39  58  83 119 150 193 248 291 347
#     4  10  21  38  60  85 117 159 198 240 298 351
#     4  10  23  40  61  90 121 153 197 248 293 349
#     4  10  22  40  61  88 117 153 197 243 296 352
#     4  10  22  39  58  87 121 154 197 245 294 350
#
# _framework density 20.540467
#
# number of rings (size 3 to 8) (size 9 to 14) (size 15 to 20)
#    0.000    2.000    0.000    2.250    0.000   13.000 
#    0.000    3.750    0.000    0.000    0.000    0.000 
#    0.000    0.000    0.000    0.000    0.000    0.000 
#
# Total GULP energy -89339.401984 kJ/mol
# GULP energy per Si atom -5583.712624 kJ/mol
# Density = 2.049372 g / cm^3
# Si number density = 20.540467 Si / 1000 Ang^3
#
#
#
# Elastic Constant Matrix: (Units=GPa)
#
#
# Indices 1 2 3 4 5 6 
#
# 1 65.7578 0.3401 34.5293 0.0000 -8.0461 0.0000
# 2 0.3401 41.2813 2.5280 0.0000 -9.4418 0.0000
# 3 34.5293 2.5280 66.4845 0.0000 1.3158 0.0000
# 4 0.0000 0.0000 0.0000 15.2858 0.0000 -2.2209
# 5 -8.0461 -9.4418 1.3158 0.0000 34.7441 0.0000
# 6 0.0000 0.0000 0.0000 -2.2209 0.0000 26.2071
#
#
#
# Elastic Compliance Matrix: (Units=1/GPa)
#
#
# Indices 1 2 3 4 5 6 
#
# 1 0.022057 0.001920 -0.011649 0.000000 0.006071 0.000000
# 2 0.001920 0.026081 -0.002140 0.000000 0.007613 0.000000
# 3 -0.011649 -0.002140 0.021253 0.000000 -0.004084 0.000000
# 4 0.000000 0.000000 0.000000 0.066236 0.000000 0.005613
# 5 0.006071 0.007613 -0.004084 0.000000 0.032411 0.000000
# 6 0.000000 0.000000 0.000000 0.005613 0.000000 0.038633
#
#
# Mechanical properties :
#
#
# Convention : Reuss Voigt Hill
#
# Bulk Modulus (GPa) = 21.90370 27.59094 24.74732
# Shear Modulus (GPa) = 20.35624 24.32248 22.33936
#
# Velocity S-wave (km/s) = 3.15148 3.44484 3.30142
# Velocity P-wave (km/s) = 4.89175 5.41149 5.15817
#
# Compressibility (1/GPa) = 0.04565438
#
# Stress axis : x y z
#
# Youngs Moduli (GPa) = 45.33736 38.34282 47.05203
#
# Poissons Ratio (x) = -0.07363 0.54809
# Poissons Ratio (y) = -0.08706 0.10067
# Poissons Ratio (z) = 0.52812 0.08204
#
# Static dielectric constant tensor:
#      x y z
#    x 1.725630 0.000000 -0.014880 
#    y 0.000000 1.747090 0.000000 
#    z -0.014880 0.000000 1.733270 
# 
# From -- ./inp_files/3442.got.cif
#   From: 2010.05.17/outbox.cif.g08.bks.cpg/sg4_2_cif.got.tgz:3442.got - 2010.06.03 18:43:04.
