data_PCOD9115858
_publ_section_title
;
Structure prediction by ZEFSAII (Michael W. Deem and Ramdas Pophale) SiO2 
 PCOD9115858
Probable space group: P 21
;
_chemical_formula_sum "Si O2"
_cell_formula_units_Z 16
_cell_length_a 10.490911
_cell_length_b 13.802634
_cell_length_c 5.267223
_cell_angle_alpha 90.000000
_cell_angle_beta 100.794470
_cell_angle_gamma 90.000000
_cell_volume 749.209683
_symmetry_space_group_name_H-M "P 21"
_symmetry_group_IT_number 4
_symmetry_cell_setting 'monoclinic'
loop_
_space_group_symop_operation_xyz
x,y,z
-x,1/2+y,-z
loop_
_atom_site_type_symbol
_atom_site_label
_atom_site_fract_x
_atom_site_fract_y
_atom_site_fract_z
Si Si1 0.504484 0.441230 0.187162
Si Si2 0.941698 0.555436 0.790217
Si Si3 0.758292 0.428188 0.051492
Si Si4 0.694488 0.667007 0.552737
Si Si5 0.325956 0.285075 0.955334
Si Si6 0.044122 0.764955 0.882494
Si Si7 0.481896 0.008329 0.305690
Si Si8 0.928872 0.862289 0.337980
O O1 0.661379 0.450451 0.250157
O O2 0.443234 0.458817 0.437296
O O3 0.459413 0.338456 0.065052
O O4 0.458466 0.515020 0.950518
O O5 0.822163 0.601235 0.591696
O O6 0.033490 0.648440 0.872655
O O7 0.011650 0.469079 0.666605
O O8 0.871591 0.503656 0.009694
O O9 0.819613 0.322241 0.095271
O O10 0.646158 0.442184 0.797708
O O11 0.665381 0.707154 0.264630
O O12 0.571355 0.608091 0.608566
O O13 0.720606 0.741199 0.794807
O O14 0.221347 0.359358 0.798100
O O15 0.961082 0.812347 0.618689
O O16 0.994086 0.798267 0.139591
#
# Coordination Sequence:
#
# PCOD9115858 Si02
#       8
#     2   2   2   2   2   2   2   2
#     4  10  21  37  62  83 122 159 200 252 307 358
#     4  10  21  40  62  91 123 161 211 249 305 369
#     4   8  22  36  63  89 119 161 206 245 311 356
#     4  11  22  37  64  89 120 159 216 243 295 379
#     4  12  22  40  60  94 127 158 203 253 313 362
#     4  11  22  38  61  90 125 158 208 257 303 362
#     4   9  20  37  60  90 114 162 206 249 294 365
#     4  11  24  37  60  92 124 162 198 260 310 361
#
# _framework density 21.355836
#
# number of rings (size 3 to 8) (size 9 to 14) (size 15 to 20)
#    0.750    1.000    2.500    1.500    5.250    3.000 
#    0.000    2.500    0.000    0.000    0.000    0.000 
#    0.000    0.000    0.000    0.000    0.000    0.000 
#
# Total GULP energy -89091.848778 kJ/mol
# GULP energy per Si atom -5568.240549 kJ/mol
# Density = 2.130723 g / cm^3
# Si number density = 21.355836 Si / 1000 Ang^3
#
#
#
# Elastic Constant Matrix: (Units=GPa)
#
#
# Indices 1 2 3 4 5 6 
#
# 1 32.4438 25.1739 15.1734 0.0000 -1.5286 0.0000
# 2 25.1739 112.1671 24.7204 0.0000 -1.5105 0.0000
# 3 15.1734 24.7204 123.6498 0.0000 -9.5283 0.0000
# 4 0.0000 0.0000 0.0000 32.3356 0.0000 10.9818
# 5 -1.5286 -1.5105 -9.5283 0.0000 18.9765 0.0000
# 6 0.0000 0.0000 0.0000 10.9818 0.0000 31.5362
#
#
#
# Elastic Compliance Matrix: (Units=1/GPa)
#
#
# Indices 1 2 3 4 5 6 
#
# 1 0.038462 -0.007945 -0.003060 0.000000 0.000929 0.000000
# 2 -0.007945 0.010968 -0.001248 0.000000 -0.000394 0.000000
# 3 -0.003060 -0.001248 0.009035 0.000000 0.004191 0.000000
# 4 0.000000 0.000000 0.000000 0.035074 0.000000 -0.012214
# 5 0.000929 -0.000394 0.004191 0.000000 0.054845 0.000000
# 6 0.000000 0.000000 0.000000 -0.012214 0.000000 0.035963
#
#
# Mechanical properties :
#
#
# Convention : Reuss Voigt Hill
#
# Bulk Modulus (GPa) = 29.44693 44.26624 36.85658
# Shear Modulus (GPa) = 22.70939 30.11583 26.41261
#
# Velocity S-wave (km/s) = 3.26449 3.75933 3.52061
# Velocity P-wave (km/s) = 5.29413 6.29415 5.81567
#
# Compressibility (1/GPa) = 0.03395940
#
# Stress axis : x y z
#
# Youngs Moduli (GPa) = 25.99949 91.17237 110.67699
#
# Poissons Ratio (x) = 0.72439 0.33864
# Poissons Ratio (y) = 0.20657 0.13814
# Poissons Ratio (z) = 0.07955 0.11380
#
# Static dielectric constant tensor:
#      x y z
#    x 1.826340 0.000000 -0.035720 
#    y 0.000000 1.812070 0.000000 
#    z -0.035720 0.000000 1.833160 
# 
# From -- ./inp_files/2997.got.cif
#   From: 2010.05.17/outbox.cif.g08.bks.cpg/sg4_2_cif.got.tgz:2997.got - 2010.06.03 18:43:04.
