data_PCOD9115399
_publ_section_title
;
Structure prediction by ZEFSAII (Michael W. Deem and Ramdas Pophale) SiO2 
 PCOD9115399
Probable space group: P 21
;
_chemical_formula_sum "Si O2"
_cell_formula_units_Z 16
_cell_length_a 10.729229
_cell_length_b 7.934024
_cell_length_c 7.272127
_cell_angle_alpha 90.000000
_cell_angle_beta 103.893233
_cell_angle_gamma 90.000000
_cell_volume 600.936486
_symmetry_space_group_name_H-M "P 21"
_symmetry_group_IT_number 4
_symmetry_cell_setting 'monoclinic'
loop_
_space_group_symop_operation_xyz
x,y,z
-x,1/2+y,-z
loop_
_atom_site_type_symbol
_atom_site_label
_atom_site_fract_x
_atom_site_fract_y
_atom_site_fract_z
Si Si1 0.933029 0.079370 0.944176
Si Si2 0.197000 0.061186 0.661085
Si Si3 0.281745 0.793301 0.941444
Si Si4 0.645266 0.069543 0.343999
Si Si5 0.118119 0.904272 0.270753
Si Si6 0.636699 0.595304 0.736470
Si Si7 0.424785 0.241967 0.881004
Si Si8 0.828095 0.850339 0.611302
O O1 0.806642 0.148435 0.003490
O O2 0.952626 0.234452 0.812198
O O3 0.034854 0.046421 0.139575
O O4 0.915743 0.916319 0.808296
O O5 0.348934 0.115344 0.718692
O O6 0.135286 0.237144 0.555216
O O7 0.195930 0.961037 0.856156
O O8 0.135413 0.937298 0.490249
O O9 0.323132 0.739571 0.747934
O O10 0.424472 0.776854 0.080884
O O11 0.635971 0.922985 0.185530
O O12 0.760117 0.019288 0.515672
O O13 0.506119 0.066198 0.390477
O O14 0.263909 0.936466 0.242927
O O15 0.716218 0.738912 0.663279
O O16 0.607136 0.666785 0.930124
#
# Coordination Sequence:
#
# PCOD9115399 Si02
#       8
#     2   2   2   2   2   2   2   2
#     4  12  25  45  68  94 129 179 230 281 340 400
#     4  10  22  42  64  96 133 171 218 273 330 395
#     4  11  22  40  66  96 130 171 218 270 334 400
#     4  10  21  36  60  94 127 163 210 269 332 398
#     4  11  24  43  66  93 130 174 229 280 332 397
#     4  10  21  38  62  92 127 171 216 270 331 399
#     4  10  20  38  63  95 134 169 211 268 337 401
#     4  10  23  40  63  94 132 172 218 275 336 400
#
# _framework density 26.625112000000001
#
# number of rings (size 3 to 8) (size 9 to 14) (size 15 to 20)
#    0.000    1.500    0.000    6.000    0.000    9.000 
#    0.000   10.000    0.000    0.000    0.000    0.000 
#    0.000    0.000    0.000    0.000    0.000    0.000 
#
# Total GULP energy -89260.739731 kJ/mol
# GULP energy per Si atom -5578.796233 kJ/mol
# Density = 2.656451 g / cm^3
# Si number density = 26.625112 Si / 1000 Ang^3
#
#
#
# Elastic Constant Matrix: (Units=GPa)
#
#
# Indices 1 2 3 4 5 6 
#
# 1 75.0842 3.7249 23.9388 0.0000 0.6072 0.0000
# 2 3.7249 106.2387 14.8918 0.0000 13.6418 0.0000
# 3 23.9388 14.8918 123.4056 0.0000 29.2561 0.0000
# 4 0.0000 0.0000 0.0000 49.5359 0.0000 6.9729
# 5 0.6072 13.6418 29.2561 0.0000 35.3039 0.0000
# 6 0.0000 0.0000 0.0000 6.9729 0.0000 32.6460
#
#
#
# Elastic Compliance Matrix: (Units=1/GPa)
#
#
# Indices 1 2 3 4 5 6 
#
# 1 0.014396 -0.000377 -0.003389 0.000000 0.002706 0.000000
# 2 -0.000377 0.009927 -0.000270 0.000000 -0.003606 0.000000
# 3 -0.003389 -0.000270 0.010895 0.000000 -0.008866 0.000000
# 4 0.000000 0.000000 0.000000 0.020813 0.000000 -0.004446
# 5 0.002706 -0.003606 -0.008866 0.000000 0.037019 0.000000
# 6 0.000000 0.000000 0.000000 -0.004446 0.000000 0.031581
#
#
# Mechanical properties :
#
#
# Convention : Reuss Voigt Hill
#
# Bulk Modulus (GPa) = 36.83774 43.31551 40.07663
# Shear Modulus (GPa) = 35.27297 40.97536 38.12416
#
# Velocity S-wave (km/s) = 3.64373 3.92723 3.78813
# Velocity P-wave (km/s) = 5.61855 6.07192 5.84963
#
# Compressibility (1/GPa) = 0.02714607
#
# Stress axis : x y z
#
# Youngs Moduli (GPa) = 69.46578 100.73718 91.78354
#
# Poissons Ratio (x) = 0.03800 0.31102
# Poissons Ratio (y) = 0.02621 0.02477
# Poissons Ratio (z) = 0.23539 0.02719
#
# Static dielectric constant tensor:
#      x y z
#    x 2.112300 0.000000 -0.111730 
#    y 0.000000 2.238140 0.000000 
#    z -0.111730 0.000000 2.209520 
# 
# From -- ./inp_files/7776.got.cif
#   From: 2010.05.17/outbox.cif.g08.bks.cpg/sg4_4_cif.got.tgz:7776.got - 2010.06.03 18:43:04.
