data_PCOD9115247
_publ_section_title
;
Structure prediction by ZEFSAII (Michael W. Deem and Ramdas Pophale) SiO2 
 PCOD9115247
Probable space group: P 21
;
_chemical_formula_sum "Si O2"
_cell_formula_units_Z 16
_cell_length_a 8.932690
_cell_length_b 7.911939
_cell_length_c 21.755296
_cell_angle_alpha 90.000000
_cell_angle_beta 147.810019
_cell_angle_gamma 90.000000
_cell_volume 819.098172
_symmetry_space_group_name_H-M "P 21"
_symmetry_group_IT_number 4
_symmetry_cell_setting 'monoclinic'
loop_
_space_group_symop_operation_xyz
x,y,z
-x,1/2+y,-z
loop_
_atom_site_type_symbol
_atom_site_label
_atom_site_fract_x
_atom_site_fract_y
_atom_site_fract_z
Si Si1 0.935831 0.117890 0.325211
Si Si2 0.212324 0.438461 0.270044
Si Si3 0.418686 0.541861 0.475774
Si Si4 0.307546 0.068088 0.638721
Si Si5 0.788129 0.140122 0.138050
Si Si6 0.156805 0.236944 0.707402
Si Si7 0.222037 0.241731 0.871707
Si Si8 0.182754 0.354285 0.504866
O O1 0.264107 0.101472 0.420226
O O2 0.946814 0.254413 0.382690
O O3 0.771739 0.164343 0.206312
O O4 0.839684 0.931818 0.311154
O O5 0.336867 0.454515 0.382583
O O6 0.459768 0.442634 0.306291
O O7 0.028704 0.269966 0.200841
O O8 0.017682 0.605656 0.194431
O O9 0.394261 0.427103 0.527878
O O10 0.169911 0.677925 0.401025
O O11 0.314268 0.125146 0.711661
O O12 0.330874 0.229355 0.602623
O O13 0.993556 0.995566 0.521350
O O14 0.848867 0.941490 0.146169
O O15 0.499240 0.194609 0.005793
O O16 0.274315 0.218601 0.816775
#
# Coordination Sequence:
#
# PCOD9115247 Si02
#       8
#     2   2   2   2   2   2   2   2
#     4  11  20  35  62  95 117 159 210 259 315 377
#     4  11  22  40  64  92 126 165 213 266 310 380
#     4  10  20  36  60  90 122 157 211 262 308 369
#     4  11  24  38  58  89 132 174 200 247 326 385
#     4  11  22  38  71  95 118 161 217 273 323 357
#     4   9  22  38  58  84 127 163 200 259 311 375
#     4  10  22  42  67  93 121 160 220 276 312 361
#     4  11  22  37  56  86 131 165 195 252 309 390
#
# _framework density 19.533677000000001
#
# number of rings (size 3 to 8) (size 9 to 14) (size 15 to 20)
#    0.000    1.500    3.750    1.500    3.500    1.000 
#    2.250    0.000    5.500    0.000    0.000    0.000 
#    0.000    0.000    0.000    0.000    0.000    0.000 
#
# Total GULP energy -89357.150765 kJ/mol
# GULP energy per Si atom -5584.821923 kJ/mol
# Density = 1.948922 g / cm^3
# Si number density = 19.533677 Si / 1000 Ang^3
#
#
#
# Elastic Constant Matrix: (Units=GPa)
#
#
# Indices 1 2 3 4 5 6 
#
# 1 94.3302 33.7034 28.4940 0.0000 6.2187 0.0000
# 2 33.7034 77.1109 15.0869 0.0000 -4.0349 0.0000
# 3 28.4940 15.0869 90.4188 0.0000 -15.3903 0.0000
# 4 0.0000 0.0000 0.0000 30.9627 0.0000 -4.9689
# 5 6.2187 -4.0349 -15.3903 0.0000 16.7867 0.0000
# 6 0.0000 0.0000 0.0000 -4.9689 0.0000 27.7798
#
#
#
# Elastic Compliance Matrix: (Units=1/GPa)
#
#
# Indices 1 2 3 4 5 6 
#
# 1 0.015495 -0.006264 -0.006009 0.000000 -0.012755 0.000000
# 2 -0.006264 0.015966 0.000425 0.000000 0.006548 0.000000
# 3 -0.006009 0.000425 0.015734 0.000000 0.016753 0.000000
# 4 0.000000 0.000000 0.000000 0.033251 0.000000 0.005948
# 5 -0.012755 0.006548 0.016753 0.000000 0.081229 0.000000
# 6 0.000000 0.000000 0.000000 0.005948 0.000000 0.037061
#
#
# Mechanical properties :
#
#
# Convention : Reuss Voigt Hill
#
# Bulk Modulus (GPa) = 42.55722 46.26983 44.41352
# Shear Modulus (GPa) = 21.71392 27.41088 24.56240
#
# Velocity S-wave (km/s) = 3.33771 3.75008 3.54989
# Velocity P-wave (km/s) = 6.05703 6.51839 6.29194
#
# Compressibility (1/GPa) = 0.02349778
#
# Stress axis : x y z
#
# Youngs Moduli (GPa) = 64.53600 62.63348 63.55674
#
# Poissons Ratio (x) = 0.39236 0.38190
# Poissons Ratio (y) = 0.40428 -0.02699
# Poissons Ratio (z) = 0.38779 -0.02659
#
# Static dielectric constant tensor:
#      x y z
#    x 1.658150 0.000000 -0.015780 
#    y 0.000000 1.767090 0.000000 
#    z -0.015780 0.000000 1.665610 
# 
# From -- ./inp_files/7531.got.cif
#   From: 2010.05.17/outbox.cif.g08.bks.cpg/sg4_4_cif.got.tgz:7531.got - 2010.06.03 18:43:04.
