data_PCOD9115872
_publ_section_title
;
Structure prediction by ZEFSAII (Michael W. Deem and Ramdas Pophale) SiO2 
 PCOD9115872
Probable space group: P 21
;
_chemical_formula_sum "Si O2"
_cell_formula_units_Z 16
_cell_length_a 12.986887
_cell_length_b 12.167444
_cell_length_c 11.245336
_cell_angle_alpha 90.000000
_cell_angle_beta 158.196799
_cell_angle_gamma 90.000000
_cell_volume 659.996751
_symmetry_space_group_name_H-M "P 21"
_symmetry_group_IT_number 4
_symmetry_cell_setting 'monoclinic'
loop_
_space_group_symop_operation_xyz
x,y,z
-x,1/2+y,-z
loop_
_atom_site_type_symbol
_atom_site_label
_atom_site_fract_x
_atom_site_fract_y
_atom_site_fract_z
Si Si1 0.935415 0.895130 0.694876
Si Si2 0.427761 0.468457 0.375011
Si Si3 0.602813 0.146470 0.193725
Si Si4 0.528109 0.721508 0.189091
Si Si5 0.707271 0.115572 0.562456
Si Si6 0.933188 0.327006 0.922539
Si Si7 0.090773 0.003509 0.630273
Si Si8 0.054117 0.572732 0.769210
O O1 0.647881 0.830822 0.373535
O O2 0.881640 0.015003 0.693729
O O3 0.051365 0.911460 0.687177
O O4 0.109014 0.831695 0.980795
O O5 0.476601 0.556072 0.533723
O O6 0.711526 0.415048 0.634175
O O7 0.229031 0.522547 0.063765
O O8 0.240973 0.369067 0.226164
O O9 0.575174 0.171433 0.303544
O O10 0.911446 0.107536 0.488785
O O11 0.493089 0.230489 0.977256
O O12 0.408498 0.039929 0.965233
O O13 0.753030 0.626587 0.466199
O O14 0.238028 0.674113 0.919613
O O15 0.882082 0.208113 0.815381
O O16 0.981321 0.987807 0.379208
#
# Coordination Sequence:
#
# PCOD9115872 Si02
#       8
#     2   2   2   2   2   2   2   2
#     4  10  22  41  63  91 122 166 210 251 312 368
#     4  11  24  41  63  91 124 163 203 253 310 371
#     4   9  19  37  58  85 115 155 198 246 304 354
#     4  10  21  37  64  91 120 158 206 253 303 373
#     4  10  23  42  64  89 129 164 203 258 309 367
#     4  11  25  40  61  91 120 161 211 250 302 373
#     4   9  19  36  59  84 118 156 198 248 300 360
#     4  10  21  40  62  92 126 157 199 259 312 360
#
# _framework density 24.242543999999999
#
# number of rings (size 3 to 8) (size 9 to 14) (size 15 to 20)
#    0.000    2.000    0.000    2.250    0.000   12.000 
#    0.000    6.250    0.000    0.000    0.000    0.000 
#    0.000    0.000    0.000    0.000    0.000    0.000 
#
# Total GULP energy -89443.278608 kJ/mol
# GULP energy per Si atom -5590.204913 kJ/mol
# Density = 2.418737 g / cm^3
# Si number density = 24.242544 Si / 1000 Ang^3
#
#
#
# Elastic Constant Matrix: (Units=GPa)
#
#
# Indices 1 2 3 4 5 6 
#
# 1 68.2298 29.6776 25.9986 0.0000 -27.1012 0.0000
# 2 29.6776 86.7977 33.4780 0.0000 -22.1814 0.0000
# 3 25.9986 33.4780 91.5558 0.0000 -19.0747 0.0000
# 4 0.0000 0.0000 0.0000 32.2453 0.0000 -12.3192
# 5 -27.1012 -22.1814 -19.0747 0.0000 56.6195 0.0000
# 6 0.0000 0.0000 0.0000 -12.3192 0.0000 33.7496
#
#
#
# Elastic Compliance Matrix: (Units=1/GPa)
#
#
# Indices 1 2 3 4 5 6 
#
# 1 0.020342 -0.004032 -0.002799 0.000000 0.007214 0.000000
# 2 -0.004032 0.015052 -0.003799 0.000000 0.002687 0.000000
# 3 -0.002799 -0.003799 0.013462 0.000000 0.001707 0.000000
# 4 0.000000 0.000000 0.000000 0.036038 0.000000 0.013154
# 5 0.007214 0.002687 0.001707 0.000000 0.022743 0.000000
# 6 0.000000 0.000000 0.000000 0.013154 0.000000 0.034432
#
#
# Mechanical properties :
#
#
# Convention : Reuss Voigt Hill
#
# Bulk Modulus (GPa) = 36.23785 47.21017 41.72401
# Shear Modulus (GPa) = 28.98103 35.01817 31.99960
#
# Velocity S-wave (km/s) = 3.46130 3.80477 3.63709
# Velocity P-wave (km/s) = 5.56368 6.23042 5.90647
#
# Compressibility (1/GPa) = 0.02759546
#
# Stress axis : x y z
#
# Youngs Moduli (GPa) = 49.15863 66.43821 74.28359
#
# Poissons Ratio (x) = 0.26789 0.20793
# Poissons Ratio (y) = 0.19821 0.28220
# Poissons Ratio (z) = 0.13760 0.25240
#
# Static dielectric constant tensor:
#      x y z
#    x 1.988090 0.000000 -0.041080 
#    y 0.000000 1.934800 0.000000 
#    z -0.041080 0.000000 1.907150 
# 
# From -- ./inp_files/2956.got.cif
#   From: 2010.05.17/outbox.cif.g08.bks.cpg/sg4_2_cif.got.tgz:2956.got - 2010.06.03 18:43:04.
