data_PCOD9115335
_publ_section_title
;
Structure prediction by ZEFSAII (Michael W. Deem and Ramdas Pophale) SiO2 
 PCOD9115335
Probable space group: P 21
;
_chemical_formula_sum "Si O2"
_cell_formula_units_Z 12
_cell_length_a 9.097272
_cell_length_b 7.586903
_cell_length_c 8.387980
_cell_angle_alpha 90.000000
_cell_angle_beta 130.483075
_cell_angle_gamma 90.000000
_cell_volume 440.340012
_symmetry_space_group_name_H-M "P 21"
_symmetry_group_IT_number 4
_symmetry_cell_setting 'monoclinic'
loop_
_space_group_symop_operation_xyz
x,y,z
-x,1/2+y,-z
loop_
_atom_site_type_symbol
_atom_site_label
_atom_site_fract_x
_atom_site_fract_y
_atom_site_fract_z
Si Si1 0.067070 0.535680 0.358207
Si Si2 0.601224 0.374228 0.949362
Si Si3 0.208287 0.191962 0.627864
Si Si4 0.005864 0.283902 0.069293
Si Si5 0.783455 0.455754 0.650836
Si Si6 0.432024 0.746670 0.717441
O O1 0.094747 0.359860 0.483607
O O2 0.221594 0.664713 0.541936
O O3 0.860947 0.623040 0.250374
O O4 0.105166 0.460430 0.209095
O O5 0.430152 0.245828 0.767895
O O6 0.804946 0.290356 0.032974
O O7 0.551852 0.565332 0.835037
O O8 0.566249 0.359094 0.117024
O O9 0.152616 0.036673 0.470177
O O10 0.925401 0.318219 0.836447
O O11 0.162120 0.129849 0.203957
O O12 0.575465 0.369105 0.451545
#
# Coordination Sequence:
#
# PCOD9115335 Si02
#       6
#     2   2   2   2   2   2
#     4  10  20  37  64  91 126 168 214 262 320 389
#     4  11  24  40  65  99 132 167 217 274 327 380
#     4  10  21  39  64  95 128 167 214 267 325 384
#     4  11  24  42  63  94 129 173 222 268 319 388
#     4  11  23  41  63  88 128 175 218 262 323 391
#     4  11  22  41  65  95 129 170 213 267 326 386
#
# _framework density 27.251667999999999
#
# number of rings (size 3 to 8) (size 9 to 14) (size 15 to 20)
#    0.000    1.333    0.000    7.000    0.000    2.667 
#    0.000    5.000    0.000    0.000    0.000    0.000 
#    0.000    0.000    0.000    0.000    0.000    0.000 
#
# Total GULP energy -66870.728851 kJ/mol
# GULP energy per Si atom -5572.560738 kJ/mol
# Density = 2.718964 g / cm^3
# Si number density = 27.251668 Si / 1000 Ang^3
#
#
#
# Elastic Constant Matrix: (Units=GPa)
#
#
# Indices 1 2 3 4 5 6 
#
# 1 88.8513 40.7087 38.9893 0.0000 12.2094 0.0000
# 2 40.7087 151.4039 76.4789 0.0000 9.0924 0.0000
# 3 38.9893 76.4789 184.1172 0.0000 -14.8529 0.0000
# 4 0.0000 0.0000 0.0000 62.5580 0.0000 -3.4344
# 5 12.2094 9.0924 -14.8529 0.0000 41.9446 0.0000
# 6 0.0000 0.0000 0.0000 -3.4344 0.0000 13.6618
#
#
#
# Elastic Compliance Matrix: (Units=1/GPa)
#
#
# Indices 1 2 3 4 5 6 
#
# 1 0.013943 -0.002296 -0.002353 0.000000 -0.004394 0.000000
# 2 -0.002296 0.009156 -0.003524 0.000000 -0.002564 0.000000
# 3 -0.002353 -0.003524 0.007731 0.000000 0.004187 0.000000
# 4 0.000000 0.000000 0.000000 0.016209 0.000000 0.004075
# 5 -0.004394 -0.002564 0.004187 0.000000 0.027158 0.000000
# 6 0.000000 0.000000 0.000000 0.004075 0.000000 0.074221
#
#
# Mechanical properties :
#
#
# Convention : Reuss Voigt Hill
#
# Bulk Modulus (GPa) = 69.04353 81.85844 75.45098
# Shear Modulus (GPa) = 29.48205 41.51257 35.49731
#
# Velocity S-wave (km/s) = 3.29271 3.90719 3.61303
# Velocity P-wave (km/s) = 6.31240 7.10338 6.71954
#
# Compressibility (1/GPa) = 0.01448362
#
# Stress axis : x y z
#
# Youngs Moduli (GPa) = 71.71860 109.21395 129.34639
#
# Poissons Ratio (x) = 0.25080 0.30439
# Poissons Ratio (y) = 0.16470 0.45581
# Poissons Ratio (z) = 0.16878 0.38486
#
# Static dielectric constant tensor:
#      x y z
#    x 2.041530 0.000000 -0.013820 
#    y 0.000000 2.385470 0.000000 
#    z -0.013820 0.000000 2.155850 
# 
# From -- ./inp_files/8076.got.cif
#   From: 2010.05.17/outbox.cif.g08.bks.cpg/sg4_5_cif.got.tgz:8076.got - 2010.06.03 18:43:04.
