data_PCOD9115380
_publ_section_title
;
Structure prediction by ZEFSAII (Michael W. Deem and Ramdas Pophale) SiO2 
 PCOD9115380
Probable space group: P 21
;
_chemical_formula_sum "Si O2"
_cell_formula_units_Z 10
_cell_length_a 8.107015
_cell_length_b 7.624431
_cell_length_c 9.025460
_cell_angle_alpha 90.000000
_cell_angle_beta 46.615560
_cell_angle_gamma 90.000000
_cell_volume 405.442730
_symmetry_space_group_name_H-M "P 21"
_symmetry_group_IT_number 4
_symmetry_cell_setting 'monoclinic'
loop_
_space_group_symop_operation_xyz
x,y,z
-x,1/2+y,-z
loop_
_atom_site_type_symbol
_atom_site_label
_atom_site_fract_x
_atom_site_fract_y
_atom_site_fract_z
Si Si1 0.079632 0.714660 0.641203
Si Si2 0.271843 0.080305 0.562461
Si Si3 0.902574 0.751005 0.049973
Si Si4 0.328979 0.614867 0.909332
Si Si5 0.196354 0.526945 0.287565
O O1 0.203148 0.584306 0.452896
O O2 0.255716 0.868451 0.578391
O O3 0.876692 0.825189 0.687186
O O4 0.970718 0.644854 0.858886
O O5 0.265512 0.161675 0.729223
O O6 0.465750 0.133417 0.329898
O O7 0.028773 0.122731 0.638480
O O8 0.799976 0.932414 0.053824
O O9 0.143927 0.762529 0.985854
O O10 0.381497 0.589437 0.052441
#
# Coordination Sequence:
#
# PCOD9115380 Si02
#       5
#     2   2   2   2   2
#     4   9  19  39  57  82 116 151 187 237 288 328
#     4   9  21  37  59  87 115 151 193 229 289 349
#     4  10  20  38  62  83 123 145 190 249 279 340
#     4  10  21  39  60  86 117 151 196 234 291 337
#     4   8  19  39  56  80 119 148 188 239 283 336
#
# _framework density 24.664394000000001
#
# number of rings (size 3 to 8) (size 9 to 14) (size 15 to 20)
#    1.200    1.600    2.000    0.000    2.800    3.200 
#    7.200    0.000    4.400    0.000    0.000    0.000 
#    0.000    0.000    0.000    0.000    0.000    0.000 
#
# Total GULP energy -55723.085563 kJ/mol
# GULP energy per Si atom -5572.308556 kJ/mol
# Density = 2.460826 g / cm^3
# Si number density = 24.664394 Si / 1000 Ang^3
#
#
#
# Elastic Constant Matrix: (Units=GPa)
#
#
# Indices 1 2 3 4 5 6 
#
# 1 21.0624 9.1292 20.0195 0.0000 -3.8398 0.0000
# 2 9.1292 50.4839 26.7226 0.0000 8.3493 0.0000
# 3 20.0195 26.7226 216.2956 0.0000 7.3549 0.0000
# 4 0.0000 0.0000 0.0000 45.4434 0.0000 11.1813
# 5 -3.8398 8.3493 7.3549 0.0000 40.0447 0.0000
# 6 0.0000 0.0000 0.0000 11.1813 0.0000 28.0861
#
#
#
# Elastic Compliance Matrix: (Units=1/GPa)
#
#
# Indices 1 2 3 4 5 6 
#
# 1 0.057250 -0.009378 -0.004421 0.000000 0.008257 0.000000
# 2 -0.009378 0.023375 -0.001835 0.000000 -0.005436 0.000000
# 3 -0.004421 -0.001835 0.005294 0.000000 -0.001014 0.000000
# 4 0.000000 0.000000 0.000000 0.024395 0.000000 -0.009712
# 5 0.008257 -0.005436 -0.001014 0.000000 0.027083 0.000000
# 6 0.000000 0.000000 0.000000 -0.009712 0.000000 0.039471
#
#
# Mechanical properties :
#
#
# Convention : Reuss Voigt Hill
#
# Bulk Modulus (GPa) = 18.29828 44.39828 31.34828
# Shear Modulus (GPa) = 22.08940 38.17955 30.13447
#
# Velocity S-wave (km/s) = 2.99590 3.93868 3.49919
# Velocity P-wave (km/s) = 4.40480 6.22289 5.39104
#
# Compressibility (1/GPa) = 0.05464995
#
# Stress axis : x y z
#
# Youngs Moduli (GPa) = 17.46719 42.78157 188.90506
#
# Poissons Ratio (x) = 0.40122 0.83514
# Poissons Ratio (y) = 0.16381 0.34664
# Poissons Ratio (z) = 0.07722 0.07850
#
# Static dielectric constant tensor:
#      x y z
#    x 2.008420 0.000000 0.015800 
#    y 0.000000 1.975730 0.000000 
#    z 0.015800 0.000000 1.996570 
# 
# From -- ./inp_files/7429.got.cif
#   From: 2010.05.17/outbox.cif.g08.bks.cpg/sg4_4_cif.got.tgz:7429.got - 2010.06.03 18:43:04.
