data_PCOD9115471
_publ_section_title
;
Structure prediction by ZEFSAII (Michael W. Deem and Ramdas Pophale) SiO2 
 PCOD9115471
Probable space group: P 21
;
_chemical_formula_sum "Si O2"
_cell_formula_units_Z 16
_cell_length_a 7.475867
_cell_length_b 5.206835
_cell_length_c 19.406411
_cell_angle_alpha 90.000000
_cell_angle_beta 110.800511
_cell_angle_gamma 90.000000
_cell_volume 706.170820
_symmetry_space_group_name_H-M "P 21"
_symmetry_group_IT_number 4
_symmetry_cell_setting 'monoclinic'
loop_
_space_group_symop_operation_xyz
x,y,z
-x,1/2+y,-z
loop_
_atom_site_type_symbol
_atom_site_label
_atom_site_fract_x
_atom_site_fract_y
_atom_site_fract_z
Si Si1 0.907364 0.582840 0.016050
Si Si2 0.431280 0.466688 0.738520
Si Si3 0.703361 0.365356 0.392518
Si Si4 0.619760 0.473506 0.523103
Si Si5 0.327627 0.720732 0.330682
Si Si6 0.742251 0.453787 0.127938
Si Si7 0.509621 0.981021 0.100408
Si Si8 0.095844 0.059608 0.707936
O O1 0.693675 0.514973 0.962080
O O2 0.905768 0.548502 0.098261
O O3 0.041526 0.368989 0.999997
O O4 0.376266 0.627403 0.662608
O O5 0.619250 0.319271 0.737362
O O6 0.497748 0.573121 0.820715
O O7 0.237664 0.306272 0.727047
O O8 0.756825 0.369022 0.480445
O O9 0.516873 0.549952 0.370111
O O10 0.869964 0.456629 0.364461
O O11 0.557855 0.769995 0.507639
O O12 0.690904 0.427466 0.610114
O O13 0.125325 0.585991 0.306693
O O14 0.654277 0.188802 0.088060
O O15 0.820105 0.404947 0.215687
O O16 0.589868 0.690145 0.109214
#
# Coordination Sequence:
#
# PCOD9115471 Si02
#       8
#     2   2   2   2   2   2   2   2
#     4  12  26  42  65 102 130 161 214 265 311 376
#     4  10  21  40  64  88 128 168 211 261 317 382
#     4  10  20  41  60  88 127 166 213 261 319 383
#     4  10  20  39  63  88 127 172 212 261 327 385
#     4  10  22  39  62  92 124 171 210 269 321 372
#     4  11  23  44  66  90 130 172 209 256 319 386
#     4  11  23  43  68  90 128 176 208 252 326 376
#     4  10  23  40  62  96 124 164 219 265 314 380
#
# _framework density 22.657406999999999
#
# number of rings (size 3 to 8) (size 9 to 14) (size 15 to 20)
#    0.000    1.500    2.500    2.250    1.750    2.000 
#    2.250    0.000    0.000    0.000    0.000    0.000 
#    0.000    0.000    0.000    0.000    0.000    0.000 
#
# Total GULP energy -89179.636013 kJ/mol
# GULP energy per Si atom -5573.727251 kJ/mol
# Density = 2.260584 g / cm^3
# Si number density = 22.657407 Si / 1000 Ang^3
#
#
#
# Elastic Constant Matrix: (Units=GPa)
#
#
# Indices 1 2 3 4 5 6 
#
# 1 88.0487 3.7334 2.0930 0.0000 -13.6982 0.0000
# 2 3.7334 36.8338 -3.3574 0.0000 -9.4772 0.0000
# 3 2.0930 -3.3574 54.2846 0.0000 -19.9366 0.0000
# 4 0.0000 0.0000 0.0000 23.1107 0.0000 -16.7210
# 5 -13.6982 -9.4772 -19.9366 0.0000 20.5627 0.0000
# 6 0.0000 0.0000 0.0000 -16.7210 0.0000 20.1067
#
#
#
# Elastic Compliance Matrix: (Units=1/GPa)
#
#
# Indices 1 2 3 4 5 6 
#
# 1 0.013553 0.003197 0.005485 0.000000 0.015820 0.000000
# 2 0.003197 0.036516 0.014129 0.000000 0.032658 0.000000
# 3 0.005485 0.014129 0.035435 0.000000 0.044522 0.000000
# 4 0.000000 0.000000 0.000000 0.108634 0.000000 0.090342
# 5 0.015820 0.032658 0.044522 0.000000 0.117389 0.000000
# 6 0.000000 0.000000 0.000000 0.090342 0.000000 0.124865
#
#
# Mechanical properties :
#
#
# Convention : Reuss Voigt Hill
#
# Bulk Modulus (GPa) = 7.62632 20.45615 14.04123
# Shear Modulus (GPa) = 11.50809 24.53588 18.02198
#
# Velocity S-wave (km/s) = 2.25615 3.29433 2.82337
# Velocity P-wave (km/s) = 3.18750 4.84955 4.10356
#
# Compressibility (1/GPa) = 0.13112492
#
# Stress axis : x y z
#
# Youngs Moduli (GPa) = 73.78677 27.38553 28.22075
#
# Poissons Ratio (x) = -0.08754 -0.15479
# Poissons Ratio (y) = -0.23587 -0.39874
# Poissons Ratio (z) = -0.40473 -0.38694
#
# Static dielectric constant tensor:
#      x y z
#    x 1.820870 0.000000 -0.050120 
#    y 0.000000 1.938480 0.000000 
#    z -0.050120 0.000000 1.953370 
# 
# From -- ./inp_files/4265.got.cif
#   From: 2010.05.17/outbox.cif.g08.bks.cpg/sg4_3_cif.got.tgz:4265.got - 2010.06.03 18:43:04.
