data_PCOD9115082
_publ_section_title
;
Structure prediction by ZEFSAII (Michael W. Deem and Ramdas Pophale) SiO2 
 PCOD9115082
Probable space group: P 21
;
_chemical_formula_sum "Si O2"
_cell_formula_units_Z 16
_cell_length_a 11.456276
_cell_length_b 12.032559
_cell_length_c 7.991059
_cell_angle_alpha 90.000000
_cell_angle_beta 41.037320
_cell_angle_gamma 90.000000
_cell_volume 723.225824
_symmetry_space_group_name_H-M "P 21"
_symmetry_group_IT_number 4
_symmetry_cell_setting 'monoclinic'
loop_
_space_group_symop_operation_xyz
x,y,z
-x,1/2+y,-z
loop_
_atom_site_type_symbol
_atom_site_label
_atom_site_fract_x
_atom_site_fract_y
_atom_site_fract_z
Si Si1 0.696438 0.035800 0.933073
Si Si2 0.838319 0.148055 0.093468
Si Si3 0.667678 0.898927 0.653977
Si Si4 0.524850 0.126478 0.673951
Si Si5 0.991480 0.204162 0.477120
Si Si6 0.618593 0.673228 0.813267
Si Si7 0.847119 0.610898 0.018790
Si Si8 0.068615 0.871320 0.197399
O O1 0.829022 0.119471 0.686428
O O2 0.701080 0.925941 0.815610
O O3 0.763921 0.053922 0.047595
O O4 0.490989 0.073107 0.147088
O O5 0.703718 0.163194 0.392281
O O6 0.030302 0.111597 0.952503
O O7 0.853380 0.266549 0.985787
O O8 0.574885 0.780966 0.750889
O O9 0.863448 0.889348 0.365443
O O10 0.561235 0.998811 0.687789
O O11 0.465496 0.184506 0.910209
O O12 0.357144 0.140249 0.733571
O O13 0.933909 0.324321 0.609679
O O14 0.168045 0.167765 0.393684
O O15 0.058922 0.193713 0.215504
O O16 0.845883 0.490266 0.928882
#
# Coordination Sequence:
#
# PCOD9115082 Si02
#       8
#     2   2   2   2   2   2   2   2
#     4  10  20  38  62  87 126 156 203 259 305 366
#     4  11  24  41  60  94 133 166 196 258 325 380
#     4  10  19  41  68  86 118 165 214 260 302 363
#     4  10  22  40  64  86 133 160 196 266 310 366
#     4   9  19  37  66  90 114 157 214 257 298 356
#     4   9  20  37  62  94 112 156 213 255 298 365
#     4  11  21  44  61  94 131 162 206 256 317 373
#     4  10  21  40  67  89 119 170 210 251 315 367
#
# _framework density 22.123104999999999
#
# number of rings (size 3 to 8) (size 9 to 14) (size 15 to 20)
#    0.000    2.000    2.500    0.750    3.500    3.000 
#    9.000    0.000    0.000    0.000    0.000    0.000 
#    0.000    0.000    0.000    0.000    0.000    0.000 
#
# Total GULP energy -89284.018563 kJ/mol
# GULP energy per Si atom -5580.251160 kJ/mol
# Density = 2.207275 g / cm^3
# Si number density = 22.123105 Si / 1000 Ang^3
#
#
#
# Elastic Constant Matrix: (Units=GPa)
#
#
# Indices 1 2 3 4 5 6 
#
# 1 92.1439 -16.3280 3.6806 0.0000 -14.9078 0.0000
# 2 -16.3280 43.7413 4.6975 0.0000 1.0787 0.0000
# 3 3.6806 4.6975 50.6293 0.0000 -16.7062 0.0000
# 4 0.0000 0.0000 0.0000 22.7130 0.0000 -5.1624
# 5 -14.9078 1.0787 -16.7062 0.0000 30.9121 0.0000
# 6 0.0000 0.0000 0.0000 -5.1624 0.0000 18.2914
#
#
#
# Elastic Compliance Matrix: (Units=1/GPa)
#
#
# Indices 1 2 3 4 5 6 
#
# 1 0.012644 0.004481 0.000761 0.000000 0.006353 0.000000
# 2 0.004481 0.024826 -0.002680 0.000000 -0.000153 0.000000
# 3 0.000761 -0.002680 0.024458 0.000000 0.013679 0.000000
# 4 0.000000 0.000000 0.000000 0.047045 0.000000 0.013278
# 5 0.006353 -0.000153 0.013679 0.000000 0.042812 0.000000
# 6 0.000000 0.000000 0.000000 0.013278 0.000000 0.058418
#
#
# Mechanical properties :
#
#
# Convention : Reuss Voigt Hill
#
# Bulk Modulus (GPa) = 14.91325 18.95719 16.93522
# Shear Modulus (GPa) = 21.98487 27.34761 24.66624
#
# Velocity S-wave (km/s) = 3.15580 3.51972 3.34272
# Velocity P-wave (km/s) = 4.47599 5.01053 4.75078
#
# Compressibility (1/GPa) = 0.06705444
#
# Stress axis : x y z
#
# Youngs Moduli (GPa) = 79.08820 40.28013 40.88574
#
# Poissons Ratio (x) = -0.18051 -0.03112
# Poissons Ratio (y) = -0.35443 0.10957
# Poissons Ratio (z) = -0.06021 0.10794
#
# Static dielectric constant tensor:
#      x y z
#    x 1.860910 0.000000 0.020850 
#    y 0.000000 1.815180 0.000000 
#    z 0.020850 0.000000 1.821060 
# 
# From -- ./inp_files/8144.got.cif
#   From: 2010.05.17/outbox.cif.g08.bks.cpg/sg4_5_cif.got.tgz:8144.got - 2010.06.03 18:43:04.
