data_PCOD9115240
_publ_section_title
;
Structure prediction by ZEFSAII (Michael W. Deem and Ramdas Pophale) SiO2 
 PCOD9115240
Probable space group: P 21
;
_chemical_formula_sum "Si O2"
_cell_formula_units_Z 16
_cell_length_a 5.607220
_cell_length_b 8.063770
_cell_length_c 13.464167
_cell_angle_alpha 90.000000
_cell_angle_beta 94.671022
_cell_angle_gamma 90.000000
_cell_volume 606.764824
_symmetry_space_group_name_H-M "P 21"
_symmetry_group_IT_number 4
_symmetry_cell_setting 'monoclinic'
loop_
_space_group_symop_operation_xyz
x,y,z
-x,1/2+y,-z
loop_
_atom_site_type_symbol
_atom_site_label
_atom_site_fract_x
_atom_site_fract_y
_atom_site_fract_z
Si Si1 0.044231 0.179200 0.993415
Si Si2 0.641798 0.898073 0.107076
Si Si3 0.819535 0.307502 0.471791
Si Si4 0.693295 0.390244 0.083535
Si Si5 0.449103 0.026642 0.388019
Si Si6 0.031826 0.569180 0.351050
Si Si7 0.514833 0.682297 0.272608
Si Si8 0.405807 0.182116 0.194639
O O1 0.104589 0.330742 0.920011
O O2 0.094963 0.021837 0.925033
O O3 0.223417 0.173293 0.095626
O O4 0.801620 0.222739 0.039397
O O5 0.507098 0.747514 0.159275
O O6 0.611230 0.043741 0.183518
O O7 0.506753 0.939324 0.001754
O O8 0.651120 0.164339 0.419273
O O9 0.676513 0.465381 0.514503
O O10 0.943360 0.214198 0.566640
O O11 0.005318 0.391792 0.403317
O O12 0.557199 0.348795 0.180541
O O13 0.300326 0.122985 0.295871
O O14 0.517138 0.847058 0.343795
O O15 0.273892 0.585144 0.294986
O O16 0.776931 0.603417 0.292449
#
# Coordination Sequence:
#
# PCOD9115240 Si02
#       8
#     2   2   2   2   2   2   2   2
#     4  10  20  36  63  90 130 171 213 271 322 402
#     4   9  20  38  63  86 128 173 216 263 330 401
#     4  11  23  44  72 100 135 185 232 294 362 422
#     4  10  20  36  59  92 126 170 218 265 331 388
#     4  10  22  44  71  97 136 179 231 289 349 422
#     4  11  24  42  68  98 135 176 230 286 351 417
#     4  10  23  43  68 103 136 178 229 283 347 418
#     4   9  20  41  60  92 126 172 217 269 332 402
#
# _framework density 26.369361000000001
#
# number of rings (size 3 to 8) (size 9 to 14) (size 15 to 20)
#    0.000    2.000    0.000    3.000    1.750    4.000 
#   13.500    0.000    2.750    0.000    0.000    0.000 
#    0.000    0.000    0.000    0.000    0.000    0.000 
#
# Total GULP energy -89339.327935 kJ/mol
# GULP energy per Si atom -5583.707996 kJ/mol
# Density = 2.630934 g / cm^3
# Si number density = 26.369361 Si / 1000 Ang^3
#
#
#
# Elastic Constant Matrix: (Units=GPa)
#
#
# Indices 1 2 3 4 5 6 
#
# 1 132.8107 70.2350 45.3538 0.0000 -25.6145 0.0000
# 2 70.2350 107.8906 42.7254 0.0000 -10.6567 0.0000
# 3 45.3538 42.7254 87.7261 0.0000 -6.2053 0.0000
# 4 0.0000 0.0000 0.0000 55.2624 0.0000 -15.3437
# 5 -25.6145 -10.6567 -6.2053 0.0000 41.5575 0.0000
# 6 0.0000 0.0000 0.0000 -15.3437 0.0000 57.0040
#
#
#
# Elastic Compliance Matrix: (Units=1/GPa)
#
#
# Indices 1 2 3 4 5 6 
#
# 1 0.013411 -0.006886 -0.003153 0.000000 0.006029 0.000000
# 2 -0.006886 0.015209 -0.003913 0.000000 -0.000928 0.000000
# 3 -0.003153 -0.003913 0.014884 0.000000 -0.000724 0.000000
# 4 0.000000 0.000000 0.000000 0.019557 0.000000 0.005264
# 5 0.006029 -0.000928 -0.000724 0.000000 0.027433 0.000000
# 6 0.000000 0.000000 0.000000 0.005264 0.000000 0.018960
#
#
# Mechanical properties :
#
#
# Convention : Reuss Voigt Hill
#
# Bulk Modulus (GPa) = 64.10464 71.67284 67.88874
# Shear Modulus (GPa) = 35.07370 42.10565 38.58968
#
# Velocity S-wave (km/s) = 3.65100 4.00029 3.82963
# Velocity P-wave (km/s) = 6.49123 6.96963 6.73468
#
# Compressibility (1/GPa) = 0.01559949
#
# Stress axis : x y z
#
# Youngs Moduli (GPa) = 74.56796 65.74989 67.18735
#
# Poissons Ratio (x) = 0.45275 0.21185
# Poissons Ratio (y) = 0.51347 0.26291
# Poissons Ratio (z) = 0.23512 0.25728
#
# Static dielectric constant tensor:
#      x y z
#    x 2.050310 0.000000 -0.023860 
#    y 0.000000 2.189020 0.000000 
#    z -0.023860 0.000000 2.070850 
# 
# From -- ./inp_files/13278.got.cif
#   From: 2010.05.17/outbox.cif.g08.bks.cpg/sg4_7_cif.got.tgz:13278.got - 2010.06.03 18:43:04.
