data_PCOD9115109
_publ_section_title
;
Structure prediction by ZEFSAII (Michael W. Deem and Ramdas Pophale) SiO2 
 PCOD9115109
Probable space group: P 21
;
_chemical_formula_sum "Si O2"
_cell_formula_units_Z 16
_cell_length_a 26.046750
_cell_length_b 4.985463
_cell_length_c 13.403937
_cell_angle_alpha 90.000000
_cell_angle_beta 29.793170
_cell_angle_gamma 90.000000
_cell_volume 864.837759
_symmetry_space_group_name_H-M "P 21"
_symmetry_group_IT_number 4
_symmetry_cell_setting 'monoclinic'
loop_
_space_group_symop_operation_xyz
x,y,z
-x,1/2+y,-z
loop_
_atom_site_type_symbol
_atom_site_label
_atom_site_fract_x
_atom_site_fract_y
_atom_site_fract_z
Si Si1 0.924791 0.706680 0.512375
Si Si2 0.601388 0.279187 0.913268
Si Si3 0.378851 0.044404 0.694199
Si Si4 0.954731 0.716050 0.701949
Si Si5 0.535128 0.273153 0.817555
Si Si6 0.244176 0.555407 0.956356
Si Si7 0.723607 0.011502 0.871644
Si Si8 0.514086 0.749030 0.308567
O O1 0.936671 0.702617 0.612884
O O2 0.811345 0.815161 0.682810
O O3 0.948304 0.407556 0.439165
O O4 0.011486 0.916563 0.326424
O O5 0.617014 0.230713 0.768619
O O6 0.690519 0.216377 0.841700
O O7 0.507560 0.077061 0.103021
O O8 0.560424 0.579326 0.993237
O O9 0.282058 0.840487 0.852001
O O10 0.453694 0.959554 0.479246
O O11 0.444126 0.017993 0.687693
O O12 0.335475 0.345330 0.775172
O O13 0.856754 0.887186 0.905100
O O14 0.558263 0.191378 0.664788
O O15 0.234418 0.614542 0.092109
O O16 0.618819 0.863585 0.083023
#
# Coordination Sequence:
#
# PCOD9115109 Si02
#       8
#     2   2   2   2   2   2   2   2
#     4   9  17  27  43  64  85 116 147 180 226 280
#     4   9  17  30  45  66  88 121 159 186 223 277
#     4  11  21  31  45  65  90 125 164 187 217 263
#     4   9  17  30  43  60  87 114 150 188 226 267
#     4   9  18  30  46  62  89 125 157 189 226 261
#     4  10  20  32  46  64  89 124 158 193 225 261
#     4   9  18  29  46  67  94 122 150 184 227 273
#     4  10  20  33  46  68  98 129 157 191 222 264
#
# _framework density 18.500581
#
# number of rings (size 3 to 8) (size 9 to 14) (size 15 to 20)
#    0.000    2.500    0.000    3.000    0.000   11.000 
#    0.000    0.000    0.000    0.000    0.000    0.000 
#    0.000    4.000    0.000    0.375    0.000    0.000 
#
# Total GULP energy -89073.610867 kJ/mol
# GULP energy per Si atom -5567.100679 kJ/mol
# Density = 1.845847 g / cm^3
# Si number density = 18.500581 Si / 1000 Ang^3
#
#
#
# Elastic Constant Matrix: (Units=GPa)
#
#
# Indices 1 2 3 4 5 6 
#
# 1 53.7011 2.7960 29.7026 0.0000 17.7093 0.0000
# 2 2.7960 64.1085 3.2127 0.0000 1.4180 0.0000
# 3 29.7026 3.2127 48.9308 0.0000 0.0468 0.0000
# 4 0.0000 0.0000 0.0000 24.3508 0.0000 -0.6397
# 5 17.7093 1.4180 0.0468 0.0000 21.2852 0.0000
# 6 0.0000 0.0000 0.0000 -0.6397 0.0000 19.1165
#
#
#
# Elastic Compliance Matrix: (Units=1/GPa)
#
#
# Indices 1 2 3 4 5 6 
#
# 1 0.047660 0.000246 -0.028910 0.000000 -0.039606 0.000000
# 2 0.000246 0.015674 -0.001177 0.000000 -0.001246 0.000000
# 3 -0.028910 -0.001177 0.038040 0.000000 0.024048 0.000000
# 4 0.000000 0.000000 0.000000 0.041102 0.000000 0.001375
# 5 -0.039606 -0.001246 0.024048 0.000000 0.079963 0.000000
# 6 0.000000 0.000000 0.000000 0.001375 0.000000 0.052357
#
#
# Mechanical properties :
#
#
# Convention : Reuss Voigt Hill
#
# Bulk Modulus (GPa) = 23.98466 26.46255 25.22360
# Shear Modulus (GPa) = 14.35226 21.68576 18.01901
#
# Velocity S-wave (km/s) = 2.78829 3.42741 3.12423
# Velocity P-wave (km/s) = 4.83307 5.47700 5.16508
#
# Compressibility (1/GPa) = 0.04169332
#
# Stress axis : x y z
#
# Youngs Moduli (GPa) = 20.98195 63.79828 26.28783
#
# Poissons Ratio (x) = -0.01571 0.75997
# Poissons Ratio (y) = -0.00517 0.03095
# Poissons Ratio (z) = 0.60658 0.07512
#
# Static dielectric constant tensor:
#      x y z
#    x 1.711760 0.000000 -0.016490 
#    y 0.000000 1.685720 0.000000 
#    z -0.016490 0.000000 1.670870 
# 
# From -- ./inp_files/13125.got.cif
#   From: 2010.05.17/outbox.cif.g08.bks.cpg/sg4_7_cif.got.tgz:13125.got - 2010.06.03 18:43:04.
