data_PCOD9115684
_publ_section_title
;
Structure prediction by ZEFSAII (Michael W. Deem and Ramdas Pophale) SiO2 
 PCOD9115684
Probable space group: P 21
;
_chemical_formula_sum "Si O2"
_cell_formula_units_Z 16
_cell_length_a 5.300641
_cell_length_b 13.217735
_cell_length_c 12.357606
_cell_angle_alpha 90.000000
_cell_angle_beta 130.659758
_cell_angle_gamma 90.000000
_cell_volume 656.792406
_symmetry_space_group_name_H-M "P 21"
_symmetry_group_IT_number 4
_symmetry_cell_setting 'monoclinic'
loop_
_space_group_symop_operation_xyz
x,y,z
-x,1/2+y,-z
loop_
_atom_site_type_symbol
_atom_site_label
_atom_site_fract_x
_atom_site_fract_y
_atom_site_fract_z
Si Si1 0.631507 0.542050 0.673012
Si Si2 0.402812 0.771496 0.127460
Si Si3 0.095741 0.101833 0.026322
Si Si4 0.895862 0.526407 0.518378
Si Si5 0.581413 0.781777 0.610482
Si Si6 0.679284 0.813192 0.978131
Si Si7 0.283536 0.447114 0.208016
Si Si8 0.146727 0.262621 0.539356
O O1 0.829902 0.499184 0.625481
O O2 0.615083 0.663147 0.643072
O O3 0.261905 0.494809 0.580124
O O4 0.794841 0.543008 0.836662
O O5 0.671962 0.762557 0.295663
O O6 0.251569 0.661990 0.052449
O O7 0.537860 0.822928 0.057703
O O8 0.079834 0.823417 0.089017
O O9 0.350552 0.194750 0.070477
O O10 0.006677 0.024724 0.905293
O O11 0.569434 0.502601 0.355976
O O12 0.921947 0.647554 0.514772
O O13 0.825689 0.850218 0.750742
O O14 0.641369 0.801693 0.502014
O O15 0.211753 0.812178 0.544393
O O16 0.569350 0.894900 0.859169
#
# Coordination Sequence:
#
# PCOD9115684 Si02
#       8
#     2   2   2   2   2   2   2   2
#     4  10  22  44  66  96 141 183 223 289 360 405
#     4  10  21  44  68 103 139 192 226 289 369 411
#     4  10  24  45  73 106 148 184 240 298 362 424
#     4  10  23  41  69  98 133 180 237 284 344 422
#     4  10  22  39  69  95 134 185 227 287 347 419
#     4  10  24  42  69 105 143 186 231 297 362 411
#     4  12  24  49  71 112 136 193 249 290 356 442
#     4  10  20  42  67  95 136 181 229 286 352 412
#
# _framework density 24.36082
#
# number of rings (size 3 to 8) (size 9 to 14) (size 15 to 20)
#    0.750    1.000    2.500    0.750    1.750    5.000 
#   11.250    0.000    0.000    0.000    0.000    0.000 
#    0.000    0.000    0.000    0.000    0.000    0.000 
#
# Total GULP energy -89442.038861 kJ/mol
# GULP energy per Si atom -5590.127429 kJ/mol
# Density = 2.430537 g / cm^3
# Si number density = 24.360820 Si / 1000 Ang^3
#
#
#
# Elastic Constant Matrix: (Units=GPa)
#
#
# Indices 1 2 3 4 5 6 
#
# 1 81.2932 2.2701 4.9931 0.0000 -6.7597 0.0000
# 2 2.2701 66.6517 -11.2926 0.0000 8.2196 0.0000
# 3 4.9931 -11.2926 90.0242 0.0000 2.3050 0.0000
# 4 0.0000 0.0000 0.0000 45.0805 0.0000 -6.9382
# 5 -6.7597 8.2196 2.3050 0.0000 20.7364 0.0000
# 6 0.0000 0.0000 0.0000 -6.9382 0.0000 18.7753
#
#
#
# Elastic Compliance Matrix: (Units=1/GPa)
#
#
# Indices 1 2 3 4 5 6 
#
# 1 0.012789 -0.001187 -0.000980 0.000000 0.004749 0.000000
# 2 -0.001187 0.016309 0.002294 0.000000 -0.007107 0.000000
# 3 -0.000980 0.002294 0.011514 0.000000 -0.002508 0.000000
# 4 0.000000 0.000000 0.000000 0.023520 0.000000 0.008692
# 5 0.004749 -0.007107 -0.002508 0.000000 0.052868 0.000000
# 6 0.000000 0.000000 0.000000 0.008692 0.000000 0.056473
#
#
# Mechanical properties :
#
#
# Convention : Reuss Voigt Hill
#
# Bulk Modulus (GPa) = 24.47050 25.54559 25.00804
# Shear Modulus (GPa) = 26.76043 33.05168 29.90606
#
# Velocity S-wave (km/s) = 3.31796 3.68741 3.50756
# Velocity P-wave (km/s) = 4.97447 5.35149 5.16642
#
# Compressibility (1/GPa) = 0.04086554
#
# Stress axis : x y z
#
# Youngs Moduli (GPa) = 78.19006 61.31664 86.84776
#
# Poissons Ratio (x) = 0.07280 0.08510
# Poissons Ratio (y) = 0.09283 -0.19919
# Poissons Ratio (z) = 0.07662 -0.14063
#
# Static dielectric constant tensor:
#      x y z
#    x 1.917090 0.000000 0.025100 
#    y 0.000000 2.016130 0.000000 
#    z 0.025100 0.000000 1.893020 
# 
# From -- ./inp_files/10591.got.cif
#   From: 2010.05.17/outbox.cif.g08.bks.cpg/sg4_6_cif.got.tgz:10591.got - 2010.06.03 18:43:04.
