data_PCOD9115596
_publ_section_title
;
Structure prediction by ZEFSAII (Michael W. Deem and Ramdas Pophale) SiO2 
 PCOD9115596
Probable space group: P 21
;
_chemical_formula_sum "Si O2"
_cell_formula_units_Z 10
_cell_length_a 5.898611
_cell_length_b 8.720733
_cell_length_c 8.222311
_cell_angle_alpha 90.000000
_cell_angle_beta 59.135119
_cell_angle_gamma 90.000000
_cell_volume 363.057983
_symmetry_space_group_name_H-M "P 21"
_symmetry_group_IT_number 4
_symmetry_cell_setting 'monoclinic'
loop_
_space_group_symop_operation_xyz
x,y,z
-x,1/2+y,-z
loop_
_atom_site_type_symbol
_atom_site_label
_atom_site_fract_x
_atom_site_fract_y
_atom_site_fract_z
Si Si1 0.835151 0.665280 0.266712
Si Si2 0.984262 0.839154 0.905224
Si Si3 0.835420 0.407622 0.680650
Si Si4 0.513446 0.884297 0.874191
Si Si5 0.709647 0.141630 0.558152
O O1 0.978117 0.519778 0.136151
O O2 0.558272 0.623334 0.448847
O O3 0.006715 0.750180 0.335687
O O4 0.824884 0.786783 0.122944
O O5 0.290775 0.798329 0.844512
O O6 0.781756 0.798704 0.832150
O O7 0.722787 0.328321 0.560102
O O8 0.044412 0.542222 0.591299
O O9 0.636804 0.427389 0.902941
O O10 0.598603 0.040805 0.753028
#
# Coordination Sequence:
#
# PCOD9115596 Si02
#       5
#     2   2   2   2   2
#     4  10  22  44  64 102 138 176 236 282 344 414
#     4  10  20  40  74  92 138 176 224 282 342 402
#     4  11  24  44  68 100 137 181 228 286 345 413
#     4  10  22  44  68  96 132 180 222 286 334 404
#     4  11  24  44  68 100 137 181 228 286 345 413
#
# _framework density 27.543814999999999
#
# number of rings (size 3 to 8) (size 9 to 14) (size 15 to 20)
#    0.000    1.600    4.000    0.000    0.000    3.200 
#    7.200    2.000    0.000    0.000    0.000    0.000 
#    0.000    0.000    0.000    0.000    0.000    0.000 
#
# Total GULP energy -55741.961303 kJ/mol
# GULP energy per Si atom -5574.196130 kJ/mol
# Density = 2.748112 g / cm^3
# Si number density = 27.543815 Si / 1000 Ang^3
#
#
#
# Elastic Constant Matrix: (Units=GPa)
#
#
# Indices 1 2 3 4 5 6 
#
# 1 150.5048 20.5275 19.7708 0.0000 -32.6569 0.0000
# 2 20.5275 105.7212 75.1123 0.0000 -34.7299 0.0000
# 3 19.7708 75.1123 159.4003 0.0000 -41.8280 0.0000
# 4 0.0000 0.0000 0.0000 54.9919 0.0000 0.8404
# 5 -32.6569 -34.7299 -41.8280 0.0000 33.3730 0.0000
# 6 0.0000 0.0000 0.0000 0.8404 0.0000 35.4046
#
#
#
# Elastic Compliance Matrix: (Units=1/GPa)
#
#
# Indices 1 2 3 4 5 6 
#
# 1 0.008811 0.001054 0.001431 0.000000 0.011513 0.000000
# 2 0.001054 0.016722 -0.004729 0.000000 0.012507 0.000000
# 3 0.001431 -0.004729 0.011027 0.000000 0.010301 0.000000
# 4 0.000000 0.000000 0.000000 0.018191 0.000000 -0.000432
# 5 0.011513 0.012507 0.010301 0.000000 0.067156 0.000000
# 6 0.000000 0.000000 0.000000 -0.000432 0.000000 0.028255
#
#
# Mechanical properties :
#
#
# Convention : Reuss Voigt Hill
#
# Bulk Modulus (GPa) = 31.17758 71.82751 51.50255
# Shear Modulus (GPa) = 30.24070 44.76828 37.50449
#
# Velocity S-wave (km/s) = 3.31707 4.03593 3.69403
# Velocity P-wave (km/s) = 5.10044 6.91755 6.07729
#
# Compressibility (1/GPa) = 0.03207433
#
# Stress axis : x y z
#
# Youngs Moduli (GPa) = 113.50055 59.79987 90.68493
#
# Poissons Ratio (x) = -0.06304 -0.12981
# Poissons Ratio (y) = -0.11966 0.42882
# Poissons Ratio (z) = -0.16247 0.28277
#
# Static dielectric constant tensor:
#      x y z
#    x 2.595770 0.000000 -0.010100 
#    y 0.000000 2.098390 0.000000 
#    z -0.010100 0.000000 2.097150 
# 
# From -- ./inp_files/976.got.cif
#   From: 2010.05.17/outbox.cif.g08.bks.cpg/sg4_1_cif.got.tgz:976.got - 2010.06.03 18:43:04.
