data_PCOD9115127
_publ_section_title
;
Structure prediction by ZEFSAII (Michael W. Deem and Ramdas Pophale) SiO2 
 PCOD9115127
Probable space group: P 21
;
_chemical_formula_sum "Si O2"
_cell_formula_units_Z 16
_cell_length_a 5.264039
_cell_length_b 8.531823
_cell_length_c 19.187018
_cell_angle_alpha 90.000000
_cell_angle_beta 45.515416
_cell_angle_gamma 90.000000
_cell_volume 614.787842
_symmetry_space_group_name_H-M "P 21"
_symmetry_group_IT_number 4
_symmetry_cell_setting 'monoclinic'
loop_
_space_group_symop_operation_xyz
x,y,z
-x,1/2+y,-z
loop_
_atom_site_type_symbol
_atom_site_label
_atom_site_fract_x
_atom_site_fract_y
_atom_site_fract_z
Si Si1 0.620993 0.099450 0.465892
Si Si2 0.891020 0.426448 0.350240
Si Si3 0.407276 0.140734 0.918914
Si Si4 0.400808 0.998620 0.362292
Si Si5 0.600585 0.843515 0.193621
Si Si6 0.448481 0.856444 0.995250
Si Si7 0.659243 0.321428 0.248224
Si Si8 0.355958 0.646456 0.889539
O O1 0.684069 0.272306 0.421801
O O2 0.504963 0.992408 0.422370
O O3 0.986159 0.036681 0.429638
O O4 0.312283 0.077878 0.581889
O O5 0.865670 0.411398 0.270880
O O6 0.280585 0.405534 0.308257
O O7 0.530509 0.185984 0.818953
O O8 0.410328 0.305249 0.958122
O O9 0.585750 0.018032 0.936366
O O10 0.999515 0.089966 0.002791
O O11 0.519135 0.855735 0.290316
O O12 0.605085 0.149347 0.291821
O O13 0.449092 0.003864 0.186951
O O14 0.023154 0.854122 0.094464
O O15 0.553301 0.733633 0.914211
O O16 0.748068 0.273209 0.150492
#
# Coordination Sequence:
#
# PCOD9115127 Si02
#       8
#     2   2   2   2   2   2   2   2
#     4  10  20  36  57  82 109 141 179 224 275 331
#     4  10  20  36  57  82 109 141 179 224 275 331
#     4  10  20  33  53  78 109 145 182 225 274 325
#     4   9  19  34  58  83 106 141 187 226 266 326
#     4   9  19  35  54  77 104 142 187 229 269 319
#     4  10  20  33  53  78 109 145 182 225 274 325
#     4   9  19  34  58  83 106 141 187 226 266 326
#     4   9  19  35  54  77 104 142 187 229 269 319
#
# _framework density 26.025241999999999
#
# number of rings (size 3 to 8) (size 9 to 14) (size 15 to 20)
#    0.000    2.500    0.000    1.500    3.500    1.000 
#    0.000    2.500    0.000    0.000    0.000    0.000 
#    0.000    0.000    0.000    0.000    0.000    0.000 
#
# Total GULP energy -89364.845834 kJ/mol
# GULP energy per Si atom -5585.302865 kJ/mol
# Density = 2.596601 g / cm^3
# Si number density = 26.025242 Si / 1000 Ang^3
#
#
#
# Elastic Constant Matrix: (Units=GPa)
#
#
# Indices 1 2 3 4 5 6 
#
# 1 84.8411 11.4615 5.0778 0.0000 24.0754 0.0000
# 2 11.4615 61.5996 7.2992 0.0000 15.0038 0.0000
# 3 5.0778 7.2992 78.7076 0.0000 15.2506 0.0000
# 4 0.0000 0.0000 0.0000 42.2543 0.0000 11.8991
# 5 24.0754 15.0038 15.2506 0.0000 35.6778 0.0000
# 6 0.0000 0.0000 0.0000 11.8991 0.0000 24.3252
#
#
#
# Elastic Compliance Matrix: (Units=1/GPa)
#
#
# Indices 1 2 3 4 5 6 
#
# 1 0.014666 -0.000372 0.001064 0.000000 -0.010195 0.000000
# 2 -0.000372 0.018099 -0.000249 0.000000 -0.007254 0.000000
# 3 0.001064 -0.000249 0.013932 0.000000 -0.006569 0.000000
# 4 0.000000 0.000000 0.000000 0.027447 0.000000 -0.013426
# 5 -0.010195 -0.007254 -0.006569 0.000000 0.040767 0.000000
# 6 0.000000 0.000000 0.000000 -0.013426 0.000000 0.047677
#
#
# Mechanical properties :
#
#
# Convention : Reuss Voigt Hill
#
# Bulk Modulus (GPa) = 21.01527 30.31395 25.66461
# Shear Modulus (GPa) = 28.15874 33.87212 31.01543
#
# Velocity S-wave (km/s) = 3.29291 3.61156 3.45591
# Velocity P-wave (km/s) = 4.74870 5.39113 5.08008
#
# Compressibility (1/GPa) = 0.04758445
#
# Stress axis : x y z
#
# Youngs Moduli (GPa) = 68.18312 55.25031 71.77492
#
# Poissons Ratio (x) = 0.02054 -0.07635
# Poissons Ratio (y) = 0.02534 0.01787
# Poissons Ratio (z) = -0.07253 0.01375
#
# Static dielectric constant tensor:
#      x y z
#    x 2.072210 0.000000 -0.038850 
#    y 0.000000 2.116580 0.000000 
#    z -0.038850 0.000000 2.033200 
# 
# From -- ./inp_files/3402.got.cif
#   From: 2010.05.17/outbox.cif.g08.bks.cpg/sg4_2_cif.got.tgz:3402.got - 2010.06.03 18:43:04.
