data_PCOD9115914
_publ_section_title
;
Structure prediction by ZEFSAII (Michael W. Deem and Ramdas Pophale) SiO2 
 PCOD9115914
Probable space group: P 21
;
_chemical_formula_sum "Si O2"
_cell_formula_units_Z 16
_cell_length_a 24.870399
_cell_length_b 5.323575
_cell_length_c 27.403074
_cell_angle_alpha 90.000000
_cell_angle_beta 170.205350
_cell_angle_gamma 90.000000
_cell_volume 617.212011
_symmetry_space_group_name_H-M "P 21"
_symmetry_group_IT_number 4
_symmetry_cell_setting 'monoclinic'
loop_
_space_group_symop_operation_xyz
x,y,z
-x,1/2+y,-z
loop_
_atom_site_type_symbol
_atom_site_label
_atom_site_fract_x
_atom_site_fract_y
_atom_site_fract_z
Si Si1 0.378094 0.672270 0.697750
Si Si2 0.175160 0.937198 0.732141
Si Si3 0.883299 0.958651 0.197367
Si Si4 0.485446 0.510065 0.426687
Si Si5 0.823998 0.007580 0.757722
Si Si6 0.327676 0.134788 0.516053
Si Si7 0.341131 0.192413 0.778268
Si Si8 0.572599 0.622719 0.766989
O O1 0.505438 0.540866 0.762468
O O2 0.107092 0.560748 0.489503
O O3 0.184347 0.908064 0.500962
O O4 0.688770 0.712960 0.007691
O O5 0.980072 0.691214 0.540017
O O6 0.269888 0.048328 0.764659
O O7 0.484600 0.935557 0.042524
O O8 0.997615 0.066166 0.247447
O O9 0.620855 0.101181 0.993480
O O10 0.719992 0.720063 0.658845
O O11 0.171818 0.551485 0.179676
O O12 0.539405 0.569268 0.418520
O O13 0.588826 0.223376 0.527584
O O14 0.116831 0.048076 0.984341
O O15 0.333138 0.436493 0.524814
O O16 0.541229 0.923623 0.735516
#
# Coordination Sequence:
#
# PCOD9115914 Si02
#       8
#     2   2   2   2   2   2   2   2
#     4  11  24  44  67  97 133 175 225 284 344 411
#     4  12  24  41  65  95 132 177 227 285 345 412
#     4  11  24  44  67  97 133 175 225 284 344 411
#     4  10  21  38  61  90 127 174 226 282 344 410
#     4  10  21  38  61  90 127 174 226 282 344 410
#     4  11  24  41  64  96 132 176 228 283 345 411
#     4  12  24  41  65  95 132 177 227 285 345 412
#     4  11  24  41  64  96 132 176 228 283 345 411
#
# _framework density 25.923019
#
# number of rings (size 3 to 8) (size 9 to 14) (size 15 to 20)
#    0.000    1.000    0.000    6.750    0.000    6.000 
#    0.000    0.000    0.000    0.000    0.000    0.000 
#    0.000    0.000    0.000    0.000    0.000    0.000 
#
# Total GULP energy -89096.857125 kJ/mol
# GULP energy per Si atom -5568.553570 kJ/mol
# Density = 2.586402 g / cm^3
# Si number density = 25.923019 Si / 1000 Ang^3
#
#
#
# Elastic Constant Matrix: (Units=GPa)
#
#
# Indices 1 2 3 4 5 6 
#
# 1 226.8764 1.2616 42.2610 0.0000 65.5102 0.0000
# 2 1.2616 22.8762 10.6022 0.0000 -3.0078 0.0000
# 3 42.2610 10.6022 80.2418 0.0000 41.1012 0.0000
# 4 0.0000 0.0000 0.0000 -64.2170 0.0000 -73.9498
# 5 65.5102 -3.0078 41.1012 0.0000 70.4817 0.0000
# 6 0.0000 0.0000 0.0000 -73.9498 0.0000 -24.5091
#
#
#
# Elastic Compliance Matrix: (Units=1/GPa)
#
#
# Indices 1 2 3 4 5 6 
#
# 1 0.006053 -0.000957 -0.000227 0.000000 -0.005535 0.000000
# 2 -0.000957 0.050064 -0.010924 0.000000 0.009396 0.000000
# 3 -0.000227 -0.010924 0.020185 0.000000 -0.012026 0.000000
# 4 0.000000 0.000000 0.000000 0.006293 0.000000 -0.018987
# 5 -0.005535 0.009396 -0.012026 0.000000 0.026747 0.000000
# 6 0.000000 0.000000 0.000000 -0.018987 0.000000 0.016488
#
#
# Mechanical properties :
#
#
# Convention : Reuss Voigt Hill
#
# Bulk Modulus (GPa) = 19.19789 48.69380 33.94584
# Shear Modulus (GPa) = 29.86704 14.74243 22.30474
#
# Velocity S-wave (km/s) = 3.39801 2.38733 2.93648
# Velocity P-wave (km/s) = 4.77672 5.14042 4.96190
#
# Compressibility (1/GPa) = 0.05208906
#
# Stress axis : x y z
#
# Youngs Moduli (GPa) = 165.19395 19.97425 49.54133
#
# Poissons Ratio (x) = 0.01911 0.01123
# Poissons Ratio (y) = 0.15803 0.54118
# Poissons Ratio (z) = 0.03743 0.21819
#
# Static dielectric constant tensor:
#      x y z
#    x 2.096550 0.000000 -0.060130 
#    y 0.000000 2.160740 0.000000 
#    z -0.060130 0.000000 2.133190 
# 
# From -- ./inp_files/16458.got.cif
#   From: 2010.05.17/outbox.cif.g08.bks.cpg/sg4_9_cif.got.tgz:16458.got - 2010.06.03 18:43:04.
