data_PCOD9115994
_publ_section_title
;
Structure prediction by ZEFSAII (Michael W. Deem and Ramdas Pophale) SiO2 
 PCOD9115994
Probable space group: P 21
;
_chemical_formula_sum "Si O2"
_cell_formula_units_Z 10
_cell_length_a 12.171937
_cell_length_b 4.924635
_cell_length_c 6.541816
_cell_angle_alpha 90.000000
_cell_angle_beta 83.891569
_cell_angle_gamma 90.000000
_cell_volume 389.905396
_symmetry_space_group_name_H-M "P 21"
_symmetry_group_IT_number 4
_symmetry_cell_setting 'monoclinic'
loop_
_space_group_symop_operation_xyz
x,y,z
-x,1/2+y,-z
loop_
_atom_site_type_symbol
_atom_site_label
_atom_site_fract_x
_atom_site_fract_y
_atom_site_fract_z
Si Si1 0.266361 0.810880 0.926748
Si Si2 0.925510 0.471343 0.282574
Si Si3 0.858767 0.971597 0.545961
Si Si4 0.664482 0.809264 0.848079
Si Si5 0.533760 0.449213 0.368230
O O1 0.138907 0.876945 0.905115
O O2 0.340004 0.902634 0.718629
O O3 0.294535 0.503138 0.977009
O O4 0.308305 0.002043 0.101170
O O5 0.896782 0.776697 0.353993
O O6 0.056165 0.426169 0.282296
O O7 0.874903 0.276931 0.468978
O O8 0.737380 0.899573 0.640586
O O9 0.538845 0.863263 0.813517
O O10 0.504314 0.751614 0.441978
#
# Coordination Sequence:
#
# PCOD9115994 Si02
#       5
#     2   2   2   2   2
#     4  12  24  39  60  89 121 149 189 243 295 339
#     4  10  21  39  61  85 116 156 198 234 278 343
#     4  10  21  39  61  85 116 156 198 234 278 343
#     4  12  24  39  60  89 121 149 189 243 295 339
#     4  12  24  42  64  84 114 156 198 234 284 350
#
# _framework density 25.647245999999999
#
# number of rings (size 3 to 8) (size 9 to 14) (size 15 to 20)
#    0.000    0.800    0.000    8.400    0.000    1.600 
#    0.000    0.000    0.000    0.000    0.000    0.000 
#    0.000    0.000    0.000    0.000    0.000    0.000 
#
# Total GULP energy -56063.737779 kJ/mol
# GULP energy per Si atom -5606.373778 kJ/mol
# Density = 2.558887 g / cm^3
# Si number density = 25.647246 Si / 1000 Ang^3
#
#
#
# Elastic Constant Matrix: (Units=GPa)
#
#
# Indices 1 2 3 4 5 6 
#
# 1 84.8825 7.1095 8.8291 0.0000 40.6074 0.0000
# 2 7.1095 63.8128 4.1690 0.0000 1.3251 0.0000
# 3 8.8291 4.1690 38.6400 0.0000 13.4447 0.0000
# 4 0.0000 0.0000 0.0000 56.9466 0.0000 1.5609
# 5 40.6074 1.3251 13.4447 0.0000 56.5293 0.0000
# 6 0.0000 0.0000 0.0000 1.5609 0.0000 24.6609
#
#
#
# Elastic Compliance Matrix: (Units=1/GPa)
#
#
# Indices 1 2 3 4 5 6 
#
# 1 0.018156 -0.001790 0.000619 0.000000 -0.013148 0.000000
# 2 -0.001790 0.015959 -0.001777 0.000000 0.001335 0.000000
# 3 0.000619 -0.001777 0.028423 0.000000 -0.007163 0.000000
# 4 0.000000 0.000000 0.000000 0.017591 0.000000 -0.001113
# 5 -0.013148 0.001335 -0.007163 0.000000 0.028807 0.000000
# 6 0.000000 0.000000 0.000000 -0.001113 0.000000 0.040621
#
#
# Mechanical properties :
#
#
# Convention : Reuss Voigt Hill
#
# Bulk Modulus (GPa) = 17.65499 25.28341 21.46920
# Shear Modulus (GPa) = 28.68079 38.77586 33.72832
#
# Velocity S-wave (km/s) = 3.34770 3.89252 3.63035
# Velocity P-wave (km/s) = 4.67349 5.48469 5.09526
#
# Compressibility (1/GPa) = 0.05664121
#
# Stress axis : x y z
#
# Youngs Moduli (GPa) = 55.07705 62.66181 35.18337
#
# Poissons Ratio (x) = 0.11218 -0.02179
# Poissons Ratio (y) = 0.09860 0.06253
# Poissons Ratio (z) = -0.03411 0.11136
#
# Static dielectric constant tensor:
#      x y z
#    x 1.926570 0.000000 0.044830 
#    y 0.000000 1.901050 0.000000 
#    z 0.044830 0.000000 2.033280 
# 
# From -- ./inp_files/2266.got.cif
#   From: 2010.05.17/outbox.cif.g08.bks.cpg/sg4_2_cif.got.tgz:2266.got - 2010.06.03 18:43:04.
