data_PCOD9115234
_publ_section_title
;
Structure prediction by ZEFSAII (Michael W. Deem and Ramdas Pophale) SiO2 
 PCOD9115234
Probable space group: P 21
;
_chemical_formula_sum "Si O2"
_cell_formula_units_Z 14
_cell_length_a 18.165540
_cell_length_b 5.021405
_cell_length_c 18.166798
_cell_angle_alpha 90.000000
_cell_angle_beta 154.149563
_cell_angle_gamma 90.000000
_cell_volume 722.539877
_symmetry_space_group_name_H-M "P 21"
_symmetry_group_IT_number 4
_symmetry_cell_setting 'monoclinic'
loop_
_space_group_symop_operation_xyz
x,y,z
-x,1/2+y,-z
loop_
_atom_site_type_symbol
_atom_site_label
_atom_site_fract_x
_atom_site_fract_y
_atom_site_fract_z
Si Si1 0.191178 0.213640 0.025955
Si Si2 0.525913 0.219004 0.230980
Si Si3 0.553180 0.389724 0.090603
Si Si4 0.888263 0.823405 0.889717
Si Si5 0.757287 0.714402 0.465358
Si Si6 0.954675 0.714344 0.792872
Si Si7 0.088068 0.149145 0.549452
O O1 0.047593 0.429889 0.876143
O O2 0.104297 0.928516 0.937065
O O3 0.355888 0.235855 0.124676
O O4 0.230645 0.263407 0.148064
O O5 0.492195 0.289718 0.115410
O O6 0.661667 0.433458 0.381493
O O7 0.616439 0.934457 0.319572
O O8 0.737386 0.517396 0.267021
O O9 0.445573 0.632650 0.960663
O O10 0.840447 0.749314 0.763567
O O11 0.048842 0.627483 0.049643
O O12 0.889074 0.707188 0.516342
O O13 0.850672 0.765091 0.625772
O O14 0.049126 0.424015 0.555582
#
# Coordination Sequence:
#
# PCOD9115234 Si02
#       7
#     2   2   2   2   2   2   2
#     4  10  20  36  59  85 109 146 190 227 265 324
#     4  11  23  40  56  81 118 148 175 227 287 327
#     4  11  23  40  59  81 110 146 184 228 278 328
#     4   8  16  32  54  80 112 140 178 230 272 306
#     4  11  23  40  56  81 118 148 175 227 287 327
#     4  10  20  36  59  85 109 146 190 227 265 324
#     4  11  23  40  59  81 110 146 184 228 278 328
#
# _framework density 19.376092
#
# number of rings (size 3 to 8) (size 9 to 14) (size 15 to 20)
#    0.000    1.714    0.000    6.000    0.000    3.429 
#    0.000    1.429    0.000    0.000    0.000    0.000 
#    0.000    0.000    0.000    0.000    0.000    0.000 
#
# Total GULP energy -78175.686269 kJ/mol
# GULP energy per Si atom -5583.977591 kJ/mol
# Density = 1.933199 g / cm^3
# Si number density = 19.376092 Si / 1000 Ang^3
#
#
#
# Elastic Constant Matrix: (Units=GPa)
#
#
# Indices 1 2 3 4 5 6 
#
# 1 123.9592 -4.6691 54.2635 0.0000 -26.5297 0.0000
# 2 -4.6691 67.0518 -3.8477 0.0000 -7.2439 0.0000
# 3 54.2635 -3.8477 42.9971 0.0000 -26.0127 0.0000
# 4 0.0000 0.0000 0.0000 31.2261 0.0000 3.3969
# 5 -26.5297 -7.2439 -26.0127 0.0000 27.2702 0.0000
# 6 0.0000 0.0000 0.0000 3.3969 0.0000 27.2407
#
#
#
# Elastic Compliance Matrix: (Units=1/GPa)
#
#
# Indices 1 2 3 4 5 6 
#
# 1 0.019403 -0.001788 -0.031956 0.000000 -0.012081 0.000000
# 2 -0.001788 0.017182 0.013012 0.000000 0.015237 0.000000
# 3 -0.031956 0.013012 0.113581 0.000000 0.080711 0.000000
# 4 0.000000 0.000000 0.000000 0.032465 0.000000 -0.004048
# 5 -0.012081 0.015237 0.080711 0.000000 0.105953 0.000000
# 6 0.000000 0.000000 0.000000 -0.004048 0.000000 0.037215
#
#
# Mechanical properties :
#
#
# Convention : Reuss Voigt Hill
#
# Bulk Modulus (GPa) = 9.19951 36.16681 22.68316
# Shear Modulus (GPa) = 12.39166 29.69814 21.04490
#
# Velocity S-wave (km/s) = 2.53164 3.91925 3.29922
# Velocity P-wave (km/s) = 3.64744 6.25994 5.12302
#
# Compressibility (1/GPa) = 0.10870147
#
# Stress axis : x y z
#
# Youngs Moduli (GPa) = 51.53789 58.19999 8.80430
#
# Poissons Ratio (x) = 0.10405 0.28135
# Poissons Ratio (y) = 0.09214 -0.11456
# Poissons Ratio (z) = 1.64697 -0.75730
#
# Static dielectric constant tensor:
#      x y z
#    x 1.696050 0.000000 -0.020390 
#    y 0.000000 1.664220 0.000000 
#    z -0.020390 0.000000 1.647720 
# 
# From -- ./inp_files/14105.got.cif
#   From: 2010.05.17/outbox.cif.g08.bks.cpg/sg4_8_cif.got.tgz:14105.got - 2010.06.03 18:43:04.
