data_PCOD9115012
_publ_section_title
;
Structure prediction by ZEFSAII (Michael W. Deem and Ramdas Pophale) SiO2 
 PCOD9115012
Probable space group: P 21
;
_chemical_formula_sum "Si O2"
_cell_formula_units_Z 16
_cell_length_a 8.906344
_cell_length_b 7.975559
_cell_length_c 11.090641
_cell_angle_alpha 90.000000
_cell_angle_beta 114.526362
_cell_angle_gamma 90.000000
_cell_volume 716.719193
_symmetry_space_group_name_H-M "P 21"
_symmetry_group_IT_number 4
_symmetry_cell_setting 'monoclinic'
loop_
_space_group_symop_operation_xyz
x,y,z
-x,1/2+y,-z
loop_
_atom_site_type_symbol
_atom_site_label
_atom_site_fract_x
_atom_site_fract_y
_atom_site_fract_z
Si Si1 0.293912 0.073100 0.994427
Si Si2 0.648277 0.884911 0.860897
Si Si3 0.069970 0.547532 0.193389
Si Si4 0.238828 0.545667 0.618447
Si Si5 0.350647 0.735639 0.420910
Si Si6 0.418342 0.364832 0.896717
Si Si7 0.935477 0.400150 0.393818
Si Si8 0.627798 0.540814 0.401595
O O1 0.359232 0.174759 0.897944
O O2 0.363659 0.185464 0.126685
O O3 0.098610 0.091832 0.930148
O O4 0.384322 0.895341 0.032642
O O5 0.814443 0.937042 0.851765
O O6 0.499418 0.950012 0.731184
O O7 0.646039 0.945845 0.998828
O O8 0.192296 0.692897 0.284282
O O9 0.003175 0.445137 0.285610
O O10 0.332919 0.605882 0.528093
O O11 0.342192 0.455744 0.756894
O O12 0.153521 0.720437 0.632949
O O13 0.091764 0.419947 0.532793
O O14 0.523837 0.700650 0.411335
O O15 0.344810 0.919147 0.474839
O O16 0.802526 0.538376 0.393867
#
# Coordination Sequence:
#
# PCOD9115012 Si02
#       8
#     2   2   2   2   2   2   2   2
#     4  10  22  40  62  90 122 167 211 260 307 372
#     4   9  22  39  61  86 124 163 199 258 307 377
#     4  10  21  41  60  92 122 161 207 258 319 363
#     4  10  22  39  58  94 119 159 207 252 313 374
#     4   9  21  37  60  84 124 150 198 255 304 369
#     4  10  23  41  63  90 123 167 216 252 313 375
#     4  10  22  36  67  84 125 161 198 261 308 368
#     4  10  19  39  59  86 117 156 200 244 315 360
#
# _framework density 22.323944000000001
#
# number of rings (size 3 to 8) (size 9 to 14) (size 15 to 20)
#    0.750    1.500    0.000    2.250    7.000    4.000 
#    4.500    2.500    0.000    0.000    0.000    0.000 
#    0.000    0.000    0.000    0.000    0.000    0.000 
#
# Total GULP energy -89281.250050 kJ/mol
# GULP energy per Si atom -5580.078128 kJ/mol
# Density = 2.227313 g / cm^3
# Si number density = 22.323944 Si / 1000 Ang^3
#
#
#
# Elastic Constant Matrix: (Units=GPa)
#
#
# Indices 1 2 3 4 5 6 
#
# 1 107.2141 7.8113 31.1375 0.0000 3.8999 0.0000
# 2 7.8113 27.7651 -15.2789 0.0000 4.7619 0.0000
# 3 31.1375 -15.2789 46.2429 0.0000 8.7592 0.0000
# 4 0.0000 0.0000 0.0000 13.6064 0.0000 -1.9213
# 5 3.8999 4.7619 8.7592 0.0000 27.4958 0.0000
# 6 0.0000 0.0000 0.0000 -1.9213 0.0000 24.8186
#
#
#
# Elastic Compliance Matrix: (Units=1/GPa)
#
#
# Indices 1 2 3 4 5 6 
#
# 1 0.014491 -0.013246 -0.015090 0.000000 0.005046 0.000000
# 2 -0.013246 0.061012 0.032696 0.000000 -0.019104 0.000000
# 3 -0.015090 0.032696 0.046033 0.000000 -0.018187 0.000000
# 4 0.000000 0.000000 0.000000 0.074307 0.000000 0.005752
# 5 0.005046 -0.019104 -0.018187 0.000000 0.044756 0.000000
# 6 0.000000 0.000000 0.000000 0.005752 0.000000 0.040738
#
#
# Mechanical properties :
#
#
# Convention : Reuss Voigt Hill
#
# Bulk Modulus (GPa) = 7.67711 25.39577 16.53644
# Shear Modulus (GPa) = 15.82103 23.68765 19.75434
#
# Velocity S-wave (km/s) = 2.66503 3.26097 2.97795
# Velocity P-wave (km/s) = 3.59393 5.05759 4.38723
#
# Compressibility (1/GPa) = 0.13025742
#
# Stress axis : x y z
#
# Youngs Moduli (GPa) = 69.00786 16.39024 21.72331
#
# Poissons Ratio (x) = 0.21711 0.32780
# Poissons Ratio (y) = 0.91408 -0.71027
# Poissons Ratio (z) = 1.04132 -0.53590
#
# Static dielectric constant tensor:
#      x y z
#    x 1.822650 0.000000 0.007320 
#    y 0.000000 1.857900 0.000000 
#    z 0.007320 0.000000 1.841040 
# 
# From -- ./inp_files/7763.got.cif
#   From: 2010.05.17/outbox.cif.g08.bks.cpg/sg4_4_cif.got.tgz:7763.got - 2010.06.03 18:43:04.
