data_PCOD9115559
_publ_section_title
;
Structure prediction by ZEFSAII (Michael W. Deem and Ramdas Pophale) SiO2 
 PCOD9115559
Probable space group: P 21
;
_chemical_formula_sum "Si O2"
_cell_formula_units_Z 14
_cell_length_a 15.076532
_cell_length_b 8.478539
_cell_length_c 12.887478
_cell_angle_alpha 90.000000
_cell_angle_beta 161.953689
_cell_angle_gamma 90.000000
_cell_volume 510.330655
_symmetry_space_group_name_H-M "P 21"
_symmetry_group_IT_number 4
_symmetry_cell_setting 'monoclinic'
loop_
_space_group_symop_operation_xyz
x,y,z
-x,1/2+y,-z
loop_
_atom_site_type_symbol
_atom_site_label
_atom_site_fract_x
_atom_site_fract_y
_atom_site_fract_z
Si Si1 0.475308 0.529390 0.560405
Si Si2 0.607168 0.276568 0.196390
Si Si3 0.074025 0.098034 0.357128
Si Si4 0.056332 0.064075 0.578711
Si Si5 0.901556 0.143777 0.695603
Si Si6 0.525559 0.889937 0.152171
Si Si7 0.443491 0.156874 0.575816
O O1 0.218554 0.635233 0.321902
O O2 0.411045 0.344744 0.512846
O O3 0.524258 0.559076 0.494164
O O4 0.767111 0.598484 0.937806
O O5 0.793309 0.296909 0.509035
O O6 0.809535 0.170865 0.350085
O O7 0.324922 0.177973 0.904888
O O8 0.474795 0.408058 0.974144
O O9 0.027348 0.024724 0.424137
O O10 0.321838 0.224760 0.662106
O O11 0.198354 0.081019 0.375673
O O12 0.749407 0.146110 0.972475
O O13 0.182587 0.915709 0.786480
O O14 0.720033 0.005957 0.436459
#
# Coordination Sequence:
#
# PCOD9115559 Si02
#       7
#     2   2   2   2   2   2   2
#     4  12  25  46  69  98 127 175 229 283 332 393
#     4  10  22  36  60  99 130 163 215 260 316 401
#     4  11  22  41  69  94 132 175 215 270 339 392
#     4  10  22  36  60  99 130 163 215 260 316 401
#     4  11  22  41  69  94 132 175 215 270 339 392
#     4  10  20  40  66  92 132 174 214 256 324 410
#     4  12  25  46  69  98 127 175 229 283 332 393
#
# _framework density 27.433195999999999
#
# number of rings (size 3 to 8) (size 9 to 14) (size 15 to 20)
#    0.000    1.143    2.857    4.286    0.000    4.571 
#    5.143    0.000    0.000    0.000    0.000    0.000 
#    0.000    0.000    0.000    0.000    0.000    0.000 
#
# Total GULP energy -78044.200314 kJ/mol
# GULP energy per Si atom -5574.585737 kJ/mol
# Density = 2.737076 g / cm^3
# Si number density = 27.433196 Si / 1000 Ang^3
#
#
#
# Elastic Constant Matrix: (Units=GPa)
#
#
# Indices 1 2 3 4 5 6 
#
# 1 175.5736 39.2628 4.7245 0.0000 -0.7068 0.0000
# 2 39.2628 -114.0326 31.4261 0.0000 -13.9896 0.0000
# 3 4.7245 31.4261 95.9436 0.0000 8.7074 0.0000
# 4 0.0000 0.0000 0.0000 32.4775 0.0000 -17.7595
# 5 -0.7068 -13.9896 8.7074 0.0000 63.7428 0.0000
# 6 0.0000 0.0000 0.0000 -17.7595 0.0000 49.8326
#
#
#
# Elastic Compliance Matrix: (Units=1/GPa)
#
#
# Indices 1 2 3 4 5 6 
#
# 1 0.005371 0.001560 -0.000822 0.000000 0.000514 0.000000
# 2 0.001560 -0.007309 0.002492 0.000000 -0.001927 0.000000
# 3 -0.000822 0.002492 0.009719 0.000000 -0.000790 0.000000
# 4 0.000000 0.000000 0.000000 0.038243 0.000000 0.013629
# 5 0.000514 -0.001927 -0.000790 0.000000 0.015379 0.000000
# 6 0.000000 0.000000 0.000000 0.013629 0.000000 0.024924
#
#
# Mechanical properties :
#
#
# Convention : Reuss Voigt Hill
#
# Bulk Modulus (GPa) = 70.22350 34.25682 52.24016
# Shear Modulus (GPa) = 59.09190 34.68200 46.88695
#
# Velocity S-wave (km/s) = 4.64619 3.55947 4.13865
# Velocity P-wave (km/s) = 7.37810 5.42287 6.47471
#
# Compressibility (1/GPa) = 0.01424025
#
# Stress axis : x y z
#
# Youngs Moduli (GPa) = 186.18440 -136.81504 102.89523
#
# Poissons Ratio (x) = 0.21339 0.08458
# Poissons Ratio (y) = -0.29039 -0.25644
# Poissons Ratio (z) = 0.15305 0.34097
#
# Static dielectric constant tensor:
#      x y z
#    x 2.337390 0.000000 -0.000120 
#    y 0.000000 2.883770 0.000000 
#    z -0.000120 0.000000 2.108950 
# 
# From -- ./inp_files/12706.got.cif
#   From: 2010.05.17/outbox.cif.g08.bks.cpg/sg4_7_cif.got.tgz:12706.got - 2010.06.03 18:43:04.
