data_PCOD9115529
_publ_section_title
;
Structure prediction by ZEFSAII (Michael W. Deem and Ramdas Pophale) SiO2 
 PCOD9115529
Probable space group: P 21
;
_chemical_formula_sum "Si O2"
_cell_formula_units_Z 12
_cell_length_a 8.878767
_cell_length_b 8.185682
_cell_length_c 11.973935
_cell_angle_alpha 90.000000
_cell_angle_beta 138.557029
_cell_angle_gamma 90.000000
_cell_volume 575.996588
_symmetry_space_group_name_H-M "P 21"
_symmetry_group_IT_number 4
_symmetry_cell_setting 'monoclinic'
loop_
_space_group_symop_operation_xyz
x,y,z
-x,1/2+y,-z
loop_
_atom_site_type_symbol
_atom_site_label
_atom_site_fract_x
_atom_site_fract_y
_atom_site_fract_z
Si Si1 0.758209 0.503280 0.695169
Si Si2 0.634910 0.003939 0.693566
Si Si3 0.416217 0.185858 0.190945
Si Si4 0.226316 0.203986 0.498911
Si Si5 0.916614 0.062542 0.503991
Si Si6 0.953653 0.685212 0.185283
O O1 0.527693 0.448834 0.500695
O O2 0.696156 0.559101 0.783867
O O3 0.831044 0.660601 0.661383
O O4 0.941470 0.362165 0.784860
O O5 0.634532 0.862766 0.784072
O O6 0.493379 0.161181 0.659525
O O7 0.876234 0.059437 0.782295
O O8 0.684153 0.153129 0.340529
O O9 0.295109 0.170309 0.005001
O O10 0.150584 0.379926 0.497640
O O11 0.091831 0.073037 0.499924
O O12 0.024770 0.150185 0.671922
#
# Coordination Sequence:
#
# PCOD9115529 Si02
#       6
#     2   2   2   2   2   2
#     4  10  20  40  61  93 117 163 201 246 302 350
#     4  10  20  40  61  93 117 163 201 246 302 350
#     4  12  23  38  65  93 124 159 202 253 301 359
#     4  10  23  38  71  82 120 172 196 254 301 364
#     4  12  21  44  61  90 124 158 210 242 313 354
#     4  12  23  38  65  93 124 159 202 253 301 359
#
# _framework density 20.833458
#
# number of rings (size 3 to 8) (size 9 to 14) (size 15 to 20)
#    1.000    0.000    3.333    5.000    0.000    0.000 
#    0.000   10.000    0.000    0.000    0.000    0.000 
#    0.000    0.000    0.000    0.000    0.000    0.000 
#
# Total GULP energy -67063.338046 kJ/mol
# GULP energy per Si atom -5588.611504 kJ/mol
# Density = 2.078604 g / cm^3
# Si number density = 20.833458 Si / 1000 Ang^3
#
#
#
# Elastic Constant Matrix: (Units=GPa)
#
#
# Indices 1 2 3 4 5 6 
#
# 1 50.2876 -12.6748 11.8428 0.0000 -1.2386 0.0000
# 2 -12.6748 64.4260 9.3822 0.0000 0.0763 0.0000
# 3 11.8428 9.3822 140.0850 0.0000 -8.3921 0.0000
# 4 0.0000 0.0000 0.0000 17.2150 0.0000 -0.2851
# 5 -1.2386 0.0763 -8.3921 0.0000 0.3465 0.0000
# 6 0.0000 0.0000 0.0000 -0.2851 0.0000 36.2713
#
#
#
# Elastic Compliance Matrix: (Units=1/GPa)
#
#
# Indices 1 2 3 4 5 6 
#
# 1 0.021097 0.004966 -0.005182 0.000000 -0.051172 0.000000
# 2 0.004966 0.016228 0.001459 0.000000 0.049500 0.000000
# 3 -0.005182 0.001459 -0.014088 0.000000 -0.360009 0.000000
# 4 0.000000 0.000000 0.000000 0.058096 0.000000 0.000457
# 5 -0.051172 0.049500 -0.360009 0.000000 -6.026344 0.000000
# 6 0.000000 0.000000 0.000000 0.000457 0.000000 0.027574
#
#
# Mechanical properties :
#
#
# Convention : Reuss Voigt Hill
#
# Bulk Modulus (GPa) = 38.87715 30.21104 34.54409
# Shear Modulus (GPa) = -0.84583 27.18313 13.16865
#
# Velocity S-wave (km/s) = -0.63787 3.61610 2.51687
# Velocity P-wave (km/s) = 4.26133 5.65399 5.00632
#
# Compressibility (1/GPa) = 0.02572205
#
# Stress axis : x y z
#
# Youngs Moduli (GPa) = 47.39986 61.62369 -70.98185
#
# Poissons Ratio (x) = -0.30601 -0.36781
# Poissons Ratio (y) = -0.23538 0.10354
# Poissons Ratio (z) = 0.24561 -0.08989
#
# Static dielectric constant tensor:
#      x y z
#    x 1.723050 0.000000 -0.000250 
#    y 0.000000 1.789240 0.000000 
#    z -0.000250 0.000000 1.743490 
# 
# From -- ./inp_files/5620.got.cif
#   From: 2010.05.17/outbox.cif.g08.bks.cpg/sg4_3_cif.got.tgz:5620.got - 2010.06.03 18:43:04.
