data_PCOD9115740
_publ_section_title
;
Structure prediction by ZEFSAII (Michael W. Deem and Ramdas Pophale) SiO2 
 PCOD9115740
Probable space group: P 21
;
_chemical_formula_sum "Si O2"
_cell_formula_units_Z 16
_cell_length_a 9.111393
_cell_length_b 13.925168
_cell_length_c 7.272010
_cell_angle_alpha 90.000000
_cell_angle_beta 137.620462
_cell_angle_gamma 90.000000
_cell_volume 621.905606
_symmetry_space_group_name_H-M "P 21"
_symmetry_group_IT_number 4
_symmetry_cell_setting 'monoclinic'
loop_
_space_group_symop_operation_xyz
x,y,z
-x,1/2+y,-z
loop_
_atom_site_type_symbol
_atom_site_label
_atom_site_fract_x
_atom_site_fract_y
_atom_site_fract_z
Si Si1 0.061851 0.176420 0.413593
Si Si2 0.153948 0.910768 0.310366
Si Si3 0.258212 0.539363 0.964057
Si Si4 0.316280 0.347885 0.527970
Si Si5 0.089659 0.233845 0.053079
Si Si6 0.551613 0.365476 0.091562
Si Si7 0.458196 0.530420 0.518943
Si Si8 0.656372 0.662329 0.011444
O O1 0.129196 0.290113 0.471467
O O2 0.059757 0.161087 0.191764
O O3 0.833264 0.126014 0.248164
O O4 0.258826 0.129163 0.710368
O O5 0.237906 0.881693 0.591030
O O6 0.341272 0.966261 0.372421
O O7 0.943222 0.974342 0.155050
O O8 0.085198 0.816693 0.133125
O O9 0.406465 0.460242 0.998953
O O10 0.374933 0.579509 0.255407
O O11 0.309313 0.287884 0.331915
O O12 0.278842 0.456337 0.432160
O O13 0.531095 0.350532 0.853022
O O14 0.118201 0.183344 0.887190
O O15 0.453093 0.265578 0.071760
O O16 0.530860 0.595372 0.754758
#
# Coordination Sequence:
#
# PCOD9115740 Si02
#       8
#     2   2   2   2   2   2   2   2
#     4   9  23  40  68  97 130 173 223 276 332 398
#     4  11  22  40  71  96 127 185 215 279 349 382
#     4  11  21  45  66  98 132 172 230 277 329 413
#     4   9  21  46  63  97 141 170 222 284 327 403
#     4  10  20  44  67  91 140 167 223 277 330 398
#     4  10  23  42  66  99 137 176 221 282 335 396
#     4  11  24  41  69  98 135 177 228 275 338 403
#     4  11  22  44  66  96 136 176 224 274 332 407
#
# _framework density 25.727377000000001
#
# number of rings (size 3 to 8) (size 9 to 14) (size 15 to 20)
#    0.750    1.000    2.500    1.500    3.500    1.000 
#    4.500    0.000    0.000    0.000    0.000    0.000 
#    0.000    0.000    0.000    0.000    0.000    0.000 
#
# Total GULP energy -89256.957321 kJ/mol
# GULP energy per Si atom -5578.559833 kJ/mol
# Density = 2.566882 g / cm^3
# Si number density = 25.727377 Si / 1000 Ang^3
#
#
#
# Elastic Constant Matrix: (Units=GPa)
#
#
# Indices 1 2 3 4 5 6 
#
# 1 59.8422 32.3729 39.3399 0.0000 -10.8422 0.0000
# 2 32.3729 94.1256 52.3810 0.0000 -1.3929 0.0000
# 3 39.3399 52.3810 166.3038 0.0000 -29.2656 0.0000
# 4 0.0000 0.0000 0.0000 57.1649 0.0000 4.3144
# 5 -10.8422 -1.3929 -29.2656 0.0000 24.8053 0.0000
# 6 0.0000 0.0000 0.0000 4.3144 0.0000 33.8132
#
#
#
# Elastic Compliance Matrix: (Units=1/GPa)
#
#
# Indices 1 2 3 4 5 6 
#
# 1 0.022974 -0.006642 -0.002071 0.000000 0.007225 0.000000
# 2 -0.006642 0.015341 -0.004569 0.000000 -0.007432 0.000000
# 3 -0.002071 -0.004569 0.009765 0.000000 0.010359 0.000000
# 4 0.000000 0.000000 0.000000 0.017663 0.000000 -0.002254
# 5 0.007225 -0.007432 0.010359 0.000000 0.055277 0.000000
# 6 0.000000 0.000000 0.000000 -0.002254 0.000000 0.029862
#
#
# Mechanical properties :
#
#
# Convention : Reuss Voigt Hill
#
# Bulk Modulus (GPa) = 46.47558 63.16215 54.81887
# Shear Modulus (GPa) = 27.08293 36.23519 31.65906
#
# Velocity S-wave (km/s) = 3.24804 3.75698 3.51174
# Velocity P-wave (km/s) = 5.67188 6.58966 6.14792
#
# Compressibility (1/GPa) = 0.02151667
#
# Stress axis : x y z
#
# Youngs Moduli (GPa) = 43.52659 65.18475 102.40717
#
# Poissons Ratio (x) = 0.43297 0.21210
# Poissons Ratio (y) = 0.28911 0.46786
# Poissons Ratio (z) = 0.09015 0.29780
#
# Static dielectric constant tensor:
#      x y z
#    x 2.080030 0.000000 0.024870 
#    y 0.000000 2.093420 0.000000 
#    z 0.024870 0.000000 2.021650 
# 
# From -- ./inp_files/8516.got.cif
#   From: 2010.05.17/outbox.cif.g08.bks.cpg/sg4_5_cif.got.tgz:8516.got - 2010.06.03 18:43:04.
