data_PCOD9115834
_publ_section_title
;
Structure prediction by ZEFSAII (Michael W. Deem and Ramdas Pophale) SiO2 
 PCOD9115834
Probable space group: P 21
;
_chemical_formula_sum "Si O2"
_cell_formula_units_Z 16
_cell_length_a 5.277365
_cell_length_b 8.830420
_cell_length_c 16.288820
_cell_angle_alpha 90.000000
_cell_angle_beta 60.694480
_cell_angle_gamma 90.000000
_cell_volume 661.935417
_symmetry_space_group_name_H-M "P 21"
_symmetry_group_IT_number 4
_symmetry_cell_setting 'monoclinic'
loop_
_space_group_symop_operation_xyz
x,y,z
-x,1/2+y,-z
loop_
_atom_site_type_symbol
_atom_site_label
_atom_site_fract_x
_atom_site_fract_y
_atom_site_fract_z
Si Si1 0.275156 0.974790 0.336147
Si Si2 0.405487 0.398735 0.551662
Si Si3 0.682422 0.668579 0.818766
Si Si4 0.265528 0.474116 0.114487
Si Si5 0.186002 0.975503 0.069317
Si Si6 0.058584 0.685866 0.011919
Si Si7 0.292385 0.067125 0.631637
Si Si8 0.382512 0.639215 0.258532
O O1 0.430318 0.981365 0.399378
O O2 0.387303 0.820420 0.272732
O O3 0.928795 0.952233 0.400668
O O4 0.344027 0.122924 0.271032
O O5 0.416938 0.222377 0.573138
O O6 0.570044 0.431974 0.441314
O O7 0.844155 0.522701 0.832926
O O8 0.368730 0.678954 0.913857
O O9 0.834229 0.826172 0.819375
O O10 0.411865 0.582594 0.160138
O O11 0.499243 0.421530 0.009060
O O12 0.059880 0.573358 0.089408
O O13 0.986468 0.847909 0.061951
O O14 0.146818 0.130471 0.026815
O O15 0.398262 0.068431 0.709372
O O16 0.948136 0.082926 0.673102
#
# Coordination Sequence:
#
# PCOD9115834 Si02
#       8
#     2   2   2   2   2   2   2   2
#     4  10  22  39  60  89 121 157 198 246 300 360
#     4  10  22  40  62  88 119 154 197 244 303 362
#     4  10  22  38  56  85 117 154 203 249 298 355
#     4  10  22  38  56  85 117 154 203 249 298 355
#     4  10  21  37  58  83 117 157 199 248 300 354
#     4  10  21  37  58  83 117 157 199 248 300 354
#     4  10  22  40  62  88 119 154 197 244 303 362
#     4  10  22  39  60  89 121 157 198 246 300 360
#
# _framework density 24.17154
#
# number of rings (size 3 to 8) (size 9 to 14) (size 15 to 20)
#    0.000    2.000    0.000    2.250    3.500    5.000 
#    0.000    0.000    0.000    0.000    0.000    0.000 
#    0.000    0.000    0.000    0.000    0.000    0.000 
#
# Total GULP energy -89395.399704 kJ/mol
# GULP energy per Si atom -5587.212481 kJ/mol
# Density = 2.411652 g / cm^3
# Si number density = 24.171540 Si / 1000 Ang^3
#
#
#
# Elastic Constant Matrix: (Units=GPa)
#
#
# Indices 1 2 3 4 5 6 
#
# 1 78.9370 0.8320 12.0197 0.0000 13.5400 0.0000
# 2 0.8320 46.1004 -5.0508 0.0000 4.4497 0.0000
# 3 12.0197 -5.0508 62.0384 0.0000 7.0334 0.0000
# 4 0.0000 0.0000 0.0000 40.5841 0.0000 12.9474
# 5 13.5400 4.4497 7.0334 0.0000 34.2439 0.0000
# 6 0.0000 0.0000 0.0000 12.9474 0.0000 21.8404
#
#
#
# Elastic Compliance Matrix: (Units=1/GPa)
#
#
# Indices 1 2 3 4 5 6 
#
# 1 0.013855 0.000006 -0.002112 0.000000 -0.005045 0.000000
# 2 0.000006 0.022254 0.002190 0.000000 -0.003344 0.000000
# 3 -0.002112 0.002190 0.017041 0.000000 -0.002950 0.000000
# 4 0.000000 0.000000 0.000000 0.030387 0.000000 -0.018014
# 5 -0.005045 -0.003344 -0.002950 0.000000 0.032237 0.000000
# 6 0.000000 0.000000 0.000000 -0.018014 0.000000 0.056466
#
#
# Mechanical properties :
#
#
# Convention : Reuss Voigt Hill
#
# Bulk Modulus (GPa) = 18.75564 22.51975 20.63769
# Shear Modulus (GPa) = 26.33707 31.28534 28.81121
#
# Velocity S-wave (km/s) = 3.30447 3.60155 3.45620
# Velocity P-wave (km/s) = 4.72606 5.16059 4.94810
#
# Compressibility (1/GPa) = 0.05331731
#
# Stress axis : x y z
#
# Youngs Moduli (GPa) = 72.17465 44.93502 58.68231
#
# Poissons Ratio (x) = -0.00025 0.12394
# Poissons Ratio (y) = -0.00040 -0.12850
# Poissons Ratio (z) = 0.15243 -0.09840
#
# Static dielectric constant tensor:
#      x y z
#    x 1.945090 0.000000 -0.048710 
#    y 0.000000 1.971110 0.000000 
#    z -0.048710 0.000000 1.907620 
# 
# From -- ./inp_files/3409.got.cif
#   From: 2010.05.17/outbox.cif.g08.bks.cpg/sg4_2_cif.got.tgz:3409.got - 2010.06.03 18:43:04.
