data_PCOD9115260
_publ_section_title
;
Structure prediction by ZEFSAII (Michael W. Deem and Ramdas Pophale) SiO2 
 PCOD9115260
Probable space group: P 21
;
_chemical_formula_sum "Si O2"
_cell_formula_units_Z 16
_cell_length_a 7.387780
_cell_length_b 5.879808
_cell_length_c 14.869660
_cell_angle_alpha 90.000000
_cell_angle_beta 59.684973
_cell_angle_gamma 90.000000
_cell_volume 557.598201
_symmetry_space_group_name_H-M "P 21"
_symmetry_group_IT_number 4
_symmetry_cell_setting 'monoclinic'
loop_
_space_group_symop_operation_xyz
x,y,z
-x,1/2+y,-z
loop_
_atom_site_type_symbol
_atom_site_label
_atom_site_fract_x
_atom_site_fract_y
_atom_site_fract_z
Si Si1 0.690652 0.253270 0.368859
Si Si2 0.590984 0.422732 0.910245
Si Si3 0.887198 0.278356 0.517084
Si Si4 0.522046 0.851298 0.857493
Si Si5 0.714730 0.758756 0.325695
Si Si6 0.028849 0.229995 0.125323
Si Si7 0.877220 0.635362 0.103367
Si Si8 0.820877 0.139294 0.716556
O O1 0.793043 0.268422 0.441494
O O2 0.601439 0.511079 0.370929
O O3 0.853323 0.232262 0.245917
O O4 0.601689 0.991047 0.387577
O O5 0.469884 0.580849 0.870945
O O6 0.804454 0.551055 0.881392
O O7 0.655707 0.209313 0.835302
O O8 0.484026 0.369837 0.030931
O O9 0.751795 0.257807 0.642079
O O10 0.992111 0.531378 0.499813
O O11 0.320639 0.973120 0.867068
O O12 0.738496 0.878716 0.744382
O O13 0.782792 0.792530 0.204624
O O14 0.941461 0.715743 0.320943
O O15 0.059279 0.502969 0.111067
O O16 0.031817 0.192322 0.016561
#
# Coordination Sequence:
#
# PCOD9115260 Si02
#       8
#     2   2   2   2   2   2   2   2
#     4  11  20  39  60  98 126 165 209 291 325 379
#     4  11  22  40  60  91 132 184 213 274 336 409
#     4  12  23  39  66 103 130 168 231 289 337 387
#     4  11  24  41  59  93 140 176 224 262 349 410
#     4  11  22  40  67  92 134 166 223 269 333 380
#     4  10  20  36  61  90 128 169 222 274 322 388
#     4  10  23  37  60  98 128 178 223 272 331 409
#     4  12  24  40  67  93 134 172 219 283 339 400
#
# _framework density 28.694493999999999
#
# number of rings (size 3 to 8) (size 9 to 14) (size 15 to 20)
#    0.000    1.000    5.000    2.250    3.500    1.000 
#    4.500    0.000    0.000    3.000    0.000    0.000 
#    0.000    0.000    0.000    0.000    0.000    0.000 
#
# Total GULP energy -89208.946228 kJ/mol
# GULP energy per Si atom -5575.559139 kJ/mol
# Density = 2.862918 g / cm^3
# Si number density = 28.694494 Si / 1000 Ang^3
#
#
#
# Elastic Constant Matrix: (Units=GPa)
#
#
# Indices 1 2 3 4 5 6 
#
# 1 88.1843 31.0129 34.2777 0.0000 13.8973 0.0000
# 2 31.0129 103.4655 27.2307 0.0000 4.2253 0.0000
# 3 34.2777 27.2307 192.0016 0.0000 25.4930 0.0000
# 4 0.0000 0.0000 0.0000 38.6598 0.0000 17.6952
# 5 13.8973 4.2253 25.4930 0.0000 45.3846 0.0000
# 6 0.0000 0.0000 0.0000 17.6952 0.0000 52.1503
#
#
#
# Elastic Compliance Matrix: (Units=1/GPa)
#
#
# Indices 1 2 3 4 5 6 
#
# 1 0.013663 -0.003569 -0.001536 0.000000 -0.002989 0.000000
# 2 -0.003569 0.010973 -0.001003 0.000000 0.000635 0.000000
# 3 -0.001536 -0.001003 0.005997 0.000000 -0.002805 0.000000
# 4 0.000000 0.000000 0.000000 0.030623 0.000000 -0.010391
# 5 -0.002989 0.000635 -0.002805 0.000000 0.024465 0.000000
# 6 0.000000 0.000000 0.000000 -0.010391 0.000000 0.022701
#
#
# Mechanical properties :
#
#
# Convention : Reuss Voigt Hill
#
# Bulk Modulus (GPa) = 54.30037 63.18823 58.74430
# Shear Modulus (GPa) = 39.43879 46.64760 43.04320
#
# Velocity S-wave (km/s) = 3.71136 4.03633 3.87725
# Velocity P-wave (km/s) = 6.10985 6.61751 6.36874
#
# Compressibility (1/GPa) = 0.01841608
#
# Stress axis : x y z
#
# Youngs Moduli (GPa) = 73.18924 91.13276 166.74230
#
# Poissons Ratio (x) = 0.32526 0.25616
# Poissons Ratio (y) = 0.26122 0.16730
# Poissons Ratio (z) = 0.11244 0.09144
#
# Static dielectric constant tensor:
#      x y z
#    x 2.307910 0.000000 -0.056600 
#    y 0.000000 2.809830 0.000000 
#    z -0.056600 0.000000 2.224140 
# 
# From -- ./inp_files/13544.got.cif
#   From: 2010.05.17/outbox.cif.g08.bks.cpg/sg4_7_cif.got.tgz:13544.got - 2010.06.03 18:43:04.
