data_PCOD9115979
_publ_section_title
;
Structure prediction by ZEFSAII (Michael W. Deem and Ramdas Pophale) SiO2 
 PCOD9115979
Probable space group: P 21
;
_chemical_formula_sum "Si O2"
_cell_formula_units_Z 16
_cell_length_a 16.673467
_cell_length_b 7.586152
_cell_length_c 20.411114
_cell_angle_alpha 90.000000
_cell_angle_beta 16.078960
_cell_angle_gamma 90.000000
_cell_volume 715.046141
_symmetry_space_group_name_H-M "P 21"
_symmetry_group_IT_number 4
_symmetry_cell_setting 'monoclinic'
loop_
_space_group_symop_operation_xyz
x,y,z
-x,1/2+y,-z
loop_
_atom_site_type_symbol
_atom_site_label
_atom_site_fract_x
_atom_site_fract_y
_atom_site_fract_z
Si Si1 0.407441 0.357480 0.069096
Si Si2 0.151499 0.511742 0.810347
Si Si3 0.859489 0.540884 0.640780
Si Si4 0.226698 0.875199 0.680674
Si Si5 0.801566 0.158845 0.080131
Si Si6 0.483139 0.007690 0.878781
Si Si7 0.475993 0.132650 0.213742
Si Si8 0.102111 0.346499 0.180643
O O1 0.317640 0.192147 0.183554
O O2 0.485505 0.485803 0.067760
O O3 0.690259 0.367667 0.799462
O O4 0.143515 0.385179 0.225122
O O5 0.111968 0.689868 0.799549
O O6 0.443297 0.411341 0.559307
O O7 0.901963 0.363497 0.003525
O O8 0.206244 0.582440 0.840873
O O9 0.811488 0.579323 0.601330
O O10 0.191066 0.549163 0.400514
O O11 0.040662 0.037469 0.855486
O O12 0.192828 0.860923 0.628275
O O13 0.510170 0.139586 0.265011
O O14 0.415485 0.822078 0.897834
O O15 0.245321 0.155972 0.055157
O O16 0.693172 0.986768 0.015741
#
# Coordination Sequence:
#
# PCOD9115979 Si02
#       8
#     2   2   2   2   2   2   2   2
#     4  10  21  39  59  88 125 166 212 254 307 374
#     4  12  23  43  73  96 131 176 209 275 336 401
#     4  10  22  38  63  88 126 173 208 258 315 370
#     4  11  24  43  68  99 133 168 219 271 335 393
#     4  11  23  44  67  98 133 166 220 269 331 397
#     4  11  22  41  64  91 130 177 211 261 319 371
#     4   9  23  39  61  93 127 166 208 265 311 372
#     4  10  22  43  63  93 131 168 213 271 312 382
#
# _framework density 22.376179
#
# number of rings (size 3 to 8) (size 9 to 14) (size 15 to 20)
#    0.000    1.500    3.750    0.750    7.000    1.000 
#    2.250    6.250    0.000    0.000    0.000    0.000 
#    0.000    0.000    0.000    0.000    0.000    0.000 
#
# Total GULP energy -89221.394061 kJ/mol
# GULP energy per Si atom -5576.337129 kJ/mol
# Density = 2.232525 g / cm^3
# Si number density = 22.376179 Si / 1000 Ang^3
#
#
#
# Elastic Constant Matrix: (Units=GPa)
#
#
# Indices 1 2 3 4 5 6 
#
# 1 143.0003 29.3105 5.5115 0.0000 7.2289 0.0000
# 2 29.3105 156.5962 41.9717 0.0000 -11.2294 0.0000
# 3 5.5115 41.9717 65.5198 0.0000 -13.9494 0.0000
# 4 0.0000 0.0000 0.0000 22.1988 0.0000 11.6145
# 5 7.2289 -11.2294 -13.9494 0.0000 29.6218 0.0000
# 6 0.0000 0.0000 0.0000 11.6145 0.0000 -16.2303
#
#
#
# Elastic Compliance Matrix: (Units=1/GPa)
#
#
# Indices 1 2 3 4 5 6 
#
# 1 0.007437 -0.001522 -0.000178 0.000000 -0.002476 0.000000
# 2 -0.001522 0.008033 -0.004768 0.000000 0.001171 0.000000
# 3 -0.000178 -0.004768 0.019957 0.000000 0.007634 0.000000
# 4 0.000000 0.000000 0.000000 0.032776 0.000000 0.023455
# 5 -0.002476 0.001171 0.007634 0.000000 0.038402 0.000000
# 6 0.000000 0.000000 0.000000 0.023455 0.000000 -0.044829
#
#
# Mechanical properties :
#
#
# Convention : Reuss Voigt Hill
#
# Bulk Modulus (GPa) = 44.46209 57.63373 51.04791
# Shear Modulus (GPa) = 60.82044 26.33955 43.58000
#
# Velocity S-wave (km/s) = 5.21919 3.43465 4.41796
# Velocity P-wave (km/s) = 7.49888 6.44529 6.99196
#
# Compressibility (1/GPa) = 0.02249107
#
# Stress axis : x y z
#
# Youngs Moduli (GPa) = 134.46429 124.49083 50.10667
#
# Poissons Ratio (x) = 0.18946 0.00891
# Poissons Ratio (y) = 0.20464 0.23893
# Poissons Ratio (z) = 0.02390 0.59362
#
# Static dielectric constant tensor:
#      x y z
#    x 1.875220 0.000000 -0.019820 
#    y 0.000000 1.893990 0.000000 
#    z -0.019820 0.000000 1.821770 
# 
# From -- ./inp_files/15254.got.cif
#   From: 2010.05.17/outbox.cif.g08.bks.cpg/sg4_8_cif.got.tgz:15254.got - 2010.06.03 18:43:04.
