data_PCOD9115181
_publ_section_title
;
Structure prediction by ZEFSAII (Michael W. Deem and Ramdas Pophale) SiO2 
 PCOD9115181
Probable space group: P 21
;
_chemical_formula_sum "Si O2"
_cell_formula_units_Z 14
_cell_length_a 20.213595
_cell_length_b 5.138011
_cell_length_c 5.041094
_cell_angle_alpha 90.000000
_cell_angle_beta 111.973645
_cell_angle_gamma 90.000000
_cell_volume 485.523107
_symmetry_space_group_name_H-M "P 21"
_symmetry_group_IT_number 4
_symmetry_cell_setting 'monoclinic'
loop_
_space_group_symop_operation_xyz
x,y,z
-x,1/2+y,-z
loop_
_atom_site_type_symbol
_atom_site_label
_atom_site_fract_x
_atom_site_fract_y
_atom_site_fract_z
Si Si1 0.560640 0.463340 0.776669
Si Si2 0.843672 0.868314 0.275015
Si Si3 0.697874 0.649108 0.124228
Si Si4 0.016135 0.249703 0.702987
Si Si5 0.269598 0.806362 0.318255
Si Si6 0.408626 0.648021 0.674724
Si Si7 0.124441 0.859284 0.335486
O O1 0.613470 0.695954 0.951679
O O2 0.476300 0.480770 0.692872
O O3 0.576969 0.395357 0.498979
O O4 0.583369 0.238235 0.013866
O O5 0.861404 0.642925 0.519651
O O6 0.899026 0.787158 0.125378
O O7 0.862184 0.149763 0.411522
O O8 0.758305 0.850447 0.121830
O O9 0.713367 0.413599 0.943210
O O10 0.712982 0.529765 0.435333
O O11 0.959174 0.313443 0.849015
O O12 0.997403 0.473859 0.457639
O O13 0.326256 0.582334 0.487816
O O14 0.185056 0.772849 0.220054
#
# Coordination Sequence:
#
# PCOD9115181 Si02
#       7
#     2   2   2   2   2   2   2
#     4  10  20  35  55  81 113 148 190 238 291 349
#     4   9  17  32  55  84 117 154 196 242 293 348
#     4   9  19  36  56  80 114 154 196 242 293 350
#     4   8  14  26  50  80 112 150 192 238 288 344
#     4   9  19  36  56  80 114 154 196 242 293 350
#     4  10  20  35  55  81 113 148 190 238 291 349
#     4   9  17  32  55  84 117 154 196 242 293 348
#
# _framework density 28.834876000000001
#
# number of rings (size 3 to 8) (size 9 to 14) (size 15 to 20)
#    0.000    2.857    0.000    0.857    0.000    1.143 
#    0.000   11.429    0.000   22.286    0.000    0.000 
#    0.000    0.000    0.000    0.000    0.000    0.000 
#
# Total GULP energy -78384.496826 kJ/mol
# GULP energy per Si atom -5598.892630 kJ/mol
# Density = 2.876925 g / cm^3
# Si number density = 28.834876 Si / 1000 Ang^3
#
#
#
# Elastic Constant Matrix: (Units=GPa)
#
#
# Indices 1 2 3 4 5 6 
#
# 1 235.9010 23.3499 48.7668 0.0000 -7.4767 0.0000
# 2 23.3499 114.7909 51.4857 0.0000 19.7802 0.0000
# 3 48.7668 51.4857 92.9414 0.0000 5.2803 0.0000
# 4 0.0000 0.0000 0.0000 6.8172 0.0000 11.7051
# 5 -7.4767 19.7802 5.2803 0.0000 37.1799 0.0000
# 6 0.0000 0.0000 0.0000 11.7051 0.0000 44.9996
#
#
#
# Elastic Compliance Matrix: (Units=1/GPa)
#
#
# Indices 1 2 3 4 5 6 
#
# 1 0.004820 -0.000062 -0.002572 0.000000 0.001368 0.000000
# 2 -0.000062 0.012729 -0.006687 0.000000 -0.005835 0.000000
# 3 -0.002572 -0.006687 0.015768 0.000000 0.000801 0.000000
# 4 0.000000 0.000000 0.000000 0.265076 0.000000 -0.068951
# 5 0.001368 -0.005835 0.000801 0.000000 0.030162 0.000000
# 6 0.000000 0.000000 0.000000 -0.068951 0.000000 0.040158
#
#
# Mechanical properties :
#
#
# Convention : Reuss Voigt Hill
#
# Bulk Modulus (GPa) = 68.14979 76.75982 72.45481
# Shear Modulus (GPa) = 12.74703 39.13472 25.94088
#
# Velocity S-wave (km/s) = 2.10483 3.68802 3.00265
# Velocity P-wave (km/s) = 5.43993 6.69429 6.09944
#
# Compressibility (1/GPa) = 0.01467356
#
# Stress axis : x y z
#
# Youngs Moduli (GPa) = 207.45237 78.56171 63.41951
#
# Poissons Ratio (x) = 0.00491 0.16314
# Poissons Ratio (y) = 0.01296 0.42408
# Poissons Ratio (z) = 0.53365 0.52534
#
# Static dielectric constant tensor:
#      x y z
#    x 2.459460 0.000000 0.134810 
#    y 0.000000 2.221680 0.000000 
#    z 0.134810 0.000000 2.171830 
# 
# From -- ./inp_files/4200.got.cif
#   From: 2010.05.17/outbox.cif.g08.bks.cpg/sg4_3_cif.got.tgz:4200.got - 2010.06.03 18:43:04.
