data_PCOD9115131
_publ_section_title
;
Structure prediction by ZEFSAII (Michael W. Deem and Ramdas Pophale) SiO2 
 PCOD9115131
Probable space group: P 21
;
_chemical_formula_sum "Si O2"
_cell_formula_units_Z 16
_cell_length_a 10.456536
_cell_length_b 5.233387
_cell_length_c 24.362125
_cell_angle_alpha 90.000000
_cell_angle_beta 146.529109
_cell_angle_gamma 90.000000
_cell_volume 735.261480
_symmetry_space_group_name_H-M "P 21"
_symmetry_group_IT_number 4
_symmetry_cell_setting 'monoclinic'
loop_
_space_group_symop_operation_xyz
x,y,z
-x,1/2+y,-z
loop_
_atom_site_type_symbol
_atom_site_label
_atom_site_fract_x
_atom_site_fract_y
_atom_site_fract_z
Si Si1 0.319304 0.183320 0.120012
Si Si2 0.927204 0.980876 0.686733
Si Si3 0.281831 0.682634 0.285942
Si Si4 0.858985 0.193818 0.882885
Si Si5 0.054886 0.599648 0.588178
Si Si6 0.697605 0.376209 0.398717
Si Si7 0.192951 0.469680 0.747196
Si Si8 0.648766 0.985913 0.479557
O O1 0.279084 0.449210 0.139844
O O2 0.265523 0.949387 0.141255
O O3 0.553949 0.097084 0.171521
O O4 0.112811 0.185196 0.001032
O O5 0.039140 0.707478 0.713218
O O6 0.717246 0.037392 0.567477
O O7 0.119985 0.209724 0.752139
O O8 0.830044 0.978665 0.713421
O O9 0.118268 0.725616 0.175174
O O10 0.507092 0.589930 0.333094
O O11 0.396433 0.877687 0.371279
O O12 0.292484 0.730357 0.654693
O O13 0.111753 0.403955 0.656029
O O14 0.955555 0.482978 0.497289
O O15 0.850813 0.782613 0.536485
O O16 0.668399 0.219975 0.444470
#
# Coordination Sequence:
#
# PCOD9115131 Si02
#       8
#     2   2   2   2   2   2   2   2
#     4  10  22  44  73  97 134 156 211 270 351 383
#     4  11  26  43  60  90 130 174 228 254 298 385
#     4  11  27  38  63  89 127 174 222 257 318 379
#     4  10  23  43  68 106 127 163 205 278 328 406
#     4  10  20  33  55  86 119 149 215 257 318 377
#     4  11  20  35  54  85 119 161 203 266 311 371
#     4  11  23  41  65  88 123 175 209 268 318 376
#     4  10  23  37  56  83 123 174 207 260 308 367
#
# _framework density 21.760967000000001
#
# number of rings (size 3 to 8) (size 9 to 14) (size 15 to 20)
#    0.000    1.500    2.500    1.500    7.000    1.000 
#    0.000    1.250    0.000    0.000    0.000    0.000 
#    0.000    0.000    0.000    0.000    0.000    0.000 
#
# Total GULP energy -89085.793440 kJ/mol
# GULP energy per Si atom -5567.862090 kJ/mol
# Density = 2.171144 g / cm^3
# Si number density = 21.760967 Si / 1000 Ang^3
#
#
#
# Elastic Constant Matrix: (Units=GPa)
#
#
# Indices 1 2 3 4 5 6 
#
# 1 80.6668 12.0972 35.4810 0.0000 -15.3656 0.0000
# 2 12.0972 88.7555 14.0931 0.0000 -1.8159 0.0000
# 3 35.4810 14.0931 88.1649 0.0000 -10.9803 0.0000
# 4 0.0000 0.0000 0.0000 21.2709 0.0000 1.6632
# 5 -15.3656 -1.8159 -10.9803 0.0000 32.2804 0.0000
# 6 0.0000 0.0000 0.0000 1.6632 0.0000 30.6477
#
#
#
# Elastic Compliance Matrix: (Units=1/GPa)
#
#
# Indices 1 2 3 4 5 6 
#
# 1 0.016119 -0.001193 -0.005586 0.000000 0.005706 0.000000
# 2 -0.001193 0.011649 -0.001432 0.000000 -0.000400 0.000000
# 3 -0.005586 -0.001432 0.014074 0.000000 0.002048 0.000000
# 4 0.000000 0.000000 0.000000 0.047213 0.000000 -0.002562
# 5 0.005706 -0.000400 0.002048 0.000000 0.034369 0.000000
# 6 0.000000 0.000000 0.000000 -0.002562 0.000000 0.032768
#
#
# Mechanical properties :
#
#
# Convention : Reuss Voigt Hill
#
# Bulk Modulus (GPa) = 39.33756 42.32552 40.83154
# Shear Modulus (GPa) = 27.61111 29.90088 28.75599
#
# Velocity S-wave (km/s) = 3.56594 3.71085 3.63912
# Velocity P-wave (km/s) = 5.92207 6.15248 6.03837
#
# Compressibility (1/GPa) = 0.02542099
#
# Stress axis : x y z
#
# Youngs Moduli (GPa) = 62.03733 85.84655 71.05215
#
# Poissons Ratio (x) = 0.10245 0.39687
# Poissons Ratio (y) = 0.07403 0.10172
# Poissons Ratio (z) = 0.34652 0.12289
#
# Static dielectric constant tensor:
#      x y z
#    x 1.800450 0.000000 0.026120 
#    y 0.000000 1.958750 0.000000 
#    z 0.026120 0.000000 1.848950 
# 
# From -- ./inp_files/10151.got.cif
#   From: 2010.05.17/outbox.cif.g08.bks.cpg/sg4_6_cif.got.tgz:10151.got - 2010.06.03 18:43:04.
