data_PCOD9115113
_publ_section_title
;
Structure prediction by ZEFSAII (Michael W. Deem and Ramdas Pophale) SiO2 
 PCOD9115113
Probable space group: P 21
;
_chemical_formula_sum "Si O2"
_cell_formula_units_Z 16
_cell_length_a 11.695173
_cell_length_b 5.658016
_cell_length_c 14.353057
_cell_angle_alpha 90.000000
_cell_angle_beta 53.612751
_cell_angle_gamma 90.000000
_cell_volume 764.583731
_symmetry_space_group_name_H-M "P 21"
_symmetry_group_IT_number 4
_symmetry_cell_setting 'monoclinic'
loop_
_space_group_symop_operation_xyz
x,y,z
-x,1/2+y,-z
loop_
_atom_site_type_symbol
_atom_site_label
_atom_site_fract_x
_atom_site_fract_y
_atom_site_fract_z
Si Si1 0.953742 0.172640 0.740003
Si Si2 0.999133 0.913424 0.106875
Si Si3 0.847243 0.832111 0.650067
Si Si4 0.171315 0.795396 0.704123
Si Si5 0.875717 0.065682 0.451867
Si Si6 0.445045 0.079321 0.909317
Si Si7 0.607535 0.576715 0.852303
Si Si8 0.775831 0.554696 0.149735
O O1 0.909298 0.264738 0.862677
O O2 0.017686 0.377328 0.645907
O O3 0.841929 0.017672 0.737924
O O4 0.090657 0.015598 0.698518
O O5 0.849328 0.789908 0.154922
O O6 0.953131 0.146672 0.184499
O O7 0.091559 0.941887 0.970649
O O8 0.751051 0.612817 0.725010
O O9 0.014287 0.763912 0.563058
O O10 0.800756 0.949606 0.576159
O O11 0.219735 0.652563 0.589083
O O12 0.267521 0.891048 0.741630
O O13 0.537092 0.322850 0.864366
O O14 0.342448 0.094141 0.870121
O O15 0.520607 0.819962 0.870654
O O16 0.369202 0.085028 0.047373
#
# Coordination Sequence:
#
# PCOD9115113 Si02
#       8
#     2   2   2   2   2   2   2   2
#     4   9  20  33  51  86 127 156 188 242 318 387
#     4  10  20  32  53  92 119 157 201 245 324 384
#     4  11  21  35  63  89 129 164 202 259 321 381
#     4   9  20  36  50  87 124 155 196 254 316 385
#     4  10  20  35  57  96 123 155 201 255 331 388
#     4  10  25  43  62  90 129 176 220 256 310 375
#     4  10  25  44  60  92 129 174 221 261 303 377
#     4  11  21  34  60  86 124 163 209 258 315 385
#
# _framework density 20.92642
#
# number of rings (size 3 to 8) (size 9 to 14) (size 15 to 20)
#    0.000    2.000    2.500    0.000    8.750    2.000 
#    0.000    0.000    0.000    0.000    9.750    0.000 
#    0.000    0.000    0.000    0.000    0.000    0.000 
#
# Total GULP energy -89172.531582 kJ/mol
# GULP energy per Si atom -5573.283224 kJ/mol
# Density = 2.087879 g / cm^3
# Si number density = 20.926420 Si / 1000 Ang^3
#
#
#
# Elastic Constant Matrix: (Units=GPa)
#
#
# Indices 1 2 3 4 5 6 
#
# 1 124.3151 47.2893 45.6697 0.0000 36.3620 0.0000
# 2 47.2893 82.5004 16.1692 0.0000 12.9109 0.0000
# 3 45.6697 16.1692 48.2901 0.0000 22.3133 0.0000
# 4 0.0000 0.0000 0.0000 31.0482 0.0000 10.1876
# 5 36.3620 12.9109 22.3133 0.0000 30.9238 0.0000
# 6 0.0000 0.0000 0.0000 10.1876 0.0000 28.6544
#
#
#
# Elastic Compliance Matrix: (Units=1/GPa)
#
#
# Indices 1 2 3 4 5 6 
#
# 1 0.016811 -0.006216 -0.008825 0.000000 -0.010804 0.000000
# 2 -0.006216 0.015517 0.000449 0.000000 0.000507 0.000000
# 3 -0.008825 0.000449 0.036298 0.000000 -0.016001 0.000000
# 4 0.000000 0.000000 0.000000 0.036462 0.000000 -0.012963
# 5 -0.010804 0.000507 -0.016001 0.000000 0.056376 0.000000
# 6 0.000000 0.000000 0.000000 -0.012963 0.000000 0.039507
#
#
# Mechanical properties :
#
#
# Convention : Reuss Voigt Hill
#
# Bulk Modulus (GPa) = 25.35405 52.59577 38.97491
# Shear Modulus (GPa) = 20.55061 27.85709 24.20385
#
# Velocity S-wave (km/s) = 3.13715 3.65251 3.40460
# Velocity P-wave (km/s) = 5.02637 6.55561 5.84125
#
# Compressibility (1/GPa) = 0.03944143
#
# Stress axis : x y z
#
# Youngs Moduli (GPa) = 59.48565 64.44675 27.54984
#
# Poissons Ratio (x) = 0.40057 0.24313
# Poissons Ratio (y) = 0.36973 -0.01236
# Poissons Ratio (z) = 0.52497 -0.02891
#
# Static dielectric constant tensor:
#      x y z
#    x 1.753300 0.000000 0.016480 
#    y 0.000000 1.842240 0.000000 
#    z 0.016480 0.000000 1.737670 
# 
# From -- ./inp_files/11528.got.cif
#   From: 2010.05.17/outbox.cif.g08.bks.cpg/sg4_6_cif.got.tgz:11528.got - 2010.06.03 18:43:04.
