data_PCOD9115938
_publ_section_title
;
Structure prediction by ZEFSAII (Michael W. Deem and Ramdas Pophale) SiO2 
 PCOD9115938
Probable space group: P 21
;
_chemical_formula_sum "Si O2"
_cell_formula_units_Z 14
_cell_length_a 10.453695
_cell_length_b 4.825516
_cell_length_c 13.383719
_cell_angle_alpha 90.000000
_cell_angle_beta 50.211937
_cell_angle_gamma 90.000000
_cell_volume 518.784849
_symmetry_space_group_name_H-M "P 21"
_symmetry_group_IT_number 4
_symmetry_cell_setting 'monoclinic'
loop_
_space_group_symop_operation_xyz
x,y,z
-x,1/2+y,-z
loop_
_atom_site_type_symbol
_atom_site_label
_atom_site_fract_x
_atom_site_fract_y
_atom_site_fract_z
Si Si1 0.038163 0.437240 0.605308
Si Si2 0.178807 0.425984 0.328340
Si Si3 0.908004 0.251894 0.014530
Si Si4 0.470751 0.065261 0.081632
Si Si5 0.143601 0.150737 0.745487
Si Si6 0.606513 0.945179 0.222817
Si Si7 0.590610 0.324832 0.495386
O O1 0.980650 0.750564 0.626535
O O2 0.173929 0.392680 0.450465
O O3 0.108189 0.362451 0.676082
O O4 0.876144 0.240735 0.666430
O O5 0.329741 0.266094 0.200608
O O6 0.721380 0.218387 0.146309
O O7 0.975076 0.561688 0.972297
O O8 0.962050 0.103736 0.884724
O O9 0.554259 0.901014 0.133981
O O10 0.573817 0.309512 0.971129
O O11 0.265010 0.265707 0.772920
O O12 0.240138 0.905586 0.643058
O O13 0.444095 0.924251 0.374174
O O14 0.541117 0.009269 0.502788
#
# Coordination Sequence:
#
# PCOD9115938 Si02
#       7
#     2   2   2   2   2   2   2
#     4  10  22  42  72 102 133 178 225 295 345 409
#     4  10  23  44  68 100 140 178 234 280 339 411
#     4  10  22  38  59  91 131 165 207 264 335 397
#     4  12  28  46  69  96 138 194 239 278 340 418
#     4  10  22  41  69  99 130 172 223 282 351 395
#     4  10  24  45  65 100 136 175 224 286 337 408
#     4  10  21  38  64  94 132 168 212 269 345 408
#
# _framework density 26.986139000000001
#
# number of rings (size 3 to 8) (size 9 to 14) (size 15 to 20)
#    0.000    1.714    0.000    2.571    4.000    9.143 
#    2.571   10.000    0.000    0.000    0.000    0.000 
#    0.000    0.000    0.000    0.000    0.000    0.000 
#
# Total GULP energy -78119.570121 kJ/mol
# GULP energy per Si atom -5579.969294 kJ/mol
# Density = 2.692472 g / cm^3
# Si number density = 26.986139 Si / 1000 Ang^3
#
#
#
# Elastic Constant Matrix: (Units=GPa)
#
#
# Indices 1 2 3 4 5 6 
#
# 1 74.7914 18.1556 44.8999 0.0000 20.1951 0.0000
# 2 18.1556 96.5571 26.8354 0.0000 7.9541 0.0000
# 3 44.8999 26.8354 185.3238 0.0000 6.4462 0.0000
# 4 0.0000 0.0000 0.0000 11.3918 0.0000 0.3477
# 5 20.1951 7.9541 6.4462 0.0000 28.5285 0.0000
# 6 0.0000 0.0000 0.0000 0.3477 0.0000 27.1727
#
#
#
# Elastic Compliance Matrix: (Units=1/GPa)
#
#
# Indices 1 2 3 4 5 6 
#
# 1 0.019568 -0.001513 -0.004087 0.000000 -0.012507 0.000000
# 2 -0.001513 0.011115 -0.001182 0.000000 -0.001761 0.000000
# 3 -0.004087 -0.001182 0.006496 0.000000 0.001755 0.000000
# 4 0.000000 0.000000 0.000000 0.087817 0.000000 -0.001124
# 5 -0.012507 -0.001761 0.001755 0.000000 0.044001 0.000000
# 6 0.000000 0.000000 0.000000 -0.001124 0.000000 0.036816
#
#
# Mechanical properties :
#
#
# Convention : Reuss Voigt Hill
#
# Bulk Modulus (GPa) = 42.34463 59.60601 50.97532
# Shear Modulus (GPa) = 22.00240 31.20402 26.60321
#
# Velocity S-wave (km/s) = 2.85848 3.40413 3.14317
# Velocity P-wave (km/s) = 5.15945 6.13077 5.66596
#
# Compressibility (1/GPa) = 0.02361574
#
# Stress axis : x y z
#
# Youngs Moduli (GPa) = 51.10261 89.97234 153.93692
#
# Poissons Ratio (x) = 0.13616 0.62912
# Poissons Ratio (y) = 0.07734 0.18188
# Poissons Ratio (z) = 0.20885 0.10630
#
# Static dielectric constant tensor:
#      x y z
#    x 2.159970 0.000000 -0.047380 
#    y 0.000000 2.098480 0.000000 
#    z -0.047380 0.000000 2.219970 
# 
# From -- ./inp_files/11540.got.cif
#   From: 2010.05.17/outbox.cif.g08.bks.cpg/sg4_6_cif.got.tgz:11540.got - 2010.06.03 18:43:04.
