data_PCOD9115750
_publ_section_title
;
Structure prediction by ZEFSAII (Michael W. Deem and Ramdas Pophale) SiO2 
 PCOD9115750
Probable space group: P 21
;
_chemical_formula_sum "Si O2"
_cell_formula_units_Z 16
_cell_length_a 5.076114
_cell_length_b 21.350252
_cell_length_c 5.460045
_cell_angle_alpha 90.000000
_cell_angle_beta 87.879120
_cell_angle_gamma 90.000000
_cell_volume 591.334189
_symmetry_space_group_name_H-M "P 21"
_symmetry_group_IT_number 4
_symmetry_cell_setting 'monoclinic'
loop_
_space_group_symop_operation_xyz
x,y,z
-x,1/2+y,-z
loop_
_atom_site_type_symbol
_atom_site_label
_atom_site_fract_x
_atom_site_fract_y
_atom_site_fract_z
Si Si1 0.952662 0.351710 0.010361
Si Si2 0.915232 0.571211 0.655153
Si Si3 0.722887 0.140788 0.003575
Si Si4 0.461781 0.387628 0.287036
Si Si5 0.883010 0.237497 0.647966
Si Si6 0.370722 0.193071 0.386571
Si Si7 0.480150 0.017115 0.952902
Si Si8 0.865431 0.950393 0.322064
O O1 0.735624 0.352108 0.234785
O O2 0.903903 0.296452 0.823654
O O3 0.246907 0.359358 0.106320
O O4 0.918250 0.414880 0.848983
O O5 0.374134 0.580050 0.136852
O O6 0.715888 0.621260 0.546752
O O7 0.777806 0.543895 0.906129
O O8 0.006769 0.506895 0.523011
O O9 0.488741 0.185446 0.109539
O O10 0.852008 0.114677 0.248979
O O11 0.921145 0.179231 0.832413
O O12 0.532360 0.460785 0.235461
O O13 0.296387 0.395474 0.539429
O O14 0.597976 0.224288 0.541190
O O15 0.109948 0.234335 0.435506
O O16 0.661999 0.987247 0.159081
#
# Coordination Sequence:
#
# PCOD9115750 Si02
#       8
#     2   2   2   2   2   2   2   2
#     4  11  26  47  65 102 135 178 239 275 325 412
#     4  10  20  45  67 101 144 166 227 292 340 412
#     4  10  24  43  65 102 140 175 225 284 340 409
#     4  11  24  43  70  97 128 181 222 273 354 394
#     4  12  27  45  72  96 142 187 230 281 338 406
#     4  11  25  44  66 103 131 180 231 277 348 406
#     4   9  21  39  64 100 138 163 220 285 338 409
#     4  10  23  42  69  99 138 176 218 293 341 404
#
# _framework density 27.057455000000001
#
# number of rings (size 3 to 8) (size 9 to 14) (size 15 to 20)
#    0.000    1.500    2.500    0.750    7.000    2.000 
#    0.000    0.000    0.000    0.000    0.000    0.000 
#    0.000    0.000    0.000    0.000    0.000    0.000 
#
# Total GULP energy -89565.782023 kJ/mol
# GULP energy per Si atom -5597.861376 kJ/mol
# Density = 2.699587 g / cm^3
# Si number density = 27.057455 Si / 1000 Ang^3
#
#
#
# Elastic Constant Matrix: (Units=GPa)
#
#
# Indices 1 2 3 4 5 6 
#
# 1 137.2469 19.0416 12.7932 0.0000 -11.8220 0.0000
# 2 19.0416 78.5760 11.0000 0.0000 -19.2348 0.0000
# 3 12.7932 11.0000 58.1808 0.0000 -22.4329 0.0000
# 4 0.0000 0.0000 0.0000 39.4705 0.0000 -3.3531
# 5 -11.8220 -19.2348 -22.4329 0.0000 34.7626 0.0000
# 6 0.0000 0.0000 0.0000 -3.3531 0.0000 32.4598
#
#
#
# Elastic Compliance Matrix: (Units=1/GPa)
#
#
# Indices 1 2 3 4 5 6 
#
# 1 0.007677 -0.001433 -0.000953 0.000000 0.001203 0.000000
# 2 -0.001433 0.014998 0.000654 0.000000 0.008233 0.000000
# 3 -0.000953 0.000654 0.023015 0.000000 0.014889 0.000000
# 4 0.000000 0.000000 0.000000 0.025560 0.000000 0.002640
# 5 0.001203 0.008233 0.014889 0.000000 0.043340 0.000000
# 6 0.000000 0.000000 0.000000 0.002640 0.000000 0.031080
#
#
# Mechanical properties :
#
#
# Convention : Reuss Voigt Hill
#
# Bulk Modulus (GPa) = 23.68226 39.96370 31.82298
# Shear Modulus (GPa) = 30.63567 36.74985 33.69276
#
# Velocity S-wave (km/s) = 3.36854 3.68940 3.53261
# Velocity P-wave (km/s) = 4.88886 5.74028 5.33160
#
# Compressibility (1/GPa) = 0.04222571
#
# Stress axis : x y z
#
# Youngs Moduli (GPa) = 130.25275 66.67738 43.45032
#
# Poissons Ratio (x) = 0.09552 0.04143
# Poissons Ratio (y) = 0.18659 -0.02842
# Poissons Ratio (z) = 0.12420 -0.04361
#
# Static dielectric constant tensor:
#      x y z
#    x 2.119520 0.000000 0.016570 
#    y 0.000000 2.125610 0.000000 
#    z 0.016570 0.000000 2.106840 
# 
# From -- ./inp_files/660.got.cif
#   From: 2010.05.17/outbox.cif.g08.bks.cpg/sg4_1_cif.got.tgz:660.got - 2010.06.03 18:43:04.
