data_PCOD9115609
_publ_section_title
;
Structure prediction by ZEFSAII (Michael W. Deem and Ramdas Pophale) SiO2 
 PCOD9115609
Probable space group: P 21
;
_chemical_formula_sum "Si O2"
_cell_formula_units_Z 16
_cell_length_a 5.743606
_cell_length_b 16.331002
_cell_length_c 9.357455
_cell_angle_alpha 90.000000
_cell_angle_beta 47.054020
_cell_angle_gamma 90.000000
_cell_volume 642.486719
_symmetry_space_group_name_H-M "P 21"
_symmetry_group_IT_number 4
_symmetry_cell_setting 'monoclinic'
loop_
_space_group_symop_operation_xyz
x,y,z
-x,1/2+y,-z
loop_
_atom_site_type_symbol
_atom_site_label
_atom_site_fract_x
_atom_site_fract_y
_atom_site_fract_z
Si Si1 0.021653 0.914300 0.589590
Si Si2 0.419081 0.271756 0.273756
Si Si3 0.305164 0.729702 0.139800
Si Si4 0.325685 0.533263 0.441883
Si Si5 0.870615 0.399252 0.156455
Si Si6 0.294895 0.194333 0.767080
Si Si7 0.707517 0.956841 0.248551
Si Si8 0.355550 0.614262 0.897687
O O1 0.864506 0.834949 0.583772
O O2 0.911341 0.914345 0.799003
O O3 0.398386 0.907159 0.422657
O O4 0.937257 0.002264 0.558643
O O5 0.704784 0.311402 0.243658
O O6 0.403747 0.173935 0.289996
O O7 0.530885 0.277753 0.059899
O O8 0.487700 0.743983 0.210874
O O9 0.921495 0.734426 0.270483
O O10 0.389266 0.635652 0.051926
O O11 0.614012 0.472154 0.276273
O O12 0.466280 0.623708 0.386770
O O13 0.198093 0.506747 0.650298
O O14 0.029957 0.402740 0.936452
O O15 0.002949 0.150236 0.975866
O O16 0.624559 0.023292 0.162012
#
# Coordination Sequence:
#
# PCOD9115609 Si02
#       8
#     2   2   2   2   2   2   2   2
#     4  10  23  35  65  91 129 170 217 271 333 395
#     4   8  20  38  64  90 125 175 213 267 334 394
#     4   8  19  33  67  91 119 168 218 259 328 386
#     4  10  22  37  60  91 130 165 216 271 330 390
#     4  10  20  41  64  86 128 172 217 261 333 398
#     4   9  18  35  63  92 121 162 216 265 321 387
#     4  11  22  39  63  97 123 170 223 275 327 397
#     4   8  20  36  66  88 125 166 220 265 332 381
#
# _framework density 24.903237000000001
#
# number of rings (size 3 to 8) (size 9 to 14) (size 15 to 20)
#    1.500    1.000    1.250    0.000    8.750    3.000 
#    0.000    0.000   27.500    0.000    0.000    0.000 
#    0.000    0.000    0.000    0.000    0.000    0.000 
#
# Total GULP energy -89117.069547 kJ/mol
# GULP energy per Si atom -5569.816847 kJ/mol
# Density = 2.484656 g / cm^3
# Si number density = 24.903237 Si / 1000 Ang^3
#
#
#
# Elastic Constant Matrix: (Units=GPa)
#
#
# Indices 1 2 3 4 5 6 
#
# 1 93.7300 -0.7480 22.1369 0.0000 9.4333 0.0000
# 2 -0.7480 52.0090 7.4818 0.0000 1.2501 0.0000
# 3 22.1369 7.4818 71.3176 0.0000 7.9488 0.0000
# 4 0.0000 0.0000 0.0000 37.9237 0.0000 0.6178
# 5 9.4333 1.2501 7.9488 0.0000 21.7725 0.0000
# 6 0.0000 0.0000 0.0000 0.6178 0.0000 26.8371
#
#
#
# Elastic Compliance Matrix: (Units=1/GPa)
#
#
# Indices 1 2 3 4 5 6 
#
# 1 0.011858 0.000743 -0.003316 0.000000 -0.003970 0.000000
# 2 0.000743 0.019572 -0.002213 0.000000 -0.000638 0.000000
# 3 -0.003316 -0.002213 0.015750 0.000000 -0.004186 0.000000
# 4 0.000000 0.000000 0.000000 0.026379 0.000000 -0.000607
# 5 -0.003970 -0.000638 -0.004186 0.000000 0.049214 0.000000
# 6 0.000000 0.000000 0.000000 -0.000607 0.000000 0.037276
#
#
# Mechanical properties :
#
#
# Convention : Reuss Voigt Hill
#
# Bulk Modulus (GPa) = 26.59051 30.53310 28.56180
# Shear Modulus (GPa) = 27.44907 29.85237 28.65072
#
# Velocity S-wave (km/s) = 3.32359 3.46603 3.39556
# Velocity P-wave (km/s) = 5.04272 5.32026 5.18335
#
# Compressibility (1/GPa) = 0.03760741
#
# Stress axis : x y z
#
# Youngs Moduli (GPa) = 84.33438 51.09399 63.49285
#
# Poissons Ratio (x) = -0.03796 0.21055
# Poissons Ratio (y) = -0.06266 0.14050
# Poissons Ratio (z) = 0.27966 0.11306
#
# Static dielectric constant tensor:
#      x y z
#    x 2.065100 0.000000 -0.012110 
#    y 0.000000 1.961000 0.000000 
#    z -0.012110 0.000000 2.021290 
# 
# From -- ./inp_files/4960.got.cif
#   From: 2010.05.17/outbox.cif.g08.bks.cpg/sg4_3_cif.got.tgz:4960.got - 2010.06.03 18:43:04.
