data_PCOD9115497
_publ_section_title
;
Structure prediction by ZEFSAII (Michael W. Deem and Ramdas Pophale) SiO2 
 PCOD9115497
Probable space group: P 21
;
_chemical_formula_sum "Si O2"
_cell_formula_units_Z 14
_cell_length_a 8.760404
_cell_length_b 14.259159
_cell_length_c 5.203135
_cell_angle_alpha 90.000000
_cell_angle_beta 120.421803
_cell_angle_gamma 90.000000
_cell_volume 560.469683
_symmetry_space_group_name_H-M "P 21"
_symmetry_group_IT_number 4
_symmetry_cell_setting 'monoclinic'
loop_
_space_group_symop_operation_xyz
x,y,z
-x,1/2+y,-z
loop_
_atom_site_type_symbol
_atom_site_label
_atom_site_fract_x
_atom_site_fract_y
_atom_site_fract_z
Si Si1 0.285504 0.051090 0.107322
Si Si2 0.803777 0.886149 0.794139
Si Si3 0.459167 0.222665 0.462020
Si Si4 0.405418 0.499540 0.971213
Si Si5 0.054528 0.540177 0.453099
Si Si6 0.410024 0.811269 0.947451
Si Si7 0.861380 0.414306 0.639960
O O1 0.389483 0.117789 0.390620
O O2 0.409498 0.044854 0.959658
O O3 0.260818 0.950214 0.228876
O O4 0.090692 0.087859 0.854552
O O5 0.672592 0.963011 0.821253
O O6 0.965917 0.859752 0.120323
O O7 0.704495 0.792558 0.636316
O O8 0.898994 0.942801 0.650789
O O9 0.598706 0.249774 0.802314
O O10 0.524153 0.248671 0.233733
O O11 0.446417 0.395099 0.890627
O O12 0.250942 0.564705 0.716122
O O13 0.943524 0.511555 0.607110
O O14 0.241457 0.861647 0.672726
#
# Coordination Sequence:
#
# PCOD9115497 Si02
#       7
#     2   2   2   2   2   2   2
#     4  11  24  41  68 100 141 176 231 289 357 391
#     4   9  21  41  68  98 129 181 233 280 335 416
#     4  11  25  42  67 101 143 178 223 301 356 391
#     4  10  20  39  68  93 128 177 231 272 324 424
#     4  10  20  39  66  95 125 177 232 277 327 421
#     4  11  22  42  69  98 131 183 233 276 342 416
#     4  10  22  40  72  99 129 184 243 273 331 435
#
# _framework density 24.979047999999999
#
# number of rings (size 3 to 8) (size 9 to 14) (size 15 to 20)
#    0.000    1.714    2.857    0.857    6.000    0.000 
#    2.571    0.000    3.143    0.000    0.000    0.000 
#    0.000    0.000    0.000    0.000    0.000    0.000 
#
# Total GULP energy -78041.392836 kJ/mol
# GULP energy per Si atom -5574.385203 kJ/mol
# Density = 2.492219 g / cm^3
# Si number density = 24.979048 Si / 1000 Ang^3
#
#
#
# Elastic Constant Matrix: (Units=GPa)
#
#
# Indices 1 2 3 4 5 6 
#
# 1 114.1956 21.9229 25.9211 0.0000 10.5521 0.0000
# 2 21.9229 52.5061 23.2028 0.0000 5.8790 0.0000
# 3 25.9211 23.2028 86.1799 0.0000 24.6197 0.0000
# 4 0.0000 0.0000 0.0000 31.7003 0.0000 5.0907
# 5 10.5521 5.8790 24.6197 0.0000 48.1022 0.0000
# 6 0.0000 0.0000 0.0000 5.0907 0.0000 15.7724
#
#
#
# Elastic Compliance Matrix: (Units=1/GPa)
#
#
# Indices 1 2 3 4 5 6 
#
# 1 0.009872 -0.003203 -0.001874 0.000000 -0.000815 0.000000
# 2 -0.003203 0.022663 -0.005327 0.000000 0.000659 0.000000
# 3 -0.001874 -0.005327 0.015575 0.000000 -0.006910 0.000000
# 4 0.000000 0.000000 0.000000 0.033270 0.000000 -0.010738
# 5 -0.000815 0.000659 -0.006910 0.000000 0.024424 0.000000
# 6 0.000000 0.000000 0.000000 -0.010738 0.000000 0.066868
#
#
# Mechanical properties :
#
#
# Convention : Reuss Voigt Hill
#
# Bulk Modulus (GPa) = 36.62528 43.88612 40.25570
# Shear Modulus (GPa) = 24.68157 31.23731 27.95944
#
# Velocity S-wave (km/s) = 3.14680 3.54013 3.34925
# Velocity P-wave (km/s) = 5.28180 5.85810 5.57740
#
# Compressibility (1/GPa) = 0.02730355
#
# Stress axis : x y z
#
# Youngs Moduli (GPa) = 101.29164 44.12547 64.20348
#
# Poissons Ratio (x) = 0.14131 0.12034
# Poissons Ratio (y) = 0.32439 0.34199
# Poissons Ratio (z) = 0.18986 0.23504
#
# Static dielectric constant tensor:
#      x y z
#    x 1.963710 0.000000 0.036790 
#    y 0.000000 1.968190 0.000000 
#    z 0.036790 0.000000 2.112700 
# 
# From -- ./inp_files/2115.got.cif
#   From: 2010.05.17/outbox.cif.g08.bks.cpg/sg4_2_cif.got.tgz:2115.got - 2010.06.03 18:43:04.
