data_PCOD9115653
_publ_section_title
;
Structure prediction by ZEFSAII (Michael W. Deem and Ramdas Pophale) SiO2 
 PCOD9115653
Probable space group: P 21
;
_chemical_formula_sum "Si O2"
_cell_formula_units_Z 16
_cell_length_a 14.908994
_cell_length_b 7.444200
_cell_length_c 6.289011
_cell_angle_alpha 90.000000
_cell_angle_beta 70.275688
_cell_angle_gamma 90.000000
_cell_volume 657.036411
_symmetry_space_group_name_H-M "P 21"
_symmetry_group_IT_number 4
_symmetry_cell_setting 'monoclinic'
loop_
_space_group_symop_operation_xyz
x,y,z
-x,1/2+y,-z
loop_
_atom_site_type_symbol
_atom_site_label
_atom_site_fract_x
_atom_site_fract_y
_atom_site_fract_z
Si Si1 0.986305 0.271010 0.696255
Si Si2 0.486242 0.281460 0.792607
Si Si3 0.681231 0.203323 0.880601
Si Si4 0.348986 0.310983 0.218169
Si Si5 0.812208 0.681136 0.346607
Si Si6 0.533946 0.203146 0.283982
Si Si7 0.157120 0.807985 0.553531
Si Si8 0.097760 0.497546 0.907190
O O1 0.938015 0.320618 0.514000
O O2 0.929862 0.109999 0.862280
O O3 0.096521 0.219107 0.572788
O O4 0.002049 0.427243 0.861817
O O5 0.581276 0.241220 0.845663
O O6 0.506168 0.204116 0.548690
O O7 0.477591 0.497307 0.783540
O O8 0.388268 0.209555 0.977010
O O9 0.762682 0.307309 0.694115
O O10 0.699772 0.993176 0.822573
O O11 0.645400 0.245247 0.147552
O O12 0.282454 0.222877 0.446704
O O13 0.453236 0.331966 0.245434
O O14 0.821024 0.470630 0.305473
O O15 0.836179 0.818843 0.135753
O O16 0.149841 0.628941 0.698762
#
# Coordination Sequence:
#
# PCOD9115653 Si02
#       8
#     2   2   2   2   2   2   2   2
#     4  10  23  43  66  93 132 172 213 270 331 389
#     4  10  21  37  62  88 125 166 210 263 319 380
#     4  10  21  38  63  86 129 164 210 266 320 374
#     4  10  20  42  58  89 125 167 207 268 318 383
#     4  10  23  40  67  94 127 171 214 271 329 383
#     4  10  21  37  60  90 122 167 210 260 321 383
#     4  12  22  42  67  96 127 175 222 266 327 400
#     4  10  23  43  63  94 133 166 214 276 321 386
#
# _framework density 24.351769000000001
#
# number of rings (size 3 to 8) (size 9 to 14) (size 15 to 20)
#    0.750    1.000    1.250    3.000    0.000    4.000 
#    4.500    5.000    0.000    0.000    0.000    0.000 
#    0.000    0.000    0.000    0.000    0.000    0.000 
#
# Total GULP energy -89242.418429 kJ/mol
# GULP energy per Si atom -5577.651152 kJ/mol
# Density = 2.429634 g / cm^3
# Si number density = 24.351769 Si / 1000 Ang^3
#
#
#
# Elastic Constant Matrix: (Units=GPa)
#
#
# Indices 1 2 3 4 5 6 
#
# 1 47.2290 3.9151 9.7544 0.0000 -22.8478 0.0000
# 2 3.9151 96.8743 15.1336 0.0000 -2.4699 0.0000
# 3 9.7544 15.1336 84.7731 0.0000 -27.3197 0.0000
# 4 0.0000 0.0000 0.0000 34.6992 0.0000 -3.3536
# 5 -22.8478 -2.4699 -27.3197 0.0000 38.4238 0.0000
# 6 0.0000 0.0000 0.0000 -3.3536 0.0000 24.0830
#
#
#
# Elastic Compliance Matrix: (Units=1/GPa)
#
#
# Indices 1 2 3 4 5 6 
#
# 1 0.030444 -0.001223 0.003274 0.000000 0.020352 0.000000
# 2 -0.001223 0.010690 -0.002310 0.000000 -0.001682 0.000000
# 3 0.003274 -0.002310 0.016101 0.000000 0.013246 0.000000
# 4 0.000000 0.000000 0.000000 0.029212 0.000000 0.004068
# 5 0.020352 -0.001682 0.013246 0.000000 0.047438 0.000000
# 6 0.000000 0.000000 0.000000 0.004068 0.000000 0.042089
#
#
# Mechanical properties :
#
#
# Convention : Reuss Voigt Hill
#
# Bulk Modulus (GPa) = 17.63112 31.83139 24.73125
# Shear Modulus (GPa) = 25.58887 32.77944 29.18415
#
# Velocity S-wave (km/s) = 3.24512 3.67288 3.46561
# Velocity P-wave (km/s) = 4.61487 5.57553 5.11779
#
# Compressibility (1/GPa) = 0.05671790
#
# Stress axis : x y z
#
# Youngs Moduli (GPa) = 32.84675 93.54517 62.10945
#
# Poissons Ratio (x) = 0.11440 -0.20336
# Poissons Ratio (y) = 0.04017 0.14346
# Poissons Ratio (z) = -0.10755 0.21607
#
# Static dielectric constant tensor:
#      x y z
#    x 1.936490 0.000000 0.036820 
#    y 0.000000 1.990550 0.000000 
#    z 0.036820 0.000000 2.170630 
# 
# From -- ./inp_files/4063.got.cif
#   From: 2010.05.17/outbox.cif.g08.bks.cpg/sg4_3_cif.got.tgz:4063.got - 2010.06.03 18:43:04.
