data_PCOD9115409
_publ_section_title
;
Structure prediction by ZEFSAII (Michael W. Deem and Ramdas Pophale) SiO2 
 PCOD9115409
Probable space group: P 21
;
_chemical_formula_sum "Si O2"
_cell_formula_units_Z 16
_cell_length_a 9.594029
_cell_length_b 10.267149
_cell_length_c 6.639970
_cell_angle_alpha 90.000000
_cell_angle_beta 72.861700
_cell_angle_gamma 90.000000
_cell_volume 625.016445
_symmetry_space_group_name_H-M "P 21"
_symmetry_group_IT_number 4
_symmetry_cell_setting 'monoclinic'
loop_
_space_group_symop_operation_xyz
x,y,z
-x,1/2+y,-z
loop_
_atom_site_type_symbol
_atom_site_label
_atom_site_fract_x
_atom_site_fract_y
_atom_site_fract_z
Si Si1 0.506306 0.893050 0.490916
Si Si2 0.251150 0.881770 0.916350
Si Si3 0.889869 0.609678 0.227316
Si Si4 0.206364 0.527589 0.057161
Si Si5 0.634671 0.641246 0.624896
Si Si6 0.666385 0.226992 0.751233
Si Si7 0.137089 0.644105 0.698282
Si Si8 0.184391 0.233015 0.119751
O O1 0.397995 0.911961 0.730039
O O2 0.616095 0.789031 0.548623
O O3 0.455418 0.799757 0.326855
O O4 0.490894 0.039110 0.395193
O O5 0.185927 0.760940 0.823368
O O6 0.139549 0.995285 0.920989
O O7 0.270055 0.843134 0.138162
O O8 0.782632 0.588420 0.456914
O O9 0.060008 0.603143 0.195352
O O10 0.835993 0.727261 0.112373
O O11 0.344136 0.610986 0.079168
O O12 0.202051 0.385629 0.153962
O O13 0.183924 0.525264 0.823772
O O14 0.678226 0.658556 0.840728
O O15 0.767350 0.160808 0.539308
O O16 0.967412 0.673539 0.730883
#
# Coordination Sequence:
#
# PCOD9115409 Si02
#       8
#     2   2   2   2   2   2   2   2
#     4  10  24  43  66  91 126 172 228 283 322 380
#     4   9  18  39  65  88 124 164 214 265 332 386
#     4  10  21  41  61  94 134 167 208 273 334 394
#     4  10  21  36  61  95 133 166 206 268 331 404
#     4  11  25  44  65  94 130 176 228 276 325 390
#     4  10  20  38  64  90 121 172 212 265 332 385
#     4   9  19  37  59  94 126 160 207 262 326 407
#     4  11  22  38  61  96 128 171 215 262 332 404
#
# _framework density 25.599326000000001
#
# number of rings (size 3 to 8) (size 9 to 14) (size 15 to 20)
#    0.000    2.000    1.250    1.500    1.750    2.000 
#    9.000    0.000    0.000    0.000    0.000    0.000 
#    0.000    0.000    0.000    0.000    0.000    0.000 
#
# Total GULP energy -89179.437753 kJ/mol
# GULP energy per Si atom -5573.714860 kJ/mol
# Density = 2.554106 g / cm^3
# Si number density = 25.599326 Si / 1000 Ang^3
#
#
#
# Elastic Constant Matrix: (Units=GPa)
#
#
# Indices 1 2 3 4 5 6 
#
# 1 60.5079 12.4809 36.8170 0.0000 18.8745 0.0000
# 2 12.4809 107.2340 33.3925 0.0000 16.1528 0.0000
# 3 36.8170 33.3925 76.5520 0.0000 19.2968 0.0000
# 4 0.0000 0.0000 0.0000 23.6035 0.0000 -2.0154
# 5 18.8745 16.1528 19.2968 0.0000 45.0810 0.0000
# 6 0.0000 0.0000 0.0000 -2.0154 0.0000 12.9489
#
#
#
# Elastic Compliance Matrix: (Units=1/GPa)
#
#
# Indices 1 2 3 4 5 6 
#
# 1 0.024882 0.001480 -0.011044 0.000000 -0.006220 0.000000
# 2 0.001480 0.011055 -0.004909 0.000000 -0.002480 0.000000
# 3 -0.011044 -0.004909 0.021194 0.000000 -0.002689 0.000000
# 4 0.000000 0.000000 0.000000 0.042937 0.000000 0.006683
# 5 -0.006220 -0.002480 -0.002689 0.000000 0.026826 0.000000
# 6 0.000000 0.000000 0.000000 0.006683 0.000000 0.078267
#
#
# Mechanical properties :
#
#
# Convention : Reuss Voigt Hill
#
# Bulk Modulus (GPa) = 35.48072 45.51943 40.50007
# Shear Modulus (GPa) = 20.53362 27.10026 23.81694
#
# Velocity S-wave (km/s) = 2.83524 3.25719 3.05351
# Velocity P-wave (km/s) = 4.96067 5.65383 5.31855
#
# Compressibility (1/GPa) = 0.02818432
#
# Stress axis : x y z
#
# Youngs Moduli (GPa) = 40.18978 90.45387 47.18320
#
# Poissons Ratio (x) = -0.13389 0.52111
# Poissons Ratio (y) = -0.05949 0.23164
# Poissons Ratio (z) = 0.44387 0.44406
#
# Static dielectric constant tensor:
#      x y z
#    x 2.050040 0.000000 -0.027650 
#    y 0.000000 2.133340 0.000000 
#    z -0.027650 0.000000 2.207750 
# 
# From -- ./inp_files/3079.got.cif
#   From: 2010.05.17/outbox.cif.g08.bks.cpg/sg4_2_cif.got.tgz:3079.got - 2010.06.03 18:43:04.
