data_PCOD9115907
_publ_section_title
;
Structure prediction by ZEFSAII (Michael W. Deem and Ramdas Pophale) SiO2 
 PCOD9115907
Probable space group: P 21
;
_chemical_formula_sum "Si O2"
_cell_formula_units_Z 16
_cell_length_a 22.378629
_cell_length_b 5.318416
_cell_length_c 9.949382
_cell_angle_alpha 90.000000
_cell_angle_beta 145.131725
_cell_angle_gamma 90.000000
_cell_volume 676.976737
_symmetry_space_group_name_H-M "P 21"
_symmetry_group_IT_number 4
_symmetry_cell_setting 'monoclinic'
loop_
_space_group_symop_operation_xyz
x,y,z
-x,1/2+y,-z
loop_
_atom_site_type_symbol
_atom_site_label
_atom_site_fract_x
_atom_site_fract_y
_atom_site_fract_z
Si Si1 0.556335 0.310900 0.560673
Si Si2 0.122538 0.476974 0.277183
Si Si3 0.467147 0.597230 0.769663
Si Si4 0.336310 0.364037 0.750708
Si Si5 0.641395 0.269747 0.982262
Si Si6 0.044172 0.699664 0.876308
Si Si7 0.936762 0.160094 0.372689
Si Si8 0.161061 0.892098 0.555741
O O1 0.527399 0.596772 0.546748
O O2 0.564431 0.271934 0.415665
O O3 0.648198 0.241961 0.835019
O O4 0.217287 0.288041 0.490657
O O5 0.007886 0.416724 0.128472
O O6 0.157892 0.733637 0.413813
O O7 0.106039 0.518624 0.089959
O O8 0.370185 0.534184 0.684611
O O9 0.525250 0.360104 0.807790
O O10 0.559784 0.697595 0.037635
O O11 0.334890 0.528081 0.884332
O O12 0.723487 0.477547 0.188725
O O13 0.936373 0.575455 0.625560
O O14 0.105041 0.745955 0.850931
O O15 0.971019 0.868242 0.433891
O O16 0.864432 0.200984 0.367744
#
# Coordination Sequence:
#
# PCOD9115907 Si02
#       8
#     2   2   2   2   2   2   2   2
#     4  10  21  38  62  87 119 161 205 256 311 364
#     4  11  22  37  60  89 121 163 209 255 313 377
#     4  11  21  39  62  86 128 161 205 261 313 371
#     4  11  22  37  60  89 121 163 209 255 313 377
#     4  10  21  38  61  88 120 163 208 252 310 378
#     4  11  21  39  62  86 128 161 205 261 313 371
#     4  10  21  38  62  87 119 161 205 256 311 364
#     4  10  21  38  61  88 120 163 208 252 310 378
#
# _framework density 23.634491000000001
#
# number of rings (size 3 to 8) (size 9 to 14) (size 15 to 20)
#    0.000    1.500    5.000    0.750    0.000    1.000 
#    0.000    0.000    0.000    4.500    0.000    0.000 
#    0.000    0.000    0.000    0.000    0.000    0.000 
#
# Total GULP energy -89146.675065 kJ/mol
# GULP energy per Si atom -5571.667192 kJ/mol
# Density = 2.358070 g / cm^3
# Si number density = 23.634491 Si / 1000 Ang^3
#
#
#
# Elastic Constant Matrix: (Units=GPa)
#
#
# Indices 1 2 3 4 5 6 
#
# 1 89.1708 -3.7152 28.3072 0.0000 -19.1737 0.0000
# 2 -3.7152 43.1482 -3.0611 0.0000 0.5876 0.0000
# 3 28.3072 -3.0611 110.3914 0.0000 -18.9195 0.0000
# 4 0.0000 0.0000 0.0000 30.2556 0.0000 -0.9208
# 5 -19.1737 0.5876 -18.9195 0.0000 42.4348 0.0000
# 6 0.0000 0.0000 0.0000 -0.9208 0.0000 23.8647
#
#
#
# Elastic Compliance Matrix: (Units=1/GPa)
#
#
# Indices 1 2 3 4 5 6 
#
# 1 0.013075 0.000883 -0.002510 0.000000 0.004777 0.000000
# 2 0.000883 0.023281 0.000468 0.000000 0.000285 0.000000
# 3 -0.002510 0.000468 0.010307 0.000000 0.003455 0.000000
# 4 0.000000 0.000000 0.000000 0.033091 0.000000 0.001277
# 5 0.004777 0.000285 0.003455 0.000000 0.027260 0.000000
# 6 0.000000 0.000000 0.000000 0.001277 0.000000 0.041952
#
#
# Mechanical properties :
#
#
# Convention : Reuss Voigt Hill
#
# Bulk Modulus (GPa) = 22.54997 31.75245 27.15121
# Shear Modulus (GPa) = 30.10844 34.05630 32.08237
#
# Velocity S-wave (km/s) = 3.57307 3.80011 3.68834
# Velocity P-wave (km/s) = 5.15600 5.72000 5.44531
#
# Compressibility (1/GPa) = 0.04434596
#
# Stress axis : x y z
#
# Youngs Moduli (GPa) = 76.48194 42.95295 97.01827
#
# Poissons Ratio (x) = -0.03791 0.24348
# Poissons Ratio (y) = -0.06751 -0.04541
# Poissons Ratio (z) = 0.19194 -0.02011
#
# Static dielectric constant tensor:
#      x y z
#    x 1.991030 0.000000 0.009110 
#    y 0.000000 2.040730 0.000000 
#    z 0.009110 0.000000 1.957060 
# 
# From -- ./inp_files/8673.got.cif
#   From: 2010.05.17/outbox.cif.g08.bks.cpg/sg4_5_cif.got.tgz:8673.got - 2010.06.03 18:43:04.
