data_PCOD9115698
_publ_section_title
;
Structure prediction by ZEFSAII (Michael W. Deem and Ramdas Pophale) SiO2 
 PCOD9115698
Probable space group: P 21
;
_chemical_formula_sum "Si O2"
_cell_formula_units_Z 16
_cell_length_a 13.474445
_cell_length_b 7.842042
_cell_length_c 9.472676
_cell_angle_alpha 90.000000
_cell_angle_beta 33.866684
_cell_angle_gamma 90.000000
_cell_volume 557.792232
_symmetry_space_group_name_H-M "P 21"
_symmetry_group_IT_number 4
_symmetry_cell_setting 'monoclinic'
loop_
_space_group_symop_operation_xyz
x,y,z
-x,1/2+y,-z
loop_
_atom_site_type_symbol
_atom_site_label
_atom_site_fract_x
_atom_site_fract_y
_atom_site_fract_z
Si Si1 0.849739 0.596570 0.709927
Si Si2 0.324317 0.169781 0.343187
Si Si3 0.602020 0.437838 0.403075
Si Si4 0.511716 0.973343 0.752212
Si Si5 0.108124 0.575850 0.655382
Si Si6 0.030562 0.913499 0.920332
Si Si7 0.652702 0.929946 0.945109
Si Si8 0.736184 0.095146 0.091965
O O1 0.851810 0.610654 0.535995
O O2 0.015961 0.548682 0.612738
O O3 0.676479 0.479949 0.946046
O O4 0.784810 0.780477 0.846251
O O5 0.393120 0.289891 0.390327
O O6 0.455124 0.010537 0.184425
O O7 0.372337 0.326157 0.174693
O O8 0.551295 0.547071 0.325523
O O9 0.770053 0.488644 0.300799
O O10 0.419607 0.451012 0.703990
O O11 0.674798 0.266937 0.241833
O O12 0.677572 0.091471 0.606184
O O13 0.041490 0.738133 0.822053
O O14 0.047753 0.418984 0.827624
O O15 0.901781 0.032301 0.984448
O O16 0.750460 0.093023 0.905776
#
# Coordination Sequence:
#
# PCOD9115698 Si02
#       8
#     2   2   2   2   2   2   2   2
#     4  10  22  43  68  94 135 176 217 281 336 391
#     4  10  20  42  71 101 127 173 229 276 334 397
#     4  12  26  39  68  98 136 181 222 274 334 404
#     4  12  23  43  70  99 134 177 227 275 338 399
#     4  12  26  41  67  96 141 178 225 278 332 405
#     4  12  24  41  62  98 137 181 218 271 338 395
#     4  10  21  39  73  94 129 180 217 278 338 394
#     4  12  26  42  65 102 137 178 227 271 340 405
#
# _framework density 28.684517
#
# number of rings (size 3 to 8) (size 9 to 14) (size 15 to 20)
#    0.750    0.000    7.500    0.000    5.250    0.000 
#    0.000    2.500    5.500    0.000    0.000    0.000 
#    0.000    0.000    0.000    0.000    0.000    0.000 
#
# Total GULP energy -89071.197980 kJ/mol
# GULP energy per Si atom -5566.949874 kJ/mol
# Density = 2.861923 g / cm^3
# Si number density = 28.684517 Si / 1000 Ang^3
#
#
#
# Elastic Constant Matrix: (Units=GPa)
#
#
# Indices 1 2 3 4 5 6 
#
# 1 198.6757 1.4910 53.3927 0.0000 -60.4677 0.0000
# 2 1.4910 96.8164 20.9619 0.0000 -9.3513 0.0000
# 3 53.3927 20.9619 97.0425 0.0000 -30.8961 0.0000
# 4 0.0000 0.0000 0.0000 17.4553 0.0000 11.5953
# 5 -60.4677 -9.3513 -30.8961 0.0000 58.5007 0.0000
# 6 0.0000 0.0000 0.0000 11.5953 0.0000 32.3591
#
#
#
# Elastic Compliance Matrix: (Units=1/GPa)
#
#
# Indices 1 2 3 4 5 6 
#
# 1 0.007764 0.001048 -0.002272 0.000000 0.006993 0.000000
# 2 0.001048 0.010994 -0.002461 0.000000 0.001541 0.000000
# 3 -0.002272 -0.002461 0.013480 0.000000 0.004378 0.000000
# 4 0.000000 0.000000 0.000000 0.075186 0.000000 -0.026942
# 5 0.006993 0.001541 0.004378 0.000000 0.026880 0.000000
# 6 0.000000 0.000000 0.000000 -0.026942 0.000000 0.040557
#
#
# Mechanical properties :
#
#
# Convention : Reuss Voigt Hill
#
# Bulk Modulus (GPa) = 40.21069 60.46952 50.34011
# Shear Modulus (GPa) = 26.24375 42.77562 34.50969
#
# Velocity S-wave (km/s) = 3.02803 3.86585 3.47230
# Velocity P-wave (km/s) = 5.12581 6.40727 5.80203
#
# Compressibility (1/GPa) = 0.02486901
#
# Stress axis : x y z
#
# Youngs Moduli (GPa) = 128.79326 90.95621 74.18387
#
# Poissons Ratio (x) = -0.09530 0.16853
# Poissons Ratio (y) = -0.13494 0.18255
# Poissons Ratio (z) = 0.29260 0.22382
#
# Static dielectric constant tensor:
#      x y z
#    x 2.766650 0.000000 -0.048900 
#    y 0.000000 2.364440 0.000000 
#    z -0.048900 0.000000 2.812680 
# 
# From -- ./inp_files/12621.got.cif
#   From: 2010.05.17/outbox.cif.g08.bks.cpg/sg4_7_cif.got.tgz:12621.got - 2010.06.03 18:43:04.
