data_PCOD9115068
_publ_section_title
;
Structure prediction by ZEFSAII (Michael W. Deem and Ramdas Pophale) SiO2 
 PCOD9115068
Probable space group: P 21
;
_chemical_formula_sum "Si O2"
_cell_formula_units_Z 16
_cell_length_a 14.852529
_cell_length_b 9.729439
_cell_length_c 13.975411
_cell_angle_alpha 90.000000
_cell_angle_beta 159.161709
_cell_angle_gamma 90.000000
_cell_volume 718.414817
_symmetry_space_group_name_H-M "P 21"
_symmetry_group_IT_number 4
_symmetry_cell_setting 'monoclinic'
loop_
_space_group_symop_operation_xyz
x,y,z
-x,1/2+y,-z
loop_
_atom_site_type_symbol
_atom_site_label
_atom_site_fract_x
_atom_site_fract_y
_atom_site_fract_z
Si Si1 0.761860 0.567480 0.877069
Si Si2 0.733261 0.175104 0.724460
Si Si3 0.736524 0.815180 0.980997
Si Si4 0.276023 0.768954 0.076632
Si Si5 0.241168 0.922058 0.382453
Si Si6 0.777160 0.660168 0.515423
Si Si7 0.749876 0.864560 0.219796
Si Si8 0.250649 0.041785 0.715599
O O1 0.512358 0.604602 0.567282
O O2 0.771526 0.415362 0.925288
O O3 0.747139 0.657915 0.959239
O O4 0.013526 0.607512 0.067738
O O5 0.725969 0.171099 0.831349
O O6 0.735943 0.334967 0.691695
O O7 0.750791 0.846929 0.105979
O O8 0.977456 0.878361 0.167412
O O9 0.480885 0.872433 0.681524
O O10 0.540693 0.761482 0.284463
O O11 0.049998 0.728124 0.782054
O O12 0.236541 0.083761 0.395409
O O13 0.746503 0.556017 0.397277
O O14 0.750115 0.704746 0.255838
O O15 0.999154 0.954870 0.494336
O O16 0.498527 0.954992 0.994213
#
# Coordination Sequence:
#
# PCOD9115068 Si02
#       8
#     2   2   2   2   2   2   2   2
#     4  10  23  42  58  94 128 166 225 273 327 396
#     4  10  23  39  63  88 126 174 217 274 319 384
#     4  10  19  40  69  86 122 168 215 261 324 390
#     4  12  26  39  63  94 132 171 217 280 332 388
#     4  10  20  39  65  92 117 166 220 259 303 395
#     4  12  24  43  65  97 129 174 213 271 335 398
#     4  12  24  46  71 108 137 184 228 293 344 429
#     4  12  27  46  74 105 145 175 241 281 358 422
#
# _framework density 22.271253999999999
#
# number of rings (size 3 to 8) (size 9 to 14) (size 15 to 20)
#    0.000    1.000    2.500    3.750    3.500    2.000 
#    0.000    0.000    0.000    0.000    0.000    0.000 
#    0.000    0.000    0.000    0.000    0.000    0.000 
#
# Total GULP energy -89385.359178 kJ/mol
# GULP energy per Si atom -5586.584949 kJ/mol
# Density = 2.222056 g / cm^3
# Si number density = 22.271254 Si / 1000 Ang^3
#
#
#
# Elastic Constant Matrix: (Units=GPa)
#
#
# Indices 1 2 3 4 5 6 
#
# 1 32.4857 5.2218 19.6436 0.0000 2.3868 0.0000
# 2 5.2218 121.7926 43.7299 0.0000 3.3091 0.0000
# 3 19.6436 43.7299 161.2525 0.0000 8.1978 0.0000
# 4 0.0000 0.0000 0.0000 28.5910 0.0000 3.2053
# 5 2.3868 3.3091 8.1978 0.0000 12.4890 0.0000
# 6 0.0000 0.0000 0.0000 3.2053 0.0000 30.7785
#
#
#
# Elastic Compliance Matrix: (Units=1/GPa)
#
#
# Indices 1 2 3 4 5 6 
#
# 1 0.033408 0.000070 -0.003893 0.000000 -0.003848 0.000000
# 2 0.000070 0.009105 -0.002436 0.000000 -0.000827 0.000000
# 3 -0.003893 -0.002436 0.007516 0.000000 -0.003544 0.000000
# 4 0.000000 0.000000 0.000000 0.035389 0.000000 -0.003686
# 5 -0.003848 -0.000827 -0.003544 0.000000 0.083351 0.000000
# 6 0.000000 0.000000 0.000000 -0.003686 0.000000 0.032874
#
#
# Mechanical properties :
#
#
# Convention : Reuss Voigt Hill
#
# Bulk Modulus (GPa) = 26.65814 50.30238 38.48026
# Shear Modulus (GPa) = 22.05895 30.83407 26.44651
#
# Velocity S-wave (km/s) = 3.15058 3.72489 3.44971
# Velocity P-wave (km/s) = 5.02301 6.41366 5.76046
#
# Compressibility (1/GPa) = 0.03751200
#
# Stress axis : x y z
#
# Youngs Moduli (GPa) = 29.93266 109.83408 133.04240
#
# Poissons Ratio (x) = -0.00769 0.51795
# Poissons Ratio (y) = -0.00210 0.32403
# Poissons Ratio (z) = 0.11653 0.26751
#
# Static dielectric constant tensor:
#      x y z
#    x 1.808050 0.000000 -0.019180 
#    y 0.000000 1.872750 0.000000 
#    z -0.019180 0.000000 1.814040 
# 
# From -- ./inp_files/14217.got.cif
#   From: 2010.05.17/outbox.cif.g08.bks.cpg/sg4_8_cif.got.tgz:14217.got - 2010.06.03 18:43:04.
