data_PCOD9115572
_publ_section_title
;
Structure prediction by ZEFSAII (Michael W. Deem and Ramdas Pophale) SiO2 
 PCOD9115572
Probable space group: P 21
;
_chemical_formula_sum "Si O2"
_cell_formula_units_Z 14
_cell_length_a 6.058787
_cell_length_b 8.572667
_cell_length_c 13.098526
_cell_angle_alpha 90.000000
_cell_angle_beta 115.269062
_cell_angle_gamma 90.000000
_cell_volume 615.237679
_symmetry_space_group_name_H-M "P 21"
_symmetry_group_IT_number 4
_symmetry_cell_setting 'monoclinic'
loop_
_space_group_symop_operation_xyz
x,y,z
-x,1/2+y,-z
loop_
_atom_site_type_symbol
_atom_site_label
_atom_site_fract_x
_atom_site_fract_y
_atom_site_fract_z
Si Si1 0.204036 0.737850 0.624310
Si Si2 0.520890 0.430289 0.167934
Si Si3 0.363212 0.890497 0.047602
Si Si4 0.310441 0.752975 0.426767
Si Si5 0.951885 0.109693 0.939105
Si Si6 0.745598 0.941680 0.488658
Si Si7 0.815153 0.739977 0.221991
O O1 0.367528 0.782405 0.752396
O O2 0.340523 0.803048 0.550364
O O3 0.167242 0.558640 0.583819
O O4 0.947332 0.826921 0.573543
O O5 0.559051 0.412261 0.054342
O O6 0.239117 0.474201 0.131322
O O7 0.681161 0.581627 0.232587
O O8 0.181064 0.030415 0.039969
O O9 0.207264 0.731613 0.028510
O O10 0.605958 0.866395 0.161066
O O11 0.517151 0.840543 0.405888
O O12 0.330817 0.566544 0.439126
O O13 0.037609 0.785793 0.337267
O O14 0.059516 0.196427 0.861600
#
# Coordination Sequence:
#
# PCOD9115572 Si02
#       7
#     2   2   2   2   2   2   2
#     4  10  23  42  65  98 127 179 213 280 331 397
#     4  10  20  40  68  92 128 173 221 274 331 398
#     4  10  22  41  66  97 124 175 224 267 331 394
#     4  10  24  41  68  99 128 178 219 278 323 408
#     4  10  22  40  69  91 129 180 213 276 328 397
#     4  10  24  39  70  92 137 166 230 264 337 388
#     4  10  21  41  66  93 131 175 220 271 331 396
#
# _framework density 22.755431000000002
#
# number of rings (size 3 to 8) (size 9 to 14) (size 15 to 20)
#    0.857    1.143    1.429    0.857    4.000    2.286 
#    0.000   18.571    0.000    0.000    0.000    0.000 
#    0.000    0.000    0.000    0.000    0.000    0.000 
#
# Total GULP energy -78179.121281 kJ/mol
# GULP energy per Si atom -5584.222949 kJ/mol
# Density = 2.270364 g / cm^3
# Si number density = 22.755431 Si / 1000 Ang^3
#
#
#
# Elastic Constant Matrix: (Units=GPa)
#
#
# Indices 1 2 3 4 5 6 
#
# 1 77.6844 45.3015 15.2992 0.0000 24.5257 0.0000
# 2 45.3015 93.7033 25.3436 0.0000 13.6007 0.0000
# 3 15.2992 25.3436 36.7028 0.0000 8.0416 0.0000
# 4 0.0000 0.0000 0.0000 22.2773 0.0000 13.5333
# 5 24.5257 13.6007 8.0416 0.0000 22.7927 0.0000
# 6 0.0000 0.0000 0.0000 13.5333 0.0000 48.8856
#
#
#
# Elastic Compliance Matrix: (Units=1/GPa)
#
#
# Indices 1 2 3 4 5 6 
#
# 1 0.024821 -0.009041 0.000614 0.000000 -0.021530 0.000000
# 2 -0.009041 0.016969 -0.008520 0.000000 0.002609 0.000000
# 3 0.000614 -0.008520 0.034577 0.000000 -0.007775 0.000000
# 4 0.000000 0.000000 0.000000 0.053964 0.000000 -0.014939
# 5 -0.021530 0.002609 -0.007775 0.000000 0.068227 0.000000
# 6 0.000000 0.000000 0.000000 -0.014939 0.000000 0.024592
#
#
# Mechanical properties :
#
#
# Convention : Reuss Voigt Hill
#
# Bulk Modulus (GPa) = 23.54491 42.21990 32.88241
# Shear Modulus (GPa) = 18.43647 26.93419 22.68533
#
# Velocity S-wave (km/s) = 2.84949 3.44414 3.16083
# Velocity P-wave (km/s) = 4.60386 5.86602 5.27284
#
# Compressibility (1/GPa) = 0.04247202
#
# Stress axis : x y z
#
# Youngs Moduli (GPa) = 40.28809 58.93268 28.92120
#
# Poissons Ratio (x) = 0.53280 -0.01774
# Poissons Ratio (y) = 0.36424 0.24640
# Poissons Ratio (z) = -0.02472 0.50210
#
# Static dielectric constant tensor:
#      x y z
#    x 1.865170 0.000000 -0.017600 
#    y 0.000000 1.882340 0.000000 
#    z -0.017600 0.000000 1.825020 
# 
# From -- ./inp_files/13307.got.cif
#   From: 2010.05.17/outbox.cif.g08.bks.cpg/sg4_7_cif.got.tgz:13307.got - 2010.06.03 18:43:04.
