data_PCOD9115255
_publ_section_title
;
Structure prediction by ZEFSAII (Michael W. Deem and Ramdas Pophale) SiO2 
 PCOD9115255
Probable space group: P 21
;
_chemical_formula_sum "Si O2"
_cell_formula_units_Z 12
_cell_length_a 8.455858
_cell_length_b 4.941367
_cell_length_c 23.046264
_cell_angle_alpha 90.000000
_cell_angle_beta 139.596128
_cell_angle_gamma 90.000000
_cell_volume 624.158895
_symmetry_space_group_name_H-M "P 21"
_symmetry_group_IT_number 4
_symmetry_cell_setting 'monoclinic'
loop_
_space_group_symop_operation_xyz
x,y,z
-x,1/2+y,-z
loop_
_atom_site_type_symbol
_atom_site_label
_atom_site_fract_x
_atom_site_fract_y
_atom_site_fract_z
Si Si1 0.412847 0.085300 0.010405
Si Si2 0.016845 0.372099 0.467836
Si Si3 0.645278 0.058895 0.530866
Si Si4 0.573942 0.862631 0.180562
Si Si5 0.955716 0.291968 0.947341
Si Si6 0.849707 0.363589 0.298114
O O1 0.140231 0.192011 0.949317
O O2 0.565852 0.340522 0.029389
O O3 0.513456 0.964036 0.098998
O O4 0.827272 0.398774 0.361650
O O5 0.957064 0.566864 0.504159
O O6 0.264922 0.481427 0.508225
O O7 0.586201 0.372638 0.519835
O O8 0.870893 0.956116 0.633386
O O9 0.319119 0.878212 0.144751
O O10 0.672364 0.559967 0.213503
O O11 0.779773 0.059469 0.263552
O O12 0.069829 0.545294 0.013849
#
# Coordination Sequence:
#
# PCOD9115255 Si02
#       6
#     2   2   2   2   2   2
#     4  11  22  37  62  86 117 151 190 238 289 335
#     4  10  20  36  61  85 112 146 195 230 286 336
#     4  10  20  36  61  85 112 153 197 226 276 363
#     4  11  20  39  60  84 116 151 196 238 273 347
#     4  10  20  36  61  88 106 157 198 223 276 357
#     4  10  22  34  65  84 113 150 198 231 294 324
#
# _framework density 19.225874000000001
#
# number of rings (size 3 to 8) (size 9 to 14) (size 15 to 20)
#    1.000    0.667    0.000    8.000    0.000    0.000 
#    0.000    0.000   36.667    0.000    0.000    0.000 
#    0.000    0.000    0.000    0.000    0.000    0.000 
#
# Total GULP energy -66870.668037 kJ/mol
# GULP energy per Si atom -5572.555670 kJ/mol
# Density = 1.918211 g / cm^3
# Si number density = 19.225874 Si / 1000 Ang^3
#
#
#
# Elastic Constant Matrix: (Units=GPa)
#
#
# Indices 1 2 3 4 5 6 
#
# 1 66.6784 2.8364 13.2432 0.0000 -0.5766 0.0000
# 2 2.8364 78.1209 -0.7281 0.0000 -5.8939 0.0000
# 3 13.2432 -0.7281 49.9095 0.0000 2.7018 0.0000
# 4 0.0000 0.0000 0.0000 41.8691 0.0000 -6.3897
# 5 -0.5766 -5.8939 2.7018 0.0000 15.8127 0.0000
# 6 0.0000 0.0000 0.0000 -6.3897 0.0000 50.0333
#
#
#
# Elastic Compliance Matrix: (Units=1/GPa)
#
#
# Indices 1 2 3 4 5 6 
#
# 1 0.015880 -0.000533 -0.004282 0.000000 0.001112 0.000000
# 2 -0.000533 0.013189 0.000069 0.000000 0.004885 0.000000
# 3 -0.004282 0.000069 0.021378 0.000000 -0.003783 0.000000
# 4 0.000000 0.000000 0.000000 0.024359 0.000000 0.003111
# 5 0.001112 0.004885 -0.003783 0.000000 0.065748 0.000000
# 6 0.000000 0.000000 0.000000 0.003111 0.000000 0.020384
#
#
# Mechanical properties :
#
#
# Convention : Reuss Voigt Hill
#
# Bulk Modulus (GPa) = 24.41555 25.04578 24.73067
# Shear Modulus (GPa) = 27.16207 33.50019 30.33113
#
# Velocity S-wave (km/s) = 3.76278 4.17880 3.97624
# Velocity P-wave (km/s) = 5.62183 6.02815 5.82853
#
# Compressibility (1/GPa) = 0.04095750
#
# Stress axis : x y z
#
# Youngs Moduli (GPa) = 62.97218 75.81974 46.77668
#
# Poissons Ratio (x) = 0.04038 0.20028
# Poissons Ratio (y) = 0.03354 -0.00324
# Poissons Ratio (z) = 0.26962 -0.00525
#
# Static dielectric constant tensor:
#      x y z
#    x 1.688560 0.000000 0.018820 
#    y 0.000000 1.656310 0.000000 
#    z 0.018820 0.000000 1.670050 
# 
# From -- ./inp_files/16063.got.cif
#   From: 2010.05.17/outbox.cif.g08.bks.cpg/sg4_9_cif.got.tgz:16063.got - 2010.06.03 18:43:04.
