data_PCOD9115822
_publ_section_title
;
Structure prediction by ZEFSAII (Michael W. Deem and Ramdas Pophale) SiO2 
 PCOD9115822
Probable space group: P 21
;
_chemical_formula_sum "Si O2"
_cell_formula_units_Z 14
_cell_length_a 14.840442
_cell_length_b 5.075729
_cell_length_c 9.200874
_cell_angle_alpha 90.000000
_cell_angle_beta 119.436042
_cell_angle_gamma 90.000000
_cell_volume 603.594185
_symmetry_space_group_name_H-M "P 21"
_symmetry_group_IT_number 4
_symmetry_cell_setting 'monoclinic'
loop_
_space_group_symop_operation_xyz
x,y,z
-x,1/2+y,-z
loop_
_atom_site_type_symbol
_atom_site_label
_atom_site_fract_x
_atom_site_fract_y
_atom_site_fract_z
Si Si1 0.732234 0.235790 0.102772
Si Si2 0.458987 0.354270 0.380877
Si Si3 0.536445 0.349166 0.109357
Si Si4 0.970399 0.477414 0.052612
Si Si5 0.743489 0.711180 0.921898
Si Si6 0.124203 0.051431 0.578144
Si Si7 0.911514 0.057675 0.561184
O O1 0.649448 0.233365 0.166092
O O2 0.827507 0.395457 0.248725
O O3 0.694010 0.443956 0.950726
O O4 0.751069 0.953652 0.043886
O O5 0.488666 0.620710 0.486530
O O6 0.501311 0.356635 0.248013
O O7 0.335338 0.308500 0.264344
O O8 0.531697 0.643139 0.038925
O O9 0.032266 0.461532 0.251556
O O10 0.858526 0.617436 0.971110
O O11 0.962819 0.180818 0.990520
O O12 0.135796 0.845807 0.456324
O O13 0.004856 0.111518 0.521264
O O14 0.163895 0.338226 0.564779
#
# Coordination Sequence:
#
# PCOD9115822 Si02
#       7
#     2   2   2   2   2   2   2
#     4  12  22  42  74 104 133 175 241 296 347 429
#     4  12  26  48  73 104 151 188 232 301 375 429
#     4  12  23  45  74 107 139 181 241 302 348 433
#     4  12  26  45  68  94 140 190 241 289 336 432
#     4  12  25  45  75  99 135 192 244 287 361 426
#     4  10  21  36  65  94 127 167 212 290 347 393
#     4  10  21  39  61  90 129 169 221 277 350 388
#
# _framework density 23.194393999999999
#
# number of rings (size 3 to 8) (size 9 to 14) (size 15 to 20)
#    0.000    0.571    4.286    4.286    4.000    0.000 
#    7.714    0.000    0.000    0.000    0.000    0.000 
#    0.000    0.000    0.000    0.000    0.000    0.000 
#
# Total GULP energy -78167.627320 kJ/mol
# GULP energy per Si atom -5583.401951 kJ/mol
# Density = 2.314160 g / cm^3
# Si number density = 23.194394 Si / 1000 Ang^3
#
#
#
# Elastic Constant Matrix: (Units=GPa)
#
#
# Indices 1 2 3 4 5 6 
#
# 1 36.6896 -2.5604 1.1531 0.0000 -1.5596 0.0000
# 2 -2.5604 83.9832 -1.1269 0.0000 -18.6799 0.0000
# 3 1.1531 -1.1269 92.3209 0.0000 -4.8743 0.0000
# 4 0.0000 0.0000 0.0000 48.0574 0.0000 -2.0653
# 5 -1.5596 -18.6799 -4.8743 0.0000 35.4205 0.0000
# 6 0.0000 0.0000 0.0000 -2.0653 0.0000 28.2784
#
#
#
# Elastic Compliance Matrix: (Units=1/GPa)
#
#
# Indices 1 2 3 4 5 6 
#
# 1 0.027427 0.001240 -0.000231 0.000000 0.001830 0.000000
# 2 0.001240 0.013573 0.000535 0.000000 0.007286 0.000000
# 3 -0.000231 0.000535 0.010935 0.000000 0.001777 0.000000
# 4 0.000000 0.000000 0.000000 0.020874 0.000000 0.001524
# 5 0.001830 0.007286 0.001777 0.000000 0.032400 0.000000
# 6 0.000000 0.000000 0.000000 0.001524 0.000000 0.035474
#
#
# Mechanical properties :
#
#
# Convention : Reuss Voigt Hill
#
# Bulk Modulus (GPa) = 18.17413 23.10280 20.63846
# Shear Modulus (GPa) = 32.06452 36.71978 34.39215
#
# Velocity S-wave (km/s) = 3.72213 3.98318 3.85486
# Velocity P-wave (km/s) = 5.13078 5.58000 5.36010
#
# Compressibility (1/GPa) = 0.05502327
#
# Stress axis : x y z
#
# Youngs Moduli (GPa) = 36.46008 73.67711 91.44945
#
# Poissons Ratio (x) = -0.09137 0.02111
# Poissons Ratio (y) = -0.04521 -0.04891
# Poissons Ratio (z) = 0.00842 -0.03941
#
# Static dielectric constant tensor:
#      x y z
#    x 1.961680 0.000000 0.008310 
#    y 0.000000 1.924250 0.000000 
#    z 0.008310 0.000000 1.896350 
# 
# From -- ./inp_files/8943.got.cif
#   From: 2010.05.17/outbox.cif.g08.bks.cpg/sg4_5_cif.got.tgz:8943.got - 2010.06.03 18:43:04.
