data_PCOD9115593
_publ_section_title
;
Structure prediction by ZEFSAII (Michael W. Deem and Ramdas Pophale) SiO2 
 PCOD9115593
Probable space group: P 21
;
_chemical_formula_sum "Si O2"
_cell_formula_units_Z 16
_cell_length_a 11.513773
_cell_length_b 4.964436
_cell_length_c 11.827702
_cell_angle_alpha 90.000000
_cell_angle_beta 88.353654
_cell_angle_gamma 90.000000
_cell_volume 675.785144
_symmetry_space_group_name_H-M "P 21"
_symmetry_group_IT_number 4
_symmetry_cell_setting 'monoclinic'
loop_
_space_group_symop_operation_xyz
x,y,z
-x,1/2+y,-z
loop_
_atom_site_type_symbol
_atom_site_label
_atom_site_fract_x
_atom_site_fract_y
_atom_site_fract_z
Si Si1 0.424486 0.063020 0.523090
Si Si2 0.279562 0.815825 0.875472
Si Si3 0.074888 0.559396 0.256547
Si Si4 0.611489 0.813569 0.234732
Si Si5 0.968705 0.040616 0.362564
Si Si6 0.929720 0.219056 0.993060
Si Si7 0.447048 0.696701 0.053681
Si Si8 0.183938 0.804502 0.463360
O O1 0.497125 0.296254 0.456390
O O2 0.392553 0.217996 0.638351
O O3 0.305144 0.956375 0.471003
O O4 0.352800 0.617201 0.793723
O O5 0.328729 0.795821 0.002403
O O6 0.298731 0.115023 0.831856
O O7 0.153336 0.700152 0.896925
O O8 0.970891 0.766621 0.292047
O O9 0.172884 0.634812 0.347271
O O10 0.025168 0.268830 0.283811
O O11 0.111630 0.611373 0.127655
O O12 0.486532 0.755100 0.178950
O O13 0.069639 0.996631 0.455928
O O14 0.849844 0.124117 0.426748
O O15 0.959840 0.532877 0.984326
O O16 0.463699 0.384499 0.022120
#
# Coordination Sequence:
#
# PCOD9115593 Si02
#       8
#     2   2   2   2   2   2   2   2
#     4  12  29  44  64 101 144 175 214 279 353 413
#     4  10  21  41  64  92 119 174 219 265 314 389
#     4  10  22  40  65  97 132 170 222 280 350 385
#     4  10  21  43  67  92 121 167 222 262 328 372
#     4  10  20  40  71  99 124 171 241 284 316 389
#     4  12  26  42  60  96 143 170 212 274 343 409
#     4   8  16  33  61  87 114 146 211 263 289 367
#     4  10  23  43  70  98 133 175 241 273 331 406
#
# _framework density 23.676165000000001
#
# number of rings (size 3 to 8) (size 9 to 14) (size 15 to 20)
#    0.750    1.000    1.250    2.250    1.750    4.000 
#    0.000    2.500    0.000    0.000    0.000    0.000 
#    0.000    0.000    0.000    0.000    0.000    0.000 
#
# Total GULP energy -89339.237389 kJ/mol
# GULP energy per Si atom -5583.702337 kJ/mol
# Density = 2.362228 g / cm^3
# Si number density = 23.676165 Si / 1000 Ang^3
#
#
#
# Elastic Constant Matrix: (Units=GPa)
#
#
# Indices 1 2 3 4 5 6 
#
# 1 54.1325 -4.8621 -1.6424 0.0000 5.3855 0.0000
# 2 -4.8621 85.6120 -16.4314 0.0000 -6.9979 0.0000
# 3 -1.6424 -16.4314 37.1582 0.0000 3.3545 0.0000
# 4 0.0000 0.0000 0.0000 28.5739 0.0000 3.2894
# 5 5.3855 -6.9979 3.3545 0.0000 29.8238 0.0000
# 6 0.0000 0.0000 0.0000 3.2894 0.0000 20.9194
#
#
#
# Elastic Compliance Matrix: (Units=1/GPa)
#
#
# Indices 1 2 3 4 5 6 
#
# 1 0.018956 0.001117 0.001634 0.000000 -0.003345 0.000000
# 2 0.001117 0.013000 0.005598 0.000000 0.002219 0.000000
# 3 0.001634 0.005598 0.029669 0.000000 -0.002319 0.000000
# 4 0.000000 0.000000 0.000000 0.035642 0.000000 -0.005604
# 5 -0.003345 0.002219 -0.002319 0.000000 0.034916 0.000000
# 6 0.000000 0.000000 0.000000 -0.005604 0.000000 0.048684
#
#
# Mechanical properties :
#
#
# Convention : Reuss Voigt Hill
#
# Bulk Modulus (GPa) = 12.76815 14.55899 13.66357
# Shear Modulus (GPa) = 26.27751 29.18601 27.73176
#
# Velocity S-wave (km/s) = 3.33509 3.51482 3.42613
# Velocity P-wave (km/s) = 4.49833 4.75757 4.62976
#
# Compressibility (1/GPa) = 0.07831990
#
# Stress axis : x y z
#
# Youngs Moduli (GPa) = 52.75431 76.92464 33.70549
#
# Poissons Ratio (x) = -0.08590 -0.05506
# Poissons Ratio (y) = -0.05891 -0.18867
# Poissons Ratio (z) = -0.08618 -0.43059
#
# Static dielectric constant tensor:
#      x y z
#    x 1.989940 0.000000 0.060730 
#    y 0.000000 1.865530 0.000000 
#    z 0.060730 0.000000 1.904000 
# 
# From -- ./inp_files/11622.got.cif
#   From: 2010.05.17/outbox.cif.g08.bks.cpg/sg4_6_cif.got.tgz:11622.got - 2010.06.03 18:43:04.
