data_PCOD9115523
_publ_section_title
;
Structure prediction by ZEFSAII (Michael W. Deem and Ramdas Pophale) SiO2 
 PCOD9115523
Probable space group: P 21
;
_chemical_formula_sum "Si O2"
_cell_formula_units_Z 16
_cell_length_a 8.178583
_cell_length_b 13.765449
_cell_length_c 11.747489
_cell_angle_alpha 90.000000
_cell_angle_beta 35.063928
_cell_angle_gamma 90.000000
_cell_volume 759.794257
_symmetry_space_group_name_H-M "P 21"
_symmetry_group_IT_number 4
_symmetry_cell_setting 'monoclinic'
loop_
_space_group_symop_operation_xyz
x,y,z
-x,1/2+y,-z
loop_
_atom_site_type_symbol
_atom_site_label
_atom_site_fract_x
_atom_site_fract_y
_atom_site_fract_z
Si Si1 0.654075 0.317110 0.748773
Si Si2 0.545617 0.319129 0.248336
Si Si3 0.922251 0.712755 0.930563
Si Si4 0.256746 0.707572 0.068322
Si Si5 0.737026 0.833062 0.358776
Si Si6 0.095810 0.827650 0.629274
Si Si7 0.731814 0.981973 0.973583
Si Si8 0.940180 0.487206 0.971815
O O1 0.718343 0.252376 0.821301
O O2 0.881469 0.320276 0.518740
O O3 0.360177 0.269076 0.869638
O O4 0.562893 0.424208 0.842578
O O5 0.306943 0.328468 0.480155
O O6 0.805388 0.261643 0.163914
O O7 0.524249 0.259061 0.143683
O O8 0.652775 0.426569 0.155475
O O9 0.903306 0.599245 0.963548
O O10 0.963925 0.737165 0.773139
O O11 0.294759 0.593063 0.046442
O O12 0.938440 0.741900 0.211361
O O13 0.422898 0.834993 0.485032
O O14 0.895868 0.927856 0.220020
O O15 0.921531 0.919924 0.776785
O O16 0.885949 0.980637 0.008916
#
# Coordination Sequence:
#
# PCOD9115523 Si02
#       8
#     2   2   2   2   2   2   2   2
#     4  11  23  44  59  86 132 166 195 249 306 371
#     4  10  20  40  60  92 119 153 203 263 294 348
#     4  10  21  37  64  88 116 159 206 250 302 355
#     4  11  25  38  64  92 125 163 203 247 305 371
#     4  10  21  37  60  94 120 150 202 259 297 350
#     4  10  21  40  63  88 120 159 203 254 304 355
#     4  11  22  40  65  90 118 165 208 248 308 361
#     4  11  19  36  63  94 118 153 206 258 300 351
#
# _framework density 21.058332
#
# number of rings (size 3 to 8) (size 9 to 14) (size 15 to 20)
#    0.000    1.500    6.250    0.750    0.000    8.000 
#    0.000    2.500    0.000    0.000    0.000    0.000 
#    0.000    0.000    0.000    0.000    0.000    0.000 
#
# Total GULP energy -89394.470054 kJ/mol
# GULP energy per Si atom -5587.154378 kJ/mol
# Density = 2.101040 g / cm^3
# Si number density = 21.058332 Si / 1000 Ang^3
#
#
#
# Elastic Constant Matrix: (Units=GPa)
#
#
# Indices 1 2 3 4 5 6 
#
# 1 72.7180 36.6148 34.8060 0.0000 37.4030 0.0000
# 2 36.6148 184.8814 57.1629 0.0000 24.4431 0.0000
# 3 34.8060 57.1629 163.1811 0.0000 45.8230 0.0000
# 4 0.0000 0.0000 0.0000 8.0322 0.0000 5.3711
# 5 37.4030 24.4431 45.8230 0.0000 44.6831 0.0000
# 6 0.0000 0.0000 0.0000 5.3711 0.0000 20.6245
#
#
#
# Elastic Compliance Matrix: (Units=1/GPa)
#
#
# Indices 1 2 3 4 5 6 
#
# 1 0.025320 -0.002668 0.001511 0.000000 -0.021284 0.000000
# 2 -0.002668 0.006429 -0.001858 0.000000 0.000621 0.000000
# 3 0.001511 -0.001858 0.009166 0.000000 -0.009648 0.000000
# 4 0.000000 0.000000 0.000000 0.150751 0.000000 -0.039259
# 5 -0.021284 0.000621 -0.009648 0.000000 0.049751 0.000000
# 6 0.000000 0.000000 0.000000 -0.039259 0.000000 0.058710
#
#
# Mechanical properties :
#
#
# Convention : Reuss Voigt Hill
#
# Bulk Modulus (GPa) = 28.66458 75.32755 51.99606
# Shear Modulus (GPa) = 15.73390 34.14776 24.94083
#
# Velocity S-wave (km/s) = 2.73638 4.03125 3.44520
# Velocity P-wave (km/s) = 4.86058 7.58397 6.36953
#
# Compressibility (1/GPa) = 0.03488627
#
# Stress axis : x y z
#
# Youngs Moduli (GPa) = 39.49511 155.53469 109.09906
#
# Poissons Ratio (x) = 0.41489 -0.16482
# Poissons Ratio (y) = 0.10535 0.20266
# Poissons Ratio (z) = -0.05967 0.28892
#
# Static dielectric constant tensor:
#      x y z
#    x 1.866890 0.000000 -0.004060 
#    y 0.000000 1.688640 0.000000 
#    z -0.004060 0.000000 1.762380 
# 
# From -- ./inp_files/11415.got.cif
#   From: 2010.05.17/outbox.cif.g08.bks.cpg/sg4_6_cif.got.tgz:11415.got - 2010.06.03 18:43:04.
