data_PCOD9115413
_publ_section_title
;
Structure prediction by ZEFSAII (Michael W. Deem and Ramdas Pophale) SiO2 
 PCOD9115413
Probable space group: P 21
;
_chemical_formula_sum "Si O2"
_cell_formula_units_Z 16
_cell_length_a 7.174542
_cell_length_b 7.736103
_cell_length_c 15.201790
_cell_angle_alpha 90.000000
_cell_angle_beta 46.890545
_cell_angle_gamma 90.000000
_cell_volume 615.975544
_symmetry_space_group_name_H-M "P 21"
_symmetry_group_IT_number 4
_symmetry_cell_setting 'monoclinic'
loop_
_space_group_symop_operation_xyz
x,y,z
-x,1/2+y,-z
loop_
_atom_site_type_symbol
_atom_site_label
_atom_site_fract_x
_atom_site_fract_y
_atom_site_fract_z
Si Si1 0.842184 0.615150 0.481129
Si Si2 0.423900 0.132648 0.015044
Si Si3 0.268040 0.342587 0.780511
Si Si4 0.917745 0.654732 0.718326
Si Si5 0.497895 0.728458 0.724498
Si Si6 0.784073 0.303208 0.027305
Si Si7 0.139638 0.787362 0.237623
Si Si8 0.287673 0.717577 0.466372
O O1 0.625250 0.747939 0.587280
O O2 0.736077 0.423741 0.516466
O O3 0.975525 0.655802 0.346707
O O4 0.068058 0.633240 0.478574
O O5 0.175616 0.194931 0.152096
O O6 0.636093 0.140156 0.027455
O O7 0.591347 0.228522 0.886993
O O8 0.334444 0.961837 0.991685
O O9 0.386571 0.531550 0.758270
O O10 0.463579 0.204785 0.675347
O O11 0.052742 0.352318 0.774845
O O12 0.087802 0.286558 0.919071
O O13 0.738440 0.767416 0.712398
O O14 0.822341 0.463000 0.722376
O O15 0.209641 0.658627 0.590463
O O16 0.281413 0.825827 0.849105
#
# Coordination Sequence:
#
# PCOD9115413 Si02
#       8
#     2   2   2   2   2   2   2   2
#     4  10  21  38  60  94 119 178 218 266 313 394
#     4  10  20  38  64  95 126 168 221 266 312 396
#     4  10  21  42  57  99 130 168 205 277 331 382
#     4  10  20  41  63  92 119 177 215 263 317 390
#     4   9  21  40  64  87 132 167 220 265 318 393
#     4  10  21  42  67  95 132 171 223 270 329 388
#     4  11  22  36  64  93 131 161 218 269 324 384
#     4  10  22  39  65  85 133 166 224 266 324 387
#
# _framework density 25.975059999999999
#
# number of rings (size 3 to 8) (size 9 to 14) (size 15 to 20)
#    0.000    2.000    2.500    2.250    5.250    2.000 
#    4.500    0.000    0.000    9.000    0.000    0.000 
#    0.000    0.000    0.000    0.000    0.000    0.000 
#
# Total GULP energy -89087.580734 kJ/mol
# GULP energy per Si atom -5567.973796 kJ/mol
# Density = 2.591594 g / cm^3
# Si number density = 25.975060 Si / 1000 Ang^3
#
#
#
# Elastic Constant Matrix: (Units=GPa)
#
#
# Indices 1 2 3 4 5 6 
#
# 1 76.9140 4.0698 8.3988 0.0000 -2.9159 0.0000
# 2 4.0698 43.0705 52.1122 0.0000 8.3130 0.0000
# 3 8.3988 52.1122 218.0172 0.0000 -20.5244 0.0000
# 4 0.0000 0.0000 0.0000 48.3644 0.0000 4.6767
# 5 -2.9159 8.3130 -20.5244 0.0000 24.8731 0.0000
# 6 0.0000 0.0000 0.0000 4.6767 0.0000 17.8417
#
#
#
# Elastic Compliance Matrix: (Units=1/GPa)
#
#
# Indices 1 2 3 4 5 6 
#
# 1 0.013171 -0.001882 0.000160 0.000000 0.002305 0.000000
# 2 -0.001882 0.043752 -0.012775 0.000000 -0.025385 0.000000
# 3 0.000160 -0.012775 0.008715 0.000000 0.011480 0.000000
# 4 0.000000 0.000000 0.000000 0.021214 0.000000 -0.005561
# 5 0.002305 -0.025385 0.011480 0.000000 0.058431 0.000000
# 6 0.000000 0.000000 0.000000 -0.005561 0.000000 0.057506
#
#
# Mechanical properties :
#
#
# Convention : Reuss Voigt Hill
#
# Bulk Modulus (GPa) = 27.29104 51.90703 39.59903
# Shear Modulus (GPa) = 20.49173 36.44390 28.46782
#
# Velocity S-wave (km/s) = 2.81178 3.74977 3.31413
# Velocity P-wave (km/s) = 4.59031 6.22692 5.47017
#
# Compressibility (1/GPa) = 0.03664207
#
# Stress axis : x y z
#
# Youngs Moduli (GPa) = 75.92380 22.85584 114.74421
#
# Poissons Ratio (x) = 0.04303 -0.01831
# Poissons Ratio (y) = 0.14293 1.46590
# Poissons Ratio (z) = -0.01211 0.29199
#
# Static dielectric constant tensor:
#      x y z
#    x 2.116690 0.000000 0.047600 
#    y 0.000000 2.115510 0.000000 
#    z 0.047600 0.000000 2.251980 
# 
# From -- ./inp_files/12036.got.cif
#   From: 2010.05.17/outbox.cif.g08.bks.cpg/sg4_7_cif.got.tgz:12036.got - 2010.06.03 18:43:04.
