data_PCOD9115316
_publ_section_title
;
Structure prediction by ZEFSAII (Michael W. Deem and Ramdas Pophale) SiO2 
 PCOD9115316
Probable space group: P 21
;
_chemical_formula_sum "Si O2"
_cell_formula_units_Z 16
_cell_length_a 6.733645
_cell_length_b 21.524152
_cell_length_c 5.396147
_cell_angle_alpha 90.000000
_cell_angle_beta 46.794422
_cell_angle_gamma 90.000000
_cell_volume 570.071289
_symmetry_space_group_name_H-M "P 21"
_symmetry_group_IT_number 4
_symmetry_cell_setting 'monoclinic'
loop_
_space_group_symop_operation_xyz
x,y,z
-x,1/2+y,-z
loop_
_atom_site_type_symbol
_atom_site_label
_atom_site_fract_x
_atom_site_fract_y
_atom_site_fract_z
Si Si1 0.672513 0.387120 0.613620
Si Si2 0.913182 0.533412 0.715067
Si Si3 0.785411 0.912383 0.642560
Si Si4 0.141806 0.160977 0.438590
Si Si5 0.296896 0.633433 0.790014
Si Si6 0.427139 0.007821 0.504999
Si Si7 0.977213 0.783807 0.267203
Si Si8 0.430601 0.757005 0.501431
O O1 0.518815 0.433731 0.556441
O O2 0.644830 0.313854 0.608580
O O3 0.990845 0.403507 0.325597
O O4 0.517633 0.402779 0.001205
O O5 0.956529 0.607558 0.664217
O O6 0.735559 0.520320 0.615802
O O7 0.154619 0.482795 0.489313
O O8 0.751679 0.519798 0.102018
O O9 0.893095 0.854367 0.391044
O O10 0.461478 0.151515 0.218574
O O11 0.074858 0.233970 0.467078
O O12 0.982790 0.143569 0.828113
O O13 0.344847 0.561272 0.694293
O O14 0.353592 0.685320 0.531623
O O15 0.752346 0.761252 0.261627
O O16 0.270319 0.775535 0.892555
#
# Coordination Sequence:
#
# PCOD9115316 Si02
#       8
#     2   2   2   2   2   2   2   2
#     4  11  23  39  60  91 129 167 211 262 318 378
#     4  10  22  42  66  94 128 167 213 263 318 378
#     4  11  23  39  60  91 129 167 211 262 318 378
#     4   9  19  38  61  90 126 165 210 260 315 375
#     4   9  19  38  61  90 126 165 210 260 315 375
#     4  10  22  42  66  94 128 167 213 263 318 378
#     4  10  20  37  62  89 124 167 212 261 315 377
#     4  10  20  37  62  89 124 167 212 261 315 377
#
# _framework density 28.066661
#
# number of rings (size 3 to 8) (size 9 to 14) (size 15 to 20)
#    0.000    2.000    0.000    3.000    0.000    3.000 
#    0.000   20.000    0.000    0.000    0.000    0.000 
#    0.000    0.000    0.000    0.000    0.000    0.000 
#
# Total GULP energy -89614.292524 kJ/mol
# GULP energy per Si atom -5600.893283 kJ/mol
# Density = 2.800278 g / cm^3
# Si number density = 28.066661 Si / 1000 Ang^3
#
#
#
# Elastic Constant Matrix: (Units=GPa)
#
#
# Indices 1 2 3 4 5 6 
#
# 1 66.8498 55.6290 26.3614 0.0000 -1.3385 0.0000
# 2 55.6290 223.7673 37.9342 0.0000 6.5958 0.0000
# 3 26.3614 37.9342 128.9450 0.0000 5.7601 0.0000
# 4 0.0000 0.0000 0.0000 54.9753 0.0000 -0.5939
# 5 -1.3385 6.5958 5.7601 0.0000 30.8514 0.0000
# 6 0.0000 0.0000 0.0000 -0.5939 0.0000 68.3480
#
#
#
# Elastic Compliance Matrix: (Units=1/GPa)
#
#
# Indices 1 2 3 4 5 6 
#
# 1 0.019900 -0.004536 -0.002840 0.000000 0.002363 0.000000
# 2 -0.004536 0.005755 -0.000708 0.000000 -0.001295 0.000000
# 3 -0.002840 -0.000708 0.008615 0.000000 -0.001580 0.000000
# 4 0.000000 0.000000 0.000000 0.018192 0.000000 0.000158
# 5 0.002363 -0.001295 -0.001580 0.000000 0.033088 0.000000
# 6 0.000000 0.000000 0.000000 0.000158 0.000000 0.014632
#
#
# Mechanical properties :
#
#
# Convention : Reuss Voigt Hill
#
# Bulk Modulus (GPa) = 55.23819 73.26792 64.25305
# Shear Modulus (GPa) = 40.85568 50.81076 45.83322
#
# Velocity S-wave (km/s) = 3.81946 4.25945 4.04544
# Velocity P-wave (km/s) = 6.25898 7.09593 6.69055
#
# Compressibility (1/GPa) = 0.01810342
#
# Stress axis : x y z
#
# Youngs Moduli (GPa) = 50.25067 173.77292 116.08179
#
# Poissons Ratio (x) = 0.78815 0.32963
# Poissons Ratio (y) = 0.22791 0.08217
# Poissons Ratio (z) = 0.14269 0.12301
#
# Static dielectric constant tensor:
#      x y z
#    x 2.366990 0.000000 0.076520 
#    y 0.000000 2.279170 0.000000 
#    z 0.076520 0.000000 2.002730 
# 
# From -- ./inp_files/688.got.cif
#   From: 2010.05.17/outbox.cif.g08.bks.cpg/sg4_1_cif.got.tgz:688.got - 2010.06.03 18:43:04.
