data_PCOD9115923
_publ_section_title
;
Structure prediction by ZEFSAII (Michael W. Deem and Ramdas Pophale) SiO2 
 PCOD9115923
Probable space group: P 21
;
_chemical_formula_sum "Si O2"
_cell_formula_units_Z 14
_cell_length_a 8.785649
_cell_length_b 8.851339
_cell_length_c 12.221656
_cell_angle_alpha 90.000000
_cell_angle_beta 145.689623
_cell_angle_gamma 90.000000
_cell_volume 535.725301
_symmetry_space_group_name_H-M "P 21"
_symmetry_group_IT_number 4
_symmetry_cell_setting 'monoclinic'
loop_
_space_group_symop_operation_xyz
x,y,z
-x,1/2+y,-z
loop_
_atom_site_type_symbol
_atom_site_label
_atom_site_fract_x
_atom_site_fract_y
_atom_site_fract_z
Si Si1 0.418794 0.064070 0.133785
Si Si2 0.523006 0.585064 0.070939
Si Si3 0.028758 0.743338 0.488585
Si Si4 0.021195 0.251903 0.287550
Si Si5 0.505049 0.930733 0.723563
Si Si6 0.161470 0.572722 0.258915
Si Si7 0.370966 0.130194 0.318913
O O1 0.709049 0.138100 0.332633
O O2 0.352792 0.998148 0.216740
O O3 0.463467 0.002694 0.038258
O O4 0.127879 0.141428 0.936058
O O5 0.448499 0.470258 0.123070
O O6 0.797608 0.666899 0.277596
O O7 0.287025 0.705204 0.913020
O O8 0.918453 0.768595 0.547185
O O9 0.181480 0.892197 0.530121
O O10 0.102102 0.407613 0.276282
O O11 0.175839 0.126124 0.306069
O O12 0.645675 0.057639 0.732528
O O13 0.656153 0.782625 0.767759
O O14 0.336990 0.651705 0.454467
#
# Coordination Sequence:
#
# PCOD9115923 Si02
#       7
#     2   2   2   2   2   2   2
#     4  10  21  38  62  90 126 173 220 272 332 397
#     4  11  22  41  65  94 137 177 226 282 337 413
#     4  10  22  40  62  94 131 173 226 278 339 409
#     4  10  23  40  64  95 128 174 228 279 347 406
#     4  10  22  40  65  94 131 177 222 280 341 399
#     4  11  22  41  64  91 132 174 225 287 338 407
#     4  10  22  42  62  94 133 172 229 286 342 407
#
# _framework density 26.132797
#
# number of rings (size 3 to 8) (size 9 to 14) (size 15 to 20)
#    0.000    1.714    0.000    4.286    0.000    2.286 
#    0.000   31.429    0.000    0.000    0.000    0.000 
#    0.000    0.000    0.000    0.000    0.000    0.000 
#
# Total GULP energy -78002.195998 kJ/mol
# GULP energy per Si atom -5571.585428 kJ/mol
# Density = 2.607332 g / cm^3
# Si number density = 26.132797 Si / 1000 Ang^3
#
#
#
# Elastic Constant Matrix: (Units=GPa)
#
#
# Indices 1 2 3 4 5 6 
#
# 1 152.6967 5.0839 -9.2052 0.0000 -18.9696 0.0000
# 2 5.0839 29.9032 -2.1788 0.0000 4.1917 0.0000
# 3 -9.2052 -2.1788 90.4111 0.0000 -2.0745 0.0000
# 4 0.0000 0.0000 0.0000 15.0559 0.0000 4.9978
# 5 -18.9696 4.1917 -2.0745 0.0000 39.7275 0.0000
# 6 0.0000 0.0000 0.0000 4.9978 0.0000 31.4216
#
#
#
# Elastic Compliance Matrix: (Units=1/GPa)
#
#
# Indices 1 2 3 4 5 6 
#
# 1 0.007098 -0.001656 0.000765 0.000000 0.003604 0.000000
# 2 -0.001656 0.034379 0.000559 0.000000 -0.004389 0.000000
# 3 0.000765 0.000559 0.011172 0.000000 0.000890 0.000000
# 4 0.000000 0.000000 0.000000 0.070121 0.000000 -0.011153
# 5 0.003604 -0.004389 0.000890 0.000000 0.027402 0.000000
# 6 0.000000 0.000000 0.000000 -0.011153 0.000000 0.033599
#
#
# Mechanical properties :
#
#
# Convention : Reuss Voigt Hill
#
# Bulk Modulus (GPa) = 19.23592 28.93453 24.08523
# Shear Modulus (GPa) = 24.78152 35.86176 30.32164
#
# Velocity S-wave (km/s) = 3.08278 3.70846 3.41000
# Velocity P-wave (km/s) = 4.47752 5.42522 4.97399
#
# Compressibility (1/GPa) = 0.05198607
#
# Stress axis : x y z
#
# Youngs Moduli (GPa) = 140.88611 29.08775 89.50613
#
# Poissons Ratio (x) = 0.04817 -0.06851
# Poissons Ratio (y) = 0.23333 -0.05005
# Poissons Ratio (z) = -0.10784 -0.01627
#
# Static dielectric constant tensor:
#      x y z
#    x 2.188460 0.000000 -0.015130 
#    y 0.000000 2.276190 0.000000 
#    z -0.015130 0.000000 2.004860 
# 
# From -- ./inp_files/1332.got.cif
#   From: 2010.05.17/outbox.cif.g08.bks.cpg/sg4_1_cif.got.tgz:1332.got - 2010.06.03 18:43:04.
