data_PCOD9115207
_publ_section_title
;
Structure prediction by ZEFSAII (Michael W. Deem and Ramdas Pophale) SiO2 
 PCOD9115207
Probable space group: P 21
;
_chemical_formula_sum "Si O2"
_cell_formula_units_Z 16
_cell_length_a 8.040496
_cell_length_b 8.040236
_cell_length_c 8.904886
_cell_angle_alpha 90.000000
_cell_angle_beta 99.438003
_cell_angle_gamma 90.000000
_cell_volume 567.885882
_symmetry_space_group_name_H-M "P 21"
_symmetry_group_IT_number 4
_symmetry_cell_setting 'monoclinic'
loop_
_space_group_symop_operation_xyz
x,y,z
-x,1/2+y,-z
loop_
_atom_site_type_symbol
_atom_site_label
_atom_site_fract_x
_atom_site_fract_y
_atom_site_fract_z
Si Si1 0.208821 0.144780 0.516956
Si Si2 0.505808 0.563110 0.726784
Si Si3 0.575807 0.216208 0.567716
Si Si4 0.031874 0.760323 0.963421
Si Si5 0.209701 0.442161 0.273596
Si Si6 0.881525 0.495314 0.778845
Si Si7 0.457478 0.419746 0.020311
Si Si8 0.254630 0.130489 0.856937
O O1 0.407662 0.105285 0.567697
O O2 0.205187 0.315211 0.417314
O O3 0.163342 0.157198 0.683510
O O4 0.118297 0.002301 0.402973
O O5 0.523955 0.385447 0.642825
O O6 0.419449 0.702713 0.612080
O O7 0.705583 0.597134 0.775236
O O8 0.425880 0.547357 0.877137
O O9 0.738675 0.119288 0.649296
O O10 0.878563 0.695496 0.043646
O O11 0.141633 0.842775 0.110437
O O12 0.964313 0.900389 0.837864
O O13 0.045363 0.596719 0.860683
O O14 0.343759 0.433295 0.152792
O O15 0.650596 0.454809 0.101598
O O16 0.410921 0.255575 0.916684
#
# Coordination Sequence:
#
# PCOD9115207 Si02
#       8
#     2   2   2   2   2   2   2   2
#     4  10  20  39  60  90 125 166 194 263 313 379
#     4  11  22  36  62  92 127 164 201 258 314 382
#     4  11  19  34  57  90 124 156 196 246 325 372
#     4  10  23  41  64  87 122 168 215 261 298 366
#     4  10  20  35  62  90 121 160 199 258 317 369
#     4  10  23  42  63  87 123 167 219 251 307 369
#     4  11  20  36  61  97 126 157 200 255 320 374
#     4  11  21  39  65  91 132 160 204 262 314 375
#
# _framework density 28.174672000000001
#
# number of rings (size 3 to 8) (size 9 to 14) (size 15 to 20)
#    0.000    1.500    5.000    0.000    3.500    0.000 
#    0.000    2.500    5.500    0.000    0.000    0.000 
#    0.000    0.000    0.000    0.000    0.000    0.000 
#
# Total GULP energy -89146.367595 kJ/mol
# GULP energy per Si atom -5571.647975 kJ/mol
# Density = 2.811055 g / cm^3
# Si number density = 28.174672 Si / 1000 Ang^3
#
#
#
# Elastic Constant Matrix: (Units=GPa)
#
#
# Indices 1 2 3 4 5 6 
#
# 1 49.6053 6.1524 25.0401 0.0000 -1.7278 0.0000
# 2 6.1524 73.2962 73.3708 0.0000 1.3402 0.0000
# 3 25.0401 73.3708 257.3548 0.0000 -3.1948 0.0000
# 4 0.0000 0.0000 0.0000 70.5897 0.0000 12.6659
# 5 -1.7278 1.3402 -3.1948 0.0000 37.2117 0.0000
# 6 0.0000 0.0000 0.0000 12.6659 0.0000 30.4657
#
#
#
# Elastic Compliance Matrix: (Units=1/GPa)
#
#
# Indices 1 2 3 4 5 6 
#
# 1 0.021232 0.000366 -0.002160 0.000000 0.000787 0.000000
# 2 0.000366 0.019148 -0.005509 0.000000 -0.001146 0.000000
# 3 -0.002160 -0.005509 0.005674 0.000000 0.000585 0.000000
# 4 0.000000 0.000000 0.000000 0.015308 0.000000 -0.006364
# 5 0.000787 -0.001146 0.000585 0.000000 0.027001 0.000000
# 6 0.000000 0.000000 0.000000 -0.006364 0.000000 0.035470
#
#
# Mechanical properties :
#
#
# Convention : Reuss Voigt Hill
#
# Bulk Modulus (GPa) = 31.79962 65.48699 48.64330
# Shear Modulus (GPa) = 33.57477 46.03296 39.80387
#
# Velocity S-wave (km/s) = 3.45580 4.04647 3.76274
# Velocity P-wave (km/s) = 5.21866 6.71755 6.01498
#
# Compressibility (1/GPa) = 0.03144692
#
# Stress axis : x y z
#
# Youngs Moduli (GPa) = 47.09945 52.22492 176.25194
#
# Poissons Ratio (x) = -0.01911 0.38077
# Poissons Ratio (y) = -0.01724 0.97094
# Poissons Ratio (z) = 0.10175 0.28770
#
# Static dielectric constant tensor:
#      x y z
#    x 2.271620 0.000000 -0.024090 
#    y 0.000000 2.545930 0.000000 
#    z -0.024090 0.000000 2.283540 
# 
# From -- ./inp_files/8027.got.cif
#   From: 2010.05.17/outbox.cif.g08.bks.cpg/sg4_5_cif.got.tgz:8027.got - 2010.06.03 18:43:04.
