data_PCOD9115329
_publ_section_title
;
Structure prediction by ZEFSAII (Michael W. Deem and Ramdas Pophale) SiO2 
 PCOD9115329
Probable space group: P 21
;
_chemical_formula_sum "Si O2"
_cell_formula_units_Z 12
_cell_length_a 23.614460
_cell_length_b 4.828157
_cell_length_c 11.989550
_cell_angle_alpha 90.000000
_cell_angle_beta 160.373453
_cell_angle_gamma 90.000000
_cell_volume 459.152338
_symmetry_space_group_name_H-M "P 21"
_symmetry_group_IT_number 4
_symmetry_cell_setting 'monoclinic'
loop_
_space_group_symop_operation_xyz
x,y,z
-x,1/2+y,-z
loop_
_atom_site_type_symbol
_atom_site_label
_atom_site_fract_x
_atom_site_fract_y
_atom_site_fract_z
Si Si1 0.780381 0.107410 0.714154
Si Si2 0.894213 0.602291 0.049059
Si Si3 0.069770 0.285009 0.566486
Si Si4 0.402611 0.264512 0.080700
Si Si5 0.539312 0.671874 0.499397
Si Si6 0.382219 0.387501 0.797865
O O1 0.853557 0.410053 0.867500
O O2 0.898138 0.907650 0.005968
O O3 0.755677 0.003834 0.542691
O O4 0.586646 0.120852 0.403592
O O5 0.729805 0.600465 0.822944
O O6 0.027336 0.459767 0.376460
O O7 0.253493 0.156881 0.883615
O O8 0.049713 0.525110 0.623642
O O9 0.329807 0.283490 0.821226
O O10 0.440076 0.564646 0.206193
O O11 0.474619 0.478227 0.479722
O O12 0.515995 0.634049 0.067987
#
# Coordination Sequence:
#
# PCOD9115329 Si02
#       6
#     2   2   2   2   2   2
#     4  10  21  40  64  90 120 159 211 266 318 376
#     4  11  22  39  59  87 125 163 204 263 318 373
#     4  12  26  43  62  93 135 177 215 261 322 392
#     4  10  23  40  64  91 123 167 213 261 319 381
#     4  11  20  33  54  81 110 152 205 251 295 355
#     4  10  20  37  63  94 121 154 210 274 322 371
#
# _framework density 26.135117000000001
#
# number of rings (size 3 to 8) (size 9 to 14) (size 15 to 20)
#    0.000    1.333    0.000    8.000    0.000    6.667 
#    0.000    1.667    0.000    0.000    0.000    0.000 
#    0.000    0.000    0.000    0.000    0.000    0.000 
#
# Total GULP energy -67146.416114 kJ/mol
# GULP energy per Si atom -5595.534676 kJ/mol
# Density = 2.607563 g / cm^3
# Si number density = 26.135117 Si / 1000 Ang^3
#
#
#
# Elastic Constant Matrix: (Units=GPa)
#
#
# Indices 1 2 3 4 5 6 
#
# 1 81.4958 6.1059 23.8921 0.0000 -21.6657 0.0000
# 2 6.1059 93.6178 7.8079 0.0000 2.2308 0.0000
# 3 23.8921 7.8079 71.9996 0.0000 -6.1189 0.0000
# 4 0.0000 0.0000 0.0000 39.7438 0.0000 -15.2897
# 5 -21.6657 2.2308 -6.1189 0.0000 44.3843 0.0000
# 6 0.0000 0.0000 0.0000 -15.2897 0.0000 29.1540
#
#
#
# Elastic Compliance Matrix: (Units=1/GPa)
#
#
# Indices 1 2 3 4 5 6 
#
# 1 0.015497 -0.000805 -0.004461 0.000000 0.006990 0.000000
# 2 -0.000805 0.010843 -0.001000 0.000000 -0.001076 0.000000
# 3 -0.004461 -0.001000 0.015478 0.000000 0.000006 0.000000
# 4 0.000000 0.000000 0.000000 0.031521 0.000000 0.016531
# 5 0.006990 -0.001076 0.000006 0.000000 0.025998 0.000000
# 6 0.000000 0.000000 0.000000 0.016531 0.000000 0.042970
#
#
# Mechanical properties :
#
#
# Convention : Reuss Voigt Hill
#
# Bulk Modulus (GPa) = 34.14627 35.85834 35.00230
# Shear Modulus (GPa) = 30.37631 36.61025 33.49328
#
# Velocity S-wave (km/s) = 3.41292 3.74680 3.58375
# Velocity P-wave (km/s) = 5.35017 5.69808 5.52686
#
# Compressibility (1/GPa) = 0.02928578
#
# Stress axis : x y z
#
# Youngs Moduli (GPa) = 64.52815 92.22283 64.60646
#
# Poissons Ratio (x) = 0.07426 0.28822
# Poissons Ratio (y) = 0.05196 0.06461
# Poissons Ratio (z) = 0.28787 0.09223
#
# Static dielectric constant tensor:
#      x y z
#    x 2.041550 0.000000 -0.052870 
#    y 0.000000 2.044800 0.000000 
#    z -0.052870 0.000000 2.098330 
# 
# From -- ./inp_files/7102.got.cif
#   From: 2010.05.17/outbox.cif.g08.bks.cpg/sg4_4_cif.got.tgz:7102.got - 2010.06.03 18:43:04.
