data_PCOD9115625
_publ_section_title
;
Structure prediction by ZEFSAII (Michael W. Deem and Ramdas Pophale) SiO2 
 PCOD9115625
Probable space group: P 21
;
_chemical_formula_sum "Si O2"
_cell_formula_units_Z 14
_cell_length_a 16.671138
_cell_length_b 5.335684
_cell_length_c 6.884778
_cell_angle_alpha 90.000000
_cell_angle_beta 120.371206
_cell_angle_gamma 90.000000
_cell_volume 528.371338
_symmetry_space_group_name_H-M "P 21"
_symmetry_group_IT_number 4
_symmetry_cell_setting 'monoclinic'
loop_
_space_group_symop_operation_xyz
x,y,z
-x,1/2+y,-z
loop_
_atom_site_type_symbol
_atom_site_label
_atom_site_fract_x
_atom_site_fract_y
_atom_site_fract_z
Si Si1 0.620300 0.921220 0.118047
Si Si2 0.155316 0.044102 0.859718
Si Si3 0.980011 0.124989 0.873958
Si Si4 0.228125 0.087505 0.544215
Si Si5 0.678756 0.309035 0.665700
Si Si6 0.187601 0.432104 0.181704
Si Si7 0.553721 0.420911 0.829074
O O1 0.721284 0.834916 0.308504
O O2 0.549585 0.909935 0.213680
O O3 0.590925 0.692000 0.940400
O O4 0.607199 0.188379 0.999643
O O5 0.047266 0.007286 0.791413
O O6 0.172004 0.983166 0.656715
O O7 0.169409 0.334857 0.942043
O O8 0.238397 0.906613 0.083444
O O9 0.868384 0.136963 0.759491
O O10 0.009894 0.409212 0.948175
O O11 0.168003 0.192609 0.293483
O O12 0.305587 0.924449 0.527753
O O13 0.705854 0.018642 0.690551
O O14 0.580795 0.378560 0.638407
#
# Coordination Sequence:
#
# PCOD9115625 Si02
#       7
#     2   2   2   2   2   2   2
#     4  10  22  43  67  96 126 170 214 257 322 381
#     4  10  21  42  66  87 129 174 208 262 321 372
#     4  10  20  41  67  92 125 173 215 257 319 375
#     4  11  24  40  63  99 127 167 215 262 320 381
#     4  11  22  40  65  94 128 166 215 261 317 381
#     4  10  23  40  62  94 128 168 216 262 314 386
#     4  10  22  42  70  92 127 172 213 259 315 386
#
# _framework density 26.496517000000001
#
# number of rings (size 3 to 8) (size 9 to 14) (size 15 to 20)
#    0.000    1.714    2.857    0.857    4.000    1.143 
#    5.143    0.000    0.000    0.000    0.000    0.000 
#    0.000    0.000    0.000    0.000    0.000    0.000 
#
# Total GULP energy -78071.853508 kJ/mol
# GULP energy per Si atom -5576.560965 kJ/mol
# Density = 2.643621 g / cm^3
# Si number density = 26.496517 Si / 1000 Ang^3
#
#
#
# Elastic Constant Matrix: (Units=GPa)
#
#
# Indices 1 2 3 4 5 6 
#
# 1 124.0592 18.2778 48.0255 0.0000 -52.2805 0.0000
# 2 18.2778 92.4240 19.5954 0.0000 -10.4960 0.0000
# 3 48.0255 19.5954 80.1897 0.0000 -50.4029 0.0000
# 4 0.0000 0.0000 0.0000 25.8525 0.0000 0.7213
# 5 -52.2805 -10.4960 -50.4029 0.0000 59.1409 0.0000
# 6 0.0000 0.0000 0.0000 0.7213 0.0000 43.2044
#
#
#
# Elastic Compliance Matrix: (Units=1/GPa)
#
#
# Indices 1 2 3 4 5 6 
#
# 1 0.013023 -0.001192 -0.000873 0.000000 0.010557 0.000000
# 2 -0.001192 0.011536 -0.003189 0.000000 -0.001724 0.000000
# 3 -0.000873 -0.003189 0.027851 0.000000 0.022398 0.000000
# 4 0.000000 0.000000 0.000000 0.038699 0.000000 -0.000646
# 5 0.010557 -0.001724 0.022398 0.000000 0.045024 0.000000
# 6 0.000000 0.000000 0.000000 -0.000646 0.000000 0.023157
#
#
# Mechanical properties :
#
#
# Convention : Reuss Voigt Hill
#
# Bulk Modulus (GPa) = 23.86417 52.05225 37.95821
# Shear Modulus (GPa) = 27.20899 39.69118 33.45009
#
# Velocity S-wave (km/s) = 3.20799 3.87457 3.55693
# Velocity P-wave (km/s) = 4.76945 6.30111 5.58801
#
# Compressibility (1/GPa) = 0.04190383
#
# Stress axis : x y z
#
# Youngs Moduli (GPa) = 76.78747 86.68783 35.90574
#
# Poissons Ratio (x) = 0.10329 0.03133
# Poissons Ratio (y) = 0.09149 0.11449
# Poissons Ratio (z) = 0.06701 0.27641
#
# Static dielectric constant tensor:
#      x y z
#    x 2.184910 0.000000 0.095030 
#    y 0.000000 2.141330 0.000000 
#    z 0.095030 0.000000 2.134670 
# 
# From -- ./inp_files/3853.got.cif
#   From: 2010.05.17/outbox.cif.g08.bks.cpg/sg4_2_cif.got.tgz:3853.got - 2010.06.03 18:43:04.
