data_PCOD9115179
_publ_section_title
;
Structure prediction by ZEFSAII (Michael W. Deem and Ramdas Pophale) SiO2 
 PCOD9115179
Probable space group: P 21
;
_chemical_formula_sum "Si O2"
_cell_formula_units_Z 16
_cell_length_a 15.018628
_cell_length_b 7.480417
_cell_length_c 12.237180
_cell_angle_alpha 90.000000
_cell_angle_beta 139.923896
_cell_angle_gamma 90.000000
_cell_volume 885.098206
_symmetry_space_group_name_H-M "P 21"
_symmetry_group_IT_number 4
_symmetry_cell_setting 'monoclinic'
loop_
_space_group_symop_operation_xyz
x,y,z
-x,1/2+y,-z
loop_
_atom_site_type_symbol
_atom_site_label
_atom_site_fract_x
_atom_site_fract_y
_atom_site_fract_z
Si Si1 0.458469 0.245870 0.827229
Si Si2 0.167359 0.678986 0.148150
Si Si3 0.540541 0.752822 0.732709
Si Si4 0.080111 0.016751 0.194036
Si Si5 0.282022 0.314666 0.292205
Si Si6 0.554443 0.340080 0.685593
Si Si7 0.281622 0.931933 0.567118
Si Si8 0.588757 0.152833 0.177614
O O1 0.537703 0.553439 0.681601
O O2 0.546874 0.260116 0.799778
O O3 0.396840 0.442727 0.789536
O O4 0.548694 0.193674 0.016671
O O5 0.083495 0.823796 0.139513
O O6 0.211407 0.502533 0.257058
O O7 0.305239 0.776739 0.237445
O O8 0.069190 0.606335 0.959253
O O9 0.666545 0.837874 0.785024
O O10 0.398333 0.866086 0.587320
O O11 0.536830 0.723900 0.860531
O O12 0.145609 0.986861 0.374756
O O13 0.181948 0.150878 0.223797
O O14 0.421216 0.282020 0.491580
O O15 0.344249 0.097309 0.692988
O O16 0.283318 0.764913 0.652467
#
# Coordination Sequence:
#
# PCOD9115179 Si02
#       8
#     2   2   2   2   2   2   2   2
#     4  11  18  34  56  91 117 149 191 246 305 332
#     4  12  26  39  56  84 121 164 195 240 291 358
#     4   9  20  33  55  88 114 147 190 243 296 331
#     4  12  24  40  53  83 124 163 199 227 295 366
#     4  12  21  37  57  84 120 151 194 243 292 346
#     4  11  21  34  61  88 114 152 195 247 291 344
#     4  10  20  35  54  83 118 155 191 239 292 347
#     4   9  20  32  54  91 120 143 191 251 294 348
#
# _framework density 18.077092
#
# number of rings (size 3 to 8) (size 9 to 14) (size 15 to 20)
#    0.750    0.500    5.000    3.000    0.000    0.000 
#    0.000    0.000    0.000    0.000    6.500    0.000 
#    0.000    0.000    0.000    0.000    0.000    0.000 
#
# Total GULP energy -89156.350336 kJ/mol
# GULP energy per Si atom -5572.271896 kJ/mol
# Density = 1.803595 g / cm^3
# Si number density = 18.077092 Si / 1000 Ang^3
#
#
#
# Elastic Constant Matrix: (Units=GPa)
#
#
# Indices 1 2 3 4 5 6 
#
# 1 27.5259 13.4161 23.9396 0.0000 -6.0550 0.0000
# 2 13.4161 98.4969 35.6988 0.0000 -1.5533 0.0000
# 3 23.9396 35.6988 119.1717 0.0000 -0.1476 0.0000
# 4 0.0000 0.0000 0.0000 29.6681 0.0000 0.2113
# 5 -6.0550 -1.5533 -0.1476 0.0000 26.5822 0.0000
# 6 0.0000 0.0000 0.0000 0.2113 0.0000 23.3487
#
#
#
# Elastic Compliance Matrix: (Units=1/GPa)
#
#
# Indices 1 2 3 4 5 6 
#
# 1 0.047724 -0.003211 -0.008612 0.000000 0.010635 0.000000
# 2 -0.003211 0.011616 -0.002835 0.000000 -0.000068 0.000000
# 3 -0.008612 -0.002835 0.010968 0.000000 -0.002066 0.000000
# 4 0.000000 0.000000 0.000000 0.033708 0.000000 -0.000305
# 5 0.010635 -0.000068 -0.002066 0.000000 0.040026 0.000000
# 6 0.000000 0.000000 0.000000 -0.000305 0.000000 0.042832
#
#
# Mechanical properties :
#
#
# Convention : Reuss Voigt Hill
#
# Bulk Modulus (GPa) = 24.39490 43.47815 33.93652
# Shear Modulus (GPa) = 21.75292 27.39581 24.57436
#
# Velocity S-wave (km/s) = 3.47269 3.89716 3.69103
# Velocity P-wave (km/s) = 5.44092 6.65990 6.08103
#
# Compressibility (1/GPa) = 0.04099218
#
# Stress axis : x y z
#
# Youngs Moduli (GPa) = 20.95389 86.08547 91.17598
#
# Poissons Ratio (x) = 0.27646 0.78518
# Poissons Ratio (y) = 0.06729 0.25846
# Poissons Ratio (z) = 0.18045 0.24403
#
# Static dielectric constant tensor:
#      x y z
#    x 1.616030 0.000000 -0.006740 
#    y 0.000000 1.671270 0.000000 
#    z -0.006740 0.000000 1.621220 
# 
# From -- ./inp_files/12883.got.cif
#   From: 2010.05.17/outbox.cif.g08.bks.cpg/sg4_7_cif.got.tgz:12883.got - 2010.06.03 18:43:04.
