data_PCOD9115120
_publ_section_title
;
Structure prediction by ZEFSAII (Michael W. Deem and Ramdas Pophale) SiO2 
 PCOD9115120
Probable space group: P 21
;
_chemical_formula_sum "Si O2"
_cell_formula_units_Z 16
_cell_length_a 11.330346
_cell_length_b 5.059297
_cell_length_c 23.092253
_cell_angle_alpha 90.000000
_cell_angle_beta 147.524463
_cell_angle_gamma 90.000000
_cell_volume 710.763275
_symmetry_space_group_name_H-M "P 21"
_symmetry_group_IT_number 4
_symmetry_cell_setting 'monoclinic'
loop_
_space_group_symop_operation_xyz
x,y,z
-x,1/2+y,-z
loop_
_atom_site_type_symbol
_atom_site_label
_atom_site_fract_x
_atom_site_fract_y
_atom_site_fract_z
Si Si1 0.211057 0.202350 0.764127
Si Si2 0.865361 0.428472 0.542599
Si Si3 0.581384 0.211159 0.184490
Si Si4 0.558361 0.302303 0.714118
Si Si5 0.831694 0.840402 0.634383
Si Si6 0.141885 0.040302 0.067636
Si Si7 0.702272 0.306593 0.360699
Si Si8 0.539597 0.561709 0.589915
O O1 0.310895 0.493158 0.813189
O O2 0.065776 0.245434 0.645677
O O3 0.410211 0.998187 0.840359
O O4 0.024822 0.051623 0.724206
O O5 0.868653 0.665025 0.591206
O O6 0.870606 0.446908 0.475101
O O7 0.630557 0.279378 0.454843
O O8 0.350694 0.109989 0.113482
O O9 0.729592 0.259894 0.303795
O O10 0.763169 0.422336 0.833304
O O11 0.364463 0.512063 0.647441
O O12 0.575932 0.332937 0.652399
O O13 0.500315 0.015681 0.715391
O O14 0.774191 0.664460 0.665647
O O15 0.599853 0.975410 0.523603
O O16 0.004301 0.306243 0.019247
#
# Coordination Sequence:
#
# PCOD9115120 Si02
#       8
#     2   2   2   2   2   2   2   2
#     4  11  23  36  52  80 119 160 207 235 281 359
#     4  10  20  34  51  80 118 159 212 240 275 335
#     4  11  22  39  56  79 116 152 193 243 310 361
#     4  10  20  36  56  89 118 145 193 250 309 360
#     4  11  19  35  54  86 122 167 212 243 283 342
#     4  11  22  40  66  90 111 141 192 255 325 388
#     4  10  20  34  55  77 115 161 194 241 284 341
#     4  10  20  32  58  83 123 165 201 257 297 324
#
# _framework density 22.511009000000001
#
# number of rings (size 3 to 8) (size 9 to 14) (size 15 to 20)
#    0.000    1.500    3.750    3.750    0.000    1.000 
#    0.000    0.000    0.000    0.000    0.000    3.500 
#    0.000    0.000    0.000    0.000    0.000    0.000 
#
# Total GULP energy -89185.907909 kJ/mol
# GULP energy per Si atom -5574.119244 kJ/mol
# Density = 2.245977 g / cm^3
# Si number density = 22.511009 Si / 1000 Ang^3
#
#
#
# Elastic Constant Matrix: (Units=GPa)
#
#
# Indices 1 2 3 4 5 6 
#
# 1 65.6913 30.4058 10.0906 0.0000 13.5611 0.0000
# 2 30.4058 127.7043 11.2096 0.0000 15.4160 0.0000
# 3 10.0906 11.2096 51.0373 0.0000 22.0765 0.0000
# 4 0.0000 0.0000 0.0000 36.0573 0.0000 13.4130
# 5 13.5611 15.4160 22.0765 0.0000 20.0576 0.0000
# 6 0.0000 0.0000 0.0000 13.4130 0.0000 41.2958
#
#
#
# Elastic Compliance Matrix: (Units=1/GPa)
#
#
# Indices 1 2 3 4 5 6 
#
# 1 0.019041 -0.003147 0.002766 0.000000 -0.013499 0.000000
# 2 -0.003147 0.009245 0.001422 0.000000 -0.006543 0.000000
# 3 0.002766 0.001422 0.038205 0.000000 -0.045014 0.000000
# 4 0.000000 0.000000 0.000000 0.031545 0.000000 -0.010246
# 5 -0.013499 -0.006543 -0.045014 0.000000 0.113557 0.000000
# 6 0.000000 0.000000 0.000000 -0.010246 0.000000 0.027543
#
#
# Mechanical properties :
#
#
# Convention : Reuss Voigt Hill
#
# Bulk Modulus (GPa) = 14.58301 38.64945 26.61623
# Shear Modulus (GPa) = 19.23721 32.33058 25.78389
#
# Velocity S-wave (km/s) = 2.92647 3.79385 3.38803
# Velocity P-wave (km/s) = 4.23216 6.03303 5.21098
#
# Compressibility (1/GPa) = 0.06857295
#
# Stress axis : x y z
#
# Youngs Moduli (GPa) = 52.51783 108.16832 26.17434
#
# Poissons Ratio (x) = 0.34038 -0.07239
# Poissons Ratio (y) = 0.16526 -0.03722
# Poissons Ratio (z) = -0.14525 -0.15380
#
# Static dielectric constant tensor:
#      x y z
#    x 1.913830 0.000000 0.020720 
#    y 0.000000 1.914490 0.000000 
#    z 0.020720 0.000000 1.845660 
# 
# From -- ./inp_files/16113.got.cif
#   From: 2010.05.17/outbox.cif.g08.bks.cpg/sg4_9_cif.got.tgz:16113.got - 2010.06.03 18:43:04.
