data_PCOD9115429
_publ_section_title
;
Structure prediction by ZEFSAII (Michael W. Deem and Ramdas Pophale) SiO2 
 PCOD9115429
Probable space group: P 21
;
_chemical_formula_sum "Si O2"
_cell_formula_units_Z 16
_cell_length_a 10.341680
_cell_length_b 9.359787
_cell_length_c 7.549672
_cell_angle_alpha 90.000000
_cell_angle_beta 63.849336
_cell_angle_gamma 90.000000
_cell_volume 655.973771
_symmetry_space_group_name_H-M "P 21"
_symmetry_group_IT_number 4
_symmetry_cell_setting 'monoclinic'
loop_
_space_group_symop_operation_xyz
x,y,z
-x,1/2+y,-z
loop_
_atom_site_type_symbol
_atom_site_label
_atom_site_fract_x
_atom_site_fract_y
_atom_site_fract_z
Si Si1 0.761971 0.202920 0.954957
Si Si2 0.282630 0.451330 0.745401
Si Si3 0.549871 0.436251 0.960632
Si Si4 0.696468 0.562288 0.556117
Si Si5 0.296707 0.390514 0.361704
Si Si6 0.961507 0.442537 0.998857
Si Si7 0.024043 0.498728 0.358482
Si Si8 0.710585 0.629774 0.147208
O O1 0.627831 0.285544 0.952332
O O2 0.852033 0.322275 0.004941
O O3 0.710793 0.083542 0.125358
O O4 0.875776 0.136649 0.746365
O O5 0.344365 0.473902 0.511023
O O6 0.321159 0.296658 0.805364
O O7 0.111458 0.435304 0.809451
O O8 0.390110 0.433665 0.135388
O O9 0.629416 0.556612 0.033641
O O10 0.584564 0.471825 0.737040
O O11 0.672145 0.727095 0.613811
O O12 0.682233 0.550538 0.352870
O O13 0.860898 0.526950 0.517494
O O14 0.129142 0.407145 0.415791
O O15 0.880508 0.594116 0.019796
O O16 0.001746 0.427964 0.180075
#
# Coordination Sequence:
#
# PCOD9115429 Si02
#       8
#     2   2   2   2   2   2   2   2
#     4  10  22  41  67  99 133 175 231 282 346 405
#     4  10  20  38  66  95 135 169 228 293 323 416
#     4  11  26  45  68  96 144 187 219 281 346 422
#     4  10  24  45  71  96 141 179 231 292 332 413
#     4  11  26  43  64 107 133 181 233 270 362 407
#     4   9  18  38  65  96 129 171 219 282 345 401
#     4  10  23  41  68 100 132 169 231 287 339 404
#     4   9  21  43  67  97 131 181 230 271 353 406
#
# _framework density 24.391221000000002
#
# number of rings (size 3 to 8) (size 9 to 14) (size 15 to 20)
#    0.000    2.000    0.000    3.000   10.500    3.000 
#    6.750    0.000    0.000    0.000    0.000    0.000 
#    0.000    0.000    0.000    0.000    0.000    0.000 
#
# Total GULP energy -89550.645428 kJ/mol
# GULP energy per Si atom -5596.915339 kJ/mol
# Density = 2.433571 g / cm^3
# Si number density = 24.391221 Si / 1000 Ang^3
#
#
#
# Elastic Constant Matrix: (Units=GPa)
#
#
# Indices 1 2 3 4 5 6 
#
# 1 60.0940 14.3829 4.6785 0.0000 -20.6342 0.0000
# 2 14.3829 76.8798 20.9812 0.0000 -2.7643 0.0000
# 3 4.6785 20.9812 93.3716 0.0000 -19.3202 0.0000
# 4 0.0000 0.0000 0.0000 23.6081 0.0000 -0.0013
# 5 -20.6342 -2.7643 -19.3202 0.0000 34.2466 0.0000
# 6 0.0000 0.0000 0.0000 -0.0013 0.0000 32.5636
#
#
#
# Elastic Compliance Matrix: (Units=1/GPa)
#
#
# Indices 1 2 3 4 5 6 
#
# 1 0.022617 -0.004505 0.002970 0.000000 0.014939 0.000000
# 2 -0.004505 0.014770 -0.003859 0.000000 -0.003699 0.000000
# 3 0.002970 -0.003859 0.013285 0.000000 0.008973 0.000000
# 4 0.000000 0.000000 0.000000 0.042358 0.000000 0.000002
# 5 0.014939 -0.003699 0.008973 0.000000 0.042964 0.000000
# 6 0.000000 0.000000 0.000000 0.000002 0.000000 0.030709
#
#
# Mechanical properties :
#
#
# Convention : Reuss Voigt Hill
#
# Bulk Modulus (GPa) = 25.07167 34.49229 29.78198
# Shear Modulus (GPa) = 26.20747 30.77052 28.48899
#
# Velocity S-wave (km/s) = 3.28146 3.55567 3.42131
# Velocity P-wave (km/s) = 4.96574 5.57037 5.27672
#
# Compressibility (1/GPa) = 0.03988566
#
# Stress axis : x y z
#
# Youngs Moduli (GPa) = 44.21439 67.70434 75.27452
#
# Poissons Ratio (x) = 0.30499 -0.22358
# Poissons Ratio (y) = 0.19917 0.29045
# Poissons Ratio (z) = -0.13132 0.26124
#
# Static dielectric constant tensor:
#      x y z
#    x 1.962300 0.000000 -0.016790 
#    y 0.000000 1.924020 0.000000 
#    z -0.016790 0.000000 1.952060 
# 
# From -- ./inp_files/7831.got.cif
#   From: 2010.05.17/outbox.cif.g08.bks.cpg/sg4_4_cif.got.tgz:7831.got - 2010.06.03 18:43:04.
