data_PCOD9115241
_publ_section_title
;
Structure prediction by ZEFSAII (Michael W. Deem and Ramdas Pophale) SiO2 
 PCOD9115241
Probable space group: P 21
;
_chemical_formula_sum "Si O2"
_cell_formula_units_Z 16
_cell_length_a 8.027892
_cell_length_b 13.534828
_cell_length_c 8.744757
_cell_angle_alpha 90.000000
_cell_angle_beta 52.190763
_cell_angle_gamma 90.000000
_cell_volume 750.688891
_symmetry_space_group_name_H-M "P 21"
_symmetry_group_IT_number 4
_symmetry_cell_setting 'monoclinic'
loop_
_space_group_symop_operation_xyz
x,y,z
-x,1/2+y,-z
loop_
_atom_site_type_symbol
_atom_site_label
_atom_site_fract_x
_atom_site_fract_y
_atom_site_fract_z
Si Si1 0.992187 0.055780 0.216404
Si Si2 0.542602 0.336065 0.370602
Si Si3 0.766905 0.520449 0.203051
Si Si4 0.123692 0.607661 0.225793
Si Si5 0.550707 0.988959 0.371368
Si Si6 0.507900 0.655162 0.801187
Si Si7 0.869078 0.929791 0.563452
Si Si8 0.963410 0.726467 0.604478
O O1 0.797297 0.011632 0.229682
O O2 0.933914 0.162292 0.319334
O O3 0.005569 0.982797 0.354510
O O4 0.189335 0.058700 0.991280
O O5 0.746310 0.400570 0.205517
O O6 0.501189 0.374007 0.567467
O O7 0.548498 0.224582 0.312292
O O8 0.334347 0.379700 0.400934
O O9 0.550731 0.539447 0.418442
O O10 0.944781 0.565995 0.212670
O O11 0.200725 0.514272 0.281047
O O12 0.031332 0.684202 0.401016
O O13 0.312293 0.653836 0.024225
O O14 0.451682 0.044734 0.284274
O O15 0.716873 0.698423 0.758470
O O16 0.989285 0.843329 0.585524
#
# Coordination Sequence:
#
# PCOD9115241 Si02
#       8
#     2   2   2   2   2   2   2   2
#     4  10  20  36  60  81 112 154 185 237 285 331
#     4   8  20  36  57  79 115 149 185 229 282 336
#     4  10  20  37  58  84 111 149 188 233 284 328
#     4  11  22  37  61  87 113 152 191 236 282 338
#     4   9  19  37  55  84 117 142 186 237 280 333
#     4  11  20  37  59  86 114 149 193 233 282 339
#     4   9  21  40  55  83 118 148 192 234 283 340
#     4  10  22  38  57  84 118 149 188 237 284 341
#
# _framework density 21.313753999999999
#
# number of rings (size 3 to 8) (size 9 to 14) (size 15 to 20)
#    0.750    1.500    2.500    0.000    3.500    1.000 
#    0.000    1.250    0.000    0.000    0.000    0.000 
#    0.000    0.000    0.000    0.000    0.000    0.000 
#
# Total GULP energy -89113.869101 kJ/mol
# GULP energy per Si atom -5569.616819 kJ/mol
# Density = 2.126524 g / cm^3
# Si number density = 21.313754 Si / 1000 Ang^3
#
#
#
# Elastic Constant Matrix: (Units=GPa)
#
#
# Indices 1 2 3 4 5 6 
#
# 1 35.0804 0.9688 -6.2930 0.0000 -5.7206 0.0000
# 2 0.9688 40.2627 6.9071 0.0000 -4.6666 0.0000
# 3 -6.2930 6.9071 77.5584 0.0000 -14.4918 0.0000
# 4 0.0000 0.0000 0.0000 15.4375 0.0000 -2.5332
# 5 -5.7206 -4.6666 -14.4918 0.0000 17.6702 0.0000
# 6 0.0000 0.0000 0.0000 -2.5332 0.0000 20.7344
#
#
#
# Elastic Compliance Matrix: (Units=1/GPa)
#
#
# Indices 1 2 3 4 5 6 
#
# 1 0.031856 0.000022 0.005327 0.000000 0.014688 0.000000
# 2 0.000022 0.025716 -0.001202 0.000000 0.005813 0.000000
# 3 0.005327 -0.001202 0.016174 0.000000 0.014672 0.000000
# 4 0.000000 0.000000 0.000000 0.066102 0.000000 0.008076
# 5 0.014688 0.005813 0.014672 0.000000 0.074916 0.000000
# 6 0.000000 0.000000 0.000000 0.008076 0.000000 0.049216
#
#
# Mechanical properties :
#
#
# Convention : Reuss Voigt Hill
#
# Bulk Modulus (GPa) = 12.18908 17.34081 14.76495
# Shear Modulus (GPa) = 17.66575 20.85635 19.26105
#
# Velocity S-wave (km/s) = 2.88209 3.13155 3.00941
# Velocity P-wave (km/s) = 4.09958 4.60751 4.36094
#
# Compressibility (1/GPa) = 0.08204063
#
# Stress axis : x y z
#
# Youngs Moduli (GPa) = 31.39110 38.88584 61.82639
#
# Poissons Ratio (x) = -0.00086 -0.32937
# Poissons Ratio (y) = -0.00069 0.07434
# Poissons Ratio (z) = -0.16723 0.04675
#
# Static dielectric constant tensor:
#      x y z
#    x 1.825090 0.000000 0.016950 
#    y 0.000000 1.825770 0.000000 
#    z 0.016950 0.000000 1.737620 
# 
# From -- ./inp_files/6601.got.cif
#   From: 2010.05.17/outbox.cif.g08.bks.cpg/sg4_4_cif.got.tgz:6601.got - 2010.06.03 18:43:04.
