data_PCOD9115252
_publ_section_title
;
Structure prediction by ZEFSAII (Michael W. Deem and Ramdas Pophale) SiO2 
 PCOD9115252
Probable space group: P 21
;
_chemical_formula_sum "Si O2"
_cell_formula_units_Z 14
_cell_length_a 9.211044
_cell_length_b 5.240082
_cell_length_c 14.056446
_cell_angle_alpha 90.000000
_cell_angle_beta 56.928307
_cell_angle_gamma 90.000000
_cell_volume 568.539291
_symmetry_space_group_name_H-M "P 21"
_symmetry_group_IT_number 4
_symmetry_cell_setting 'monoclinic'
loop_
_space_group_symop_operation_xyz
x,y,z
-x,1/2+y,-z
loop_
_atom_site_type_symbol
_atom_site_label
_atom_site_fract_x
_atom_site_fract_y
_atom_site_fract_z
Si Si1 0.740920 0.766260 0.258018
Si Si2 0.469954 0.096503 0.446414
Si Si3 0.478286 0.121891 0.074075
Si Si4 0.100591 0.168811 0.297887
Si Si5 0.726987 0.411131 0.110670
Si Si6 0.097906 0.161931 0.591949
Si Si7 0.019643 0.124808 0.109694
O O1 0.638828 0.572488 0.226281
O O2 0.813928 0.669837 0.333231
O O3 0.618675 0.009329 0.320955
O O4 0.912709 0.862035 0.144385
O O5 0.525185 0.351203 0.483320
O O6 0.278496 0.131749 0.469953
O O7 0.301599 0.128048 0.199677
O O8 0.626358 0.181400 0.098616
O O9 0.493203 0.363060 0.995642
O O10 0.033975 0.427159 0.371122
O O11 0.025191 0.191332 0.217940
O O12 0.007549 0.924793 0.378515
O O13 0.902860 0.322264 0.097031
O O14 0.792211 0.588077 0.000911
#
# Coordination Sequence:
#
# PCOD9115252 Si02
#       7
#     2   2   2   2   2   2   2
#     4  10  22  35  59  96 130 167 206 270 329 375
#     4  10  20  36  60  98 135 164 208 272 333 383
#     4  12  28  43  61  91 132 182 221 262 312 386
#     4  11  22  41  61  91 126 170 218 259 317 381
#     4  12  24  38  61  91 136 174 217 264 319 384
#     4  10  20  38  63  91 127 164 211 267 320 381
#     4  11  22  37  59  90 128 173 209 262 316 382
#
# _framework density 24.624506
#
# number of rings (size 3 to 8) (size 9 to 14) (size 15 to 20)
#    0.000    1.143    4.286    3.429    8.000    0.000 
#    0.000    0.000    0.000    0.000    3.714    0.000 
#    0.000    0.000    0.000    0.000    0.000    0.000 
#
# Total GULP energy -78254.385402 kJ/mol
# GULP energy per Si atom -5589.598957 kJ/mol
# Density = 2.456846 g / cm^3
# Si number density = 24.624506 Si / 1000 Ang^3
#
#
#
# Elastic Constant Matrix: (Units=GPa)
#
#
# Indices 1 2 3 4 5 6 
#
# 1 51.0185 25.4506 29.6192 0.0000 -15.4614 0.0000
# 2 25.4506 141.8049 23.5187 0.0000 -12.2033 0.0000
# 3 29.6192 23.5187 85.8562 0.0000 -18.5063 0.0000
# 4 0.0000 0.0000 0.0000 27.3094 0.0000 -11.0317
# 5 -15.4614 -12.2033 -18.5063 0.0000 44.7583 0.0000
# 6 0.0000 0.0000 0.0000 -11.0317 0.0000 24.8956
#
#
#
# Elastic Compliance Matrix: (Units=1/GPa)
#
#
# Indices 1 2 3 4 5 6 
#
# 1 0.027078 -0.003180 -0.007291 0.000000 0.005472 0.000000
# 2 -0.003180 0.007830 -0.000905 0.000000 0.000662 0.000000
# 3 -0.007291 -0.000905 0.015166 0.000000 0.003505 0.000000
# 4 0.000000 0.000000 0.000000 0.044601 0.000000 0.019764
# 5 0.005472 0.000662 0.003505 0.000000 0.025862 0.000000
# 6 0.000000 0.000000 0.000000 0.019764 0.000000 0.048925
#
#
# Mechanical properties :
#
#
# Convention : Reuss Voigt Hill
#
# Bulk Modulus (GPa) = 36.59998 48.42850 42.51424
# Shear Modulus (GPa) = 24.83579 32.73207 28.78393
#
# Velocity S-wave (km/s) = 3.17926 3.64984 3.42265
# Velocity P-wave (km/s) = 5.32658 6.12138 5.73776
#
# Compressibility (1/GPa) = 0.02732242
#
# Stress axis : x y z
#
# Youngs Moduli (GPa) = 36.93008 127.71842 65.93610
#
# Poissons Ratio (x) = 0.40611 0.48074
# Poissons Ratio (y) = 0.11743 0.05968
# Poissons Ratio (z) = 0.26926 0.11560
#
# Static dielectric constant tensor:
#      x y z
#    x 1.967700 0.000000 0.048850 
#    y 0.000000 1.971000 0.000000 
#    z 0.048850 0.000000 2.054850 
# 
# From -- ./inp_files/12508.got.cif
#   From: 2010.05.17/outbox.cif.g08.bks.cpg/sg4_7_cif.got.tgz:12508.got - 2010.06.03 18:43:04.
