data_PCOD9115051
_publ_section_title
;
Structure prediction by ZEFSAII (Michael W. Deem and Ramdas Pophale) SiO2 
 PCOD9115051
Probable space group: P 21
;
_chemical_formula_sum "Si O2"
_cell_formula_units_Z 16
_cell_length_a 10.715989
_cell_length_b 11.466816
_cell_length_c 5.324341
_cell_angle_alpha 90.000000
_cell_angle_beta 96.367528
_cell_angle_gamma 90.000000
_cell_volume 650.209747
_symmetry_space_group_name_H-M "P 21"
_symmetry_group_IT_number 4
_symmetry_cell_setting 'monoclinic'
loop_
_space_group_symop_operation_xyz
x,y,z
-x,1/2+y,-z
loop_
_atom_site_type_symbol
_atom_site_label
_atom_site_fract_x
_atom_site_fract_y
_atom_site_fract_z
Si Si1 0.602576 0.633630 0.169753
Si Si2 0.553157 0.259288 0.478706
Si Si3 0.341945 0.571634 0.834773
Si Si4 0.746772 0.433079 0.482119
Si Si5 0.340854 0.337360 0.102279
Si Si6 0.120200 0.746059 0.860639
Si Si7 0.972725 0.424816 0.823235
Si Si8 0.902039 0.873761 0.655142
O O1 0.558975 0.724194 0.369781
O O2 0.470050 0.598412 0.017098
O O3 0.674455 0.529982 0.313630
O O4 0.688286 0.707743 0.001820
O O5 0.648302 0.352986 0.611868
O O6 0.623619 0.139105 0.416658
O O7 0.483900 0.323821 0.231280
O O8 0.214524 0.638270 0.889736
O O9 0.329046 0.435323 0.885842
O O10 0.851249 0.487711 0.685960
O O11 0.808175 0.344501 0.291824
O O12 0.241052 0.368176 0.294612
O O13 0.087045 0.796513 0.127796
O O14 0.981085 0.751921 0.703580
O O15 0.069274 0.419095 0.615396
O O16 0.032451 0.452059 0.106976
#
# Coordination Sequence:
#
# PCOD9115051 Si02
#       8
#     2   2   2   2   2   2   2   2
#     4  11  24  38  63  98 130 174 214 281 344 393
#     4  10  23  39  64  97 127 172 214 279 331 405
#     4  10  21  42  64  94 128 173 221 271 338 401
#     4  10  19  40  64  95 130 172 225 269 332 399
#     4  11  24  41  64  96 141 162 225 277 343 391
#     4   8  19  39  67  90 128 173 222 267 322 399
#     4   9  19  40  69  92 128 174 221 270 315 398
#     4   9  21  41  67  96 134 172 222 270 329 390
#
# _framework density 24.607444999999998
#
# number of rings (size 3 to 8) (size 9 to 14) (size 15 to 20)
#    0.750    1.500    1.250    0.750    3.500    2.000 
#    4.500    0.000    5.500    0.000    0.000    0.000 
#    0.000    0.000    0.000    0.000    0.000    0.000 
#
# Total GULP energy -89217.843447 kJ/mol
# GULP energy per Si atom -5576.115215 kJ/mol
# Density = 2.455144 g / cm^3
# Si number density = 24.607445 Si / 1000 Ang^3
#
#
#
# Elastic Constant Matrix: (Units=GPa)
#
#
# Indices 1 2 3 4 5 6 
#
# 1 82.0358 43.0222 16.0630 0.0000 0.4257 0.0000
# 2 43.0222 72.8550 16.7178 0.0000 0.1703 0.0000
# 3 16.0630 16.7178 85.1933 0.0000 -5.7827 0.0000
# 4 0.0000 0.0000 0.0000 11.0248 0.0000 3.5533
# 5 0.4257 0.1703 -5.7827 0.0000 40.1425 0.0000
# 6 0.0000 0.0000 0.0000 3.5533 0.0000 32.9077
#
#
#
# Elastic Compliance Matrix: (Units=1/GPa)
#
#
# Indices 1 2 3 4 5 6 
#
# 1 0.017811 -0.010200 -0.001380 0.000000 -0.000344 0.000000
# 2 -0.010200 0.020224 -0.002064 0.000000 -0.000275 0.000000
# 3 -0.001380 -0.002064 0.012527 0.000000 0.001828 0.000000
# 4 0.000000 0.000000 0.000000 0.093975 0.000000 -0.010147
# 5 -0.000344 -0.000275 0.001828 0.000000 0.025179 0.000000
# 6 0.000000 0.000000 0.000000 -0.010147 0.000000 0.031484
#
#
# Mechanical properties :
#
#
# Convention : Reuss Voigt Hill
#
# Bulk Modulus (GPa) = 42.96730 43.52113 43.24421
# Shear Modulus (GPa) = 21.16431 27.76708 24.46569
#
# Velocity S-wave (km/s) = 2.93589 3.36281 3.15658
# Velocity P-wave (km/s) = 5.38438 5.72735 5.55851
#
# Compressibility (1/GPa) = 0.02327351
#
# Stress axis : x y z
#
# Youngs Moduli (GPa) = 56.14449 49.44707 79.82567
#
# Poissons Ratio (x) = 0.50438 0.11016
# Poissons Ratio (y) = 0.57269 0.16476
# Poissons Ratio (z) = 0.07748 0.10206
#
# Static dielectric constant tensor:
#      x y z
#    x 1.989350 0.000000 0.032030 
#    y 0.000000 1.960250 0.000000 
#    z 0.032030 0.000000 2.047630 
# 
# From -- ./inp_files/2979.got.cif
#   From: 2010.05.17/outbox.cif.g08.bks.cpg/sg4_2_cif.got.tgz:2979.got - 2010.06.03 18:43:04.
