data_PCOD9115462
_publ_section_title
;
Structure prediction by ZEFSAII (Michael W. Deem and Ramdas Pophale) SiO2 
 PCOD9115462
Probable space group: P 21
;
_chemical_formula_sum "Si O2"
_cell_formula_units_Z 14
_cell_length_a 16.982567
_cell_length_b 5.803467
_cell_length_c 5.114098
_cell_angle_alpha 90.000000
_cell_angle_beta 101.677194
_cell_angle_gamma 90.000000
_cell_volume 493.602314
_symmetry_space_group_name_H-M "P 21"
_symmetry_group_IT_number 4
_symmetry_cell_setting 'monoclinic'
loop_
_space_group_symop_operation_xyz
x,y,z
-x,1/2+y,-z
loop_
_atom_site_type_symbol
_atom_site_label
_atom_site_fract_x
_atom_site_fract_y
_atom_site_fract_z
Si Si1 0.527532 0.717350 0.902194
Si Si2 0.390990 0.682843 0.454869
Si Si3 0.669258 0.445816 0.083824
Si Si4 0.189151 0.673516 0.934945
Si Si5 0.247746 0.421384 0.473116
Si Si6 0.043828 0.930978 0.713081
Si Si7 0.101430 0.166555 0.253146
O O1 0.484573 0.687151 0.591788
O O2 0.622975 0.679878 0.989228
O O3 0.494921 0.476729 0.018132
O O4 0.342696 0.447681 0.486024
O O5 0.370266 0.770266 0.154255
O O6 0.352298 0.858433 0.641595
O O7 0.763202 0.409240 0.103618
O O8 0.211529 0.604830 0.241876
O O9 0.224547 0.493173 0.750273
O O10 0.095320 0.709591 0.837032
O O11 0.196145 0.199879 0.360709
O O12 0.069037 0.977709 0.434093
O O13 0.075653 0.119092 0.940095
O O14 0.950127 0.886364 0.686090
#
# Coordination Sequence:
#
# PCOD9115462 Si02
#       7
#     2   2   2   2   2   2   2
#     4  10  22  42  66  96 132 174 222 274 332 394
#     4   9  20  38  61  89 123 164 206 256 321 388
#     4   9  20  38  61  89 123 164 206 256 321 388
#     4  10  20  39  62  86 119 155 197 252 313 374
#     4  10  20  39  62  86 119 155 197 252 313 374
#     4  12  24  39  59  86 118 157 204 252 310 374
#     4  12  24  39  59  86 118 157 204 252 310 374
#
# _framework density 28.362914
#
# number of rings (size 3 to 8) (size 9 to 14) (size 15 to 20)
#    0.000    1.714    0.000    4.286    0.000    5.714 
#    0.000    7.143    0.000    0.000    0.000    0.000 
#    0.000    0.000    0.000    0.000    0.000    0.000 
#
# Total GULP energy -78398.223794 kJ/mol
# GULP energy per Si atom -5599.873128 kJ/mol
# Density = 2.829836 g / cm^3
# Si number density = 28.362914 Si / 1000 Ang^3
#
#
#
# Elastic Constant Matrix: (Units=GPa)
#
#
# Indices 1 2 3 4 5 6 
#
# 1 70.8849 34.3697 39.5001 0.0000 0.2460 0.0000
# 2 34.3697 98.2101 52.0024 0.0000 -7.4068 0.0000
# 3 39.5001 52.0024 120.8088 0.0000 10.0099 0.0000
# 4 0.0000 0.0000 0.0000 65.3532 0.0000 -1.3502
# 5 0.2460 -7.4068 10.0099 0.0000 39.2080 0.0000
# 6 0.0000 0.0000 0.0000 -1.3502 0.0000 53.1124
#
#
#
# Elastic Compliance Matrix: (Units=1/GPa)
#
#
# Indices 1 2 3 4 5 6 
#
# 1 0.018522 -0.004215 -0.004256 0.000000 0.000174 0.000000
# 2 -0.004215 0.014800 -0.005339 0.000000 0.004186 0.000000
# 3 -0.004256 -0.005339 0.012309 0.000000 -0.004125 0.000000
# 4 0.000000 0.000000 0.000000 0.015310 0.000000 0.000389
# 5 0.000174 0.004186 -0.004125 0.000000 0.027348 0.000000
# 6 0.000000 0.000000 0.000000 0.000389 0.000000 0.018838
#
#
# Mechanical properties :
#
#
# Convention : Reuss Voigt Hill
#
# Bulk Modulus (GPa) = 55.52378 60.18313 57.85345
# Shear Modulus (GPa) = 35.52353 42.47017 38.99685
#
# Velocity S-wave (km/s) = 3.54286 3.87380 3.71202
# Velocity P-wave (km/s) = 6.02947 6.42444 6.23009
#
# Compressibility (1/GPa) = 0.01801030
#
# Stress axis : x y z
#
# Youngs Moduli (GPa) = 53.98892 67.56605 81.24015
#
# Poissons Ratio (x) = 0.28482 0.34576
# Poissons Ratio (y) = 0.22758 0.43377
# Poissons Ratio (z) = 0.22978 0.36076
#
# Static dielectric constant tensor:
#      x y z
#    x 2.191490 0.000000 -0.020220 
#    y 0.000000 2.270720 0.000000 
#    z -0.020220 0.000000 2.110040 
# 
# From -- ./inp_files/3999.got.cif
#   From: 2010.05.17/outbox.cif.g08.bks.cpg/sg4_2_cif.got.tgz:3999.got - 2010.06.03 18:43:04.
