data_PCOD9115480
_publ_section_title
;
Structure prediction by ZEFSAII (Michael W. Deem and Ramdas Pophale) SiO2 
 PCOD9115480
Probable space group: P 21
;
_chemical_formula_sum "Si O2"
_cell_formula_units_Z 14
_cell_length_a 13.161942
_cell_length_b 5.052959
_cell_length_c 10.823530
_cell_angle_alpha 90.000000
_cell_angle_beta 53.703569
_cell_angle_gamma 90.000000
_cell_volume 580.164218
_symmetry_space_group_name_H-M "P 21"
_symmetry_group_IT_number 4
_symmetry_cell_setting 'monoclinic'
loop_
_space_group_symop_operation_xyz
x,y,z
-x,1/2+y,-z
loop_
_atom_site_type_symbol
_atom_site_label
_atom_site_fract_x
_atom_site_fract_y
_atom_site_fract_z
Si Si1 0.085725 0.833060 0.434490
Si Si2 0.552408 0.788265 0.803000
Si Si3 0.525106 0.498307 0.400385
Si Si4 0.899508 0.145399 0.321913
Si Si5 0.979786 0.131695 0.855264
Si Si6 0.337321 0.784137 0.147176
Si Si7 0.804627 0.393526 0.154799
O O1 0.156357 0.737019 0.508613
O O2 0.015447 0.350703 0.215330
O O3 0.188358 0.827832 0.253287
O O4 0.025437 0.119161 0.492823
O O5 0.549781 0.877200 0.662826
O O6 0.602648 0.496891 0.799972
O O7 0.636640 0.992144 0.820356
O O8 0.413852 0.814420 0.965002
O O9 0.482956 0.778970 0.485273
O O10 0.669581 0.524576 0.250367
O O11 0.808837 0.203051 0.272367
O O12 0.951555 0.852467 0.276279
O O13 0.078903 0.091600 0.898918
O O14 0.849626 0.227185 0.005334
#
# Coordination Sequence:
#
# PCOD9115480 Si02
#       7
#     2   2   2   2   2   2   2
#     4  12  26  42  64 102 127 161 218 275 331 379
#     4  10  23  45  72  92 128 179 222 273 311 388
#     4  12  29  41  64 104 135 171 222 268 326 384
#     4  10  22  37  64  92 128 170 195 266 328 385
#     4  10  20  39  64  93 120 173 210 243 326 390
#     4  10  23  47  70  94 127 178 224 261 335 379
#     4  10  23  41  64  95 129 172 213 256 325 393
#
# _framework density 24.131098999999999
#
# number of rings (size 3 to 8) (size 9 to 14) (size 15 to 20)
#    0.857    0.571    1.429    2.571    6.000    2.286 
#    0.000    0.000    0.000    0.000    0.000    0.000 
#    0.000    0.000    0.000    0.000    0.000    0.000 
#
# Total GULP energy -78280.147150 kJ/mol
# GULP energy per Si atom -5591.439082 kJ/mol
# Density = 2.407618 g / cm^3
# Si number density = 24.131099 Si / 1000 Ang^3
#
#
#
# Elastic Constant Matrix: (Units=GPa)
#
#
# Indices 1 2 3 4 5 6 
#
# 1 45.0388 -10.8333 12.8798 0.0000 -14.0929 0.0000
# 2 -10.8333 88.9625 6.4897 0.0000 -6.4772 0.0000
# 3 12.8798 6.4897 87.5532 0.0000 -8.1490 0.0000
# 4 0.0000 0.0000 0.0000 36.5013 0.0000 3.9218
# 5 -14.0929 -6.4772 -8.1490 0.0000 52.4797 0.0000
# 6 0.0000 0.0000 0.0000 3.9218 0.0000 21.0195
#
#
#
# Elastic Compliance Matrix: (Units=1/GPa)
#
#
# Indices 1 2 3 4 5 6 
#
# 1 0.026365 0.003979 -0.003520 0.000000 0.007024 0.000000
# 2 0.003979 0.011988 -0.001255 0.000000 0.002353 0.000000
# 3 -0.003520 -0.001255 0.012105 0.000000 0.000780 0.000000
# 4 0.000000 0.000000 0.000000 0.027957 0.000000 -0.005216
# 5 0.007024 0.002353 0.000780 0.000000 0.021353 0.000000
# 6 0.000000 0.000000 0.000000 -0.005216 0.000000 0.048548
#
#
# Mechanical properties :
#
#
# Convention : Reuss Voigt Hill
#
# Bulk Modulus (GPa) = 20.46408 26.51411 23.48909
# Shear Modulus (GPa) = 30.08506 36.20132 33.14319
#
# Velocity S-wave (km/s) = 3.53474 3.87744 3.71005
# Velocity P-wave (km/s) = 5.01577 5.57292 5.30167
#
# Compressibility (1/GPa) = 0.04886611
#
# Stress axis : x y z
#
# Youngs Moduli (GPa) = 37.92969 83.41633 82.61081
#
# Poissons Ratio (x) = -0.33189 0.29075
# Poissons Ratio (y) = -0.15091 0.10367
# Poissons Ratio (z) = 0.13350 0.10468
#
# Static dielectric constant tensor:
#      x y z
#    x 1.973310 0.000000 0.067870 
#    y 0.000000 1.847850 0.000000 
#    z 0.067870 0.000000 1.957860 
# 
# From -- ./inp_files/8999.got.cif
#   From: 2010.05.17/outbox.cif.g08.bks.cpg/sg4_5_cif.got.tgz:8999.got - 2010.06.03 18:43:04.
