data_PCOD9115729
_publ_section_title
;
Structure prediction by ZEFSAII (Michael W. Deem and Ramdas Pophale) SiO2 
 PCOD9115729
Probable space group: P 21
;
_chemical_formula_sum "Si O2"
_cell_formula_units_Z 16
_cell_length_a 15.771885
_cell_length_b 5.905093
_cell_length_c 15.438318
_cell_angle_alpha 90.000000
_cell_angle_beta 153.110660
_cell_angle_gamma 90.000000
_cell_volume 650.289791
_symmetry_space_group_name_H-M "P 21"
_symmetry_group_IT_number 4
_symmetry_cell_setting 'monoclinic'
loop_
_space_group_symop_operation_xyz
x,y,z
-x,1/2+y,-z
loop_
_atom_site_type_symbol
_atom_site_label
_atom_site_fract_x
_atom_site_fract_y
_atom_site_fract_z
Si Si1 0.759530 0.248120 0.200876
Si Si2 0.844398 0.754148 0.504685
Si Si3 0.470813 0.570281 0.850210
Si Si4 0.970696 0.086619 0.771274
Si Si5 0.125658 0.701519 0.002624
Si Si6 0.709328 0.924799 0.995898
Si Si7 0.767257 0.482086 0.591066
Si Si8 0.548526 0.137969 0.583950
O O1 0.660458 0.199087 0.200925
O O2 0.985976 0.253290 0.409440
O O3 0.656216 0.467598 0.065778
O O4 0.715220 0.041946 0.094713
O O5 0.806333 0.528771 0.525107
O O6 0.654578 0.862210 0.297027
O O7 0.925612 0.908538 0.656107
O O8 0.538600 0.748557 0.840005
O O9 0.779274 0.215043 0.619184
O O10 0.112178 0.267753 0.860648
O O11 0.076302 0.963889 0.945463
O O12 0.260988 0.623078 0.046636
O O13 0.235862 0.643145 0.189056
O O14 0.929469 0.578620 0.803288
O O15 0.582411 0.608042 0.450647
O O16 0.495856 0.391867 0.501369
#
# Coordination Sequence:
#
# PCOD9115729 Si02
#       8
#     2   2   2   2   2   2   2   2
#     4  12  24  46  58 102 143 192 248 309 381 435
#     4  11  25  42  68 106 134 192 258 307 358 462
#     4  12  27  39  69  94 152 193 243 320 383 428
#     4  10  20  43  75 102 137 181 252 302 362 437
#     4  10  24  46  77 105 146 196 243 308 367 452
#     4  11  21  43  69  98 137 194 243 303 366 450
#     4  10  25  46  76 106 145 195 246 302 378 449
#     4  12  32  51  76 119 160 193 251 311 387 475
#
# _framework density 24.604417000000002
#
# number of rings (size 3 to 8) (size 9 to 14) (size 15 to 20)
#    0.000    1.000    6.250    0.000   12.250    3.000 
#    0.000    0.000    0.000    0.000    0.000    0.000 
#    0.000    0.000    0.000    0.000    0.000    0.000 
#
# Total GULP energy -89401.329185 kJ/mol
# GULP energy per Si atom -5587.583074 kJ/mol
# Density = 2.454842 g / cm^3
# Si number density = 24.604417 Si / 1000 Ang^3
#
#
#
# Elastic Constant Matrix: (Units=GPa)
#
#
# Indices 1 2 3 4 5 6 
#
# 1 51.3087 13.4405 8.1213 0.0000 11.9055 0.0000
# 2 13.4405 101.2421 18.6776 0.0000 3.5165 0.0000
# 3 8.1213 18.6776 89.1616 0.0000 9.8436 0.0000
# 4 0.0000 0.0000 0.0000 33.9401 0.0000 12.7672
# 5 11.9055 3.5165 9.8436 0.0000 23.2853 0.0000
# 6 0.0000 0.0000 0.0000 12.7672 0.0000 30.2148
#
#
#
# Elastic Compliance Matrix: (Units=1/GPa)
#
#
# Indices 1 2 3 4 5 6 
#
# 1 0.022799 -0.002583 -0.000306 0.000000 -0.011138 0.000000
# 2 -0.002583 0.010577 -0.002045 0.000000 0.000588 0.000000
# 3 -0.000306 -0.002045 0.012189 0.000000 -0.004688 0.000000
# 4 0.000000 0.000000 0.000000 0.035032 0.000000 -0.014803
# 5 -0.011138 0.000588 -0.004688 0.000000 0.050533 0.000000
# 6 0.000000 0.000000 0.000000 -0.014803 0.000000 0.039351
#
#
# Mechanical properties :
#
#
# Convention : Reuss Voigt Hill
#
# Bulk Modulus (GPa) = 28.01387 35.79903 31.90645
# Shear Modulus (GPa) = 26.00776 30.91958 28.46367
#
# Velocity S-wave (km/s) = 3.25474 3.54880 3.40494
# Velocity P-wave (km/s) = 5.05320 5.60119 5.33424
#
# Compressibility (1/GPa) = 0.03569660
#
# Stress axis : x y z
#
# Youngs Moduli (GPa) = 43.86084 94.54311 82.03827
#
# Poissons Ratio (x) = 0.24425 0.02510
# Poissons Ratio (y) = 0.11331 0.16780
# Poissons Ratio (z) = 0.01342 0.19337
#
# Static dielectric constant tensor:
#      x y z
#    x 1.965730 0.000000 0.029010 
#    y 0.000000 2.030810 0.000000 
#    z 0.029010 0.000000 1.971460 
# 
# From -- ./inp_files/14109.got.cif
#   From: 2010.05.17/outbox.cif.g08.bks.cpg/sg4_8_cif.got.tgz:14109.got - 2010.06.03 18:43:04.
