data_PCOD9115443
_publ_section_title
;
Structure prediction by ZEFSAII (Michael W. Deem and Ramdas Pophale) SiO2 
 PCOD9115443
Probable space group: P 21
;
_chemical_formula_sum "Si O2"
_cell_formula_units_Z 16
_cell_length_a 7.911959
_cell_length_b 17.471770
_cell_length_c 7.224720
_cell_angle_alpha 90.000000
_cell_angle_beta 38.898453
_cell_angle_gamma 90.000000
_cell_volume 627.135687
_symmetry_space_group_name_H-M "P 21"
_symmetry_group_IT_number 4
_symmetry_cell_setting 'monoclinic'
loop_
_space_group_symop_operation_xyz
x,y,z
-x,1/2+y,-z
loop_
_atom_site_type_symbol
_atom_site_label
_atom_site_fract_x
_atom_site_fract_y
_atom_site_fract_z
Si Si1 0.266221 0.087530 0.505161
Si Si2 0.684423 0.294200 0.779622
Si Si3 0.755392 0.520697 0.844648
Si Si4 0.160026 0.193439 0.292766
Si Si5 0.690067 0.004924 0.497204
Si Si6 0.159906 0.630383 0.872288
Si Si7 0.964319 0.305014 0.938289
Si Si8 0.474828 0.878528 0.437795
O O1 0.227027 0.019918 0.392012
O O2 0.117920 0.160303 0.535422
O O3 0.575783 0.113112 0.230357
O O4 0.097725 0.081309 0.836607
O O5 0.841616 0.313532 0.835696
O O6 0.579725 0.359806 0.729672
O O7 0.895995 0.242964 0.482401
O O8 0.420059 0.246041 0.055779
O O9 0.776706 0.613273 0.864167
O O10 0.011077 0.479044 0.711406
O O11 0.490046 0.492745 0.170345
O O12 0.723964 0.093862 0.415633
O O13 0.568047 0.962683 0.423345
O O14 0.086762 0.718656 0.944424
O O15 0.279303 0.325343 0.694399
O O16 0.791672 0.359111 0.220095
#
# Coordination Sequence:
#
# PCOD9115443 Si02
#       8
#     2   2   2   2   2   2   2   2
#     4  10  20  40  66 106 132 170 228 302 351 418
#     4  12  23  46  70 106 148 179 243 301 361 428
#     4  10  22  41  70  94 136 179 227 285 358 413
#     4  10  20  38  70 104 135 170 234 306 355 410
#     4  12  26  46  63 104 149 182 235 298 356 442
#     4  12  23  42  72 104 143 173 248 301 358 417
#     4  12  24  47  76 105 136 198 242 303 358 433
#     4  12  30  46  69 105 151 193 241 290 371 443
#
# _framework density 25.512820999999999
#
# number of rings (size 3 to 8) (size 9 to 14) (size 15 to 20)
#    0.750    0.000    2.500    5.250    5.250    0.000 
#    6.750    0.000    0.000    0.000    0.000    0.000 
#    0.000    0.000    0.000    0.000    0.000    0.000 
#
# Total GULP energy -89464.484279 kJ/mol
# GULP energy per Si atom -5591.530267 kJ/mol
# Density = 2.545475 g / cm^3
# Si number density = 25.512821 Si / 1000 Ang^3
#
#
#
# Elastic Constant Matrix: (Units=GPa)
#
#
# Indices 1 2 3 4 5 6 
#
# 1 54.9513 -11.5525 12.2970 0.0000 20.5913 0.0000
# 2 -11.5525 85.4283 2.3485 0.0000 -0.5040 0.0000
# 3 12.2970 2.3485 136.0417 0.0000 -0.9148 0.0000
# 4 0.0000 0.0000 0.0000 27.6122 0.0000 -6.4812
# 5 20.5913 -0.5040 -0.9148 0.0000 40.0402 0.0000
# 6 0.0000 0.0000 0.0000 -6.4812 0.0000 32.6630
#
#
#
# Elastic Compliance Matrix: (Units=1/GPa)
#
#
# Indices 1 2 3 4 5 6 
#
# 1 0.024032 0.003240 -0.002311 0.000000 -0.012371 0.000000
# 2 0.003240 0.012149 -0.000513 0.000000 -0.001525 0.000000
# 3 -0.002311 -0.000513 0.007578 0.000000 0.001355 0.000000
# 4 0.000000 0.000000 0.000000 0.037985 0.000000 0.007537
# 5 -0.012371 -0.001525 0.001355 0.000000 0.031349 0.000000
# 6 0.000000 0.000000 0.000000 0.007537 0.000000 0.032111
#
#
# Mechanical properties :
#
#
# Convention : Reuss Voigt Hill
#
# Bulk Modulus (GPa) = 22.42608 31.40080 26.91344
# Shear Modulus (GPa) = 31.40014 38.28497 34.84256
#
# Velocity S-wave (km/s) = 3.51202 3.87798 3.69953
# Velocity P-wave (km/s) = 5.02543 5.69089 5.36848
#
# Compressibility (1/GPa) = 0.04459094
#
# Stress axis : x y z
#
# Youngs Moduli (GPa) = 41.61107 82.31109 131.96814
#
# Poissons Ratio (x) = -0.26672 0.30503
# Poissons Ratio (y) = -0.13484 0.06769
# Poissons Ratio (z) = 0.09618 0.04222
#
# Static dielectric constant tensor:
#      x y z
#    x 2.196650 0.000000 0.034170 
#    y 0.000000 2.045260 0.000000 
#    z 0.034170 0.000000 1.917150 
# 
# From -- ./inp_files/6921.got.cif
#   From: 2010.05.17/outbox.cif.g08.bks.cpg/sg4_4_cif.got.tgz:6921.got - 2010.06.03 18:43:04.
