data_PCOD9115098
_publ_section_title
;
Structure prediction by ZEFSAII (Michael W. Deem and Ramdas Pophale) SiO2 
 PCOD9115098
Probable space group: P 21
;
_chemical_formula_sum "Si O2"
_cell_formula_units_Z 14
_cell_length_a 6.402984
_cell_length_b 11.310622
_cell_length_c 8.996958
_cell_angle_alpha 90.000000
_cell_angle_beta 105.237232
_cell_angle_gamma 90.000000
_cell_volume 628.669745
_symmetry_space_group_name_H-M "P 21"
_symmetry_group_IT_number 4
_symmetry_cell_setting 'monoclinic'
loop_
_space_group_symop_operation_xyz
x,y,z
-x,1/2+y,-z
loop_
_atom_site_type_symbol
_atom_site_label
_atom_site_fract_x
_atom_site_fract_y
_atom_site_fract_z
Si Si1 0.369790 0.348730 0.740608
Si Si2 0.045448 0.540424 0.539335
Si Si3 0.474752 0.428877 0.096400
Si Si4 0.886729 0.091597 0.999580
Si Si5 0.729550 0.502909 0.729670
Si Si6 0.845077 0.613351 0.211920
Si Si7 0.365184 0.688765 0.766583
O O1 0.195054 0.432331 0.624941
O O2 0.602465 0.379297 0.713205
O O3 0.285310 0.216182 0.728999
O O4 0.402681 0.385842 0.919194
O O5 0.171033 0.657829 0.618598
O O6 0.818048 0.529783 0.582832
O O7 0.000967 0.550355 0.358461
O O8 0.272202 0.503409 0.115916
O O9 0.676849 0.516701 0.121085
O O10 0.542717 0.319409 0.209618
O O11 0.022137 0.163724 0.903759
O O12 0.737527 0.161440 0.089430
O O13 0.059148 0.016951 0.128276
O O14 0.557724 0.599648 0.757425
#
# Coordination Sequence:
#
# PCOD9115098 Si02
#       7
#     2   2   2   2   2   2   2
#     4  11  23  45  69 100 137 177 230 281 331 407
#     4  10  25  46  68  96 138 183 218 281 351 399
#     4  12  23  42  69 107 132 171 237 282 325 411
#     4  11  21  44  71 103 133 178 226 280 340 403
#     4  10  19  47  69  93 134 180 224 278 342 397
#     4  12  28  43  69 108 135 179 231 277 344 404
#     4  10  23  43  69  99 133 176 228 279 337 405
#
# _framework density 22.269245000000002
#
# number of rings (size 3 to 8) (size 9 to 14) (size 15 to 20)
#    0.000    1.143    5.714    1.714    2.000    8.000 
#    5.143    0.000    0.000    0.000    0.000    0.000 
#    0.000    0.000    0.000    0.000    0.000    0.000 
#
# Total GULP energy -78252.867656 kJ/mol
# GULP energy per Si atom -5589.490547 kJ/mol
# Density = 2.221856 g / cm^3
# Si number density = 22.269245 Si / 1000 Ang^3
#
#
#
# Elastic Constant Matrix: (Units=GPa)
#
#
# Indices 1 2 3 4 5 6 
#
# 1 97.1140 10.3192 16.4608 0.0000 -5.9136 0.0000
# 2 10.3192 49.5674 -5.8693 0.0000 13.4145 0.0000
# 3 16.4608 -5.8693 78.1190 0.0000 4.6678 0.0000
# 4 0.0000 0.0000 0.0000 18.9420 0.0000 7.9223
# 5 -5.9136 13.4145 4.6678 0.0000 26.1462 0.0000
# 6 0.0000 0.0000 0.0000 7.9223 0.0000 32.6001
#
#
#
# Elastic Compliance Matrix: (Units=1/GPa)
#
#
# Indices 1 2 3 4 5 6 
#
# 1 0.011593 -0.004223 -0.003079 0.000000 0.005338 0.000000
# 2 -0.004223 0.025461 0.003680 0.000000 -0.014675 0.000000
# 3 -0.003079 0.003680 0.014030 0.000000 -0.005089 0.000000
# 4 0.000000 0.000000 0.000000 0.058766 0.000000 -0.014281
# 5 0.005338 -0.014675 -0.005089 0.000000 0.047891 0.000000
# 6 0.000000 0.000000 0.000000 -0.014281 0.000000 0.034145
#
#
# Mechanical properties :
#
#
# Convention : Reuss Voigt Hill
#
# Bulk Modulus (GPa) = 22.81036 29.62463 26.21749
# Shear Modulus (GPa) = 23.39249 29.13029 26.26139
#
# Velocity S-wave (km/s) = 3.24456 3.62068 3.43777
# Velocity P-wave (km/s) = 4.92965 5.55076 5.24940
#
# Compressibility (1/GPa) = 0.04383974
#
# Stress axis : x y z
#
# Youngs Moduli (GPa) = 86.26022 39.27598 71.27419
#
# Poissons Ratio (x) = 0.16585 0.21945
# Poissons Ratio (y) = 0.36425 -0.26226
# Poissons Ratio (z) = 0.26560 -0.14452
#
# Static dielectric constant tensor:
#      x y z
#    x 1.816620 0.000000 -0.005230 
#    y 0.000000 1.830120 0.000000 
#    z -0.005230 0.000000 1.799530 
# 
# From -- ./inp_files/1109.got.cif
#   From: 2010.05.17/outbox.cif.g08.bks.cpg/sg4_1_cif.got.tgz:1109.got - 2010.06.03 18:43:04.
