data_PCOD9115863
_publ_section_title
;
Structure prediction by ZEFSAII (Michael W. Deem and Ramdas Pophale) SiO2 
 PCOD9115863
Probable space group: P 21
;
_chemical_formula_sum "Si O2"
_cell_formula_units_Z 16
_cell_length_a 19.960754
_cell_length_b 4.999548
_cell_length_c 23.736209
_cell_angle_alpha 90.000000
_cell_angle_beta 15.829644
_cell_angle_gamma 90.000000
_cell_volume 646.142726
_symmetry_space_group_name_H-M "P 21"
_symmetry_group_IT_number 4
_symmetry_cell_setting 'monoclinic'
loop_
_space_group_symop_operation_xyz
x,y,z
-x,1/2+y,-z
loop_
_atom_site_type_symbol
_atom_site_label
_atom_site_fract_x
_atom_site_fract_y
_atom_site_fract_z
Si Si1 0.743670 0.198130 0.491428
Si Si2 0.713798 0.299027 0.873770
Si Si3 0.110043 0.482723 0.057484
Si Si4 0.565572 0.176125 0.751537
Si Si5 0.453739 0.688100 0.686720
Si Si6 0.860474 0.357665 0.869524
Si Si7 0.386246 0.808027 0.162513
Si Si8 0.426703 0.926092 0.527539
O O1 0.759985 0.140511 0.544835
O O2 0.653179 0.493580 0.554204
O O3 0.995826 0.131675 0.256981
O O4 0.545016 0.989562 0.625029
O O5 0.798406 0.257930 0.740827
O O6 0.878695 0.222547 0.793673
O O7 0.607770 0.595067 0.972587
O O8 0.485086 0.100700 0.068530
O O9 0.856185 0.331625 0.251719
O O10 0.342099 0.334503 0.899903
O O11 0.211132 0.619616 0.918804
O O12 0.029582 0.708136 0.166920
O O13 0.670870 0.287958 0.725074
O O14 0.422795 0.907172 0.885102
O O15 0.456702 0.578984 0.620781
O O16 0.428405 0.159856 0.572953
#
# Coordination Sequence:
#
# PCOD9115863 Si02
#       8
#     2   2   2   2   2   2   2   2
#     4  11  23  36  64  95 127 155 213 261 304 360
#     4   9  18  30  54  86 118 164 206 255 307 369
#     4  11  23  40  69  89 126 162 213 250 312 377
#     4  10  21  37  62  93 123 167 211 261 312 364
#     4  11  24  44  64  95 124 160 204 257 306 375
#     4  11  20  36  63  91 124 164 212 258 310 366
#     4   9  17  32  53  84 123 158 209 255 308 363
#     4  12  28  45  67  93 127 162 198 255 317 376
#
# _framework density 24.762329999999999
#
# number of rings (size 3 to 8) (size 9 to 14) (size 15 to 20)
#    0.000    1.500    3.750    1.500    1.750    1.000 
#    0.000    0.000    0.000   15.000    0.000    0.000 
#    0.000    0.000    0.000    0.000    0.000    0.000 
#
# Total GULP energy -89310.810619 kJ/mol
# GULP energy per Si atom -5581.925664 kJ/mol
# Density = 2.470597 g / cm^3
# Si number density = 24.762330 Si / 1000 Ang^3
#
#
#
# Elastic Constant Matrix: (Units=GPa)
#
#
# Indices 1 2 3 4 5 6 
#
# 1 116.7430 11.3742 25.1981 0.0000 25.1288 0.0000
# 2 11.3742 53.8804 4.0580 0.0000 -5.6229 0.0000
# 3 25.1981 4.0580 69.8152 0.0000 24.9686 0.0000
# 4 0.0000 0.0000 0.0000 22.9407 0.0000 -4.3658
# 5 25.1288 -5.6229 24.9686 0.0000 31.3621 0.0000
# 6 0.0000 0.0000 0.0000 -4.3658 0.0000 29.4786
#
#
#
# Elastic Compliance Matrix: (Units=1/GPa)
#
#
# Indices 1 2 3 4 5 6 
#
# 1 0.010905 -0.003180 -0.000590 0.000000 -0.008838 0.000000
# 2 -0.003180 0.020377 -0.003152 0.000000 0.008711 0.000000
# 3 -0.000590 -0.003152 0.020625 0.000000 -0.016513 0.000000
# 4 0.000000 0.000000 0.000000 0.044855 0.000000 0.006643
# 5 -0.008838 0.008711 -0.016513 0.000000 0.053675 0.000000
# 6 0.000000 0.000000 0.000000 0.006643 0.000000 0.034907
#
#
# Mechanical properties :
#
#
# Convention : Reuss Voigt Hill
#
# Bulk Modulus (GPa) = 26.27195 35.74434 31.00814
# Shear Modulus (GPa) = 23.59850 30.07684 26.83767
#
# Velocity S-wave (km/s) = 3.09042 3.48892 3.29570
# Velocity P-wave (km/s) = 4.83394 5.54043 5.19920
#
# Compressibility (1/GPa) = 0.03806341
#
# Stress axis : x y z
#
# Youngs Moduli (GPa) = 91.69716 49.07406 48.48385
#
# Poissons Ratio (x) = 0.15606 0.02862
# Poissons Ratio (y) = 0.29160 0.15282
# Poissons Ratio (z) = 0.05414 0.15468
#
# Static dielectric constant tensor:
#      x y z
#    x 2.065280 0.000000 -0.007010 
#    y 0.000000 1.978630 0.000000 
#    z -0.007010 0.000000 1.936950 
# 
# From -- ./inp_files/15862.got.cif
#   From: 2010.05.17/outbox.cif.g08.bks.cpg/sg4_8_cif.got.tgz:15862.got - 2010.06.03 18:43:04.
