data_PCOD9115448
_publ_section_title
;
Structure prediction by ZEFSAII (Michael W. Deem and Ramdas Pophale) SiO2 
 PCOD9115448
Probable space group: P 21
;
_chemical_formula_sum "Si O2"
_cell_formula_units_Z 16
_cell_length_a 29.110990
_cell_length_b 5.044244
_cell_length_c 23.403729
_cell_angle_alpha 90.000000
_cell_angle_beta 10.844009
_cell_angle_gamma 90.000000
_cell_volume 646.560940
_symmetry_space_group_name_H-M "P 21"
_symmetry_group_IT_number 4
_symmetry_cell_setting 'monoclinic'
loop_
_space_group_symop_operation_xyz
x,y,z
-x,1/2+y,-z
loop_
_atom_site_type_symbol
_atom_site_label
_atom_site_fract_x
_atom_site_fract_y
_atom_site_fract_z
Si Si1 0.027780 0.745780 0.298585
Si Si2 0.526000 0.920120 0.270648
Si Si3 0.036720 0.110110 0.916468
Si Si4 0.580555 0.560244 0.768505
Si Si5 0.353977 0.485221 0.155912
Si Si6 0.785413 0.575759 0.035167
Si Si7 0.311733 0.564991 0.438141
Si Si8 0.431529 0.350870 0.553974
O O1 0.813200 0.592585 0.526801
O O2 0.903520 0.893023 0.503486
O O3 0.257760 0.558718 0.029008
O O4 0.115588 0.954742 0.144321
O O5 0.654107 0.840143 0.173939
O O6 0.420319 0.666377 0.365337
O O7 0.291580 0.097149 0.571936
O O8 0.970716 0.395049 0.022749
O O9 0.830169 0.989022 0.128385
O O10 0.589980 0.278629 0.727316
O O11 0.612953 0.782579 0.680183
O O12 0.358009 0.574862 0.085038
O O13 0.470406 0.728075 0.049640
O O14 0.575392 0.401013 0.319929
O O15 0.017092 0.591923 0.794047
O O16 0.427930 0.046372 0.574450
#
# Coordination Sequence:
#
# PCOD9115448 Si02
#       8
#     2   2   2   2   2   2   2   2
#     4  10  23  40  76 104 144 190 244 290 366 429
#     4  12  26  44  73 106 144 191 248 297 366 437
#     4  12  26  46  70 101 146 192 239 302 367 427
#     4  10  21  43  67 104 145 184 232 299 353 424
#     4  10  20  38  72 111 141 190 247 292 358 442
#     4  11  24  47  69 101 144 187 238 306 353 431
#     4  11  25  42  71 104 143 186 237 295 362 421
#     4  12  27  46  72 101 139 188 243 297 363 431
#
# _framework density 24.746314000000002
#
# number of rings (size 3 to 8) (size 9 to 14) (size 15 to 20)
#    0.000    1.000    2.500    4.500    5.250    2.000 
#    0.000    0.000    2.750    0.000    0.000    0.000 
#    0.000    0.000    0.000    0.000    0.000    0.000 
#
# Total GULP energy -89592.819665 kJ/mol
# GULP energy per Si atom -5599.551229 kJ/mol
# Density = 2.468999 g / cm^3
# Si number density = 24.746314 Si / 1000 Ang^3
#
#
#
# Elastic Constant Matrix: (Units=GPa)
#
#
# Indices 1 2 3 4 5 6 
#
# 1 55.5718 28.4750 49.9889 0.0000 5.0245 0.0000
# 2 28.4750 73.0412 37.9520 0.0000 -10.5663 0.0000
# 3 49.9889 37.9520 140.2814 0.0000 19.7148 0.0000
# 4 0.0000 0.0000 0.0000 39.8782 0.0000 5.6504
# 5 5.0245 -10.5663 19.7148 0.0000 47.4388 0.0000
# 6 0.0000 0.0000 0.0000 5.6504 0.0000 51.8739
#
#
#
# Elastic Compliance Matrix: (Units=1/GPa)
#
#
# Indices 1 2 3 4 5 6 
#
# 1 0.029309 -0.007307 -0.008286 0.000000 -0.001288 0.000000
# 2 -0.007307 0.019331 -0.003547 0.000000 0.006554 0.000000
# 3 -0.008286 -0.003547 0.011713 0.000000 -0.004780 0.000000
# 4 0.000000 0.000000 0.000000 0.025469 0.000000 -0.002774
# 5 -0.001288 0.006554 -0.004780 0.000000 0.024662 0.000000
# 6 0.000000 0.000000 0.000000 -0.002774 0.000000 0.019580
#
#
# Mechanical properties :
#
#
# Convention : Reuss Voigt Hill
#
# Bulk Modulus (GPa) = 45.30632 55.74734 50.52683
# Shear Modulus (GPa) = 28.45731 38.00341 33.23036
#
# Velocity S-wave (km/s) = 3.39479 3.92308 3.66845
# Velocity P-wave (km/s) = 5.80639 6.56484 6.19723
#
# Compressibility (1/GPa) = 0.02207197
#
# Stress axis : x y z
#
# Youngs Moduli (GPa) = 34.11902 51.73168 85.37715
#
# Poissons Ratio (x) = 0.37800 0.70747
# Poissons Ratio (y) = 0.24930 0.30283
# Poissons Ratio (z) = 0.28272 0.18349
#
# Static dielectric constant tensor:
#      x y z
#    x 1.999890 0.000000 -0.031910 
#    y 0.000000 1.941520 0.000000 
#    z -0.031910 0.000000 1.977170 
# 
# From -- ./inp_files/16241.got.cif
#   From: 2010.05.17/outbox.cif.g08.bks.cpg/sg4_9_cif.got.tgz:16241.got - 2010.06.03 18:43:04.
