data_PCOD9115196
_publ_section_title
;
Structure prediction by ZEFSAII (Michael W. Deem and Ramdas Pophale) SiO2 
 PCOD9115196
Probable space group: P 21
;
_chemical_formula_sum "Si O2"
_cell_formula_units_Z 16
_cell_length_a 8.009370
_cell_length_b 7.359979
_cell_length_c 20.511024
_cell_angle_alpha 90.000000
_cell_angle_beta 142.887436
_cell_angle_gamma 90.000000
_cell_volume 729.550318
_symmetry_space_group_name_H-M "P 21"
_symmetry_group_IT_number 4
_symmetry_cell_setting 'monoclinic'
loop_
_space_group_symop_operation_xyz
x,y,z
-x,1/2+y,-z
loop_
_atom_site_type_symbol
_atom_site_label
_atom_site_fract_x
_atom_site_fract_y
_atom_site_fract_z
Si Si1 0.706037 0.551920 0.100031
Si Si2 0.785029 0.104700 0.284025
Si Si3 0.258787 0.672313 0.131525
Si Si4 0.856080 0.917046 0.093823
Si Si5 0.899437 0.736228 0.741666
Si Si6 0.774091 0.760259 0.360833
Si Si7 0.716908 0.478445 0.951478
Si Si8 0.304104 0.627411 0.599526
O O1 0.780146 0.763636 0.124312
O O2 0.963319 0.431443 0.202617
O O3 0.417006 0.465689 0.033235
O O4 0.659467 0.520689 0.008075
O O5 0.484490 0.099309 0.155921
O O6 0.756350 0.198277 0.345629
O O7 0.002494 0.178791 0.299961
O O8 0.856864 0.896869 0.327527
O O9 0.531595 0.633263 0.257921
O O10 0.088235 0.822677 0.121192
O O11 0.335009 0.777217 0.089681
O O12 0.042873 0.517262 0.048584
O O13 0.965688 0.096357 0.163873
O O14 0.573324 0.719094 0.652423
O O15 0.034239 0.661702 0.472408
O O16 0.656151 0.910265 0.375795
#
# Coordination Sequence:
#
# PCOD9115196 Si02
#       8
#     2   2   2   2   2   2   2   2
#     4  11  23  34  63  96 134 174 214 259 330 405
#     4   9  21  43  63  93 131 161 220 272 315 410
#     4  10  21  36  59  90 126 170 208 271 331 390
#     4  11  20  38  56  92 132 171 215 260 322 396
#     4  12  21  43  69  91 136 175 212 277 335 379
#     4   9  21  43  63  89 128 169 218 281 320 386
#     4  10  20  35  58  94 128 163 213 259 326 410
#     4  10  23  44  67  89 129 175 216 279 335 364
#
# _framework density 21.931315999999999
#
# number of rings (size 3 to 8) (size 9 to 14) (size 15 to 20)
#    0.750    1.000    3.750    0.750    3.500    2.000 
#    2.250    1.250    0.000    0.000    0.000    0.000 
#    0.000    0.000    0.000    0.000    0.000    0.000 
#
# Total GULP energy -89284.717507 kJ/mol
# GULP energy per Si atom -5580.294844 kJ/mol
# Density = 2.188140 g / cm^3
# Si number density = 21.931316 Si / 1000 Ang^3
#
#
#
# Elastic Constant Matrix: (Units=GPa)
#
#
# Indices 1 2 3 4 5 6 
#
# 1 78.4906 0.6296 38.4387 0.0000 2.9524 0.0000
# 2 0.6296 47.3661 12.0606 0.0000 -4.3656 0.0000
# 3 38.4387 12.0606 164.1290 0.0000 0.7595 0.0000
# 4 0.0000 0.0000 0.0000 28.6510 0.0000 4.4051
# 5 2.9524 -4.3656 0.7595 0.0000 24.0661 0.0000
# 6 0.0000 0.0000 0.0000 4.4051 0.0000 20.6543
#
#
#
# Elastic Compliance Matrix: (Units=1/GPa)
#
#
# Indices 1 2 3 4 5 6 
#
# 1 0.014470 0.000534 -0.003421 0.000000 -0.001570 0.000000
# 2 0.000534 0.021917 -0.001754 0.000000 0.003966 0.000000
# 3 -0.003421 -0.001754 0.007023 0.000000 -0.000120 0.000000
# 4 0.000000 0.000000 0.000000 0.036086 0.000000 -0.007696
# 5 -0.001570 0.003966 -0.000120 0.000000 0.042468 0.000000
# 6 0.000000 0.000000 0.000000 -0.007696 0.000000 0.050058
#
#
# Mechanical properties :
#
#
# Convention : Reuss Voigt Hill
#
# Bulk Modulus (GPa) = 29.30040 43.58262 36.44151
# Shear Modulus (GPa) = 25.94963 30.59806 28.27384
#
# Velocity S-wave (km/s) = 3.44353 3.73926 3.59444
# Velocity P-wave (km/s) = 5.40367 6.20952 5.82056
#
# Compressibility (1/GPa) = 0.03412923
#
# Stress axis : x y z
#
# Youngs Moduli (GPa) = 69.10619 45.62638 142.38152
#
# Poissons Ratio (x) = -0.02436 0.48708
# Poissons Ratio (y) = -0.03690 0.24973
# Poissons Ratio (z) = 0.23641 0.08003
#
# Static dielectric constant tensor:
#      x y z
#    x 1.910670 0.000000 0.042910 
#    y 0.000000 1.839200 0.000000 
#    z 0.042910 0.000000 1.778020 
# 
# From -- ./inp_files/16087.got.cif
#   From: 2010.05.17/outbox.cif.g08.bks.cpg/sg4_9_cif.got.tgz:16087.got - 2010.06.03 18:43:04.
