data_PCOD9115079
_publ_section_title
;
Structure prediction by ZEFSAII (Michael W. Deem and Ramdas Pophale) SiO2 
 PCOD9115079
Probable space group: P 21
;
_chemical_formula_sum "Si O2"
_cell_formula_units_Z 16
_cell_length_a 12.797190
_cell_length_b 9.856126
_cell_length_c 8.845907
_cell_angle_alpha 90.000000
_cell_angle_beta 44.859548
_cell_angle_gamma 90.000000
_cell_volume 787.011384
_symmetry_space_group_name_H-M "P 21"
_symmetry_group_IT_number 4
_symmetry_cell_setting 'monoclinic'
loop_
_space_group_symop_operation_xyz
x,y,z
-x,1/2+y,-z
loop_
_atom_site_type_symbol
_atom_site_label
_atom_site_fract_x
_atom_site_fract_y
_atom_site_fract_z
Si Si1 0.153439 0.924460 0.241158
Si Si2 0.435729 0.051612 0.066304
Si Si3 0.395241 0.234921 0.831533
Si Si4 0.462331 0.757278 0.612875
Si Si5 0.747013 0.644637 0.459678
Si Si6 0.990871 0.153211 0.596396
Si Si7 0.235819 0.993140 0.853760
Si Si8 0.307119 0.534211 0.985511
O O1 0.088239 0.789005 0.381887
O O2 0.330873 0.940547 0.091333
O O3 0.073500 0.056379 0.392155
O O4 0.132976 0.917255 0.080366
O O5 0.351833 0.072186 0.311024
O O6 0.602865 0.028225 0.947550
O O7 0.433143 0.182461 0.959902
O O8 0.526117 0.216480 0.575272
O O9 0.268420 0.134185 0.904258
O O10 0.340691 0.388028 0.881721
O O11 0.631397 0.748641 0.500872
O O12 0.371108 0.651481 0.809667
O O13 0.384329 0.902460 0.695790
O O14 0.801286 0.536929 0.277894
O O15 0.885632 0.699631 0.409478
O O16 0.862650 0.065812 0.807186
#
# Coordination Sequence:
#
# PCOD9115079 Si02
#       8
#     2   2   2   2   2   2   2   2
#     4  10  23  43  64  90 130 170 209 267 321 381
#     4   9  21  38  63  91 126 162 212 264 308 366
#     4  10  21  35  62  93 126 161 209 264 315 370
#     4  10  19  41  66  91 124 161 215 265 317 375
#     4   9  21  40  63  90 132 166 198 262 322 373
#     4  11  24  44  63  95 134 169 208 265 326 389
#     4  10  20  42  64  91 126 167 209 266 313 375
#     4  11  23  39  65  95 124 170 216 259 320 383
#
# _framework density 20.330075999999998
#
# number of rings (size 3 to 8) (size 9 to 14) (size 15 to 20)
#    0.000    2.000    1.250    2.250    7.000    1.000 
#    4.500    1.250    0.000    0.000    0.000    0.000 
#    0.000    0.000    0.000    0.000    0.000    0.000 
#
# Total GULP energy -89133.830132 kJ/mol
# GULP energy per Si atom -5570.864383 kJ/mol
# Density = 2.028380 g / cm^3
# Si number density = 20.330076 Si / 1000 Ang^3
#
#
#
# Elastic Constant Matrix: (Units=GPa)
#
#
# Indices 1 2 3 4 5 6 
#
# 1 40.4109 9.6485 15.0225 0.0000 1.0674 0.0000
# 2 9.6485 80.5207 2.2723 0.0000 0.7025 0.0000
# 3 15.0225 2.2723 87.7423 0.0000 11.3826 0.0000
# 4 0.0000 0.0000 0.0000 33.9709 0.0000 0.2392
# 5 1.0674 0.7025 11.3826 0.0000 36.0431 0.0000
# 6 0.0000 0.0000 0.0000 0.2392 0.0000 19.8901
#
#
#
# Elastic Compliance Matrix: (Units=1/GPa)
#
#
# Indices 1 2 3 4 5 6 
#
# 1 0.027212 -0.003135 -0.004673 0.000000 0.000731 0.000000
# 2 -0.003135 0.012790 0.000235 0.000000 -0.000231 0.000000
# 3 -0.004673 0.000235 0.012694 0.000000 -0.003875 0.000000
# 4 0.000000 0.000000 0.000000 0.029439 0.000000 -0.000354
# 5 0.000731 -0.000231 -0.003875 0.000000 0.028951 0.000000
# 6 0.000000 0.000000 0.000000 -0.000354 0.000000 0.050280
#
#
# Mechanical properties :
#
#
# Convention : Reuss Voigt Hill
#
# Bulk Modulus (GPa) = 26.63035 29.17339 27.90187
# Shear Modulus (GPa) = 26.45100 30.09620 28.27360
#
# Velocity S-wave (km/s) = 3.61096 3.85174 3.73329
# Velocity P-wave (km/s) = 5.52384 5.84485 5.68661
#
# Compressibility (1/GPa) = 0.03755113
#
# Stress axis : x y z
#
# Youngs Moduli (GPa) = 36.74834 78.18469 78.77985
#
# Poissons Ratio (x) = 0.24513 0.36811
# Poissons Ratio (y) = 0.11522 -0.01855
# Poissons Ratio (z) = 0.17171 -0.01841
#
# Static dielectric constant tensor:
#      x y z
#    x 1.766710 0.000000 0.032010 
#    y 0.000000 1.733190 0.000000 
#    z 0.032010 0.000000 1.758120 
# 
# From -- ./inp_files/5652.got.cif
#   From: 2010.05.17/outbox.cif.g08.bks.cpg/sg4_3_cif.got.tgz:5652.got - 2010.06.03 18:43:04.
