data_PCOD9115924
_publ_section_title
;
Structure prediction by ZEFSAII (Michael W. Deem and Ramdas Pophale) SiO2 
 PCOD9115924
Probable space group: P 21
;
_chemical_formula_sum "Si O2"
_cell_formula_units_Z 16
_cell_length_a 13.510888
_cell_length_b 8.676789
_cell_length_c 12.203761
_cell_angle_alpha 90.000000
_cell_angle_beta 31.319041
_cell_angle_gamma 90.000000
_cell_volume 743.661747
_symmetry_space_group_name_H-M "P 21"
_symmetry_group_IT_number 4
_symmetry_cell_setting 'monoclinic'
loop_
_space_group_symop_operation_xyz
x,y,z
-x,1/2+y,-z
loop_
_atom_site_type_symbol
_atom_site_label
_atom_site_fract_x
_atom_site_fract_y
_atom_site_fract_z
Si Si1 0.196014 0.009210 0.911099
Si Si2 0.420864 0.872983 0.904883
Si Si3 0.027361 0.252365 0.801430
Si Si4 0.697946 0.481587 0.433699
Si Si5 0.685445 0.051061 0.082247
Si Si6 0.047282 0.276998 0.187356
Si Si7 0.157098 0.337996 0.445936
Si Si8 0.865711 0.563291 0.689893
O O1 0.296648 0.970972 0.702314
O O2 0.332176 0.948336 0.879288
O O3 0.131285 0.181900 0.003306
O O4 0.004807 0.905033 0.098833
O O5 0.388688 0.688472 0.926016
O O6 0.643720 0.904487 0.703046
O O7 0.309542 0.956596 0.108044
O O8 0.215418 0.152827 0.632157
O O9 0.026096 0.302057 0.675385
O O10 0.850227 0.139675 0.995798
O O11 0.491126 0.483523 0.683078
O O12 0.846898 0.359460 0.346732
O O13 0.802145 0.909339 0.922340
O O14 0.049192 0.155087 0.285097
O O15 0.193115 0.183752 0.345403
O O16 0.035876 0.455265 0.488176
#
# Coordination Sequence:
#
# PCOD9115924 Si02
#       8
#     2   2   2   2   2   2   2   2
#     4  10  21  44  63  95 141 169 226 271 329 387
#     4  10  23  46  64  95 133 169 214 285 324 396
#     4  10  21  43  65  90 135 172 214 277 326 385
#     4  11  22  38  69  97 126 189 218 267 331 393
#     4  10  21  38  62  90 132 167 218 269 321 388
#     4  10  23  41  60  98 138 165 223 280 321 392
#     4  12  24  45  74  93 128 181 211 275 348 390
#     4  11  27  43  69  98 127 174 224 274 330 409
#
# _framework density 21.515159000000001
#
# number of rings (size 3 to 8) (size 9 to 14) (size 15 to 20)
#    0.000    1.500    5.000    0.750    3.500    6.000 
#    4.500    0.000    0.000    0.000    0.000    0.000 
#    0.000    0.000    0.000    0.000    0.000    0.000 
#
# Total GULP energy -89313.074932 kJ/mol
# GULP energy per Si atom -5582.067183 kJ/mol
# Density = 2.146619 g / cm^3
# Si number density = 21.515159 Si / 1000 Ang^3
#
#
#
# Elastic Constant Matrix: (Units=GPa)
#
#
# Indices 1 2 3 4 5 6 
#
# 1 35.7800 13.3834 33.0562 0.0000 -4.0341 0.0000
# 2 13.3834 83.1335 44.0543 0.0000 7.2711 0.0000
# 3 33.0562 44.0543 123.3108 0.0000 -6.6321 0.0000
# 4 0.0000 0.0000 0.0000 28.1426 0.0000 3.3311
# 5 -4.0341 7.2711 -6.6321 0.0000 24.1561 0.0000
# 6 0.0000 0.0000 0.0000 3.3311 0.0000 25.5169
#
#
#
# Elastic Compliance Matrix: (Units=1/GPa)
#
#
# Indices 1 2 3 4 5 6 
#
# 1 0.037584 -0.001473 -0.009325 0.000000 0.004159 0.000000
# 2 -0.001473 0.015808 -0.005605 0.000000 -0.006543 0.000000
# 3 -0.009325 -0.005605 0.012808 0.000000 0.003646 0.000000
# 4 0.000000 0.000000 0.000000 0.036091 0.000000 -0.004711
# 5 0.004159 -0.006543 0.003646 0.000000 0.045063 0.000000
# 6 0.000000 0.000000 0.000000 -0.004711 0.000000 0.039805
#
#
# Mechanical properties :
#
#
# Convention : Reuss Voigt Hill
#
# Bulk Modulus (GPa) = 29.94507 47.02357 38.48432
# Shear Modulus (GPa) = 21.63606 25.67848 23.65727
#
# Velocity S-wave (km/s) = 3.17459 3.45846 3.31956
# Velocity P-wave (km/s) = 5.23314 6.15235 5.71127
#
# Compressibility (1/GPa) = 0.03339448
#
# Stress axis : x y z
#
# Youngs Moduli (GPa) = 26.60722 63.25765 78.07614
#
# Poissons Ratio (x) = 0.09315 0.72809
# Poissons Ratio (y) = 0.03918 0.43761
# Poissons Ratio (z) = 0.24812 0.35455
#
# Static dielectric constant tensor:
#      x y z
#    x 1.817380 0.000000 0.029370 
#    y 0.000000 1.829520 0.000000 
#    z 0.029370 0.000000 1.772010 
# 
# From -- ./inp_files/12617.got.cif
#   From: 2010.05.17/outbox.cif.g08.bks.cpg/sg4_7_cif.got.tgz:12617.got - 2010.06.03 18:43:04.
