data_PCOD9115092
_publ_section_title
;
Structure prediction by ZEFSAII (Michael W. Deem and Ramdas Pophale) SiO2 
 PCOD9115092
Probable space group: P 21
;
_chemical_formula_sum "Si O2"
_cell_formula_units_Z 12
_cell_length_a 7.894412
_cell_length_b 6.411977
_cell_length_c 15.765378
_cell_angle_alpha 90.000000
_cell_angle_beta 47.019058
_cell_angle_gamma 90.000000
_cell_volume 583.819047
_symmetry_space_group_name_H-M "P 21"
_symmetry_group_IT_number 4
_symmetry_cell_setting 'monoclinic'
loop_
_space_group_symop_operation_xyz
x,y,z
-x,1/2+y,-z
loop_
_atom_site_type_symbol
_atom_site_label
_atom_site_fract_x
_atom_site_fract_y
_atom_site_fract_z
Si Si1 0.980600 0.878530 0.634905
Si Si2 0.118498 0.472382 0.150545
Si Si3 0.706636 0.463845 0.176262
Si Si4 0.436215 0.216649 0.940956
Si Si5 0.716492 0.193885 0.608071
Si Si6 0.457568 0.075541 0.222666
O O1 0.032371 0.943461 0.713042
O O2 0.749256 0.738309 0.721373
O O3 0.172656 0.746189 0.519947
O O4 0.907571 0.077817 0.602132
O O5 0.323340 0.630987 0.104759
O O6 0.951115 0.530601 0.130653
O O7 0.249010 0.261470 0.076885
O O8 0.653907 0.564548 0.102557
O O9 0.506994 0.546522 0.308204
O O10 0.672830 0.215848 0.179298
O O11 0.480012 0.437029 0.879576
O O12 0.633850 0.409993 0.677765
#
# Coordination Sequence:
#
# PCOD9115092 Si02
#       6
#     2   2   2   2   2   2
#     4  11  20  40  68  97 128 177 225 273 333 401
#     4  12  25  44  69 100 133 175 236 276 332 418
#     4  10  25  45  63 100 137 173 229 281 343 396
#     4  11  25  44  67  97 135 177 222 281 347 399
#     4  10  20  40  69  93 134 178 218 279 341 389
#     4  10  19  43  66  91 131 178 214 274 342 391
#
# _framework density 20.554314999999999
#
# number of rings (size 3 to 8) (size 9 to 14) (size 15 to 20)
#    0.000    1.333    6.667    1.000    2.333    0.000 
#   12.000    0.000    0.000    0.000    0.000    0.000 
#    0.000    0.000    0.000    0.000    0.000    0.000 
#
# Total GULP energy -67003.802543 kJ/mol
# GULP energy per Si atom -5583.650212 kJ/mol
# Density = 2.050753 g / cm^3
# Si number density = 20.554315 Si / 1000 Ang^3
#
#
#
# Elastic Constant Matrix: (Units=GPa)
#
#
# Indices 1 2 3 4 5 6 
#
# 1 120.2097 39.6608 33.6976 0.0000 -12.8149 0.0000
# 2 39.6608 87.6151 21.4066 0.0000 6.9230 0.0000
# 3 33.6976 21.4066 110.5283 0.0000 18.1773 0.0000
# 4 0.0000 0.0000 0.0000 36.7413 0.0000 0.6945
# 5 -12.8149 6.9230 18.1773 0.0000 19.0820 0.0000
# 6 0.0000 0.0000 0.0000 0.6945 0.0000 10.4925
#
#
#
# Elastic Compliance Matrix: (Units=1/GPa)
#
#
# Indices 1 2 3 4 5 6 
#
# 1 0.013805 -0.006175 -0.005817 0.000000 0.017053 0.000000
# 2 -0.006175 0.014847 0.000682 0.000000 -0.010183 0.000000
# 3 -0.005817 0.000682 0.013485 0.000000 -0.016999 0.000000
# 4 0.000000 0.000000 0.000000 0.027251 0.000000 -0.001804
# 5 0.017053 -0.010183 -0.016999 0.000000 0.083745 0.000000
# 6 0.000000 0.000000 0.000000 -0.001804 0.000000 0.095425
#
#
# Mechanical properties :
#
#
# Convention : Reuss Voigt Hill
#
# Bulk Modulus (GPa) = 51.24193 56.43145 53.83669
# Shear Modulus (GPa) = 18.00604 28.16903 23.08754
#
# Velocity S-wave (km/s) = 2.96298 3.70600 3.35512
# Velocity P-wave (km/s) = 6.05721 6.76956 6.42327
#
# Compressibility (1/GPa) = 0.01951527
#
# Stress axis : x y z
#
# Youngs Moduli (GPa) = 72.43868 67.35406 74.15858
#
# Poissons Ratio (x) = 0.41592 0.43140
# Poissons Ratio (y) = 0.44732 -0.05057
# Poissons Ratio (z) = 0.42139 -0.04593
#
# Static dielectric constant tensor:
#      x y z
#    x 1.742660 0.000000 0.009230 
#    y 0.000000 1.741240 0.000000 
#    z 0.009230 0.000000 1.762980 
# 
# From -- ./inp_files/10638.got.cif
#   From: 2010.05.17/outbox.cif.g08.bks.cpg/sg4_6_cif.got.tgz:10638.got - 2010.06.03 18:43:04.
