data_PCOD9115756
_publ_section_title
;
Structure prediction by ZEFSAII (Michael W. Deem and Ramdas Pophale) SiO2 
 PCOD9115756
Probable space group: P 21
;
_chemical_formula_sum "Si O2"
_cell_formula_units_Z 14
_cell_length_a 11.390322
_cell_length_b 12.649267
_cell_length_c 6.433272
_cell_angle_alpha 90.000000
_cell_angle_beta 44.333101
_cell_angle_gamma 90.000000
_cell_volume 647.744852
_symmetry_space_group_name_H-M "P 21"
_symmetry_group_IT_number 4
_symmetry_cell_setting 'monoclinic'
loop_
_space_group_symop_operation_xyz
x,y,z
-x,1/2+y,-z
loop_
_atom_site_type_symbol
_atom_site_label
_atom_site_fract_x
_atom_site_fract_y
_atom_site_fract_z
Si Si1 0.812670 0.498180 0.237032
Si Si2 0.545379 0.774975 0.214675
Si Si3 0.607918 0.973609 0.874200
Si Si4 0.573829 0.367600 0.241599
Si Si5 0.041259 0.584905 0.604776
Si Si6 0.266860 0.108185 0.286183
Si Si7 0.793760 0.300870 0.573228
O O1 0.664716 0.456745 0.269980
O O2 0.772716 0.604468 0.418559
O O3 0.835259 0.402031 0.374779
O O4 0.972277 0.526512 0.896283
O O5 0.499156 0.777244 0.514924
O O6 0.368221 0.748595 0.331320
O O7 0.590415 0.893913 0.088205
O O8 0.683398 0.704310 0.927022
O O9 0.584728 0.906230 0.692562
O O10 0.777455 0.037783 0.677657
O O11 0.437502 0.040480 0.073196
O O12 0.718622 0.331361 0.895056
O O13 0.065653 0.711287 0.595939
O O14 0.901001 0.563953 0.608527
#
# Coordination Sequence:
#
# PCOD9115756 Si02
#       7
#     2   2   2   2   2   2   2
#     4  11  23  45  69 100 141 175 223 293 336 400
#     4  10  23  43  72  99 136 184 224 285 341 405
#     4  11  23  47  67 103 135 179 232 280 339 409
#     4  10  20  45  72  93 137 183 222 286 342 395
#     4  12  27  41  71 105 138 183 226 283 345 406
#     4  12  24  45  68 104 136 176 236 278 337 415
#     4  10  22  42  65 102 137 176 233 281 336 410
#
# _framework density 21.613448000000002
#
# number of rings (size 3 to 8) (size 9 to 14) (size 15 to 20)
#    0.000    1.143    7.143    0.000    0.000   10.286 
#    2.571    0.000    0.000    0.000    0.000    0.000 
#    0.000    0.000    0.000    0.000    0.000    0.000 
#
# Total GULP energy -78023.716636 kJ/mol
# GULP energy per Si atom -5573.122617 kJ/mol
# Density = 2.156425 g / cm^3
# Si number density = 21.613448 Si / 1000 Ang^3
#
#
#
# Elastic Constant Matrix: (Units=GPa)
#
#
# Indices 1 2 3 4 5 6 
#
# 1 81.1209 25.5029 54.6769 0.0000 -12.7871 0.0000
# 2 25.5029 52.5086 25.0124 0.0000 -9.2998 0.0000
# 3 54.6769 25.0124 67.0856 0.0000 -3.9145 0.0000
# 4 0.0000 0.0000 0.0000 43.7921 0.0000 -13.2729
# 5 -12.7871 -9.2998 -3.9145 0.0000 38.1017 0.0000
# 6 0.0000 0.0000 0.0000 -13.2729 0.0000 14.2579
#
#
#
# Elastic Compliance Matrix: (Units=1/GPa)
#
#
# Indices 1 2 3 4 5 6 
#
# 1 0.029507 -0.002223 -0.022811 0.000000 0.007017 0.000000
# 2 -0.002223 0.024229 -0.006962 0.000000 0.004453 0.000000
# 3 -0.022811 -0.006962 0.035763 0.000000 -0.005681 0.000000
# 4 0.000000 0.000000 0.000000 0.031810 0.000000 0.029613
# 5 0.007017 0.004453 -0.005681 0.000000 0.029104 0.000000
# 6 0.000000 0.000000 0.000000 0.029613 0.000000 0.097704
#
#
# Mechanical properties :
#
#
# Convention : Reuss Voigt Hill
#
# Bulk Modulus (GPa) = 39.20557 45.67774 42.44166
# Shear Modulus (GPa) = 15.59521 25.59854 20.59687
#
# Velocity S-wave (km/s) = 2.68908 3.44522 3.09036
# Velocity P-wave (km/s) = 5.27450 6.08324 5.69325
#
# Compressibility (1/GPa) = 0.02550658
#
# Stress axis : x y z
#
# Youngs Moduli (GPa) = 33.88998 41.27265 27.96214
#
# Poissons Ratio (x) = 0.09173 0.63785
# Poissons Ratio (y) = 0.07532 0.19468
# Poissons Ratio (z) = 0.77307 0.28736
#
# Static dielectric constant tensor:
#      x y z
#    x 1.781380 0.000000 0.047960 
#    y 0.000000 1.901390 0.000000 
#    z 0.047960 0.000000 1.808460 
# 
# From -- ./inp_files/3189.got.cif
#   From: 2010.05.17/outbox.cif.g08.bks.cpg/sg4_2_cif.got.tgz:3189.got - 2010.06.03 18:43:04.
