data_PCOD9115142
_publ_section_title
;
Structure prediction by ZEFSAII (Michael W. Deem and Ramdas Pophale) SiO2 
 PCOD9115142
Probable space group: P 21
;
_chemical_formula_sum "Si O2"
_cell_formula_units_Z 16
_cell_length_a 12.905565
_cell_length_b 5.169466
_cell_length_c 12.846694
_cell_angle_alpha 90.000000
_cell_angle_beta 94.467210
_cell_angle_gamma 90.000000
_cell_volume 854.461938
_symmetry_space_group_name_H-M "P 21"
_symmetry_group_IT_number 4
_symmetry_cell_setting 'monoclinic'
loop_
_space_group_symop_operation_xyz
x,y,z
-x,1/2+y,-z
loop_
_atom_site_type_symbol
_atom_site_label
_atom_site_fract_x
_atom_site_fract_y
_atom_site_fract_z
Si Si1 0.669489 0.415510 0.801067
Si Si2 0.870774 0.465790 0.951002
Si Si3 0.318063 0.042808 0.645738
Si Si4 0.484452 0.600107 0.926478
Si Si5 0.340780 0.080293 0.418606
Si Si6 0.558969 0.085151 0.643703
Si Si7 0.722546 0.049100 0.228082
Si Si8 0.905310 0.968189 0.090911
O O1 0.762282 0.405881 0.888520
O O2 0.572587 0.566356 0.844470
O O3 0.713363 0.539658 0.697334
O O4 0.620472 0.146041 0.755937
O O5 0.970901 0.442457 0.883213
O O6 0.888743 0.248073 0.038767
O O7 0.872703 0.744848 0.006503
O O8 0.304302 0.326421 0.691790
O O9 0.284459 0.029968 0.522463
O O10 0.442537 0.000263 0.655377
O O11 0.268374 0.823453 0.713498
O O12 0.371714 0.572472 0.863131
O O13 0.497037 0.867791 0.989638
O O14 0.431676 0.863113 0.412994
O O15 0.383546 0.368720 0.417934
O O16 0.828423 0.961438 0.181372
#
# Coordination Sequence:
#
# PCOD9115142 Si02
#       8
#     2   2   2   2   2   2   2   2
#     4  10  23  36  58  84 114 148 191 238 285 337
#     4  10  21  39  64  82 116 142 202 240 287 330
#     4  12  21  37  56  82 116 155 190 235 278 351
#     4  12  24  35  52  81 118 151 182 227 290 347
#     4  10  22  34  57  80 116 147 197 236 278 335
#     4  10  20  34  53  80 114 148 191 227 282 327
#     4  12  23  37  57  81 120 151 193 225 293 349
#     4  10  22  40  59  88 108 156 190 242 283 346
#
# _framework density 18.725235000000001
#
# number of rings (size 3 to 8) (size 9 to 14) (size 15 to 20)
#    0.750    0.500    1.250    6.000    3.500    0.000 
#    0.000    0.000    0.000    1.500    0.000    0.000 
#    0.000    0.000    0.000    0.000    0.000    0.000 
#
# Total GULP energy -89253.534785 kJ/mol
# GULP energy per Si atom -5578.345924 kJ/mol
# Density = 1.868262 g / cm^3
# Si number density = 18.725235 Si / 1000 Ang^3
#
#
#
# Elastic Constant Matrix: (Units=GPa)
#
#
# Indices 1 2 3 4 5 6 
#
# 1 40.8219 -6.3135 5.7430 0.0000 -13.4930 0.0000
# 2 -6.3135 66.4804 11.0678 0.0000 1.3486 0.0000
# 3 5.7430 11.0678 56.9826 0.0000 -12.0721 0.0000
# 4 0.0000 0.0000 0.0000 29.2487 0.0000 -5.5181
# 5 -13.4930 1.3486 -12.0721 0.0000 14.2730 0.0000
# 6 0.0000 0.0000 0.0000 -5.5181 0.0000 14.3420
#
#
#
# Elastic Compliance Matrix: (Units=1/GPa)
#
#
# Indices 1 2 3 4 5 6 
#
# 1 0.036794 0.002073 0.003919 0.000000 0.037901 0.000000
# 2 0.002073 0.015948 -0.003911 0.000000 -0.002856 0.000000
# 3 0.003919 -0.003911 0.022876 0.000000 0.023423 0.000000
# 4 0.000000 0.000000 0.000000 0.036866 0.000000 0.014184
# 5 0.037901 -0.002856 0.023423 0.000000 0.125973 0.000000
# 6 0.000000 0.000000 0.000000 0.014184 0.000000 0.075183
#
#
# Mechanical properties :
#
#
# Convention : Reuss Voigt Hill
#
# Bulk Modulus (GPa) = 12.53475 20.58660 16.56068
# Shear Modulus (GPa) = 14.87779 21.82525 18.35152
#
# Velocity S-wave (km/s) = 2.82180 3.41772 3.13396
# Velocity P-wave (km/s) = 4.16237 5.15678 4.68603
#
# Compressibility (1/GPa) = 0.07977821
#
# Stress axis : x y z
#
# Youngs Moduli (GPa) = 27.17865 62.70378 43.71346
#
# Poissons Ratio (x) = -0.12998 -0.17130
# Poissons Ratio (y) = -0.05634 0.17098
# Poissons Ratio (z) = -0.10650 0.24526
#
# Static dielectric constant tensor:
#      x y z
#    x 1.626930 0.000000 -0.003230 
#    y 0.000000 1.654480 0.000000 
#    z -0.003230 0.000000 1.697850 
# 
# From -- ./inp_files/11755.got.cif
#   From: 2010.05.17/outbox.cif.g08.bks.cpg/sg4_6_cif.got.tgz:11755.got - 2010.06.03 18:43:04.
