data_PCOD9115574
_publ_section_title
;
Structure prediction by ZEFSAII (Michael W. Deem and Ramdas Pophale) SiO2 
 PCOD9115574
Probable space group: P 21
;
_chemical_formula_sum "Si O2"
_cell_formula_units_Z 14
_cell_length_a 8.589041
_cell_length_b 4.947901
_cell_length_c 15.710841
_cell_angle_alpha 90.000000
_cell_angle_beta 78.951456
_cell_angle_gamma 90.000000
_cell_volume 655.299749
_symmetry_space_group_name_H-M "P 21"
_symmetry_group_IT_number 4
_symmetry_cell_setting 'monoclinic'
loop_
_space_group_symop_operation_xyz
x,y,z
-x,1/2+y,-z
loop_
_atom_site_type_symbol
_atom_site_label
_atom_site_fract_x
_atom_site_fract_y
_atom_site_fract_z
Si Si1 0.606059 0.760540 0.510041
Si Si2 0.171745 0.630054 0.914369
Si Si3 0.040373 0.164539 0.551489
Si Si4 0.746704 0.380206 0.788724
Si Si5 0.497016 0.150243 0.058301
Si Si6 0.998712 0.130993 0.884774
Si Si7 0.753460 0.908101 0.676319
O O1 0.497126 0.495674 0.521997
O O2 0.774816 0.701890 0.446338
O O3 0.658433 0.854096 0.599112
O O4 0.353416 0.713034 0.897936
O O5 0.147168 0.326524 0.886174
O O6 0.105511 0.652470 0.017901
O O7 0.061178 0.827821 0.871042
O O8 0.971888 0.447685 0.524348
O O9 0.921757 0.042802 0.633117
O O10 0.640403 0.511062 0.873713
O O11 0.896985 0.245246 0.818773
O O12 0.779157 0.627999 0.722192
O O13 0.669590 0.131529 0.744782
O O14 0.448114 0.422294 0.015327
#
# Coordination Sequence:
#
# PCOD9115574 Si02
#       7
#     2   2   2   2   2   2   2
#     4  11  22  41  71 104 129 169 216 262 317 390
#     4  10  21  38  61  88 118 154 225 276 306 371
#     4  10  20  40  68  95 128 168 218 251 303 398
#     4  12  24  41  65  95 135 171 218 276 336 378
#     4  12  24  40  65  96 126 175 228 273 325 393
#     4  10  21  38  61  88 117 164 208 273 324 372
#     4  11  24  42  65 100 133 173 213 269 325 392
#
# _framework density 21.364267999999999
#
# number of rings (size 3 to 8) (size 9 to 14) (size 15 to 20)
#    0.000    1.143    1.429    6.857    4.000    0.000 
#    0.000    5.714    0.000    3.429    0.000    0.000 
#    0.000    0.000    0.000    0.000    0.000    0.000 
#
# Total GULP energy -78285.381198 kJ/mol
# GULP energy per Si atom -5591.812943 kJ/mol
# Density = 2.131564 g / cm^3
# Si number density = 21.364268 Si / 1000 Ang^3
#
#
#
# Elastic Constant Matrix: (Units=GPa)
#
#
# Indices 1 2 3 4 5 6 
#
# 1 104.7422 19.2814 6.9718 0.0000 9.4754 0.0000
# 2 19.2814 104.6934 5.1714 0.0000 -1.0517 0.0000
# 3 6.9718 5.1714 48.9656 0.0000 5.7402 0.0000
# 4 0.0000 0.0000 0.0000 48.1651 0.0000 8.6461
# 5 9.4754 -1.0517 5.7402 0.0000 12.4940 0.0000
# 6 0.0000 0.0000 0.0000 8.6461 0.0000 41.6568
#
#
#
# Elastic Compliance Matrix: (Units=1/GPa)
#
#
# Indices 1 2 3 4 5 6 
#
# 1 0.010678 -0.002030 -0.000356 0.000000 -0.008106 0.000000
# 2 -0.002030 0.010009 -0.001107 0.000000 0.002891 0.000000
# 3 -0.000356 -0.001107 0.021740 0.000000 -0.009812 0.000000
# 4 0.000000 0.000000 0.000000 0.021565 0.000000 -0.004476
# 5 -0.008106 0.002891 -0.009812 0.000000 0.090937 0.000000
# 6 0.000000 0.000000 0.000000 -0.004476 0.000000 0.024935
#
#
# Mechanical properties :
#
#
# Convention : Reuss Voigt Hill
#
# Bulk Modulus (GPa) = 28.21548 35.69449 31.95498
# Shear Modulus (GPa) = 25.16801 35.59495 30.38148
#
# Velocity S-wave (km/s) = 3.43599 4.08621 3.77513
# Velocity P-wave (km/s) = 5.38302 6.24553 5.83025
#
# Compressibility (1/GPa) = 0.03544154
#
# Stress axis : x y z
#
# Youngs Moduli (GPa) = 93.65092 99.90651 45.99751
#
# Poissons Ratio (x) = 0.20285 0.01636
# Poissons Ratio (y) = 0.19015 0.05092
# Poissons Ratio (z) = 0.03331 0.11059
#
# Static dielectric constant tensor:
#      x y z
#    x 1.726720 0.000000 -0.044470 
#    y 0.000000 1.759040 0.000000 
#    z -0.044470 0.000000 1.791210 
# 
# From -- ./inp_files/13462.got.cif
#   From: 2010.05.17/outbox.cif.g08.bks.cpg/sg4_7_cif.got.tgz:13462.got - 2010.06.03 18:43:04.
