data_PCOD9115202
_publ_section_title
;
Structure prediction by ZEFSAII (Michael W. Deem and Ramdas Pophale) SiO2 
 PCOD9115202
Probable space group: P 21
;
_chemical_formula_sum "Si O2"
_cell_formula_units_Z 16
_cell_length_a 9.435122
_cell_length_b 9.761017
_cell_length_c 12.013741
_cell_angle_alpha 90.000000
_cell_angle_beta 38.698998
_cell_angle_gamma 90.000000
_cell_volume 691.767211
_symmetry_space_group_name_H-M "P 21"
_symmetry_group_IT_number 4
_symmetry_cell_setting 'monoclinic'
loop_
_space_group_symop_operation_xyz
x,y,z
-x,1/2+y,-z
loop_
_atom_site_type_symbol
_atom_site_label
_atom_site_fract_x
_atom_site_fract_y
_atom_site_fract_z
Si Si1 0.189630 0.368070 0.478146
Si Si2 0.545283 0.899407 0.879894
Si Si3 0.580273 0.133806 0.690019
Si Si4 0.733799 0.563041 0.307185
Si Si5 0.081963 0.779070 0.159616
Si Si6 0.500837 0.906413 0.167591
Si Si7 0.079534 0.451191 0.946594
Si Si8 0.513957 0.124739 0.326658
O O1 0.230083 0.529617 0.471998
O O2 0.976360 0.323903 0.679557
O O3 0.397310 0.274059 0.400744
O O4 0.224600 0.354573 0.323897
O O5 0.547361 0.921662 0.009309
O O6 0.348195 0.788981 0.978447
O O7 0.480093 0.038386 0.851990
O O8 0.413418 0.152785 0.688213
O O9 0.644844 0.276428 0.704510
O O10 0.959602 0.635964 0.215289
O O11 0.576520 0.540892 0.509907
O O12 0.843107 0.452969 0.157696
O O13 0.963175 0.880937 0.144876
O O14 0.741253 0.879029 0.081929
O O15 0.415752 0.043633 0.279842
O O16 0.214443 0.597144 0.844789
#
# Coordination Sequence:
#
# PCOD9115202 Si02
#       8
#     2   2   2   2   2   2   2   2
#     4   9  21  37  60  87 116 160 193 241 298 351
#     4  10  23  38  61  81 126 159 194 237 304 349
#     4  10  21  37  63  88 117 156 198 248 293 350
#     4  11  19  37  62  92 119 151 206 248 292 350
#     4  11  20  38  60  91 116 154 205 245 287 356
#     4  10  23  41  59  88 125 157 196 245 296 357
#     4  10  20  35  61  87 118 156 192 245 294 339
#     4   9  21  37  60  90 123 151 194 245 300 344
#
# _framework density 23.129166999999999
#
# number of rings (size 3 to 8) (size 9 to 14) (size 15 to 20)
#    1.500    0.500    2.500    1.500    1.750    0.000 
#    2.250    3.750    0.000    0.000    0.000    0.000 
#    0.000    0.000    0.000    0.000    0.000    0.000 
#
# Total GULP energy -89075.146330 kJ/mol
# GULP energy per Si atom -5567.196646 kJ/mol
# Density = 2.307652 g / cm^3
# Si number density = 23.129167 Si / 1000 Ang^3
#
#
#
# Elastic Constant Matrix: (Units=GPa)
#
#
# Indices 1 2 3 4 5 6 
#
# 1 72.7471 6.3891 21.4885 0.0000 27.3485 0.0000
# 2 6.3891 62.5950 15.5635 0.0000 6.8988 0.0000
# 3 21.4885 15.5635 131.0124 0.0000 18.4655 0.0000
# 4 0.0000 0.0000 0.0000 11.2324 0.0000 7.5226
# 5 27.3485 6.8988 18.4655 0.0000 35.7913 0.0000
# 6 0.0000 0.0000 0.0000 7.5226 0.0000 1.8058
#
#
#
# Elastic Compliance Matrix: (Units=1/GPa)
#
#
# Indices 1 2 3 4 5 6 
#
# 1 0.019456 -0.000126 -0.001169 0.000000 -0.014239 0.000000
# 2 -0.000126 0.016646 -0.001637 0.000000 -0.002268 0.000000
# 3 -0.001169 -0.001637 0.008464 0.000000 -0.003158 0.000000
# 4 0.000000 0.000000 0.000000 -0.049739 0.000000 0.207201
# 5 -0.014239 -0.002268 -0.003158 0.000000 0.040886 0.000000
# 6 0.000000 0.000000 0.000000 0.207201 0.000000 -0.309383
#
#
# Mechanical properties :
#
#
# Convention : Reuss Voigt Hill
#
# Bulk Modulus (GPa) = 25.83920 39.24849 32.54385
# Shear Modulus (GPa) = -19.61511 24.62680 2.50584
#
# Velocity S-wave (km/s) = -2.91532 3.26659 1.04200
# Velocity P-wave (km/s) = 0.36902 5.58870 3.94319
#
# Compressibility (1/GPa) = 0.03870089
#
# Stress axis : x y z
#
# Youngs Moduli (GPa) = 51.39916 60.07616 118.14449
#
# Poissons Ratio (x) = 0.00756 0.13814
# Poissons Ratio (y) = 0.00647 0.19342
# Poissons Ratio (z) = 0.06010 0.09835
#
# Static dielectric constant tensor:
#      x y z
#    x 1.860970 0.000000 -0.010250 
#    y 0.000000 1.937840 0.000000 
#    z -0.010250 0.000000 1.865900 
# 
# From -- ./inp_files/12200.got.cif
#   From: 2010.05.17/outbox.cif.g08.bks.cpg/sg4_7_cif.got.tgz:12200.got - 2010.06.03 18:43:04.
