data_PCOD9115407
_publ_section_title
;
Structure prediction by ZEFSAII (Michael W. Deem and Ramdas Pophale) SiO2 
 PCOD9115407
Probable space group: P 21
;
_chemical_formula_sum "Si O2"
_cell_formula_units_Z 16
_cell_length_a 9.302775
_cell_length_b 13.806300
_cell_length_c 10.556197
_cell_angle_alpha 90.000000
_cell_angle_beta 151.928132
_cell_angle_gamma 90.000000
_cell_volume 638.013074
_symmetry_space_group_name_H-M "P 21"
_symmetry_group_IT_number 4
_symmetry_cell_setting 'monoclinic'
loop_
_space_group_symop_operation_xyz
x,y,z
-x,1/2+y,-z
loop_
_atom_site_type_symbol
_atom_site_label
_atom_site_fract_x
_atom_site_fract_y
_atom_site_fract_z
Si Si1 0.772139 0.200020 0.975691
Si Si2 0.276328 0.871054 0.778823
Si Si3 0.721143 0.070129 0.695242
Si Si4 0.947573 0.863731 0.281360
Si Si5 0.817777 0.450638 0.789974
Si Si6 0.731121 0.830513 0.512759
Si Si7 0.723726 0.134480 0.202309
Si Si8 0.947824 0.630684 0.296469
O O1 0.774876 0.154506 0.838960
O O2 0.453827 0.261360 0.729703
O O3 0.765774 0.121562 0.084798
O O4 0.066621 0.266649 0.232965
O O5 0.275071 0.752876 0.787744
O O6 0.203113 0.898092 0.577872
O O7 0.987818 0.895531 0.642673
O O8 0.619544 0.901378 0.074238
O O9 0.824952 0.097340 0.635702
O O10 0.368256 0.040354 0.415349
O O11 0.938617 0.984957 0.917353
O O12 0.946945 0.747502 0.287754
O O13 0.016395 0.894459 0.192991
O O14 0.543453 0.388555 0.637036
O O15 0.965949 0.101683 0.493777
O O16 0.396761 0.098623 0.995404
#
# Coordination Sequence:
#
# PCOD9115407 Si02
#       8
#     2   2   2   2   2   2   2   2
#     4  11  22  41  69  98 126 168 220 273 326 387
#     4   9  18  35  63  94 118 149 208 270 311 364
#     4  12  26  42  60  94 137 174 213 266 324 390
#     4  10  20  38  64  90 119 161 209 257 313 377
#     4  12  26  42  60  94 137 174 213 266 324 390
#     4  11  22  41  69  98 126 168 220 273 326 387
#     4   9  18  35  63  94 118 149 208 270 311 364
#     4  10  20  38  64  90 119 161 209 257 313 377
#
# _framework density 25.077855
#
# number of rings (size 3 to 8) (size 9 to 14) (size 15 to 20)
#    0.000    1.500    0.000    7.500    0.000    3.000 
#    0.000    5.000    0.000    0.000    0.000    0.000 
#    0.000    0.000    0.000    0.000    0.000    0.000 
#
# Total GULP energy -89626.489694 kJ/mol
# GULP energy per Si atom -5601.655606 kJ/mol
# Density = 2.502078 g / cm^3
# Si number density = 25.077855 Si / 1000 Ang^3
#
#
#
# Elastic Constant Matrix: (Units=GPa)
#
#
# Indices 1 2 3 4 5 6 
#
# 1 104.6850 16.3081 19.8605 0.0000 4.1277 0.0000
# 2 16.3081 55.8915 17.9170 0.0000 -2.1601 0.0000
# 3 19.8605 17.9170 129.0650 0.0000 0.5132 0.0000
# 4 0.0000 0.0000 0.0000 31.3706 0.0000 -0.2617
# 5 4.1277 -2.1601 0.5132 0.0000 46.2673 0.0000
# 6 0.0000 0.0000 0.0000 -0.2617 0.0000 42.3365
#
#
#
# Elastic Compliance Matrix: (Units=1/GPa)
#
#
# Indices 1 2 3 4 5 6 
#
# 1 0.010232 -0.002639 -0.001204 0.000000 -0.001023 0.000000
# 2 -0.002639 0.019444 -0.002298 0.000000 0.001169 0.000000
# 3 -0.001204 -0.002298 0.008253 0.000000 -0.000091 0.000000
# 4 0.000000 0.000000 0.000000 0.031879 0.000000 0.000197
# 5 -0.001023 0.001169 -0.000091 0.000000 0.021760 0.000000
# 6 0.000000 0.000000 0.000000 0.000197 0.000000 0.023622
#
#
# Mechanical properties :
#
#
# Convention : Reuss Voigt Hill
#
# Bulk Modulus (GPa) = 38.99142 44.20141 41.59641
# Shear Modulus (GPa) = 36.75931 39.69861 38.22896
#
# Velocity S-wave (km/s) = 3.83274 3.98303 3.90861
# Velocity P-wave (km/s) = 5.93030 6.23030 6.08215
#
# Compressibility (1/GPa) = 0.02564667
#
# Stress axis : x y z
#
# Youngs Moduli (GPa) = 97.72910 51.43077 121.17302
#
# Poissons Ratio (x) = 0.13573 0.14591
# Poissons Ratio (y) = 0.25792 0.27842
# Poissons Ratio (z) = 0.11768 0.11817
#
# Static dielectric constant tensor:
#      x y z
#    x 1.928020 0.000000 -0.012350 
#    y 0.000000 2.127680 0.000000 
#    z -0.012350 0.000000 1.895760 
# 
# From -- ./inp_files/6958.got.cif
#   From: 2010.05.17/outbox.cif.g08.bks.cpg/sg4_4_cif.got.tgz:6958.got - 2010.06.03 18:43:04.
