data_PCOD9115592
_publ_section_title
;
Structure prediction by ZEFSAII (Michael W. Deem and Ramdas Pophale) SiO2 
 PCOD9115592
Probable space group: P 21
;
_chemical_formula_sum "Si O2"
_cell_formula_units_Z 14
_cell_length_a 16.456283
_cell_length_b 5.006862
_cell_length_c 8.281368
_cell_angle_alpha 90.000000
_cell_angle_beta 119.323303
_cell_angle_gamma 90.000000
_cell_volume 594.909998
_symmetry_space_group_name_H-M "P 21"
_symmetry_group_IT_number 4
_symmetry_cell_setting 'monoclinic'
loop_
_space_group_symop_operation_xyz
x,y,z
-x,1/2+y,-z
loop_
_atom_site_type_symbol
_atom_site_label
_atom_site_fract_x
_atom_site_fract_y
_atom_site_fract_z
Si Si1 0.207607 0.729880 0.458378
Si Si2 0.214459 0.409180 0.942603
Si Si3 0.601673 0.101457 0.217802
Si Si4 0.110385 0.087464 0.594619
Si Si5 0.845013 0.422249 0.925295
Si Si6 0.605389 0.612284 0.998901
Si Si7 0.024395 0.376576 0.255928
O O1 0.312046 0.625183 0.578205
O O2 0.201694 0.908541 0.293041
O O3 0.123123 0.523286 0.342257
O O4 0.187823 0.884875 0.606756
O O5 0.204296 0.709299 0.999487
O O6 0.313524 0.256414 0.024447
O O7 0.161469 0.223599 0.019586
O O8 0.163223 0.344468 0.721437
O O9 0.496843 0.144544 0.179565
O O10 0.615623 0.311681 0.080513
O O11 0.602886 0.801395 0.153217
O O12 0.050934 0.105158 0.372242
O O13 0.040007 0.003344 0.665400
O O14 0.954953 0.349562 0.039693
#
# Coordination Sequence:
#
# PCOD9115592 Si02
#       7
#     2   2   2   2   2   2   2
#     4  12  26  42  63  97 135 174 220 283 328 404
#     4  11  23  45  65  95 129 178 217 276 327 401
#     4  10  22  39  67 107 124 167 218 282 334 388
#     4  11  22  38  67  89 121 166 228 271 314 384
#     4  11  29  41  64  94 139 176 220 261 347 401
#     4  10  20  40  71  98 133 161 221 279 335 386
#     4  11  24  39  63  90 125 172 218 272 323 386
#
# _framework density 23.532972000000001
#
# number of rings (size 3 to 8) (size 9 to 14) (size 15 to 20)
#    0.000    1.143    2.857    2.571   10.000    0.000 
#    0.000    1.429    0.000    0.000    0.000    0.000 
#    0.000    0.000    0.000    0.000    0.000    0.000 
#
# Total GULP energy -78137.884960 kJ/mol
# GULP energy per Si atom -5581.277497 kJ/mol
# Density = 2.347941 g / cm^3
# Si number density = 23.532972 Si / 1000 Ang^3
#
#
#
# Elastic Constant Matrix: (Units=GPa)
#
#
# Indices 1 2 3 4 5 6 
#
# 1 65.8803 -8.7527 24.8224 0.0000 22.5305 0.0000
# 2 -8.7527 65.7351 -5.6726 0.0000 -18.0184 0.0000
# 3 24.8224 -5.6726 116.4521 0.0000 18.2610 0.0000
# 4 0.0000 0.0000 0.0000 27.2135 0.0000 -1.9283
# 5 22.5305 -18.0184 18.2610 0.0000 34.7158 0.0000
# 6 0.0000 0.0000 0.0000 -1.9283 0.0000 33.5807
#
#
#
# Elastic Compliance Matrix: (Units=1/GPa)
#
#
# Indices 1 2 3 4 5 6 
#
# 1 0.020172 -0.000889 -0.002417 0.000000 -0.012281 0.000000
# 2 -0.000889 0.017818 -0.000527 0.000000 0.010102 0.000000
# 3 -0.002417 -0.000527 0.009671 0.000000 -0.003792 0.000000
# 4 0.000000 0.000000 0.000000 0.036897 0.000000 0.002119
# 5 -0.012281 0.010102 -0.003792 0.000000 0.044014 0.000000
# 6 0.000000 0.000000 0.000000 0.002119 0.000000 0.029901
#
#
# Mechanical properties :
#
#
# Convention : Reuss Voigt Hill
#
# Bulk Modulus (GPa) = 25.00304 29.87350 27.43827
# Shear Modulus (GPa) = 27.85989 34.94671 31.40330
#
# Velocity S-wave (km/s) = 3.44447 3.85776 3.65696
# Velocity P-wave (km/s) = 5.14460 5.70658 5.43286
#
# Compressibility (1/GPa) = 0.03999513
#
# Stress axis : x y z
#
# Youngs Moduli (GPa) = 49.57412 56.12383 103.39747
#
# Poissons Ratio (x) = 0.04990 0.24993
# Poissons Ratio (y) = 0.04408 0.05445
# Poissons Ratio (z) = 0.11983 0.02956
#
# Static dielectric constant tensor:
#      x y z
#    x 1.977860 0.000000 0.002500 
#    y 0.000000 1.954890 0.000000 
#    z 0.002500 0.000000 1.923480 
# 
# From -- ./inp_files/9506.got.cif
#   From: 2010.05.17/outbox.cif.g08.bks.cpg/sg4_5_cif.got.tgz:9506.got - 2010.06.03 18:43:04.
