data_PCOD9115432
_publ_section_title
;
Structure prediction by ZEFSAII (Michael W. Deem and Ramdas Pophale) SiO2 
 PCOD9115432
Probable space group: P 21
;
_chemical_formula_sum "Si O2"
_cell_formula_units_Z 12
_cell_length_a 5.562898
_cell_length_b 7.564247
_cell_length_c 11.142738
_cell_angle_alpha 90.000000
_cell_angle_beta 77.563386
_cell_angle_gamma 90.000000
_cell_volume 457.874510
_symmetry_space_group_name_H-M "P 21"
_symmetry_group_IT_number 4
_symmetry_cell_setting 'monoclinic'
loop_
_space_group_symop_operation_xyz
x,y,z
-x,1/2+y,-z
loop_
_atom_site_type_symbol
_atom_site_label
_atom_site_fract_x
_atom_site_fract_y
_atom_site_fract_z
Si Si1 0.323887 0.915050 0.884882
Si Si2 0.828799 0.332461 0.673503
Si Si3 0.829198 0.090606 0.211386
Si Si4 0.299337 0.484330 0.365329
Si Si5 0.386902 0.117347 0.453755
Si Si6 0.398355 0.301601 0.909752
O O1 0.124413 0.789011 0.841748
O O2 0.555886 0.928116 0.769211
O O3 0.254870 0.116292 0.922721
O O4 0.436234 0.825132 0.990899
O O5 0.767271 0.443836 0.562109
O O6 0.583232 0.300693 0.777369
O O7 0.980723 0.469973 0.737366
O O8 0.910408 0.129424 0.642809
O O9 0.607437 0.113427 0.330907
O O10 0.761790 0.972942 0.102659
O O11 0.251141 0.303028 0.442959
O O12 0.485998 0.591974 0.432250
#
# Coordination Sequence:
#
# PCOD9115432 Si02
#       6
#     2   2   2   2   2   2
#     4  10  20  38  67  88 122 169 205 252 315 370
#     4  10  22  40  61  92 122 159 212 261 310 368
#     4  10  22  40  61  92 122 159 212 261 310 368
#     4  10  20  38  67  88 122 169 205 252 315 370
#     4  10  20  40  63  87 125 165 205 256 313 374
#     4  10  20  40  63  87 125 165 205 256 313 374
#
# _framework density 26.208053
#
# number of rings (size 3 to 8) (size 9 to 14) (size 15 to 20)
#    0.000    2.000    3.333    0.000    0.000    1.333 
#    6.000    0.000    0.000    0.000    0.000    0.000 
#    0.000    0.000    0.000    0.000    0.000    0.000 
#
# Total GULP energy -67135.486629 kJ/mol
# GULP energy per Si atom -5594.623886 kJ/mol
# Density = 2.614840 g / cm^3
# Si number density = 26.208053 Si / 1000 Ang^3
#
#
#
# Elastic Constant Matrix: (Units=GPa)
#
#
# Indices 1 2 3 4 5 6 
#
# 1 43.3446 47.2208 4.1558 0.0000 -4.0124 0.0000
# 2 47.2208 196.8427 47.3392 0.0000 3.6686 0.0000
# 3 4.1558 47.3392 126.0456 0.0000 5.0135 0.0000
# 4 0.0000 0.0000 0.0000 45.7548 0.0000 3.0094
# 5 -4.0124 3.6686 5.0135 0.0000 31.8997 0.0000
# 6 0.0000 0.0000 0.0000 3.0094 0.0000 41.7237
#
#
#
# Elastic Compliance Matrix: (Units=1/GPa)
#
#
# Indices 1 2 3 4 5 6 
#
# 1 0.032376 -0.008303 0.001863 0.000000 0.004734 0.000000
# 2 -0.008303 0.007717 -0.002564 0.000000 -0.001529 0.000000
# 3 0.001863 -0.002564 0.008870 0.000000 -0.000865 0.000000
# 4 0.000000 0.000000 0.000000 0.021960 0.000000 -0.001584
# 5 0.004734 -0.001529 -0.000865 0.000000 0.032256 0.000000
# 6 0.000000 0.000000 0.000000 -0.001584 0.000000 0.024081
#
#
# Mechanical properties :
#
#
# Convention : Reuss Voigt Hill
#
# Bulk Modulus (GPa) = 32.30553 62.62940 47.46746
# Shear Modulus (GPa) = 32.13663 41.71010 36.92337
#
# Velocity S-wave (km/s) = 3.50553 3.99369 3.75754
# Velocity P-wave (km/s) = 5.36081 6.72421 6.08084
#
# Compressibility (1/GPa) = 0.03095446
#
# Stress axis : x y z
#
# Youngs Moduli (GPa) = 30.88703 129.58321 112.74592
#
# Poissons Ratio (x) = 1.07592 -0.21000
# Poissons Ratio (y) = 0.25645 0.28905
# Poissons Ratio (z) = -0.05753 0.33222
#
# Static dielectric constant tensor:
#      x y z
#    x 2.143270 0.000000 0.022600 
#    y 0.000000 2.107200 0.000000 
#    z 0.022600 0.000000 2.017390 
# 
# From -- ./inp_files/10332.got.cif
#   From: 2010.05.17/outbox.cif.g08.bks.cpg/sg4_6_cif.got.tgz:10332.got - 2010.06.03 18:43:04.
