data_PCOD9115549
_publ_section_title
;
Structure prediction by ZEFSAII (Michael W. Deem and Ramdas Pophale) SiO2 
 PCOD9115549
Probable space group: P 21
;
_chemical_formula_sum "Si O2"
_cell_formula_units_Z 14
_cell_length_a 5.093177
_cell_length_b 18.872531
_cell_length_c 5.381823
_cell_angle_alpha 90.000000
_cell_angle_beta 90.585293
_cell_angle_gamma 90.000000
_cell_volume 517.279976
_symmetry_space_group_name_H-M "P 21"
_symmetry_group_IT_number 4
_symmetry_cell_setting 'monoclinic'
loop_
_space_group_symop_operation_xyz
x,y,z
-x,1/2+y,-z
loop_
_atom_site_type_symbol
_atom_site_label
_atom_site_fract_x
_atom_site_fract_y
_atom_site_fract_z
Si Si1 0.978602 0.860040 0.704200
Si Si2 0.881175 0.218214 0.121734
Si Si3 0.303675 0.990329 0.613289
Si Si4 0.417188 0.387158 0.685495
Si Si5 0.774710 0.591190 0.775770
Si Si6 0.295451 0.755105 0.372685
Si Si7 0.729212 0.017246 0.012531
O O1 0.133517 0.932068 0.756358
O O2 0.695214 0.877671 0.595801
O O3 0.023954 0.799989 0.906012
O O4 0.089668 0.814961 0.466130
O O5 0.128444 0.171189 0.200730
O O6 0.680154 0.217776 0.356030
O O7 0.778262 0.201384 0.845727
O O8 0.349751 0.942735 0.365466
O O9 0.174518 0.060411 0.499612
O O10 0.571714 0.011375 0.752809
O O11 0.488193 0.306954 0.749416
O O12 0.257067 0.437615 0.867953
O O13 0.986319 0.551966 0.956759
O O14 0.477558 0.569067 0.841183
#
# Coordination Sequence:
#
# PCOD9115549 Si02
#       7
#     2   2   2   2   2   2   2
#     4   9  20  39  69  97 138 176 238 296 350 421
#     4  10  23  45  66  97 142 185 239 293 363 430
#     4  10  22  42  66 100 135 182 236 298 350 424
#     4  10  20  40  65 104 130 183 238 298 359 424
#     4  11  26  45  65 104 142 186 246 287 368 433
#     4   9  22  42  63  99 133 180 232 292 355 420
#     4  11  25  41  72  97 142 186 237 300 361 432
#
# _framework density 27.06465
#
# number of rings (size 3 to 8) (size 9 to 14) (size 15 to 20)
#    0.857    1.143    1.429    0.857    4.000    2.286 
#    5.143    0.000    0.000    0.000    0.000    0.000 
#    0.000    0.000    0.000    0.000    0.000    0.000 
#
# Total GULP energy -78022.111716 kJ/mol
# GULP energy per Si atom -5573.007980 kJ/mol
# Density = 2.700305 g / cm^3
# Si number density = 27.064650 Si / 1000 Ang^3
#
#
#
# Elastic Constant Matrix: (Units=GPa)
#
#
# Indices 1 2 3 4 5 6 
#
# 1 56.6620 7.5496 17.2288 0.0000 3.7113 0.0000
# 2 7.5496 70.6029 29.8876 0.0000 10.0248 0.0000
# 3 17.2288 29.8876 124.6247 0.0000 1.3502 0.0000
# 4 0.0000 0.0000 0.0000 44.7148 0.0000 10.0518
# 5 3.7113 10.0248 1.3502 0.0000 49.9221 0.0000
# 6 0.0000 0.0000 0.0000 10.0518 0.0000 24.9662
#
#
#
# Elastic Compliance Matrix: (Units=1/GPa)
#
#
# Indices 1 2 3 4 5 6 
#
# 1 0.018549 -0.000824 -0.002354 0.000000 -0.001150 0.000000
# 2 -0.000824 0.016284 -0.003758 0.000000 -0.003107 0.000000
# 3 -0.002354 -0.003758 0.009243 0.000000 0.000680 0.000000
# 4 0.000000 0.000000 0.000000 0.024590 0.000000 -0.009900
# 5 -0.001150 -0.003107 0.000680 0.000000 0.020722 0.000000
# 6 0.000000 0.000000 0.000000 -0.009900 0.000000 0.044040
#
#
# Mechanical properties :
#
#
# Convention : Reuss Voigt Hill
#
# Bulk Modulus (GPa) = 33.10683 40.13573 36.62128
# Shear Modulus (GPa) = 31.77266 37.06885 34.42076
#
# Velocity S-wave (km/s) = 3.43002 3.70488 3.57010
# Velocity P-wave (km/s) = 5.28637 5.75876 5.52761
#
# Compressibility (1/GPa) = 0.03020525
#
# Stress axis : x y z
#
# Youngs Moduli (GPa) = 53.90991 61.41137 108.18555
#
# Poissons Ratio (x) = 0.05058 0.25471
# Poissons Ratio (y) = 0.04440 0.40652
# Poissons Ratio (z) = 0.12693 0.23076
#
# Static dielectric constant tensor:
#      x y z
#    x 2.340110 0.000000 -0.079840 
#    y 0.000000 2.182480 0.000000 
#    z -0.079840 0.000000 2.182500 
# 
# From -- ./inp_files/530.got.cif
#   From: 2010.05.17/outbox.cif.g08.bks.cpg/sg4_1_cif.got.tgz:530.got - 2010.06.03 18:43:04.
