data_PCOD9115193
_publ_section_title
;
Structure prediction by ZEFSAII (Michael W. Deem and Ramdas Pophale) SiO2 
 PCOD9115193
Probable space group: P 21
;
_chemical_formula_sum "Si O2"
_cell_formula_units_Z 14
_cell_length_a 9.654713
_cell_length_b 7.351143
_cell_length_c 20.318477
_cell_angle_alpha 90.000000
_cell_angle_beta 158.844781
_cell_angle_gamma 90.000000
_cell_volume 520.435835
_symmetry_space_group_name_H-M "P 21"
_symmetry_group_IT_number 4
_symmetry_cell_setting 'monoclinic'
loop_
_space_group_symop_operation_xyz
x,y,z
-x,1/2+y,-z
loop_
_atom_site_type_symbol
_atom_site_label
_atom_site_fract_x
_atom_site_fract_y
_atom_site_fract_z
Si Si1 0.076566 0.593420 0.447157
Si Si2 0.604928 0.520509 0.574063
Si Si3 0.151283 0.542425 0.160797
Si Si4 0.167529 0.363844 0.919266
Si Si5 0.819361 0.259127 0.108444
Si Si6 0.547299 0.271602 0.262789
Si Si7 0.971796 0.494543 0.593951
O O1 0.191271 0.531010 0.423954
O O2 0.400587 0.657341 0.644986
O O3 0.866606 0.424728 0.386460
O O4 0.118319 0.289318 0.647064
O O5 0.786320 0.506788 0.583495
O O6 0.815149 0.367322 0.711044
O O7 0.780379 0.711888 0.678494
O O8 0.184857 0.404199 0.114671
O O9 0.596271 0.546751 0.383449
O O10 0.987213 0.745465 0.089205
O O11 0.888359 0.437375 0.097253
O O12 0.258838 0.577429 0.969271
O O13 0.512834 0.282378 0.029961
O O14 0.671013 0.122817 0.263855
#
# Coordination Sequence:
#
# PCOD9115193 Si02
#       7
#     2   2   2   2   2   2   2
#     4  11  21  35  55  84 124 161 189 225 291 361
#     4  10  23  36  57  93 117 150 196 245 300 343
#     4  11  20  34  60  86 120 156 188 239 297 344
#     4  10  20  36  57  87 114 146 203 249 279 344
#     4  10  20  35  58  90 108 150 203 242 290 335
#     4  11  21  35  56  84 121 164 194 220 291 365
#     4  11  23  37  55  88 132 147 191 240 298 362
#
# _framework density 26.900531000000001
#
# number of rings (size 3 to 8) (size 9 to 14) (size 15 to 20)
#    0.857    0.571    7.143    0.857    4.000    1.143 
#    0.000    0.000    0.000    0.000   29.714    0.000 
#    0.000    0.000    0.000    0.000    0.000    0.000 
#
# Total GULP energy -78105.027715 kJ/mol
# GULP energy per Si atom -5578.930551 kJ/mol
# Density = 2.683930 g / cm^3
# Si number density = 26.900531 Si / 1000 Ang^3
#
#
#
# Elastic Constant Matrix: (Units=GPa)
#
#
# Indices 1 2 3 4 5 6 
#
# 1 120.9678 33.2293 7.5970 0.0000 2.6545 0.0000
# 2 33.2293 46.5836 12.6864 0.0000 -1.6159 0.0000
# 3 7.5970 12.6864 46.7556 0.0000 6.1508 0.0000
# 4 0.0000 0.0000 0.0000 17.4351 0.0000 15.7962
# 5 2.6545 -1.6159 6.1508 0.0000 26.7413 0.0000
# 6 0.0000 0.0000 0.0000 15.7962 0.0000 43.4315
#
#
#
# Elastic Compliance Matrix: (Units=1/GPa)
#
#
# Indices 1 2 3 4 5 6 
#
# 1 0.010354 -0.007604 0.000595 0.000000 -0.001624 0.000000
# 2 -0.007604 0.028990 -0.007177 0.000000 0.004157 0.000000
# 3 0.000595 -0.007177 0.024031 0.000000 -0.006020 0.000000
# 4 0.000000 0.000000 0.000000 0.085543 0.000000 -0.031112
# 5 -0.001624 0.004157 -0.006020 0.000000 0.039192 0.000000
# 6 0.000000 0.000000 0.000000 -0.031112 0.000000 0.034340
#
#
# Mechanical properties :
#
#
# Convention : Reuss Voigt Hill
#
# Bulk Modulus (GPa) = 28.57081 35.70360 32.13721
# Shear Modulus (GPa) = 19.04833 28.24120 23.64476
#
# Velocity S-wave (km/s) = 2.66391 3.24364 2.96796
# Velocity P-wave (km/s) = 4.48395 5.22776 4.87008
#
# Compressibility (1/GPa) = 0.03500075
#
# Stress axis : x y z
#
# Youngs Moduli (GPa) = 96.58392 34.49514 41.61360
#
# Poissons Ratio (x) = 0.26229 -0.02474
# Poissons Ratio (y) = 0.73440 0.29867
# Poissons Ratio (z) = -0.05742 0.24758
#
# Static dielectric constant tensor:
#      x y z
#    x 2.227660 0.000000 -0.127020 
#    y 0.000000 2.080680 0.000000 
#    z -0.127020 0.000000 2.224820 
# 
# From -- ./inp_files/16090.got.cif
#   From: 2010.05.17/outbox.cif.g08.bks.cpg/sg4_9_cif.got.tgz:16090.got - 2010.06.03 18:43:04.
