data_PCOD9115069
_publ_section_title
;
Structure prediction by ZEFSAII (Michael W. Deem and Ramdas Pophale) SiO2 
 PCOD9115069
Probable space group: P 21
;
_chemical_formula_sum "Si O2"
_cell_formula_units_Z 16
_cell_length_a 10.461256
_cell_length_b 11.002654
_cell_length_c 8.910647
_cell_angle_alpha 90.000000
_cell_angle_beta 140.051833
_cell_angle_gamma 90.000000
_cell_volume 658.550929
_symmetry_space_group_name_H-M "P 21"
_symmetry_group_IT_number 4
_symmetry_cell_setting 'monoclinic'
loop_
_space_group_symop_operation_xyz
x,y,z
-x,1/2+y,-z
loop_
_atom_site_type_symbol
_atom_site_label
_atom_site_fract_x
_atom_site_fract_y
_atom_site_fract_z
Si Si1 0.107270 0.137820 0.163179
Si Si2 0.053204 0.851340 0.566052
Si Si3 0.548573 0.542262 0.392453
Si Si4 0.441335 0.197529 0.859524
Si Si5 0.760926 0.865213 0.550658
Si Si6 0.738806 0.131436 0.645310
Si Si7 0.892372 0.096100 0.281956
Si Si8 0.543378 0.308104 0.230513
O O1 0.277820 0.034844 0.326525
O O2 0.214267 0.265315 0.297114
O O3 0.968651 0.110348 0.181591
O O4 0.968784 0.146167 0.894943
O O5 0.978507 0.876527 0.667842
O O6 0.013271 0.703822 0.526595
O O7 0.283681 0.859442 0.725803
O O8 0.936616 0.958405 0.373275
O O9 0.654065 0.599986 0.340102
O O10 0.391222 0.635496 0.319917
O O11 0.458169 0.417798 0.251882
O O12 0.390853 0.317222 0.714379
O O13 0.660613 0.136089 0.072205
O O14 0.396166 0.234668 0.989726
O O15 0.702236 0.995151 0.556655
O O16 0.658226 0.222849 0.450162
#
# Coordination Sequence:
#
# PCOD9115069 Si02
#       8
#     2   2   2   2   2   2   2   2
#     4  10  23  44  66  98 135 193 228 286 362 428
#     4  10  21  42  69 100 141 181 250 290 363 417
#     4  11  25  46  71 104 148 185 241 299 361 435
#     4  10  23  44  70 100 142 187 242 297 363 417
#     4  10  24  43  72 102 140 191 238 301 363 433
#     4  12  27  47  72 104 151 184 244 295 376 435
#     4  10  19  40  69  97 142 189 228 310 348 430
#     4  11  26  44  75 107 137 192 247 298 364 445
#
# _framework density 24.295766
#
# number of rings (size 3 to 8) (size 9 to 14) (size 15 to 20)
#    0.000    1.500    2.500    1.500    8.750    0.000 
#    6.750    0.000    0.000    0.000    0.000    0.000 
#    0.000    0.000    0.000    0.000    0.000    0.000 
#
# Total GULP energy -89181.840868 kJ/mol
# GULP energy per Si atom -5573.865054 kJ/mol
# Density = 2.424047 g / cm^3
# Si number density = 24.295766 Si / 1000 Ang^3
#
#
#
# Elastic Constant Matrix: (Units=GPa)
#
#
# Indices 1 2 3 4 5 6 
#
# 1 57.5168 -1.2602 -7.1960 0.0000 2.4375 0.0000
# 2 -1.2602 80.1838 38.9734 0.0000 -12.3053 0.0000
# 3 -7.1960 38.9734 165.1355 0.0000 -11.0927 0.0000
# 4 0.0000 0.0000 0.0000 32.6934 0.0000 -6.4137
# 5 2.4375 -12.3053 -11.0927 0.0000 25.9463 0.0000
# 6 0.0000 0.0000 0.0000 -6.4137 0.0000 33.8899
#
#
#
# Elastic Compliance Matrix: (Units=1/GPa)
#
#
# Indices 1 2 3 4 5 6 
#
# 1 0.017534 -0.000310 0.000738 0.000000 -0.001479 0.000000
# 2 -0.000310 0.014873 -0.003138 0.000000 0.005741 0.000000
# 3 0.000738 -0.003138 0.006923 0.000000 0.001402 0.000000
# 4 0.000000 0.000000 0.000000 0.031767 0.000000 0.006012
# 5 -0.001479 0.005741 0.001402 0.000000 0.042002 0.000000
# 6 0.000000 0.000000 0.000000 0.006012 0.000000 0.030645
#
#
# Mechanical properties :
#
#
# Convention : Reuss Voigt Hill
#
# Bulk Modulus (GPa) = 29.49017 40.43004 34.96011
# Shear Modulus (GPa) = 31.15907 36.66052 33.90980
#
# Velocity S-wave (km/s) = 3.58507 3.88870 3.73997
# Velocity P-wave (km/s) = 5.41307 6.06956 5.75069
#
# Compressibility (1/GPa) = 0.03390960
#
# Stress axis : x y z
#
# Youngs Moduli (GPa) = 57.03071 67.23707 144.45532
#
# Poissons Ratio (x) = 0.02084 -0.10660
# Poissons Ratio (y) = 0.01768 0.45329
# Poissons Ratio (z) = -0.04208 0.21099
#
# Static dielectric constant tensor:
#      x y z
#    x 1.989430 0.000000 0.045310 
#    y 0.000000 1.975380 0.000000 
#    z 0.045310 0.000000 1.994000 
# 
# From -- ./inp_files/8158.got.cif
#   From: 2010.05.17/outbox.cif.g08.bks.cpg/sg4_5_cif.got.tgz:8158.got - 2010.06.03 18:43:04.
