data_PCOD9115675
_publ_section_title
;
Structure prediction by ZEFSAII (Michael W. Deem and Ramdas Pophale) SiO2 
 PCOD9115675
Probable space group: P 21
;
_chemical_formula_sum "Si O2"
_cell_formula_units_Z 14
_cell_length_a 6.976317
_cell_length_b 12.193730
_cell_length_c 7.626010
_cell_angle_alpha 90.000000
_cell_angle_beta 72.377797
_cell_angle_gamma 90.000000
_cell_volume 618.281868
_symmetry_space_group_name_H-M "P 21"
_symmetry_group_IT_number 4
_symmetry_cell_setting 'monoclinic'
loop_
_space_group_symop_operation_xyz
x,y,z
-x,1/2+y,-z
loop_
_atom_site_type_symbol
_atom_site_label
_atom_site_fract_x
_atom_site_fract_y
_atom_site_fract_z
Si Si1 0.897173 0.677030 0.511896
Si Si2 0.421780 0.987561 0.003344
Si Si3 0.873449 0.338358 0.800630
Si Si4 0.826946 0.021585 0.351133
Si Si5 0.102116 0.014500 0.784593
Si Si6 0.277369 0.644837 0.945093
Si Si7 0.767848 0.887044 0.705679
O O1 0.066881 0.752006 0.366081
O O2 0.998475 0.602827 0.630901
O O3 0.813840 0.596290 0.386932
O O4 0.751232 0.765589 0.636234
O O5 0.607799 0.911821 0.897629
O O6 0.265908 0.993701 0.886370
O O7 0.302506 0.925427 0.190609
O O8 0.520927 0.104822 0.014252
O O9 0.071001 0.414795 0.769562
O O10 0.790614 0.267426 0.987752
O O11 0.732618 0.972443 0.555119
O O12 0.699964 0.096674 0.256229
O O13 0.991920 0.912957 0.717669
O O14 0.913932 0.077173 0.925880
#
# Coordination Sequence:
#
# PCOD9115675 Si02
#       7
#     2   2   2   2   2   2   2
#     4   9  20  40  65  87 125 171 209 262 328 366
#     4  11  22  41  61  95 126 164 217 259 311 391
#     4  10  22  42  66  92 124 176 211 252 325 379
#     4  10  20  42  66  89 129 169 211 267 316 376
#     4   9  19  41  62  83 125 167 207 258 309 385
#     4  10  22  40  63  91 129 163 212 263 310 378
#     4   9  21  40  61  91 126 162 211 267 317 369
#
# _framework density 22.643395000000002
#
# number of rings (size 3 to 8) (size 9 to 14) (size 15 to 20)
#    0.000    2.286    1.429    0.857    2.000    1.143 
#   18.000    1.429    0.000    0.000    0.000    0.000 
#    0.000    0.000    0.000    0.000    0.000    0.000 
#
# Total GULP energy -78092.639701 kJ/mol
# GULP energy per Si atom -5578.045693 kJ/mol
# Density = 2.259186 g / cm^3
# Si number density = 22.643395 Si / 1000 Ang^3
#
#
#
# Elastic Constant Matrix: (Units=GPa)
#
#
# Indices 1 2 3 4 5 6 
#
# 1 70.9323 32.0328 22.7122 0.0000 14.6716 0.0000
# 2 32.0328 95.9443 22.3887 0.0000 6.2384 0.0000
# 3 22.7122 22.3887 44.6987 0.0000 9.3217 0.0000
# 4 0.0000 0.0000 0.0000 49.5290 0.0000 -8.5480
# 5 14.6716 6.2384 9.3217 0.0000 35.6227 0.0000
# 6 0.0000 0.0000 0.0000 -8.5480 0.0000 17.3581
#
#
#
# Elastic Compliance Matrix: (Units=1/GPa)
#
#
# Indices 1 2 3 4 5 6 
#
# 1 0.019363 -0.004619 -0.006379 0.000000 -0.005497 0.000000
# 2 -0.004619 0.012914 -0.004280 0.000000 0.000761 0.000000
# 3 -0.006379 -0.004280 0.028614 0.000000 -0.004111 0.000000
# 4 0.000000 0.000000 0.000000 0.022066 0.000000 0.010866
# 5 -0.005497 0.000761 -0.004111 0.000000 0.031278 0.000000
# 6 0.000000 0.000000 0.000000 0.010866 0.000000 0.062961
#
#
# Mechanical properties :
#
#
# Convention : Reuss Voigt Hill
#
# Bulk Modulus (GPa) = 32.96426 40.64918 36.80672
# Shear Modulus (GPa) = 22.95000 29.46474 26.20737
#
# Velocity S-wave (km/s) = 3.18707 3.61120 3.40574
# Velocity P-wave (km/s) = 5.30404 5.94799 5.63522
#
# Compressibility (1/GPa) = 0.03033588
#
# Stress axis : x y z
#
# Youngs Moduli (GPa) = 51.64411 77.43468 34.94735
#
# Poissons Ratio (x) = 0.35766 0.22293
# Poissons Ratio (y) = 0.23854 0.14958
# Poissons Ratio (z) = 0.32944 0.33143
#
# Static dielectric constant tensor:
#      x y z
#    x 1.817130 0.000000 -0.006420 
#    y 0.000000 1.863070 0.000000 
#    z -0.006420 0.000000 1.906320 
# 
# From -- ./inp_files/1232.got.cif
#   From: 2010.05.17/outbox.cif.g08.bks.cpg/sg4_1_cif.got.tgz:1232.got - 2010.06.03 18:43:04.
