data_PCOD9115340
_publ_section_title
;
Structure prediction by ZEFSAII (Michael W. Deem and Ramdas Pophale) SiO2 
 PCOD9115340
Probable space group: P 21
;
_chemical_formula_sum "Si O2"
_cell_formula_units_Z 14
_cell_length_a 12.457169
_cell_length_b 11.760415
_cell_length_c 7.435371
_cell_angle_alpha 90.000000
_cell_angle_beta 29.913200
_cell_angle_gamma 90.000000
_cell_volume 543.216661
_symmetry_space_group_name_H-M "P 21"
_symmetry_group_IT_number 4
_symmetry_cell_setting 'monoclinic'
loop_
_space_group_symop_operation_xyz
x,y,z
-x,1/2+y,-z
loop_
_atom_site_type_symbol
_atom_site_label
_atom_site_fract_x
_atom_site_fract_y
_atom_site_fract_z
Si Si1 0.722216 0.185670 0.939997
Si Si2 0.441453 0.164474 0.849145
Si Si3 0.695215 0.437080 0.859601
Si Si4 0.841857 0.963371 0.634145
Si Si5 0.734248 0.617900 0.248164
Si Si6 0.124420 0.239519 0.609562
Si Si7 0.388013 0.896565 0.428517
O O1 0.651789 0.309074 0.978595
O O2 0.919458 0.200205 0.790978
O O3 0.784848 0.096083 0.692222
O O4 0.515195 0.137233 0.339672
O O5 0.257407 0.170963 0.961117
O O6 0.620289 0.259671 0.546679
O O7 0.330107 0.192599 0.200291
O O8 0.473517 0.028734 0.816378
O O9 0.691099 0.438285 0.650872
O O10 0.934977 0.460716 0.582778
O O11 0.853219 0.875636 0.451768
O O12 0.646377 0.917088 0.043285
O O13 0.868217 0.685213 0.203609
O O14 0.739160 0.479689 0.251619
#
# Coordination Sequence:
#
# PCOD9115340 Si02
#       7
#     2   2   2   2   2   2   2
#     4  10  20  37  66  92 121 164 208 249 308 371
#     4  11  23  40  65  93 123 163 209 250 311 366
#     4  11  21  39  67  88 125 165 202 257 305 366
#     4   9  19  36  66  92 117 163 207 247 309 368
#     4  11  23  41  63  90 129 158 206 260 303 365
#     4  10  20  43  64  87 128 164 198 257 314 358
#     4  10  22  40  61  92 123 163 204 254 310 364
#
# _framework density 25.772404000000002
#
# number of rings (size 3 to 8) (size 9 to 14) (size 15 to 20)
#    0.000    1.714    2.857    1.714    4.000    0.000 
#    0.000    7.143   15.714    0.000    0.000    0.000 
#    0.000    0.000    0.000    0.000    0.000    0.000 
#
# Total GULP energy -78262.795910 kJ/mol
# GULP energy per Si atom -5590.199708 kJ/mol
# Density = 2.571374 g / cm^3
# Si number density = 25.772404 Si / 1000 Ang^3
#
#
#
# Elastic Constant Matrix: (Units=GPa)
#
#
# Indices 1 2 3 4 5 6 
#
# 1 144.5076 50.7537 13.2576 0.0000 -5.4873 0.0000
# 2 50.7537 230.5499 30.5109 0.0000 -4.1574 0.0000
# 3 13.2576 30.5109 59.3845 0.0000 -18.4375 0.0000
# 4 0.0000 0.0000 0.0000 23.8770 0.0000 -1.1897
# 5 -5.4873 -4.1574 -18.4375 0.0000 33.2913 0.0000
# 6 0.0000 0.0000 0.0000 -1.1897 0.0000 24.1846
#
#
#
# Elastic Compliance Matrix: (Units=1/GPa)
#
#
# Indices 1 2 3 4 5 6 
#
# 1 0.007556 -0.001562 -0.000674 0.000000 0.000677 0.000000
# 2 -0.001562 0.004999 -0.002543 0.000000 -0.001042 0.000000
# 3 -0.000674 -0.002543 0.021935 0.000000 0.011720 0.000000
# 4 0.000000 0.000000 0.000000 0.041984 0.000000 0.002065
# 5 0.000677 -0.001042 0.011720 0.000000 0.036510 0.000000
# 6 0.000000 0.000000 0.000000 0.002065 0.000000 0.041450
#
#
# Mechanical properties :
#
#
# Convention : Reuss Voigt Hill
#
# Bulk Modulus (GPa) = 40.10936 69.27626 54.69281
# Shear Modulus (GPa) = 29.01843 38.93189 33.97516
#
# Velocity S-wave (km/s) = 3.35916 3.89087 3.63475
# Velocity P-wave (km/s) = 5.53552 6.86465 6.23560
#
# Compressibility (1/GPa) = 0.02493184
#
# Stress axis : x y z
#
# Youngs Moduli (GPa) = 132.34133 200.03615 45.58880
#
# Poissons Ratio (x) = 0.31246 0.03074
# Poissons Ratio (y) = 0.20672 0.11594
# Poissons Ratio (z) = 0.08922 0.50872
#
# Static dielectric constant tensor:
#      x y z
#    x 2.050750 0.000000 0.031840 
#    y 0.000000 2.154160 0.000000 
#    z 0.031840 0.000000 2.010580 
# 
# From -- ./inp_files/8134.got.cif
#   From: 2010.05.17/outbox.cif.g08.bks.cpg/sg4_5_cif.got.tgz:8134.got - 2010.06.03 18:43:04.
