data_PCOD9115852
_publ_section_title
;
Structure prediction by ZEFSAII (Michael W. Deem and Ramdas Pophale) SiO2 
 PCOD9115852
Probable space group: P 21
;
_chemical_formula_sum "Si O2"
_cell_formula_units_Z 14
_cell_length_a 12.796637
_cell_length_b 5.041406
_cell_length_c 10.241929
_cell_angle_alpha 90.000000
_cell_angle_beta 51.758188
_cell_angle_gamma 90.000000
_cell_volume 518.947192
_symmetry_space_group_name_H-M "P 21"
_symmetry_group_IT_number 4
_symmetry_cell_setting 'monoclinic'
loop_
_space_group_symop_operation_xyz
x,y,z
-x,1/2+y,-z
loop_
_atom_site_type_symbol
_atom_site_label
_atom_site_fract_x
_atom_site_fract_y
_atom_site_fract_z
Si Si1 0.848420 0.558560 0.030435
Si Si2 0.415266 0.668829 0.587880
Si Si3 0.731084 0.842457 0.799446
Si Si4 0.409812 0.354865 0.848632
Si Si5 0.717382 0.330136 0.633875
Si Si6 0.863373 0.056629 0.205618
Si Si7 0.006153 0.987952 0.587017
O O1 0.706075 0.628340 0.074561
O O2 0.858931 0.282998 0.098309
O O3 0.855183 0.775773 0.140229
O O4 0.990215 0.567465 0.843908
O O5 0.466965 0.969141 0.547304
O O6 0.384014 0.574497 0.759261
O O7 0.279284 0.602752 0.615237
O O8 0.717882 0.545810 0.754749
O O9 0.869249 0.920578 0.765845
O O10 0.739818 0.036532 0.669809
O O11 0.611920 0.931665 0.984646
O O12 0.565775 0.313970 0.703696
O O13 0.850528 0.439620 0.457662
O O14 0.002860 0.778412 0.468583
#
# Coordination Sequence:
#
# PCOD9115852 Si02
#       7
#     2   2   2   2   2   2   2
#     4   9  19  34  60  87 110 153 195 255 300 357
#     4  11  24  41  61  86 123 168 205 258 310 363
#     4  10  21  37  61  89 125 158 202 245 303 361
#     4  11  23  39  63  93 121 159 209 252 302 365
#     4  10  21  37  61  91 125 159 192 251 306 364
#     4   9  18  38  60  79 114 153 201 248 309 347
#     4   8  16  34  56  79 116 158 190 235 296 357
#
# _framework density 26.977696999999999
#
# number of rings (size 3 to 8) (size 9 to 14) (size 15 to 20)
#    0.000    2.286    0.000    2.571    0.000    6.857 
#    2.571    0.000    9.429    0.000    0.000    0.000 
#    0.000    0.000    0.000    0.000    0.000    0.000 
#
# Total GULP energy -78168.923028 kJ/mol
# GULP energy per Si atom -5583.494502 kJ/mol
# Density = 2.691629 g / cm^3
# Si number density = 26.977697 Si / 1000 Ang^3
#
#
#
# Elastic Constant Matrix: (Units=GPa)
#
#
# Indices 1 2 3 4 5 6 
#
# 1 104.5529 32.2122 15.5479 0.0000 -45.6755 0.0000
# 2 32.2122 78.9232 16.3489 0.0000 -5.6374 0.0000
# 3 15.5479 16.3489 139.2286 0.0000 -51.0340 0.0000
# 4 0.0000 0.0000 0.0000 -46.4549 0.0000 82.8841
# 5 -45.6755 -5.6374 -51.0340 0.0000 53.1138 0.0000
# 6 0.0000 0.0000 0.0000 82.8841 0.0000 -61.8952
#
#
#
# Elastic Compliance Matrix: (Units=1/GPa)
#
#
# Indices 1 2 3 4 5 6 
#
# 1 0.022701 -0.009080 0.008234 0.000000 0.026470 0.000000
# 2 -0.009080 0.016619 -0.004868 0.000000 -0.010722 0.000000
# 3 0.008234 -0.004868 0.014264 0.000000 0.020270 0.000000
# 4 0.000000 0.000000 0.000000 0.015495 0.000000 0.020750
# 5 0.026470 -0.010722 0.020270 0.000000 0.059928 0.000000
# 6 0.000000 0.000000 0.000000 0.020750 0.000000 0.011630
#
#
# Mechanical properties :
#
#
# Convention : Reuss Voigt Hill
#
# Bulk Modulus (GPa) = 23.72127 50.10253 36.91190
# Shear Modulus (GPa) = 30.09888 6.19244 18.14566
#
# Velocity S-wave (km/s) = 3.34383 1.51670 2.59630
# Velocity P-wave (km/s) = 4.87034 4.65611 4.76443
#
# Compressibility (1/GPa) = 0.04215626
#
# Stress axis : x y z
#
# Youngs Moduli (GPa) = 44.05013 60.17168 70.10474
#
# Poissons Ratio (x) = 0.54638 -0.57721
# Poissons Ratio (y) = 0.39999 0.34124
# Poissons Ratio (z) = -0.36269 0.29289
#
# Static dielectric constant tensor:
#      x y z
#    x 2.288790 0.000000 -0.034620 
#    y 0.000000 1.988440 0.000000 
#    z -0.034620 0.000000 2.187380 
# 
# From -- ./inp_files/11570.got.cif
#   From: 2010.05.17/outbox.cif.g08.bks.cpg/sg4_6_cif.got.tgz:11570.got - 2010.06.03 18:43:04.
