data_PCOD9115656
_publ_section_title
;
Structure prediction by ZEFSAII (Michael W. Deem and Ramdas Pophale) SiO2 
 PCOD9115656
Probable space group: P 21
;
_chemical_formula_sum "Si O2"
_cell_formula_units_Z 16
_cell_length_a 8.840507
_cell_length_b 10.229816
_cell_length_c 7.910116
_cell_angle_alpha 90.000000
_cell_angle_beta 97.443906
_cell_angle_gamma 90.000000
_cell_volume 709.336288
_symmetry_space_group_name_H-M "P 21"
_symmetry_group_IT_number 4
_symmetry_cell_setting 'monoclinic'
loop_
_space_group_symop_operation_xyz
x,y,z
-x,1/2+y,-z
loop_
_atom_site_type_symbol
_atom_site_label
_atom_site_fract_x
_atom_site_fract_y
_atom_site_fract_z
Si Si1 0.287005 0.835340 0.595168
Si Si2 0.639229 0.840720 0.736586
Si Si3 0.900281 0.206255 0.180705
Si Si4 0.902773 0.474440 0.705981
Si Si5 0.757048 0.089829 0.643673
Si Si6 0.952566 0.718935 0.162654
Si Si7 0.297226 0.091307 0.061869
Si Si8 0.629628 0.054472 0.971364
O O1 0.459711 0.858101 0.676348
O O2 0.166434 0.828199 0.729695
O O3 0.280824 0.690666 0.508730
O O4 0.221293 0.936942 0.451210
O O5 0.680847 0.692554 0.777513
O O6 0.728146 0.934599 0.618039
O O7 0.675807 0.908981 0.922735
O O8 0.007450 0.109568 0.304270
O O9 0.990020 0.237590 0.022829
O O10 0.751989 0.122920 0.106077
O O11 0.022911 0.355409 0.738509
O O12 0.811909 0.483146 0.871269
O O13 0.926832 0.120220 0.733354
O O14 0.646010 0.123037 0.788685
O O15 0.788823 0.655342 0.110344
O O16 0.464227 0.052431 0.027192
#
# Coordination Sequence:
#
# PCOD9115656 Si02
#       8
#     2   2   2   2   2   2   2   2
#     4  11  22  41  63  87 130 162 197 247 314 363
#     4  10  22  37  62  92 122 154 201 248 304 361
#     4  10  20  42  62  87 125 157 203 251 298 359
#     4  10  24  41  60  93 121 163 201 250 306 366
#     4   8  21  41  60  88 126 155 196 249 305 358
#     4   9  20  40  65  88 121 153 205 253 296 355
#     4  11  21  36  68  93 116 157 206 253 303 349
#     4   9  20  38  64  92 115 155 207 251 292 353
#
# _framework density 22.556298000000002
#
# number of rings (size 3 to 8) (size 9 to 14) (size 15 to 20)
#    0.750    1.500    1.250    0.750    5.250    1.000 
#    9.000    1.250    0.000    0.000    0.000    0.000 
#    0.000    0.000    0.000    0.000    0.000    0.000 
#
# Total GULP energy -89269.374480 kJ/mol
# GULP energy per Si atom -5579.335905 kJ/mol
# Density = 2.250496 g / cm^3
# Si number density = 22.556298 Si / 1000 Ang^3
#
#
#
# Elastic Constant Matrix: (Units=GPa)
#
#
# Indices 1 2 3 4 5 6 
#
# 1 65.0402 -1.4104 -4.5586 0.0000 2.8157 0.0000
# 2 -1.4104 44.2783 3.2067 0.0000 2.3620 0.0000
# 3 -4.5586 3.2067 41.2659 0.0000 6.4633 0.0000
# 4 0.0000 0.0000 0.0000 25.6547 0.0000 8.7746
# 5 2.8157 2.3620 6.4633 0.0000 25.6009 0.0000
# 6 0.0000 0.0000 0.0000 8.7746 0.0000 24.6655
#
#
#
# Elastic Compliance Matrix: (Units=1/GPa)
#
#
# Indices 1 2 3 4 5 6 
#
# 1 0.015627 0.000471 0.002047 0.000000 -0.002279 0.000000
# 2 0.000471 0.022799 -0.001439 0.000000 -0.001792 0.000000
# 3 0.002047 -0.001439 0.025598 0.000000 -0.006555 0.000000
# 4 0.000000 0.000000 0.000000 0.044379 0.000000 -0.015788
# 5 -0.002279 -0.001792 -0.006555 0.000000 0.041132 0.000000
# 6 0.000000 0.000000 0.000000 -0.015788 0.000000 0.046159
#
#
# Mechanical properties :
#
#
# Convention : Reuss Voigt Hill
#
# Bulk Modulus (GPa) = 15.10984 16.11775 15.61380
# Shear Modulus (GPa) = 23.19140 25.40732 24.29936
#
# Velocity S-wave (km/s) = 3.20997 3.35982 3.28575
# Velocity P-wave (km/s) = 4.52236 4.71299 4.61866
#
# Compressibility (1/GPa) = 0.06618203
#
# Stress axis : x y z
#
# Youngs Moduli (GPa) = 63.99001 43.86113 39.06610
#
# Poissons Ratio (x) = -0.02067 -0.07995
# Poissons Ratio (y) = -0.03015 0.05621
# Poissons Ratio (z) = -0.13097 0.06311
#
# Static dielectric constant tensor:
#      x y z
#    x 1.804060 0.000000 -0.016800 
#    y 0.000000 1.891690 0.000000 
#    z -0.016800 0.000000 1.828130 
# 
# From -- ./inp_files/5981.got.cif
#   From: 2010.05.17/outbox.cif.g08.bks.cpg/sg4_3_cif.got.tgz:5981.got - 2010.06.03 18:43:04.
