data_PCOD9115798
_publ_section_title
;
Structure prediction by ZEFSAII (Michael W. Deem and Ramdas Pophale) SiO2 
 PCOD9115798
Probable space group: P 21
;
_chemical_formula_sum "Si O2"
_cell_formula_units_Z 16
_cell_length_a 17.263844
_cell_length_b 5.152583
_cell_length_c 9.317549
_cell_angle_alpha 90.000000
_cell_angle_beta 71.275329
_cell_angle_gamma 90.000000
_cell_volume 784.959490
_symmetry_space_group_name_H-M "P 21"
_symmetry_group_IT_number 4
_symmetry_cell_setting 'monoclinic'
loop_
_space_group_symop_operation_xyz
x,y,z
-x,1/2+y,-z
loop_
_atom_site_type_symbol
_atom_site_label
_atom_site_fract_x
_atom_site_fract_y
_atom_site_fract_z
Si Si1 0.130124 0.743930 0.950923
Si Si2 0.527013 0.178907 0.396142
Si Si3 0.689236 0.791475 0.964564
Si Si4 0.987980 0.994681 0.170351
Si Si5 0.959238 0.748548 0.478239
Si Si6 0.534256 0.688510 0.897133
Si Si7 0.314702 0.810264 0.846217
Si Si8 0.128211 0.362224 0.211117
O O1 0.219668 0.840166 0.861532
O O2 0.098839 0.549528 0.849556
O O3 0.131311 0.617415 0.109892
O O4 0.051280 0.927028 0.005764
O O5 0.489885 0.408375 0.514926
O O6 0.490951 0.183054 0.254751
O O7 0.623438 0.232302 0.315165
O O8 0.659745 0.582120 0.098999
O O9 0.682011 0.077655 0.037752
O O10 0.629802 0.753445 0.865468
O O11 0.784471 0.732993 0.875272
O O12 0.045989 0.209457 0.212930
O O13 0.965651 0.787498 0.305590
O O14 0.882991 0.870408 0.610845
O O15 0.969550 0.446390 0.508500
O O16 0.511926 0.415713 0.986314
#
# Coordination Sequence:
#
# PCOD9115798 Si02
#       8
#     2   2   2   2   2   2   2   2
#     4  11  21  36  60  91 120 165 220 261 305 376
#     4  12  25  44  70  98 137 173 207 270 352 405
#     4  11  21  39  67  95 120 162 220 269 307 377
#     4  11  20  36  59  86 120 167 208 255 310 372
#     4  10  21  36  57  81 117 156 201 248 312 363
#     4  12  22  42  71  99 124 168 221 264 320 402
#     4  11  23  41  65  95 128 165 213 271 321 380
#     4  10  21  36  59  85 122 162 208 260 313 363
#
# _framework density 20.383216000000001
#
# number of rings (size 3 to 8) (size 9 to 14) (size 15 to 20)
#    0.000    1.000    6.250    1.500    0.000    0.000 
#    2.250    0.000   11.000    0.000    0.000    0.000 
#    0.000    0.000    0.000    0.000    0.000    0.000 
#
# Total GULP energy -89150.461958 kJ/mol
# GULP energy per Si atom -5571.903872 kJ/mol
# Density = 2.033682 g / cm^3
# Si number density = 20.383216 Si / 1000 Ang^3
#
#
#
# Elastic Constant Matrix: (Units=GPa)
#
#
# Indices 1 2 3 4 5 6 
#
# 1 80.7737 -9.5574 17.0082 0.0000 -0.0936 0.0000
# 2 -9.5574 59.0672 -2.0225 0.0000 14.1359 0.0000
# 3 17.0082 -2.0225 84.5144 0.0000 1.3496 0.0000
# 4 0.0000 0.0000 0.0000 31.4634 0.0000 -4.0587
# 5 -0.0936 14.1359 1.3496 0.0000 31.3361 0.0000
# 6 0.0000 0.0000 0.0000 -4.0587 0.0000 19.7407
#
#
#
# Elastic Compliance Matrix: (Units=1/GPa)
#
#
# Indices 1 2 3 4 5 6 
#
# 1 0.013191 0.002253 -0.002587 0.000000 -0.000865 0.000000
# 2 0.002253 0.019393 0.000150 0.000000 -0.008748 0.000000
# 3 -0.002587 0.000150 0.012366 0.000000 -0.000608 0.000000
# 4 0.000000 0.000000 0.000000 0.032649 0.000000 0.006713
# 5 -0.000865 -0.008748 -0.000608 0.000000 0.035882 0.000000
# 6 0.000000 0.000000 0.000000 0.006713 0.000000 0.052037
#
#
# Mechanical properties :
#
#
# Convention : Reuss Voigt Hill
#
# Bulk Modulus (GPa) = 22.43021 26.13466 24.28244
# Shear Modulus (GPa) = 27.66319 31.10318 29.38319
#
# Velocity S-wave (km/s) = 3.68796 3.91054 3.80088
# Velocity P-wave (km/s) = 5.40026 5.76535 5.58579
#
# Compressibility (1/GPa) = 0.04458272
#
# Stress axis : x y z
#
# Youngs Moduli (GPa) = 75.81198 51.56470 80.86557
#
# Poissons Ratio (x) = -0.11617 0.20918
# Poissons Ratio (y) = -0.17079 -0.01216
# Poissons Ratio (z) = 0.19611 -0.00776
#
# Static dielectric constant tensor:
#      x y z
#    x 1.777840 0.000000 0.025290 
#    y 0.000000 1.824570 0.000000 
#    z 0.025290 0.000000 1.765750 
# 
# From -- ./inp_files/9358.got.cif
#   From: 2010.05.17/outbox.cif.g08.bks.cpg/sg4_5_cif.got.tgz:9358.got - 2010.06.03 18:43:04.
