data_PCOD9115903
_publ_section_title
;
Structure prediction by ZEFSAII (Michael W. Deem and Ramdas Pophale) SiO2 
 PCOD9115903
Probable space group: P 21
;
_chemical_formula_sum "Si O2"
_cell_formula_units_Z 14
_cell_length_a 20.040715
_cell_length_b 7.547687
_cell_length_c 9.546655
_cell_angle_alpha 90.000000
_cell_angle_beta 153.704354
_cell_angle_gamma 90.000000
_cell_volume 639.712817
_symmetry_space_group_name_H-M "P 21"
_symmetry_group_IT_number 4
_symmetry_cell_setting 'monoclinic'
loop_
_space_group_symop_operation_xyz
x,y,z
-x,1/2+y,-z
loop_
_atom_site_type_symbol
_atom_site_label
_atom_site_fract_x
_atom_site_fract_y
_atom_site_fract_z
Si Si1 0.486105 0.600520 0.399059
Si Si2 0.505372 0.459761 0.933684
Si Si3 0.572367 0.835952 0.922094
Si Si4 0.236745 0.772441 0.718234
Si Si5 0.012141 0.551149 0.667669
Si Si6 0.093968 0.433717 0.511251
Si Si7 0.676573 0.897775 0.670060
O O1 0.523494 0.422806 0.382080
O O2 0.634538 0.718957 0.673624
O O3 0.420771 0.541953 0.424804
O O4 0.353978 0.704565 0.061650
O O5 0.537322 0.648819 0.924036
O O6 0.382269 0.375858 0.597990
O O7 0.448213 0.465452 0.983393
O O8 0.657925 0.346176 0.206672
O O9 0.740277 0.845055 0.176887
O O10 0.126451 0.606661 0.476223
O O11 0.136789 0.937987 0.579868
O O12 0.045414 0.524882 0.565286
O O13 0.006454 0.758611 0.699451
O O14 0.152641 0.455801 0.005296
#
# Coordination Sequence:
#
# PCOD9115903 Si02
#       7
#     2   2   2   2   2   2   2
#     4  10  21  38  60  93 131 165 218 265 325 373
#     4  11  23  40  69  91 130 165 222 267 326 383
#     4  11  21  42  67  93 121 178 220 262 312 406
#     4  10  21  39  61  94 120 173 214 261 311 402
#     4  12  21  37  62  94 128 168 212 271 324 378
#     4  11  21  37  64  92 124 168 221 254 317 389
#     4  11  22  37  59  99 130 163 209 280 329 371
#
# _framework density 21.884820000000001
#
# number of rings (size 3 to 8) (size 9 to 14) (size 15 to 20)
#    0.000    1.143    5.714    3.429    0.000    0.000 
#    5.143    0.000    9.429    0.000    0.000    0.000 
#    0.000    0.000    0.000    0.000    0.000    0.000 
#
# Total GULP energy -78099.513066 kJ/mol
# GULP energy per Si atom -5578.536648 kJ/mol
# Density = 2.183501 g / cm^3
# Si number density = 21.884820 Si / 1000 Ang^3
#
#
#
# Elastic Constant Matrix: (Units=GPa)
#
#
# Indices 1 2 3 4 5 6 
#
# 1 78.6058 11.3490 26.6574 0.0000 7.9961 0.0000
# 2 11.3490 135.8185 19.2928 0.0000 15.6145 0.0000
# 3 26.6574 19.2928 38.8714 0.0000 11.7068 0.0000
# 4 0.0000 0.0000 0.0000 36.5841 0.0000 13.0342
# 5 7.9961 15.6145 11.7068 0.0000 25.4902 0.0000
# 6 0.0000 0.0000 0.0000 13.0342 0.0000 40.2483
#
#
#
# Elastic Compliance Matrix: (Units=1/GPa)
#
#
# Indices 1 2 3 4 5 6 
#
# 1 0.016585 0.000254 -0.011473 0.000000 -0.000089 0.000000
# 2 0.000254 0.008210 -0.003145 0.000000 -0.003664 0.000000
# 3 -0.011473 -0.003145 0.038867 0.000000 -0.012325 0.000000
# 4 0.000000 0.000000 0.000000 0.030899 0.000000 -0.010007
# 5 -0.000089 -0.003664 -0.012325 0.000000 0.047164 0.000000
# 6 0.000000 0.000000 0.000000 -0.010007 0.000000 0.028086
#
#
# Mechanical properties :
#
#
# Convention : Reuss Voigt Hill
#
# Bulk Modulus (GPa) = 28.62642 40.87710 34.75176
# Shear Modulus (GPa) = 23.78877 33.53095 28.65986
#
# Velocity S-wave (km/s) = 3.30054 3.91852 3.62273
# Velocity P-wave (km/s) = 5.25677 6.26035 5.78038
#
# Compressibility (1/GPa) = 0.03493276
#
# Stress axis : x y z
#
# Youngs Moduli (GPa) = 60.29588 121.80914 25.72895
#
# Poissons Ratio (x) = -0.03095 0.29519
# Poissons Ratio (y) = -0.01532 0.08093
# Poissons Ratio (z) = 0.69177 0.38313
#
# Static dielectric constant tensor:
#      x y z
#    x 1.773350 0.000000 0.005230 
#    y 0.000000 1.927590 0.000000 
#    z 0.005230 0.000000 1.818720 
# 
# From -- ./inp_files/9643.got.cif
#   From: 2010.05.17/outbox.cif.g08.bks.cpg/sg4_5_cif.got.tgz:9643.got - 2010.06.03 18:43:04.
