data_PCOD9115897
_publ_section_title
;
Structure prediction by ZEFSAII (Michael W. Deem and Ramdas Pophale) SiO2 
 PCOD9115897
Probable space group: P 21
;
_chemical_formula_sum "Si O2"
_cell_formula_units_Z 16
_cell_length_a 19.595944
_cell_length_b 7.596077
_cell_length_c 16.017561
_cell_angle_alpha 90.000000
_cell_angle_beta 16.855511
_cell_angle_gamma 90.000000
_cell_volume 691.335355
_symmetry_space_group_name_H-M "P 21"
_symmetry_group_IT_number 4
_symmetry_cell_setting 'monoclinic'
loop_
_space_group_symop_operation_xyz
x,y,z
-x,1/2+y,-z
loop_
_atom_site_type_symbol
_atom_site_label
_atom_site_fract_x
_atom_site_fract_y
_atom_site_fract_z
Si Si1 0.299011 0.453890 0.187870
Si Si2 0.801002 0.833780 0.931644
Si Si3 0.510269 0.804659 0.531897
Si Si4 0.426251 0.101364 0.373694
Si Si5 0.020379 0.819017 0.848134
Si Si6 0.380503 0.658469 0.522075
Si Si7 0.808417 0.600103 0.770305
Si Si8 0.558900 0.789499 0.810527
O O1 0.331997 0.261080 0.108309
O O2 0.295217 0.401262 0.290919
O O3 0.050098 0.531591 0.447874
O O4 0.483964 0.605006 0.944222
O O5 0.567229 0.752269 0.245435
O O6 0.676428 0.015652 0.049026
O O7 0.886755 0.699988 0.762235
O O8 0.985338 0.836897 0.790456
O O9 0.510210 0.672109 0.608837
O O10 0.334103 0.760152 0.663287
O O11 0.478786 0.990134 0.611811
O O12 0.767287 0.824668 0.188025
O O13 0.350525 0.232698 0.387370
O O14 0.201070 0.976920 0.655040
O O15 0.149225 0.647802 0.736448
O O16 0.652400 0.426238 0.961196
#
# Coordination Sequence:
#
# PCOD9115897 Si02
#       8
#     2   2   2   2   2   2   2   2
#     4  12  26  45  74 103 141 184 235 291 364 424
#     4  10  23  41  64  95 134 177 223 287 336 412
#     4  11  21  39  62  92 130 176 223 275 345 403
#     4  11  24  41  67  98 134 181 232 284 344 419
#     4  10  22  39  63  93 133 175 223 282 336 403
#     4  10  21  38  60  89 127 172 218 275 336 402
#     4  12  25  45  71 103 141 182 230 296 355 421
#     4  12  26  46  73 107 140 187 236 296 358 426
#
# _framework density 23.143615
#
# number of rings (size 3 to 8) (size 9 to 14) (size 15 to 20)
#    0.000    1.000    3.750    3.750    0.000    7.000 
#    0.000    1.250    0.000    0.000    0.000    0.000 
#    0.000    0.000    0.000    0.000    0.000    0.000 
#
# Total GULP energy -89167.678838 kJ/mol
# GULP energy per Si atom -5572.979927 kJ/mol
# Density = 2.309094 g / cm^3
# Si number density = 23.143615 Si / 1000 Ang^3
#
#
#
# Elastic Constant Matrix: (Units=GPa)
#
#
# Indices 1 2 3 4 5 6 
#
# 1 83.6681 21.1419 3.9654 0.0000 5.2443 0.0000
# 2 21.1419 85.5628 16.2361 0.0000 6.4131 0.0000
# 3 3.9654 16.2361 26.2246 0.0000 4.2378 0.0000
# 4 0.0000 0.0000 0.0000 29.4914 0.0000 3.6655
# 5 5.2443 6.4131 4.2378 0.0000 27.6186 0.0000
# 6 0.0000 0.0000 0.0000 3.6655 0.0000 42.3761
#
#
#
# Elastic Compliance Matrix: (Units=1/GPa)
#
#
# Indices 1 2 3 4 5 6 
#
# 1 0.012830 -0.003087 0.000255 0.000000 -0.001759 0.000000
# 2 -0.003087 0.014080 -0.008016 0.000000 -0.001453 0.000000
# 3 0.000255 -0.008016 0.043851 0.000000 -0.004916 0.000000
# 4 0.000000 0.000000 0.000000 0.034277 0.000000 -0.002965
# 5 -0.001759 -0.001453 -0.004916 0.000000 0.037633 0.000000
# 6 0.000000 0.000000 0.000000 -0.002965 0.000000 0.023855
#
#
# Mechanical properties :
#
#
# Convention : Reuss Voigt Hill
#
# Bulk Modulus (GPa) = 20.38056 30.90469 25.64262
# Shear Modulus (GPa) = 24.44091 30.17134 27.30613
#
# Velocity S-wave (km/s) = 3.25322 3.61454 3.43863
# Velocity P-wave (km/s) = 4.78921 5.54998 5.18357
#
# Compressibility (1/GPa) = 0.04906637
#
# Stress axis : x y z
#
# Youngs Moduli (GPa) = 77.94160 71.02270 22.80473
#
# Poissons Ratio (x) = 0.21924 -0.00582
# Poissons Ratio (y) = 0.24059 0.18279
# Poissons Ratio (z) = -0.01990 0.56929
#
# Static dielectric constant tensor:
#      x y z
#    x 1.595350 0.000000 -0.318080 
#    y 0.000000 2.153920 0.000000 
#    z -0.318080 0.000000 1.583740 
# 
# From -- ./inp_files/14332.got.cif
#   From: 2010.05.17/outbox.cif.g08.bks.cpg/sg4_8_cif.got.tgz:14332.got - 2010.06.03 18:43:04.
