data_PCOD9115761
_publ_section_title
;
Structure prediction by ZEFSAII (Michael W. Deem and Ramdas Pophale) SiO2 
 PCOD9115761
Probable space group: P 21
;
_chemical_formula_sum "Si O2"
_cell_formula_units_Z 10
_cell_length_a 5.167628
_cell_length_b 9.828745
_cell_length_c 6.949930
_cell_angle_alpha 90.000000
_cell_angle_beta 73.170600
_cell_angle_gamma 90.000000
_cell_volume 337.877522
_symmetry_space_group_name_H-M "P 21"
_symmetry_group_IT_number 4
_symmetry_cell_setting 'monoclinic'
loop_
_space_group_symop_operation_xyz
x,y,z
-x,1/2+y,-z
loop_
_atom_site_type_symbol
_atom_site_label
_atom_site_fract_x
_atom_site_fract_y
_atom_site_fract_z
Si Si1 0.430971 0.283340 0.077602
Si Si2 0.941683 0.569420 0.822698
Si Si3 0.608801 0.963547 0.538042
Si Si4 0.773498 0.244841 0.514556
Si Si5 0.974908 0.724862 0.154150
O O1 0.365464 0.381924 0.268435
O O2 0.739313 0.301898 0.946819
O O3 0.363808 0.123580 0.148101
O O4 0.256421 0.297564 0.920740
O O5 0.113294 0.470328 0.649156
O O6 0.097179 0.709028 0.718311
O O7 0.982814 0.577909 0.042767
O O8 0.374677 0.886948 0.473415
O O9 0.557823 0.122100 0.592625
O O10 0.000176 0.209706 0.623257
#
# Coordination Sequence:
#
# PCOD9115761 Si02
#       5
#     2   2   2   2   2
#     4  10  20  46  65 104 137 179 235 291 333 429
#     4   8  22  42  66 101 137 178 234 280 348 410
#     4  10  20  46  72 105 144 188 237 288 364 414
#     4  10  22  44  75 103 143 194 227 300 351 426
#     4  10  22  44  70 103 139 183 235 289 348 417
#
# _framework density 29.596520000000002
#
# number of rings (size 3 to 8) (size 9 to 14) (size 15 to 20)
#    2.400    0.000    2.000    0.000    0.000    3.200 
#   14.400    4.000    0.000    0.000    0.000    0.000 
#    0.000    0.000    0.000    0.000    0.000    0.000 
#
# Total GULP energy -55854.893187 kJ/mol
# GULP energy per Si atom -5585.489319 kJ/mol
# Density = 2.952916 g / cm^3
# Si number density = 29.596520 Si / 1000 Ang^3
#
#
#
# Elastic Constant Matrix: (Units=GPa)
#
#
# Indices 1 2 3 4 5 6 
#
# 1 144.4419 1.3716 50.1440 0.0000 42.4376 0.0000
# 2 1.3716 86.8346 9.4098 0.0000 30.3040 0.0000
# 3 50.1440 9.4098 174.2276 0.0000 27.8805 0.0000
# 4 0.0000 0.0000 0.0000 36.6602 0.0000 4.7356
# 5 42.4376 30.3040 27.8805 0.0000 63.9133 0.0000
# 6 0.0000 0.0000 0.0000 4.7356 0.0000 42.9354
#
#
#
# Elastic Compliance Matrix: (Units=1/GPa)
#
#
# Indices 1 2 3 4 5 6 
#
# 1 0.009469 0.002356 -0.001793 0.000000 -0.006622 0.000000
# 2 0.002356 0.014403 -0.000121 0.000000 -0.008340 0.000000
# 3 -0.001793 -0.000121 0.006517 0.000000 -0.001595 0.000000
# 4 0.000000 0.000000 0.000000 0.027672 0.000000 -0.003052
# 5 -0.006622 -0.008340 -0.001595 0.000000 0.024693 0.000000
# 6 0.000000 0.000000 0.000000 -0.003052 0.000000 0.023627
#
#
# Mechanical properties :
#
#
# Convention : Reuss Voigt Hill
#
# Bulk Modulus (GPa) = 31.97714 58.59498 45.28606
# Shear Modulus (GPa) = 43.13239 51.67369 47.40304
#
# Velocity S-wave (km/s) = 3.82166 4.18298 4.00639
# Velocity P-wave (km/s) = 5.50466 6.57044 6.06102
#
# Compressibility (1/GPa) = 0.03127234
#
# Stress axis : x y z
#
# Youngs Moduli (GPa) = 105.61022 69.43152 153.43543
#
# Poissons Ratio (x) = -0.16356 0.27507
# Poissons Ratio (y) = -0.24879 0.01860
# Poissons Ratio (z) = 0.18933 0.00842
#
# Static dielectric constant tensor:
#      x y z
#    x 2.499930 0.000000 -0.129180 
#    y 0.000000 2.609800 0.000000 
#    z -0.129180 0.000000 2.216590 
# 
# From -- ./inp_files/1300.got.cif
#   From: 2010.05.17/outbox.cif.g08.bks.cpg/sg4_1_cif.got.tgz:1300.got - 2010.06.03 18:43:04.
