data_PCOD9115434
_publ_section_title
;
Structure prediction by ZEFSAII (Michael W. Deem and Ramdas Pophale) SiO2 
 PCOD9115434
Probable space group: P 21
;
_chemical_formula_sum "Si O2"
_cell_formula_units_Z 16
_cell_length_a 11.545645
_cell_length_b 9.277447
_cell_length_c 10.400106
_cell_angle_alpha 90.000000
_cell_angle_beta 39.754948
_cell_angle_gamma 90.000000
_cell_volume 712.407792
_symmetry_space_group_name_H-M "P 21"
_symmetry_group_IT_number 4
_symmetry_cell_setting 'monoclinic'
loop_
_space_group_symop_operation_xyz
x,y,z
-x,1/2+y,-z
loop_
_atom_site_type_symbol
_atom_site_label
_atom_site_fract_x
_atom_site_fract_y
_atom_site_fract_z
Si Si1 0.323907 0.113830 0.725850
Si Si2 0.813301 0.428139 0.640995
Si Si3 0.451340 0.409084 0.592759
Si Si4 0.104102 0.646839 0.279646
Si Si5 0.136913 0.572483 0.770435
Si Si6 0.610459 0.932203 0.061985
Si Si7 0.965048 0.274823 0.940986
Si Si8 0.189365 0.135289 0.113908
O O1 0.471244 0.239202 0.578663
O O2 0.148409 0.201072 0.833215
O O3 0.362632 0.985829 0.596971
O O4 0.308216 0.082355 0.889784
O O5 0.884288 0.268477 0.619065
O O6 0.605528 0.418404 0.770917
O O7 0.801856 0.521074 0.781394
O O8 0.950770 0.524771 0.437446
O O9 0.317276 0.476767 0.598408
O O10 0.366520 0.448131 0.803495
O O11 0.064796 0.732841 0.180896
O O12 0.294315 0.563511 0.094229
O O13 0.998183 0.443620 0.933081
O O14 0.020433 0.644114 0.755463
O O15 0.171057 0.692862 0.848875
O O16 0.720783 0.788283 0.928822
#
# Coordination Sequence:
#
# PCOD9115434 Si02
#       8
#     2   2   2   2   2   2   2   2
#     4   9  21  36  61  92 132 165 216 277 342 407
#     4  12  26  46  69  99 138 185 235 286 334 412
#     4  10  20  39  58  98 126 169 218 271 348 402
#     4  12  25  45  70 100 137 185 237 279 345 403
#     4  10  20  38  67  92 132 162 216 277 341 409
#     4  11  24  46  69  97 136 181 231 289 338 411
#     4  10  20  39  63  94 126 172 213 279 337 405
#     4  10  22  45  63  94 135 175 226 282 345 405
#
# _framework density 22.459046000000001
#
# number of rings (size 3 to 8) (size 9 to 14) (size 15 to 20)
#    0.000    1.500    2.500    3.000    0.000    3.000 
#   11.250    1.250    0.000    0.000    0.000    0.000 
#    0.000    0.000    0.000    0.000    0.000    0.000 
#
# Total GULP energy -89253.655530 kJ/mol
# GULP energy per Si atom -5578.353471 kJ/mol
# Density = 2.240793 g / cm^3
# Si number density = 22.459046 Si / 1000 Ang^3
#
#
#
# Elastic Constant Matrix: (Units=GPa)
#
#
# Indices 1 2 3 4 5 6 
#
# 1 77.0576 17.3478 10.8777 0.0000 -7.3570 0.0000
# 2 17.3478 106.1951 27.9260 0.0000 4.9068 0.0000
# 3 10.8777 27.9260 73.1844 0.0000 -3.1384 0.0000
# 4 0.0000 0.0000 0.0000 50.3015 0.0000 -1.6686
# 5 -7.3570 4.9068 -3.1384 0.0000 17.4983 0.0000
# 6 0.0000 0.0000 0.0000 -1.6686 0.0000 27.1636
#
#
#
# Elastic Compliance Matrix: (Units=1/GPa)
#
#
# Indices 1 2 3 4 5 6 
#
# 1 0.014267 -0.002386 -0.000931 0.000000 0.006500 0.000000
# 2 -0.002386 0.011106 -0.004091 0.000000 -0.004851 0.000000
# 3 -0.000931 -0.004091 0.015516 0.000000 0.003539 0.000000
# 4 0.000000 0.000000 0.000000 0.019921 0.000000 0.001224
# 5 0.006500 -0.004851 0.003539 0.000000 0.061877 0.000000
# 6 0.000000 0.000000 0.000000 0.001224 0.000000 0.036889
#
#
# Mechanical properties :
#
#
# Convention : Reuss Voigt Hill
#
# Bulk Modulus (GPa) = 38.35672 40.97112 39.66392
# Shear Modulus (GPa) = 27.31004 32.34505 29.82755
#
# Velocity S-wave (km/s) = 3.49089 3.79909 3.64825
# Velocity P-wave (km/s) = 5.77616 6.12587 5.95358
#
# Compressibility (1/GPa) = 0.02607105
#
# Stress axis : x y z
#
# Youngs Moduli (GPa) = 70.09413 90.03748 64.45165
#
# Poissons Ratio (x) = 0.21483 0.06002
# Poissons Ratio (y) = 0.16724 0.26370
# Poissons Ratio (z) = 0.06528 0.36838
#
# Static dielectric constant tensor:
#      x y z
#    x 1.847110 0.000000 -0.035170 
#    y 0.000000 1.871650 0.000000 
#    z -0.035170 0.000000 1.919500 
# 
# From -- ./inp_files/12107.got.cif
#   From: 2010.05.17/outbox.cif.g08.bks.cpg/sg4_7_cif.got.tgz:12107.got - 2010.06.03 18:43:04.
