data_PCOD9115835
_publ_section_title
;
Structure prediction by ZEFSAII (Michael W. Deem and Ramdas Pophale) SiO2 
 PCOD9115835
Probable space group: P 21
;
_chemical_formula_sum "Si O2"
_cell_formula_units_Z 14
_cell_length_a 13.284495
_cell_length_b 7.872212
_cell_length_c 9.192685
_cell_angle_alpha 90.000000
_cell_angle_beta 30.686773
_cell_angle_gamma 90.000000
_cell_volume 490.622619
_symmetry_space_group_name_H-M "P 21"
_symmetry_group_IT_number 4
_symmetry_cell_setting 'monoclinic'
loop_
_space_group_symop_operation_xyz
x,y,z
-x,1/2+y,-z
loop_
_atom_site_type_symbol
_atom_site_label
_atom_site_fract_x
_atom_site_fract_y
_atom_site_fract_z
Si Si1 0.132651 0.584860 0.022783
Si Si2 0.549893 0.805583 0.123231
Si Si3 0.667107 0.884782 0.566996
Si Si4 0.922309 0.710987 0.020814
Si Si5 0.466635 0.111237 0.580242
Si Si6 0.054944 0.368560 0.538156
Si Si7 0.660087 0.445439 0.859153
O O1 0.066525 0.386270 0.085015
O O2 0.367930 0.616765 0.751242
O O3 0.107436 0.649656 0.883706
O O4 0.016720 0.694400 0.289982
O O5 0.767305 0.863567 0.800780
O O6 0.554630 0.614800 0.049675
O O7 0.525598 0.778409 0.324958
O O8 0.373842 0.911989 0.268416
O O9 0.787101 0.747466 0.329985
O O10 0.835233 0.968307 0.465060
O O11 0.552457 0.968180 0.577091
O O12 0.497810 0.811373 0.880035
O O13 0.769687 0.580556 0.136781
O O14 0.866676 0.431092 0.682813
#
# Coordination Sequence:
#
# PCOD9115835 Si02
#       7
#     2   2   2   2   2   2   2
#     4  10  23  39  61  88 116 155 200 237 287 351
#     4  10  24  38  58  89 114 152 198 236 290 353
#     4   8  19  38  57  85 114 155 198 226 284 356
#     4  10  21  37  60  90 120 150 193 245 291 339
#     4  10  21  37  58  85 120 152 188 238 289 342
#     4  10  21  39  62  85 116 155 196 242 290 340
#     4  10  21  40  62  82 120 157 191 242 291 345
#
# _framework density 28.535170999999998
#
# number of rings (size 3 to 8) (size 9 to 14) (size 15 to 20)
#    0.000    2.286    0.000    0.857    0.000   17.143 
#    0.000    1.429    0.000    0.000    0.000    0.000 
#    0.000    0.000    0.000    0.000    0.000    0.000 
#
# Total GULP energy -78034.652449 kJ/mol
# GULP energy per Si atom -5573.903746 kJ/mol
# Density = 2.847022 g / cm^3
# Si number density = 28.535171 Si / 1000 Ang^3
#
#
#
# Elastic Constant Matrix: (Units=GPa)
#
#
# Indices 1 2 3 4 5 6 
#
# 1 109.9845 28.1227 25.7143 0.0000 -31.5120 0.0000
# 2 28.1227 69.0604 -7.0150 0.0000 -15.4622 0.0000
# 3 25.7143 -7.0150 129.9935 0.0000 -24.7321 0.0000
# 4 0.0000 0.0000 0.0000 20.0466 0.0000 0.9261
# 5 -31.5120 -15.4622 -24.7321 0.0000 56.4298 0.0000
# 6 0.0000 0.0000 0.0000 0.9261 0.0000 46.8690
#
#
#
# Elastic Compliance Matrix: (Units=1/GPa)
#
#
# Indices 1 2 3 4 5 6 
#
# 1 0.011861 -0.003914 -0.001638 0.000000 0.004833 0.000000
# 2 -0.003914 0.017108 0.002371 0.000000 0.003541 0.000000
# 3 -0.001638 0.002371 0.008831 0.000000 0.003605 0.000000
# 4 0.000000 0.000000 0.000000 0.049929 0.000000 -0.000987
# 5 0.004833 0.003541 0.003605 0.000000 0.022970 0.000000
# 6 0.000000 0.000000 0.000000 -0.000987 0.000000 0.021356
#
#
# Mechanical properties :
#
#
# Convention : Reuss Voigt Hill
#
# Bulk Modulus (GPa) = 31.80955 44.74250 38.27603
# Shear Modulus (GPa) = 33.58066 42.15017 37.86542
#
# Velocity S-wave (km/s) = 3.43420 3.84752 3.64672
# Velocity P-wave (km/s) = 5.18620 5.95413 5.58338
#
# Compressibility (1/GPa) = 0.03143710
#
# Stress axis : x y z
#
# Youngs Moduli (GPa) = 84.31213 58.45329 113.24275
#
# Poissons Ratio (x) = 0.22880 0.18548
# Poissons Ratio (y) = 0.33001 -0.26852
# Poissons Ratio (z) = 0.13810 -0.13860
#
# Static dielectric constant tensor:
#      x y z
#    x 2.450220 0.000000 -0.151480 
#    y 0.000000 2.936900 0.000000 
#    z -0.151480 0.000000 2.690390 
# 
# From -- ./inp_files/2390.got.cif
#   From: 2010.05.17/outbox.cif.g08.bks.cpg/sg4_2_cif.got.tgz:2390.got - 2010.06.03 18:43:04.
