data_PCOD9115550
_publ_section_title
;
Structure prediction by ZEFSAII (Michael W. Deem and Ramdas Pophale) SiO2 
 PCOD9115550
Probable space group: P 21
;
_chemical_formula_sum "Si O2"
_cell_formula_units_Z 16
_cell_length_a 8.821115
_cell_length_b 8.669923
_cell_length_c 18.058940
_cell_angle_alpha 90.000000
_cell_angle_beta 36.364229
_cell_angle_gamma 90.000000
_cell_volume 818.887683
_symmetry_space_group_name_H-M "P 21"
_symmetry_group_IT_number 4
_symmetry_cell_setting 'monoclinic'
loop_
_space_group_symop_operation_xyz
x,y,z
-x,1/2+y,-z
loop_
_atom_site_type_symbol
_atom_site_label
_atom_site_fract_x
_atom_site_fract_y
_atom_site_fract_z
Si Si1 0.104811 0.867970 0.754063
Si Si2 0.687980 0.851147 0.137422
Si Si3 0.400691 0.371029 0.245878
Si Si4 0.474992 0.348783 0.056222
Si Si5 0.487446 0.109867 0.674228
Si Si6 0.103890 0.701645 0.608105
Si Si7 0.320348 0.002830 0.159317
Si Si8 0.869857 0.169683 0.118049
O O1 0.195831 0.816647 0.636953
O O2 0.134753 0.719466 0.795018
O O3 0.801929 0.895533 0.867413
O O4 0.252051 0.011307 0.732521
O O5 0.587373 0.757224 0.247511
O O6 0.474314 0.918202 0.164892
O O7 0.850089 0.993046 0.105383
O O8 0.879746 0.743764 0.016263
O O9 0.490034 0.431381 0.129994
O O10 0.384900 0.497168 0.315492
O O11 0.617385 0.250128 0.183865
O O12 0.128990 0.289175 0.341461
O O13 0.456730 0.165928 0.082157
O O14 0.676312 0.397500 0.915306
O O15 0.678119 0.153239 0.533626
O O16 0.957883 0.556687 0.703362
#
# Coordination Sequence:
#
# PCOD9115550 Si02
#       8
#     2   2   2   2   2   2   2   2
#     4   9  21  43  62  90 129 166 215 276 324 381
#     4  12  24  38  63  97 132 170 211 270 337 386
#     4   9  21  40  63  91 128 173 212 271 324 383
#     4  10  20  40  65  88 130 162 205 274 327 388
#     4  11  25  39  67  92 128 176 224 263 326 390
#     4  10  23  43  66  90 132 170 220 275 311 394
#     4  10  22  40  64  95 127 166 212 265 332 384
#     4  11  20  39  64  93 130 161 215 272 327 396
#
# _framework density 19.538699999999999
#
# number of rings (size 3 to 8) (size 9 to 14) (size 15 to 20)
#    0.000    2.000    3.750    1.500    3.500    3.000 
#    0.000    5.000    0.000    0.000    0.000    0.000 
#    0.000    0.000    0.000    0.000    0.000    0.000 
#
# Total GULP energy -89317.323995 kJ/mol
# GULP energy per Si atom -5582.332750 kJ/mol
# Density = 1.949423 g / cm^3
# Si number density = 19.538700 Si / 1000 Ang^3
#
#
#
# Elastic Constant Matrix: (Units=GPa)
#
#
# Indices 1 2 3 4 5 6 
#
# 1 99.3885 26.2966 37.7166 0.0000 13.0651 0.0000
# 2 26.2966 81.3244 57.0441 0.0000 6.1874 0.0000
# 3 37.7166 57.0441 90.4831 0.0000 20.9671 0.0000
# 4 0.0000 0.0000 0.0000 32.3712 0.0000 7.7461
# 5 13.0651 6.1874 20.9671 0.0000 21.0034 0.0000
# 6 0.0000 0.0000 0.0000 7.7461 0.0000 33.1273
#
#
#
# Elastic Compliance Matrix: (Units=1/GPa)
#
#
# Indices 1 2 3 4 5 6 
#
# 1 0.012188 -0.001268 -0.003396 0.000000 -0.003817 0.000000
# 2 -0.001268 0.023773 -0.016936 0.000000 0.010693 0.000000
# 3 -0.003396 -0.016936 0.027969 0.000000 -0.020819 0.000000
# 4 0.000000 0.000000 0.000000 0.032723 0.000000 -0.007651
# 5 -0.003817 0.010693 -0.020819 0.000000 0.067619 0.000000
# 6 0.000000 0.000000 0.000000 -0.007651 0.000000 0.031976
#
#
# Mechanical properties :
#
#
# Convention : Reuss Voigt Hill
#
# Bulk Modulus (GPa) = 48.24428 57.03453 52.63940
# Shear Modulus (GPa) = 20.29568 27.30962 23.80265
#
# Velocity S-wave (km/s) = 3.22645 3.74266 3.49410
# Velocity P-wave (km/s) = 6.21492 6.92320 6.57860
#
# Compressibility (1/GPa) = 0.02072785
#
# Stress axis : x y z
#
# Youngs Moduli (GPa) = 82.04999 42.06468 35.75389
#
# Poissons Ratio (x) = 0.05336 0.12142
# Poissons Ratio (y) = 0.10407 0.60554
# Poissons Ratio (z) = 0.27864 0.71243
#
# Static dielectric constant tensor:
#      x y z
#    x 1.719110 0.000000 0.014470 
#    y 0.000000 1.703140 0.000000 
#    z 0.014470 0.000000 1.662910 
# 
# From -- ./inp_files/14906.got.cif
#   From: 2010.05.17/outbox.cif.g08.bks.cpg/sg4_8_cif.got.tgz:14906.got - 2010.06.03 18:43:04.
