data_PCOD9115922
_publ_section_title
;
Structure prediction by ZEFSAII (Michael W. Deem and Ramdas Pophale) SiO2 
 PCOD9115922
Probable space group: P 21
;
_chemical_formula_sum "Si O2"
_cell_formula_units_Z 14
_cell_length_a 14.027000
_cell_length_b 9.122155
_cell_length_c 8.503882
_cell_angle_alpha 90.000000
_cell_angle_beta 148.996454
_cell_angle_gamma 90.000000
_cell_volume 560.484408
_symmetry_space_group_name_H-M "P 21"
_symmetry_group_IT_number 4
_symmetry_cell_setting 'monoclinic'
loop_
_space_group_symop_operation_xyz
x,y,z
-x,1/2+y,-z
loop_
_atom_site_type_symbol
_atom_site_label
_atom_site_fract_x
_atom_site_fract_y
_atom_site_fract_z
Si Si1 0.436061 0.247080 0.029610
Si Si2 0.221937 0.802597 0.919279
Si Si3 0.821250 0.880181 0.812856
Si Si4 0.856518 0.272775 0.516584
Si Si5 0.876453 0.947894 0.548338
Si Si6 0.573214 0.627285 0.304726
Si Si7 0.489394 0.376593 0.404963
O O1 0.653153 0.255611 0.299537
O O2 0.419898 0.239872 0.196743
O O3 0.310749 0.385768 0.796075
O O4 0.382008 0.129195 0.817460
O O5 0.157873 0.870567 0.661350
O O6 0.026901 0.819029 0.734394
O O7 0.362612 0.680585 0.044793
O O8 0.362404 0.859732 0.249046
O O9 0.849187 0.973239 0.696192
O O10 0.710117 0.740051 0.586245
O O11 0.688022 0.945081 0.758794
O O12 0.007697 0.837628 0.162515
O O13 0.932383 0.110675 0.571479
O O14 0.584732 0.477493 0.411412
#
# Coordination Sequence:
#
# PCOD9115922 Si02
#       7
#     2   2   2   2   2   2   2
#     4  10  21  38  62  90 125 163 209 254 308 378
#     4  10  22  40  65  94 125 163 213 256 309 382
#     4  10  23  39  64  97 125 164 215 254 311 386
#     4  11  23  42  63  93 130 167 208 263 318 370
#     4  11  23  43  64  92 130 166 206 264 317 371
#     4   9  21  41  62  92 129 165 206 258 318 371
#     4  11  21  41  66  94 130 166 207 265 313 370
#
# _framework density 24.978393000000001
#
# number of rings (size 3 to 8) (size 9 to 14) (size 15 to 20)
#    0.000    1.714    0.000    5.143    0.000    3.429 
#    0.000   25.714    0.000    0.000    0.000    0.000 
#    0.000    0.000    0.000    0.000    0.000    0.000 
#
# Total GULP energy -78000.425081 kJ/mol
# GULP energy per Si atom -5571.458934 kJ/mol
# Density = 2.492154 g / cm^3
# Si number density = 24.978393 Si / 1000 Ang^3
#
#
#
# Elastic Constant Matrix: (Units=GPa)
#
#
# Indices 1 2 3 4 5 6 
#
# 1 110.7436 24.7646 37.2935 0.0000 -19.3616 0.0000
# 2 24.7646 54.2782 14.1050 0.0000 -10.8382 0.0000
# 3 37.2935 14.1050 172.8776 0.0000 -25.8056 0.0000
# 4 0.0000 0.0000 0.0000 13.9269 0.0000 -3.5723
# 5 -19.3616 -10.8382 -25.8056 0.0000 40.8413 0.0000
# 6 0.0000 0.0000 0.0000 -3.5723 0.0000 30.5620
#
#
#
# Elastic Compliance Matrix: (Units=1/GPa)
#
#
# Indices 1 2 3 4 5 6 
#
# 1 0.011004 -0.003979 -0.001577 0.000000 0.003164 0.000000
# 2 -0.003979 0.021021 -0.000337 0.000000 0.003479 0.000000
# 3 -0.001577 -0.000337 0.006655 0.000000 0.003368 0.000000
# 4 0.000000 0.000000 0.000000 0.074023 0.000000 0.008652
# 5 0.003164 0.003479 0.003368 0.000000 0.029036 0.000000
# 6 0.000000 0.000000 0.000000 0.008652 0.000000 0.033732
#
#
# Mechanical properties :
#
#
# Convention : Reuss Voigt Hill
#
# Bulk Modulus (GPa) = 37.18340 54.46951 45.82646
# Shear Modulus (GPa) = 25.48136 34.51512 29.99824
#
# Velocity S-wave (km/s) = 3.19742 3.72129 3.46926
# Velocity P-wave (km/s) = 5.34321 6.34964 5.86804
#
# Compressibility (1/GPa) = 0.02689372
#
# Stress axis : x y z
#
# Youngs Moduli (GPa) = 90.87709 47.57060 150.26663
#
# Poissons Ratio (x) = 0.18928 0.23694
# Poissons Ratio (y) = 0.36159 0.05071
# Poissons Ratio (z) = 0.14329 0.01605
#
# Static dielectric constant tensor:
#      x y z
#    x 1.997710 0.000000 -0.025280 
#    y 0.000000 2.132790 0.000000 
#    z -0.025280 0.000000 1.993960 
# 
# From -- ./inp_files/9277.got.cif
#   From: 2010.05.17/outbox.cif.g08.bks.cpg/sg4_5_cif.got.tgz:9277.got - 2010.06.03 18:43:04.
