data_PCOD9115132
_publ_section_title
;
Structure prediction by ZEFSAII (Michael W. Deem and Ramdas Pophale) SiO2 
 PCOD9115132
Probable space group: P 21
;
_chemical_formula_sum "Si O2"
_cell_formula_units_Z 16
_cell_length_a 5.108774
_cell_length_b 9.197773
_cell_length_c 15.319987
_cell_angle_alpha 90.000000
_cell_angle_beta 113.417152
_cell_angle_gamma 90.000000
_cell_volume 660.584035
_symmetry_space_group_name_H-M "P 21"
_symmetry_group_IT_number 4
_symmetry_cell_setting 'monoclinic'
loop_
_space_group_symop_operation_xyz
x,y,z
-x,1/2+y,-z
loop_
_atom_site_type_symbol
_atom_site_label
_atom_site_fract_x
_atom_site_fract_y
_atom_site_fract_z
Si Si1 0.907346 0.967430 0.651428
Si Si2 0.270348 0.135559 0.051590
Si Si3 0.243262 0.737605 0.580778
Si Si4 0.185172 0.263415 0.232661
Si Si5 0.018117 0.481458 0.738839
Si Si6 0.132244 0.266313 0.621095
Si Si7 0.798634 0.935045 0.057373
Si Si8 0.542159 0.946406 0.449452
O O1 0.907854 0.925807 0.753665
O O2 0.043391 0.831361 0.617187
O O3 0.605912 0.980777 0.559319
O O4 0.091878 0.109600 0.657312
O O5 0.274520 0.208620 0.149548
O O6 0.523497 0.024742 0.057021
O O7 0.273024 0.277999 0.991029
O O8 0.980599 0.038203 0.016347
O O9 0.546700 0.751856 0.666910
O O10 0.223308 0.563640 0.562595
O O11 0.164080 0.793613 0.472818
O O12 0.941767 0.149964 0.232002
O O13 0.740818 0.481798 0.641196
O O14 0.218618 0.378585 0.708555
O O15 0.997671 0.411104 0.831196
O O16 0.356189 0.290327 0.573711
#
# Coordination Sequence:
#
# PCOD9115132 Si02
#       8
#     2   2   2   2   2   2   2   2
#     4  10  20  34  54  92 132 174 223 277 332 390
#     4  11  26  49  78 107 141 180 234 293 366 430
#     4   9  19  35  56  84 126 177 220 270 325 396
#     4  10  22  37  64  87 124 172 225 267 339 413
#     4  10  22  37  65  87 125 171 226 269 337 414
#     4  10  20  33  55  89 133 169 222 274 331 382
#     4  11  26  49  77 108 140 181 233 294 365 431
#     4   9  19  36  57  86 127 182 225 274 327 400
#
# _framework density 24.22099
#
# number of rings (size 3 to 8) (size 9 to 14) (size 15 to 20)
#    0.000    2.000    0.000    2.250    8.750    3.000 
#    2.250    0.000    0.000    0.000    0.000    0.000 
#    0.000    0.000    0.000    0.000    0.000    0.000 
#
# Total GULP energy -89070.304459 kJ/mol
# GULP energy per Si atom -5566.894029 kJ/mol
# Density = 2.416586 g / cm^3
# Si number density = 24.220990 Si / 1000 Ang^3
#
#
#
# Elastic Constant Matrix: (Units=GPa)
#
#
# Indices 1 2 3 4 5 6 
#
# 1 64.0650 3.0083 0.0595 0.0000 -9.9473 0.0000
# 2 3.0083 42.6980 27.3003 0.0000 -14.6941 0.0000
# 3 0.0595 27.3003 59.2862 0.0000 -20.3923 0.0000
# 4 0.0000 0.0000 0.0000 35.1692 0.0000 -13.7193
# 5 -9.9473 -14.6941 -20.3923 0.0000 23.2779 0.0000
# 6 0.0000 0.0000 0.0000 -13.7193 0.0000 35.6870
#
#
#
# Elastic Compliance Matrix: (Units=1/GPa)
#
#
# Indices 1 2 3 4 5 6 
#
# 1 0.017240 0.000156 0.003548 0.000000 0.010574 0.000000
# 2 0.000156 0.035216 -0.012234 0.000000 0.011579 0.000000
# 3 0.003548 -0.012234 0.029144 0.000000 0.019325 0.000000
# 4 0.000000 0.000000 0.000000 0.033450 0.000000 0.012859
# 5 0.010574 0.011579 0.019325 0.000000 0.071717 0.000000
# 6 0.000000 0.000000 0.000000 0.012859 0.000000 0.032965
#
#
# Mechanical properties :
#
#
# Convention : Reuss Voigt Hill
#
# Bulk Modulus (GPa) = 15.49406 25.19836 20.34621
# Shear Modulus (GPa) = 19.35680 27.87222 23.61451
#
# Velocity S-wave (km/s) = 2.83003 3.39595 3.12582
# Velocity P-wave (km/s) = 4.13396 5.07964 4.63100
#
# Compressibility (1/GPa) = 0.06454085
#
# Stress axis : x y z
#
# Youngs Moduli (GPa) = 58.00362 28.39592 34.31188
#
# Poissons Ratio (x) = -0.00442 -0.12174
# Poissons Ratio (y) = -0.00903 0.41976
# Poissons Ratio (z) = -0.20580 0.34739
#
# Static dielectric constant tensor:
#      x y z
#    x 2.228020 0.000000 -0.035820 
#    y 0.000000 2.053450 0.000000 
#    z -0.035820 0.000000 1.950540 
# 
# From -- ./inp_files/13343.got.cif
#   From: 2010.05.17/outbox.cif.g08.bks.cpg/sg4_7_cif.got.tgz:13343.got - 2010.06.03 18:43:04.
