data_PCOD9115341
_publ_section_title
;
Structure prediction by ZEFSAII (Michael W. Deem and Ramdas Pophale) SiO2 
 PCOD9115341
Probable space group: P 21
;
_chemical_formula_sum "Si O2"
_cell_formula_units_Z 12
_cell_length_a 10.254480
_cell_length_b 8.348212
_cell_length_c 5.475840
_cell_angle_alpha 90.000000
_cell_angle_beta 107.529400
_cell_angle_gamma 90.000000
_cell_volume 446.999499
_symmetry_space_group_name_H-M "P 21"
_symmetry_group_IT_number 4
_symmetry_cell_setting 'monoclinic'
loop_
_space_group_symop_operation_xyz
x,y,z
-x,1/2+y,-z
loop_
_atom_site_type_symbol
_atom_site_label
_atom_site_fract_x
_atom_site_fract_y
_atom_site_fract_z
Si Si1 0.664550 0.538740 0.218062
Si Si2 0.576760 0.216314 0.320584
Si Si3 0.075237 0.358431 0.360664
Si Si4 0.602261 0.853213 0.359466
Si Si5 0.828885 0.548993 0.827451
Si Si6 0.882695 0.224280 0.680919
O O1 0.621247 0.355661 0.160425
O O2 0.566733 0.692640 0.188222
O O3 0.733903 0.536903 0.528465
O O4 0.756998 0.580778 0.041353
O O5 0.458180 0.305602 0.409602
O O6 0.719313 0.198250 0.555025
O O7 0.546239 0.028553 0.257804
O O8 0.231868 0.363827 0.560218
O O9 0.085631 0.206035 0.188508
O O10 0.059988 0.543114 0.265181
O O11 0.963098 0.305576 0.497299
O O12 0.888679 0.370306 0.875183
#
# Coordination Sequence:
#
# PCOD9115341 Si02
#       6
#     2   2   2   2   2   2
#     4  10  22  42  65  94 133 172 215 270 329 390
#     4  10  20  37  66  94 129 169 218 266 326 387
#     4  10  20  37  66  94 129 169 218 266 326 387
#     4  10  20  37  66  94 129 169 218 266 326 387
#     4  10  22  42  65  94 133 172 215 270 329 390
#     4  10  20  37  66  94 129 169 218 266 326 387
#
# _framework density 26.845669000000001
#
# number of rings (size 3 to 8) (size 9 to 14) (size 15 to 20)
#    0.000    2.000    3.333    0.000    0.000    1.333 
#    0.000   13.333    0.000    0.000    0.000    0.000 
#    0.000    0.000    0.000    0.000    0.000    0.000 
#
# Total GULP energy -67016.272885 kJ/mol
# GULP energy per Si atom -5584.689407 kJ/mol
# Density = 2.678457 g / cm^3
# Si number density = 26.845669 Si / 1000 Ang^3
#
#
#
# Elastic Constant Matrix: (Units=GPa)
#
#
# Indices 1 2 3 4 5 6 
#
# 1 90.1877 3.3511 21.7030 0.0000 -4.3789 0.0000
# 2 3.3511 257.0835 23.3540 0.0000 33.0812 0.0000
# 3 21.7030 23.3540 42.7773 0.0000 -5.7080 0.0000
# 4 0.0000 0.0000 0.0000 70.3403 0.0000 7.2717
# 5 -4.3789 33.0812 -5.7080 0.0000 53.6248 0.0000
# 6 0.0000 0.0000 0.0000 7.2717 0.0000 69.4307
#
#
#
# Elastic Compliance Matrix: (Units=1/GPa)
#
#
# Indices 1 2 3 4 5 6 
#
# 1 0.012677 0.000432 -0.006660 0.000000 0.000060 0.000000
# 2 0.000432 0.004570 -0.003130 0.000000 -0.003117 0.000000
# 3 -0.006660 -0.003130 0.029062 0.000000 0.004480 0.000000
# 4 0.000000 0.000000 0.000000 0.014372 0.000000 -0.001505
# 5 0.000060 -0.003117 0.004480 0.000000 0.021053 0.000000
# 6 0.000000 0.000000 0.000000 -0.001505 0.000000 0.014561
#
#
# Mechanical properties :
#
#
# Convention : Reuss Voigt Hill
#
# Bulk Modulus (GPa) = 36.23952 54.09608 45.16780
# Shear Modulus (GPa) = 40.25514 61.45520 50.85517
#
# Velocity S-wave (km/s) = 3.87654 4.78975 4.35714
# Velocity P-wave (km/s) = 5.79355 7.12625 6.49418
#
# Compressibility (1/GPa) = 0.02759418
#
# Stress axis : x y z
#
# Youngs Moduli (GPa) = 78.88018 218.84035 34.40889
#
# Poissons Ratio (x) = -0.09455 0.22916
# Poissons Ratio (y) = -0.03408 0.10769
# Poissons Ratio (z) = 0.52532 0.68493
#
# Static dielectric constant tensor:
#      x y z
#    x 2.236800 0.000000 0.243620 
#    y 0.000000 2.077860 0.000000 
#    z 0.243620 0.000000 2.221560 
# 
# From -- ./inp_files/2550.got.cif
#   From: 2010.05.17/outbox.cif.g08.bks.cpg/sg4_2_cif.got.tgz:2550.got - 2010.06.03 18:43:04.
