data_PCOD9115816
_publ_section_title
;
Structure prediction by ZEFSAII (Michael W. Deem and Ramdas Pophale) SiO2 
 PCOD9115816
Probable space group: P 21
;
_chemical_formula_sum "Si O2"
_cell_formula_units_Z 14
_cell_length_a 8.272610
_cell_length_b 4.842615
_cell_length_c 17.910244
_cell_angle_alpha 90.000000
_cell_angle_beta 48.295964
_cell_angle_gamma 90.000000
_cell_volume 535.681851
_symmetry_space_group_name_H-M "P 21"
_symmetry_group_IT_number 4
_symmetry_cell_setting 'monoclinic'
loop_
_space_group_symop_operation_xyz
x,y,z
-x,1/2+y,-z
loop_
_atom_site_type_symbol
_atom_site_label
_atom_site_fract_x
_atom_site_fract_y
_atom_site_fract_z
Si Si1 0.807941 0.385340 0.769469
Si Si2 0.472531 0.573657 0.425810
Si Si3 0.355462 0.213723 0.776185
Si Si4 0.060141 0.715906 0.032383
Si Si5 0.980588 0.817140 0.452496
Si Si6 0.273724 0.579108 0.676405
Si Si7 0.480451 0.423044 0.126316
O O1 0.869726 0.287718 0.666345
O O2 0.649123 0.648016 0.812868
O O3 0.031122 0.485795 0.737481
O O4 0.693537 0.140578 0.851493
O O5 0.480000 0.579525 0.332511
O O6 0.449936 0.381408 0.580399
O O7 0.238607 0.454389 0.512125
O O8 0.678208 0.373946 0.373016
O O9 0.333543 0.518713 0.745196
O O10 0.432272 0.109019 0.831995
O O11 0.103411 0.117972 0.853015
O O12 0.297647 0.822621 0.980667
O O13 0.064410 0.470309 0.970426
O O14 0.934413 0.534575 0.511260
#
# Coordination Sequence:
#
# PCOD9115816 Si02
#       7
#     2   2   2   2   2   2   2
#     4  12  25  43  61  94 135 165 212 267 317 385
#     4  10  22  39  64  87 124 166 212 246 321 373
#     4   9  22  39  67  90 123 160 217 259 310 384
#     4  10  21  36  62  98 123 157 213 265 314 373
#     4  12  25  40  64  97 127 161 213 265 321 375
#     4  10  24  40  64  89 128 172 208 253 323 381
#     4  11  23  39  66  93 128 167 209 269 328 359
#
# _framework density 26.134916
#
# number of rings (size 3 to 8) (size 9 to 14) (size 15 to 20)
#    0.857    0.571    0.000    6.000    8.000    1.143 
#    0.000    1.429    0.000    0.000    0.000    0.000 
#    0.000    0.000    0.000    0.000    0.000    0.000 
#
# Total GULP energy -78145.042802 kJ/mol
# GULP energy per Si atom -5581.788772 kJ/mol
# Density = 2.607543 g / cm^3
# Si number density = 26.134916 Si / 1000 Ang^3
#
#
#
# Elastic Constant Matrix: (Units=GPa)
#
#
# Indices 1 2 3 4 5 6 
#
# 1 81.7928 2.0601 22.0359 0.0000 -15.3987 0.0000
# 2 2.0601 102.5705 7.7414 0.0000 -7.6207 0.0000
# 3 22.0359 7.7414 104.2152 0.0000 -26.6274 0.0000
# 4 0.0000 0.0000 0.0000 25.8954 0.0000 -21.3295
# 5 -15.3987 -7.6207 -26.6274 0.0000 52.2755 0.0000
# 6 0.0000 0.0000 0.0000 -21.3295 0.0000 36.6740
#
#
#
# Elastic Compliance Matrix: (Units=1/GPa)
#
#
# Indices 1 2 3 4 5 6 
#
# 1 0.013328 0.000104 -0.002091 0.000000 0.002876 0.000000
# 2 0.000104 0.009873 -0.000437 0.000000 0.001247 0.000000
# 3 -0.002091 -0.000437 0.011377 0.000000 0.005116 0.000000
# 4 0.000000 0.000000 0.000000 0.074128 0.000000 0.043112
# 5 0.002876 0.001247 0.005116 0.000000 0.022764 0.000000
# 6 0.000000 0.000000 0.000000 0.043112 0.000000 0.052341
#
#
# Mechanical properties :
#
#
# Convention : Reuss Voigt Hill
#
# Bulk Modulus (GPa) = 33.63540 39.13926 36.38733
# Shear Modulus (GPa) = 25.18012 40.08505 32.63259
#
# Velocity S-wave (km/s) = 3.10734 3.92059 3.53742
# Velocity P-wave (km/s) = 5.07661 5.95845 5.53512
#
# Compressibility (1/GPa) = 0.02973058
#
# Stress axis : x y z
#
# Youngs Moduli (GPa) = 75.02879 101.28694 87.89543
#
# Poissons Ratio (x) = -0.01051 0.18379
# Poissons Ratio (y) = -0.00779 0.03838
# Poissons Ratio (z) = 0.15689 0.04422
#
# Static dielectric constant tensor:
#      x y z
#    x 2.180910 0.000000 0.072040 
#    y 0.000000 2.096840 0.000000 
#    z 0.072040 0.000000 2.107630 
# 
# From -- ./inp_files/7401.got.cif
#   From: 2010.05.17/outbox.cif.g08.bks.cpg/sg4_4_cif.got.tgz:7401.got - 2010.06.03 18:43:04.
