data_PCOD9115950
_publ_section_title
;
Structure prediction by ZEFSAII (Michael W. Deem and Ramdas Pophale) SiO2 
 PCOD9115950
Probable space group: P 21
;
_chemical_formula_sum "Si O2"
_cell_formula_units_Z 14
_cell_length_a 23.332590
_cell_length_b 5.004694
_cell_length_c 8.101303
_cell_angle_alpha 90.000000
_cell_angle_beta 40.008522
_cell_angle_gamma 90.000000
_cell_volume 608.190765
_symmetry_space_group_name_H-M "P 21"
_symmetry_group_IT_number 4
_symmetry_cell_setting 'monoclinic'
loop_
_space_group_symop_operation_xyz
x,y,z
-x,1/2+y,-z
loop_
_atom_site_type_symbol
_atom_site_label
_atom_site_fract_x
_atom_site_fract_y
_atom_site_fract_z
Si Si1 0.392547 0.950480 0.054695
Si Si2 0.556740 0.488227 0.404080
Si Si3 0.408314 0.680698 0.360096
Si Si4 0.036341 0.957174 0.837194
Si Si5 0.962840 0.164876 0.654961
Si Si6 0.218348 0.610061 0.805663
Si Si7 0.783908 0.625564 0.414501
O O1 0.390743 0.731817 0.204855
O O2 0.312192 0.141746 0.287069
O O3 0.380911 0.892971 0.885620
O O4 0.493767 0.056322 0.845291
O O5 0.528830 0.792761 0.433970
O O6 0.586434 0.433721 0.525841
O O7 0.320183 0.532666 0.621952
O O8 0.140669 0.017761 0.629487
O O9 0.000547 0.056781 0.743142
O O10 0.012397 0.651119 0.923521
O O11 0.012437 0.973964 0.416388
O O12 0.856775 0.115174 0.889335
O O13 0.220855 0.905187 0.720832
O O14 0.190001 0.403326 0.725978
#
# Coordination Sequence:
#
# PCOD9115950 Si02
#       7
#     2   2   2   2   2   2   2
#     4  10  21  38  65  96 130 170 225 263 314 402
#     4  10  22  39  60  89 128 173 217 266 319 378
#     4  10  21  39  65  93 132 178 208 272 327 381
#     4  12  22  43  69  89 125 174 216 266 333 389
#     4  12  25  42  65  98 132 167 215 279 336 398
#     4  11  23  41  65  94 130 169 214 263 331 392
#     4  11  22  40  67  97 121 169 223 265 312 398
#
# _framework density 23.019091
#
# number of rings (size 3 to 8) (size 9 to 14) (size 15 to 20)
#    0.000    1.143    2.857    3.429    0.000    8.000 
#    0.000    7.143    0.000    0.000    0.000    0.000 
#    0.000    0.000    0.000    0.000    0.000    0.000 
#
# Total GULP energy -78152.785522 kJ/mol
# GULP energy per Si atom -5582.341823 kJ/mol
# Density = 2.296670 g / cm^3
# Si number density = 23.019091 Si / 1000 Ang^3
#
#
#
# Elastic Constant Matrix: (Units=GPa)
#
#
# Indices 1 2 3 4 5 6 
#
# 1 44.4227 7.5956 21.8581 0.0000 -9.3942 0.0000
# 2 7.5956 67.3052 18.2223 0.0000 -0.4519 0.0000
# 3 21.8581 18.2223 131.5334 0.0000 -25.7823 0.0000
# 4 0.0000 0.0000 0.0000 31.3867 0.0000 1.8653
# 5 -9.3942 -0.4519 -25.7823 0.0000 53.1578 0.0000
# 6 0.0000 0.0000 0.0000 1.8653 0.0000 27.8042
#
#
#
# Elastic Compliance Matrix: (Units=1/GPa)
#
#
# Indices 1 2 3 4 5 6 
#
# 1 0.025078 -0.001902 -0.003358 0.000000 0.002787 0.000000
# 2 -0.001902 0.015629 -0.002087 0.000000 -0.001216 0.000000
# 3 -0.003358 -0.002087 0.009205 0.000000 0.003854 0.000000
# 4 0.000000 0.000000 0.000000 0.031988 0.000000 -0.002146
# 5 0.002787 -0.001216 0.003854 0.000000 0.021163 0.000000
# 6 0.000000 0.000000 0.000000 -0.002146 0.000000 0.036110
#
#
# Mechanical properties :
#
#
# Convention : Reuss Voigt Hill
#
# Bulk Modulus (GPa) = 28.39487 37.62368 33.00927
# Shear Modulus (GPa) = 30.19193 35.50876 32.85034
#
# Velocity S-wave (km/s) = 3.62554 3.93183 3.78178
# Velocity P-wave (km/s) = 5.46701 6.08214 5.78276
#
# Compressibility (1/GPa) = 0.03521763
#
# Stress axis : x y z
#
# Youngs Moduli (GPa) = 39.87593 63.98206 108.63532
#
# Poissons Ratio (x) = 0.12172 0.36475
# Poissons Ratio (y) = 0.07586 0.22677
# Poissons Ratio (z) = 0.13388 0.13356
#
# Static dielectric constant tensor:
#      x y z
#    x 1.901520 0.000000 -0.002800 
#    y 0.000000 1.881260 0.000000 
#    z -0.002800 0.000000 1.912550 
# 
# From -- ./inp_files/10110.got.cif
#   From: 2010.05.17/outbox.cif.g08.bks.cpg/sg4_6_cif.got.tgz:10110.got - 2010.06.03 18:43:04.
