data_PCOD9115980
_publ_section_title
;
Structure prediction by ZEFSAII (Michael W. Deem and Ramdas Pophale) SiO2 
 PCOD9115980
Probable space group: P 21
;
_chemical_formula_sum "Si O2"
_cell_formula_units_Z 16
_cell_length_a 5.023127
_cell_length_b 10.301068
_cell_length_c 13.412977
_cell_angle_alpha 90.000000
_cell_angle_beta 112.730435
_cell_angle_gamma 90.000000
_cell_volume 640.131687
_symmetry_space_group_name_H-M "P 21"
_symmetry_group_IT_number 4
_symmetry_cell_setting 'monoclinic'
loop_
_space_group_symop_operation_xyz
x,y,z
-x,1/2+y,-z
loop_
_atom_site_type_symbol
_atom_site_label
_atom_site_fract_x
_atom_site_fract_y
_atom_site_fract_z
Si Si1 0.782128 0.611820 0.060381
Si Si2 0.798539 0.129710 0.579545
Si Si3 0.847133 0.894551 0.823873
Si Si4 0.090906 0.122463 0.141501
Si Si5 0.661605 0.475444 0.385099
Si Si6 0.707783 0.900728 0.039557
Si Si7 0.642006 0.058032 0.336578
Si Si8 0.183635 0.900321 0.375053
O O1 0.665297 0.753940 0.073335
O O2 0.975815 0.528262 0.163446
O O3 0.954864 0.640257 0.983567
O O4 0.551124 0.503850 0.992043
O O5 0.511450 0.102210 0.601349
O O6 0.938376 0.256539 0.648704
O O7 0.028791 0.012703 0.613694
O O8 0.707568 0.134251 0.448883
O O9 0.015163 0.759163 0.826170
O O10 0.553193 0.904952 0.720316
O O11 0.773006 0.890827 0.930933
O O12 0.423893 0.119507 0.225333
O O13 0.958786 0.978439 0.133990
O O14 0.705845 0.402517 0.494969
O O15 0.458158 0.933781 0.348007
O O16 0.946192 0.013587 0.336806
#
# Coordination Sequence:
#
# PCOD9115980 Si02
#       8
#     2   2   2   2   2   2   2   2
#     4  10  22  40  62  90 123 159 204 261 318 378
#     4  10  21  39  59  88 128 162 207 262 313 370
#     4  10  22  41  62  88 120 163 212 258 314 379
#     4  10  22  41  62  88 120 163 212 258 314 379
#     4  10  22  38  61  91 120 166 210 255 313 376
#     4  10  22  40  62  90 123 159 204 261 318 378
#     4  10  22  38  61  91 120 166 210 255 313 376
#     4  10  21  39  59  88 128 162 207 262 313 370
#
# _framework density 24.994855999999999
#
# number of rings (size 3 to 8) (size 9 to 14) (size 15 to 20)
#    0.000    2.000    0.000    2.250    3.500    3.000 
#    0.000    2.500    0.000    0.000    0.000    0.000 
#    0.000    0.000    0.000    0.000    0.000    0.000 
#
# Total GULP energy -89287.697947 kJ/mol
# GULP energy per Si atom -5580.481122 kJ/mol
# Density = 2.493797 g / cm^3
# Si number density = 24.994856 Si / 1000 Ang^3
#
#
#
# Elastic Constant Matrix: (Units=GPa)
#
#
# Indices 1 2 3 4 5 6 
#
# 1 46.3814 0.5114 4.8208 0.0000 10.4760 0.0000
# 2 0.5114 125.1620 15.2596 0.0000 13.5529 0.0000
# 3 4.8208 15.2596 114.8359 0.0000 12.0238 0.0000
# 4 0.0000 0.0000 0.0000 10.2797 0.0000 11.7569
# 5 10.4760 13.5529 12.0238 0.0000 41.4912 0.0000
# 6 0.0000 0.0000 0.0000 11.7569 0.0000 12.2076
#
#
#
# Elastic Compliance Matrix: (Units=1/GPa)
#
#
# Indices 1 2 3 4 5 6 
#
# 1 0.022921 0.000593 -0.000428 0.000000 -0.005857 0.000000
# 2 0.000593 0.008378 -0.000862 0.000000 -0.002636 0.000000
# 3 -0.000428 -0.000862 0.009075 0.000000 -0.002240 0.000000
# 4 0.000000 0.000000 0.000000 -0.958704 0.000000 0.923306
# 5 -0.005857 -0.002636 -0.002240 0.000000 0.027091 0.000000
# 6 0.000000 0.000000 0.000000 0.923306 0.000000 -0.807298
#
#
# Mechanical properties :
#
#
# Convention : Reuss Voigt Hill
#
# Bulk Modulus (GPa) = 25.65428 36.39587 31.02508
# Shear Modulus (GPa) = -2.96886 30.51487 13.77300
#
# Velocity S-wave (km/s) = -1.09104 3.49785 2.34996
# Velocity P-wave (km/s) = 2.94940 5.55934 4.45001
#
# Compressibility (1/GPa) = 0.03897985
#
# Stress axis : x y z
#
# Youngs Moduli (GPa) = 43.62779 119.36301 110.19084
#
# Poissons Ratio (x) = -0.07075 0.04713
# Poissons Ratio (y) = -0.02586 0.09500
# Poissons Ratio (z) = 0.01866 0.10290
#
# Static dielectric constant tensor:
#      x y z
#    x 1.958800 0.000000 0.003260 
#    y 0.000000 2.057420 0.000000 
#    z 0.003260 0.000000 1.970300 
# 
# From -- ./inp_files/3655.got.cif
#   From: 2010.05.17/outbox.cif.g08.bks.cpg/sg4_2_cif.got.tgz:3655.got - 2010.06.03 18:43:04.
