data_PCOD9115337
_publ_section_title
;
Structure prediction by ZEFSAII (Michael W. Deem and Ramdas Pophale) SiO2 
 PCOD9115337
Probable space group: P 21
;
_chemical_formula_sum "Si O2"
_cell_formula_units_Z 16
_cell_length_a 5.214596
_cell_length_b 14.269902
_cell_length_c 10.355861
_cell_angle_alpha 90.000000
_cell_angle_beta 109.923231
_cell_angle_gamma 90.000000
_cell_volume 724.477729
_symmetry_space_group_name_H-M "P 21"
_symmetry_group_IT_number 4
_symmetry_cell_setting 'monoclinic'
loop_
_space_group_symop_operation_xyz
x,y,z
-x,1/2+y,-z
loop_
_atom_site_type_symbol
_atom_site_label
_atom_site_fract_x
_atom_site_fract_y
_atom_site_fract_z
Si Si1 0.322856 0.191250 0.761245
Si Si2 0.887417 0.080252 0.838313
Si Si3 0.476484 0.262120 0.509269
Si Si4 0.249486 0.999115 0.105531
Si Si5 0.757427 0.889170 0.149750
Si Si6 0.892289 0.423063 0.554431
Si Si7 0.137995 0.420918 0.352971
Si Si8 0.492136 0.062327 0.414680
O O1 0.597644 0.128403 0.815691
O O2 0.329267 0.229982 0.615907
O O3 0.317211 0.279943 0.857262
O O4 0.055314 0.133504 0.754812
O O5 0.865141 0.973988 0.781301
O O6 0.082182 0.074442 0.995118
O O7 0.707376 0.338783 0.581504
O O8 0.278536 0.320556 0.382004
O O9 0.572962 0.167746 0.458100
O O10 0.405900 0.045575 0.252907
O O11 0.488694 0.947680 0.067255
O O12 0.023567 0.924131 0.117767
O O13 0.838646 0.912122 0.312866
O O14 0.783305 0.527315 0.560727
O O15 0.874173 0.407783 0.397515
O O16 0.298832 0.491920 0.478491
#
# Coordination Sequence:
#
# PCOD9115337 Si02
#       8
#     2   2   2   2   2   2   2   2
#     4  12  23  44  71 103 127 185 230 281 333 421
#     4  12  27  43  69  99 145 175 225 282 350 398
#     4  11  22  38  65 101 133 170 232 285 342 407
#     4  11  24  46  66  97 138 182 224 275 341 411
#     4  11  21  43  72  93 128 178 234 273 324 414
#     4  10  20  37  65  98 128 169 225 283 343 396
#     4  11  22  39  64  98 129 175 217 292 344 393
#     4  10  21  40  64  89 134 174 223 279 337 406
#
# _framework density 22.084872000000001
#
# number of rings (size 3 to 8) (size 9 to 14) (size 15 to 20)
#    0.000    1.000    3.750    4.500    1.750    1.000 
#    4.500    0.000    0.000    0.000    0.000    0.000 
#    0.000    0.000    0.000    0.000    0.000    0.000 
#
# Total GULP energy -89229.699085 kJ/mol
# GULP energy per Si atom -5576.856193 kJ/mol
# Density = 2.203461 g / cm^3
# Si number density = 22.084872 Si / 1000 Ang^3
#
#
#
# Elastic Constant Matrix: (Units=GPa)
#
#
# Indices 1 2 3 4 5 6 
#
# 1 52.5246 30.8949 15.7938 0.0000 6.6629 0.0000
# 2 30.8949 96.3687 7.7991 0.0000 3.2735 0.0000
# 3 15.7938 7.7991 53.7623 0.0000 4.1934 0.0000
# 4 0.0000 0.0000 0.0000 24.2894 0.0000 2.3751
# 5 6.6629 3.2735 4.1934 0.0000 18.6680 0.0000
# 6 0.0000 0.0000 0.0000 2.3751 0.0000 34.6485
#
#
#
# Elastic Compliance Matrix: (Units=1/GPa)
#
#
# Indices 1 2 3 4 5 6 
#
# 1 0.026233 -0.007693 -0.006072 0.000000 -0.006650 0.000000
# 2 -0.007693 0.012799 0.000371 0.000000 0.000418 0.000000
# 3 -0.006072 0.000371 0.020526 0.000000 -0.002509 0.000000
# 4 0.000000 0.000000 0.000000 0.041448 0.000000 -0.002841
# 5 -0.006650 0.000418 -0.002509 0.000000 0.056431 0.000000
# 6 0.000000 0.000000 0.000000 -0.002841 0.000000 0.029056
#
#
# Mechanical properties :
#
#
# Convention : Reuss Voigt Hill
#
# Bulk Modulus (GPa) = 30.51581 34.62567 32.57074
# Shear Modulus (GPa) = 22.30110 25.39904 23.85007
#
# Velocity S-wave (km/s) = 3.18117 3.39494 3.28979
# Velocity P-wave (km/s) = 5.22883 5.57494 5.40466
#
# Compressibility (1/GPa) = 0.03276990
#
# Stress axis : x y z
#
# Youngs Moduli (GPa) = 38.12017 78.13217 48.71866
#
# Poissons Ratio (x) = 0.60105 0.29581
# Poissons Ratio (y) = 0.29325 -0.01806
# Poissons Ratio (z) = 0.23146 -0.02896
#
# Static dielectric constant tensor:
#      x y z
#    x 2.042670 0.000000 -0.051980 
#    y 0.000000 1.820530 0.000000 
#    z -0.051980 0.000000 1.811280 
# 
# From -- ./inp_files/10436.got.cif
#   From: 2010.05.17/outbox.cif.g08.bks.cpg/sg4_6_cif.got.tgz:10436.got - 2010.06.03 18:43:04.
