data_PCOD9115015
_publ_section_title
;
Structure prediction by ZEFSAII (Michael W. Deem and Ramdas Pophale) SiO2 
 PCOD9115015
Probable space group: P 21
;
_chemical_formula_sum "Si O2"
_cell_formula_units_Z 16
_cell_length_a 12.642659
_cell_length_b 9.263394
_cell_length_c 9.334170
_cell_angle_alpha 90.000000
_cell_angle_beta 39.840064
_cell_angle_gamma 90.000000
_cell_volume 700.330279
_symmetry_space_group_name_H-M "P 21"
_symmetry_group_IT_number 4
_symmetry_cell_setting 'monoclinic'
loop_
_space_group_symop_operation_xyz
x,y,z
-x,1/2+y,-z
loop_
_atom_site_type_symbol
_atom_site_label
_atom_site_fract_x
_atom_site_fract_y
_atom_site_fract_z
Si Si1 0.193317 0.654630 0.317279
Si Si2 0.282939 0.369780 0.827039
Si Si3 0.525889 0.225486 0.762442
Si Si4 0.125969 0.350818 0.703013
Si Si5 0.331142 0.336657 0.220006
Si Si6 0.203636 0.698264 0.971643
Si Si7 0.077309 0.114984 0.187177
Si Si8 0.593652 0.432515 0.170503
O O1 0.266380 0.491516 0.231615
O O2 0.193971 0.709954 0.155354
O O3 0.010677 0.653922 0.572904
O O4 0.305549 0.733499 0.322656
O O5 0.266885 0.340505 0.675324
O O6 0.458044 0.343906 0.723145
O O7 0.231110 0.533690 0.905232
O O8 0.151445 0.256449 0.033781
O O9 0.387287 0.233266 0.034159
O O10 0.516220 0.075056 0.685718
O O11 0.198856 0.293252 0.477399
O O12 0.967195 0.258171 0.912055
O O13 0.060706 0.515505 0.749769
O O14 0.497544 0.366623 0.136345
O O15 0.354849 0.804900 0.775910
O O16 0.229423 0.005717 0.044294
#
# Coordination Sequence:
#
# PCOD9115015 Si02
#       8
#     2   2   2   2   2   2   2   2
#     4  10  20  36  62  96 117 155 206 257 309 359
#     4  11  22  40  60  89 122 168 206 251 308 374
#     4  10  20  37  63  87 123 155 200 254 309 363
#     4  10  23  39  60  87 126 162 207 255 310 364
#     4  10  19  39  60  90 119 161 199 255 308 364
#     4  11  21  36  61  89 120 156 211 256 304 365
#     4   9  21  39  61  86 122 163 196 259 309 356
#     4   9  20  36  59  86 121 152 193 253 311 351
#
# _framework density 22.846361000000002
#
# number of rings (size 3 to 8) (size 9 to 14) (size 15 to 20)
#    0.000    2.000    2.500    0.750    3.500    1.000 
#    0.000    7.500    0.000    0.000    0.000    0.000 
#    0.000    0.000    0.000    0.000    0.000    0.000 
#
# Total GULP energy -89254.408797 kJ/mol
# GULP energy per Si atom -5578.400550 kJ/mol
# Density = 2.279436 g / cm^3
# Si number density = 22.846361 Si / 1000 Ang^3
#
#
#
# Elastic Constant Matrix: (Units=GPa)
#
#
# Indices 1 2 3 4 5 6 
#
# 1 89.6968 10.1270 13.6296 0.0000 -2.5204 0.0000
# 2 10.1270 109.5184 18.5691 0.0000 1.5244 0.0000
# 3 13.6296 18.5691 60.7974 0.0000 -5.0631 0.0000
# 4 0.0000 0.0000 0.0000 20.5494 0.0000 -3.1229
# 5 -2.5204 1.5244 -5.0631 0.0000 27.8140 0.0000
# 6 0.0000 0.0000 0.0000 -3.1229 0.0000 20.8216
#
#
#
# Elastic Compliance Matrix: (Units=1/GPa)
#
#
# Indices 1 2 3 4 5 6 
#
# 1 0.011600 -0.000686 -0.002336 0.000000 0.000664 0.000000
# 2 -0.000686 0.009702 -0.002903 0.000000 -0.001122 0.000000
# 3 -0.002336 -0.002903 0.018129 0.000000 0.003247 0.000000
# 4 0.000000 0.000000 0.000000 0.049798 0.000000 0.007469
# 5 0.000664 -0.001122 0.003247 0.000000 0.036666 0.000000
# 6 0.000000 0.000000 0.000000 0.007469 0.000000 0.049147
#
#
# Mechanical properties :
#
#
# Convention : Reuss Voigt Hill
#
# Bulk Modulus (GPa) = 36.25610 38.29598 37.27604
# Shear Modulus (GPa) = 25.49914 28.34945 26.92429
#
# Velocity S-wave (km/s) = 3.34445 3.52643 3.43664
# Velocity P-wave (km/s) = 5.55138 5.77752 5.66558
#
# Compressibility (1/GPa) = 0.02758156
#
# Stress axis : x y z
#
# Youngs Moduli (GPa) = 86.20947 103.07016 55.16092
#
# Poissons Ratio (x) = 0.07069 0.12884
# Poissons Ratio (y) = 0.05912 0.16013
# Poissons Ratio (z) = 0.20136 0.29921
#
# Static dielectric constant tensor:
#      x y z
#    x 1.871290 0.000000 -0.027030 
#    y 0.000000 1.855550 0.000000 
#    z -0.027030 0.000000 1.879380 
# 
# From -- ./inp_files/5593.got.cif
#   From: 2010.05.17/outbox.cif.g08.bks.cpg/sg4_3_cif.got.tgz:5593.got - 2010.06.03 18:43:04.
