data_PCOD9115493
_publ_section_title
;
Structure prediction by ZEFSAII (Michael W. Deem and Ramdas Pophale) SiO2 
 PCOD9115493
Probable space group: P 21
;
_chemical_formula_sum "Si O2"
_cell_formula_units_Z 16
_cell_length_a 7.852588
_cell_length_b 4.787512
_cell_length_c 16.082348
_cell_angle_alpha 90.000000
_cell_angle_beta 78.826780
_cell_angle_gamma 90.000000
_cell_volume 593.145774
_symmetry_space_group_name_H-M "P 21"
_symmetry_group_IT_number 4
_symmetry_cell_setting 'monoclinic'
loop_
_space_group_symop_operation_xyz
x,y,z
-x,1/2+y,-z
loop_
_atom_site_type_symbol
_atom_site_label
_atom_site_fract_x
_atom_site_fract_y
_atom_site_fract_z
Si Si1 0.387190 0.029900 0.021226
Si Si2 0.090667 0.693434 0.955858
Si Si3 0.341804 0.245254 0.203638
Si Si4 0.881257 0.417972 0.221226
Si Si5 0.111492 0.764975 0.301784
Si Si6 0.444162 0.268569 0.757831
Si Si7 0.124081 0.530640 0.475888
Si Si8 0.266447 0.507011 0.629964
O O1 0.312831 0.185628 0.109334
O O2 0.483200 0.278311 0.963374
O O3 0.255203 0.851562 0.978678
O O4 0.087699 0.708357 0.857099
O O5 0.934864 0.886347 0.006418
O O6 0.405459 0.549984 0.229360
O O7 0.205792 0.050908 0.267833
O O8 0.517021 0.062830 0.204262
O O9 0.742236 0.642531 0.202376
O O10 0.786512 0.272411 0.308605
O O11 0.065996 0.555113 0.229742
O O12 0.180243 0.627582 0.379727
O O13 0.911446 0.832098 0.345055
O O14 0.421296 0.348258 0.661993
O O15 0.036415 0.226750 0.478835
O O16 0.273870 0.556386 0.531054
#
# Coordination Sequence:
#
# PCOD9115493 Si02
#       8
#     2   2   2   2   2   2   2   2
#     4  12  26  46  67  97 138 193 238 291 350 428
#     4  12  28  43  66 101 140 176 231 305 356 404
#     4  12  25  43  68 101 142 183 241 293 359 418
#     4  11  22  44  71  98 135 188 239 280 358 430
#     4  10  24  39  72 108 139 180 230 305 354 416
#     4  11  25  42  70  97 135 191 234 280 346 441
#     4  10  20  39  66 108 138 174 231 291 353 421
#     4  10  22  42  74 102 139 183 238 287 352 438
#
# _framework density 26.974822
#
# number of rings (size 3 to 8) (size 9 to 14) (size 15 to 20)
#    0.000    1.000    2.500    3.750    7.000    0.000 
#    0.000    0.000    2.750    0.000    0.000    0.000 
#    0.000    0.000    0.000    0.000    0.000    0.000 
#
# Total GULP energy -89609.709947 kJ/mol
# GULP energy per Si atom -5600.606872 kJ/mol
# Density = 2.691343 g / cm^3
# Si number density = 26.974822 Si / 1000 Ang^3
#
#
#
# Elastic Constant Matrix: (Units=GPa)
#
#
# Indices 1 2 3 4 5 6 
#
# 1 99.9147 7.7807 28.9307 0.0000 26.3419 0.0000
# 2 7.7807 115.1115 8.7962 0.0000 3.2692 0.0000
# 3 28.9307 8.7962 125.0517 0.0000 18.7083 0.0000
# 4 0.0000 0.0000 0.0000 42.5128 0.0000 7.4193
# 5 26.3419 3.2692 18.7083 0.0000 40.8722 0.0000
# 6 0.0000 0.0000 0.0000 7.4193 0.0000 49.8704
#
#
#
# Elastic Compliance Matrix: (Units=1/GPa)
#
#
# Indices 1 2 3 4 5 6 
#
# 1 0.012452 -0.000503 -0.001772 0.000000 -0.007174 0.000000
# 2 -0.000503 0.008762 -0.000476 0.000000 -0.000159 0.000000
# 3 -0.001772 -0.000476 0.008871 0.000000 -0.002880 0.000000
# 4 0.000000 0.000000 0.000000 0.024149 0.000000 -0.003593
# 5 -0.007174 -0.000159 -0.002880 0.000000 0.030421 0.000000
# 6 0.000000 0.000000 0.000000 -0.003593 0.000000 0.020586
#
#
# Mechanical properties :
#
#
# Convention : Reuss Voigt Hill
#
# Bulk Modulus (GPa) = 40.67790 47.89923 44.28856
# Shear Modulus (GPa) = 42.03841 46.28910 44.16376
#
# Velocity S-wave (km/s) = 3.95198 4.14697 4.05065
# Velocity P-wave (km/s) = 5.99474 6.38164 6.19121
#
# Compressibility (1/GPa) = 0.02458338
#
# Stress axis : x y z
#
# Youngs Moduli (GPa) = 80.30718 114.12785 112.72561
#
# Poissons Ratio (x) = 0.05735 0.19977
# Poissons Ratio (y) = 0.04035 0.05369
# Poissons Ratio (z) = 0.14232 0.05436
#
# Static dielectric constant tensor:
#      x y z
#    x 2.273790 0.000000 -0.005230 
#    y 0.000000 2.143970 0.000000 
#    z -0.005230 0.000000 2.161200 
# 
# From -- ./inp_files/14802.got.cif
#   From: 2010.05.17/outbox.cif.g08.bks.cpg/sg4_8_cif.got.tgz:14802.got - 2010.06.03 18:43:04.
