data_PCOD9115784
_publ_section_title
;
Structure prediction by ZEFSAII (Michael W. Deem and Ramdas Pophale) SiO2 
 PCOD9115784
Probable space group: P 21
;
_chemical_formula_sum "Si O2"
_cell_formula_units_Z 16
_cell_length_a 7.161236
_cell_length_b 8.152806
_cell_length_c 11.420720
_cell_angle_alpha 90.000000
_cell_angle_beta 118.188283
_cell_angle_gamma 90.000000
_cell_volume 587.708077
_symmetry_space_group_name_H-M "P 21"
_symmetry_group_IT_number 4
_symmetry_cell_setting 'monoclinic'
loop_
_space_group_symop_operation_xyz
x,y,z
-x,1/2+y,-z
loop_
_atom_site_type_symbol
_atom_site_label
_atom_site_fract_x
_atom_site_fract_y
_atom_site_fract_z
Si Si1 0.058215 0.106290 0.358772
Si Si2 0.066699 0.462880 0.376008
Si Si3 0.494010 0.084191 0.386786
Si Si4 0.428465 0.402708 0.009081
Si Si5 0.809213 0.227392 0.077392
Si Si6 0.885286 0.782181 0.273861
Si Si7 0.721177 0.282859 0.789892
Si Si8 0.646476 0.921400 0.752653
O O1 0.000762 0.281269 0.396280
O O2 0.308375 0.081171 0.430183
O O3 0.991548 0.134159 0.201723
O O4 0.926889 0.948944 0.359220
O O5 0.288428 0.526364 0.493516
O O6 0.899519 0.607929 0.341285
O O7 0.137364 0.431756 0.259955
O O8 0.490819 0.272595 0.341911
O O9 0.417698 0.946302 0.270775
O O10 0.679762 0.377198 0.095168
O O11 0.324067 0.369143 0.104028
O O12 0.374661 0.589766 0.966544
O O13 0.314579 0.308557 0.868780
O O14 0.833617 0.270809 0.949279
O O15 0.096536 0.781782 0.254251
O O16 0.586396 0.114352 0.738385
#
# Coordination Sequence:
#
# PCOD9115784 Si02
#       8
#     2   2   2   2   2   2   2   2
#     4   9  21  35  54  87 117 146 193 242 291 351
#     4  10  21  34  60  89 115 153 195 240 300 350
#     4  10  21  34  60  89 115 153 195 240 300 350
#     4  10  22  39  59  88 121 157 194 241 302 360
#     4  10  22  39  59  88 121 157 194 241 302 360
#     4   9  20  36  58  87 119 149 188 247 298 350
#     4   9  20  36  58  87 119 149 188 247 298 350
#     4   9  21  35  54  87 117 146 193 242 291 351
#
# _framework density 27.224398999999998
#
# number of rings (size 3 to 8) (size 9 to 14) (size 15 to 20)
#    0.000    2.500    0.000    0.000   17.500    0.000 
#    0.000    0.000    0.000    3.000    0.000    0.000 
#    0.000    0.000    0.000    0.000    0.000    0.000 
#
# Total GULP energy -89481.545314 kJ/mol
# GULP energy per Si atom -5592.596582 kJ/mol
# Density = 2.716244 g / cm^3
# Si number density = 27.224399 Si / 1000 Ang^3
#
#
#
# Elastic Constant Matrix: (Units=GPa)
#
#
# Indices 1 2 3 4 5 6 
#
# 1 92.9393 11.1815 29.7956 0.0000 6.9648 0.0000
# 2 11.1815 203.0479 42.0981 0.0000 10.5984 0.0000
# 3 29.7956 42.0981 92.3016 0.0000 11.4609 0.0000
# 4 0.0000 0.0000 0.0000 41.6106 0.0000 2.7041
# 5 6.9648 10.5984 11.4609 0.0000 40.5091 0.0000
# 6 0.0000 0.0000 0.0000 2.7041 0.0000 24.8159
#
#
#
# Elastic Compliance Matrix: (Units=1/GPa)
#
#
# Indices 1 2 3 4 5 6 
#
# 1 0.012048 0.000188 -0.003847 0.000000 -0.001032 0.000000
# 2 0.000188 0.005464 -0.002458 0.000000 -0.000767 0.000000
# 3 -0.003847 -0.002458 0.013509 0.000000 -0.002518 0.000000
# 4 0.000000 0.000000 0.000000 0.024204 0.000000 -0.002637
# 5 -0.001032 -0.000767 -0.002518 0.000000 0.025776 0.000000
# 6 0.000000 0.000000 0.000000 -0.002637 0.000000 0.040584
#
#
# Mechanical properties :
#
#
# Convention : Reuss Voigt Hill
#
# Bulk Modulus (GPa) = 53.22411 61.60436 57.41423
# Shear Modulus (GPa) = 35.69374 41.73469 38.71422
#
# Velocity S-wave (km/s) = 3.62483 3.91959 3.77509
# Velocity P-wave (km/s) = 6.09194 6.56976 6.33536
#
# Compressibility (1/GPa) = 0.01878848
#
# Stress axis : x y z
#
# Youngs Moduli (GPa) = 83.00370 183.01091 74.02302
#
# Poissons Ratio (x) = -0.03440 0.28474
# Poissons Ratio (y) = -0.01560 0.18192
# Poissons Ratio (z) = 0.31928 0.44978
#
# Static dielectric constant tensor:
#      x y z
#    x 2.094200 0.000000 -0.038430 
#    y 0.000000 2.215950 0.000000 
#    z -0.038430 0.000000 2.121640 
# 
# From -- ./inp_files/5688.got.cif
#   From: 2010.05.17/outbox.cif.g08.bks.cpg/sg4_3_cif.got.tgz:5688.got - 2010.06.03 18:43:04.
