data_PCOD9115889
_publ_section_title
;
Structure prediction by ZEFSAII (Michael W. Deem and Ramdas Pophale) SiO2 
 PCOD9115889
Probable space group: P 21
;
_chemical_formula_sum "Si O2"
_cell_formula_units_Z 16
_cell_length_a 7.567434
_cell_length_b 12.121218
_cell_length_c 10.197784
_cell_angle_alpha 90.000000
_cell_angle_beta 45.627368
_cell_angle_gamma 90.000000
_cell_volume 668.635435
_symmetry_space_group_name_H-M "P 21"
_symmetry_group_IT_number 4
_symmetry_cell_setting 'monoclinic'
loop_
_space_group_symop_operation_xyz
x,y,z
-x,1/2+y,-z
loop_
_atom_site_type_symbol
_atom_site_label
_atom_site_fract_x
_atom_site_fract_y
_atom_site_fract_z
Si Si1 0.038312 0.010690 0.152798
Si Si2 0.211162 0.440953 0.066145
Si Si3 0.113438 0.706601 0.406936
Si Si4 0.191855 0.064499 0.598482
Si Si5 0.134450 0.744350 0.701842
Si Si6 0.409150 0.403711 0.514961
Si Si7 0.281254 0.945066 0.291378
Si Si8 0.562430 0.984895 0.777208
O O1 0.903337 0.127861 0.207474
O O2 0.836280 0.913764 0.270965
O O3 0.167301 0.012062 0.230243
O O4 0.264661 0.993363 0.936608
O O5 0.356140 0.429859 0.128999
O O6 0.024228 0.541612 0.185653
O O7 0.046459 0.332853 0.136272
O O8 0.425537 0.464349 0.852426
O O9 0.063428 0.726528 0.586176
O O10 0.237780 0.816881 0.289326
O O11 0.307250 0.604872 0.295869
O O12 0.873809 0.676519 0.442788
O O13 0.439620 0.019118 0.535307
O O14 0.163949 0.979712 0.489838
O O15 0.405011 0.802171 0.558912
O O16 0.349133 0.415333 0.392869
#
# Coordination Sequence:
#
# PCOD9115889 Si02
#       8
#     2   2   2   2   2   2   2   2
#     4  11  23  42  63  89 127 166 201 252 307 364
#     4   9  20  37  62  89 116 154 208 251 301 353
#     4  11  20  40  66  88 117 161 210 258 302 349
#     4  10  21  38  59  88 120 154 203 255 298 357
#     4  11  21  40  65  89 121 163 206 257 303 356
#     4  11  23  39  58  91 128 161 198 246 313 373
#     4  11  20  38  65  88 113 159 209 254 297 358
#     4  10  22  42  62  90 130 160 199 253 305 370
#
# _framework density 23.929331000000001
#
# number of rings (size 3 to 8) (size 9 to 14) (size 15 to 20)
#    0.000    1.500    5.000    1.500    0.000    3.000 
#    2.250    1.250    0.000    0.000    0.000    0.000 
#    0.000    0.000    0.000    0.000    0.000    0.000 
#
# Total GULP energy -89427.493694 kJ/mol
# GULP energy per Si atom -5589.218356 kJ/mol
# Density = 2.387487 g / cm^3
# Si number density = 23.929331 Si / 1000 Ang^3
#
#
#
# Elastic Constant Matrix: (Units=GPa)
#
#
# Indices 1 2 3 4 5 6 
#
# 1 67.6202 -4.0273 10.5775 0.0000 2.5308 0.0000
# 2 -4.0273 92.5879 26.1385 0.0000 -6.2498 0.0000
# 3 10.5775 26.1385 97.8972 0.0000 -32.4905 0.0000
# 4 0.0000 0.0000 0.0000 23.0502 0.0000 -9.0214
# 5 2.5308 -6.2498 -32.4905 0.0000 41.6150 0.0000
# 6 0.0000 0.0000 0.0000 -9.0214 0.0000 37.8210
#
#
#
# Elastic Compliance Matrix: (Units=1/GPa)
#
#
# Indices 1 2 3 4 5 6 
#
# 1 0.015464 0.001326 -0.003065 0.000000 -0.003134 0.000000
# 2 0.001326 0.011821 -0.003694 0.000000 -0.001190 0.000000
# 3 -0.003065 -0.003694 0.015401 0.000000 0.011655 0.000000
# 4 0.000000 0.000000 0.000000 0.047851 0.000000 0.011414
# 5 -0.003134 -0.001190 0.011655 0.000000 0.033142 0.000000
# 6 0.000000 0.000000 0.000000 0.011414 0.000000 0.029163
#
#
# Mechanical properties :
#
#
# Convention : Reuss Voigt Hill
#
# Bulk Modulus (GPa) = 31.42735 35.94253 33.68494
# Shear Modulus (GPa) = 28.68388 35.52501 32.10444
#
# Velocity S-wave (km/s) = 3.46597 3.85721 3.66681
# Velocity P-wave (km/s) = 5.40177 5.90680 5.65992
#
# Compressibility (1/GPa) = 0.03181942
#
# Stress axis : x y z
#
# Youngs Moduli (GPa) = 64.66514 84.59604 64.93235
#
# Poissons Ratio (x) = -0.11221 0.19904
# Poissons Ratio (y) = -0.08577 0.23988
# Poissons Ratio (z) = 0.19822 0.31253
#
# Static dielectric constant tensor:
#      x y z
#    x 1.983710 0.000000 -0.046470 
#    y 0.000000 1.907140 0.000000 
#    z -0.046470 0.000000 1.897050 
# 
# From -- ./inp_files/6153.got.cif
#   From: 2010.05.17/outbox.cif.g08.bks.cpg/sg4_4_cif.got.tgz:6153.got - 2010.06.03 18:43:04.
