data_PCOD9115806
_publ_section_title
;
Structure prediction by ZEFSAII (Michael W. Deem and Ramdas Pophale) SiO2 
 PCOD9115806
Probable space group: P 21
;
_chemical_formula_sum "Si O2"
_cell_formula_units_Z 14
_cell_length_a 17.183239
_cell_length_b 8.320718
_cell_length_c 7.188264
_cell_angle_alpha 90.000000
_cell_angle_beta 40.539685
_cell_angle_gamma 90.000000
_cell_volume 668.015012
_symmetry_space_group_name_H-M "P 21"
_symmetry_group_IT_number 4
_symmetry_cell_setting 'monoclinic'
loop_
_space_group_symop_operation_xyz
x,y,z
-x,1/2+y,-z
loop_
_atom_site_type_symbol
_atom_site_label
_atom_site_fract_x
_atom_site_fract_y
_atom_site_fract_z
Si Si1 0.498628 0.775260 0.765836
Si Si2 0.756405 0.637057 0.351016
Si Si3 0.440545 0.426740 0.709019
Si Si4 0.856125 0.089943 0.162297
Si Si5 0.168979 0.339996 0.117038
Si Si6 0.634809 0.299293 0.614730
Si Si7 0.069758 0.310931 0.698608
O O1 0.635103 0.743625 0.582376
O O2 0.455446 0.606009 0.757838
O O3 0.503424 0.907494 0.597159
O O4 0.413201 0.816142 0.089847
O O5 0.713071 0.455559 0.424697
O O6 0.838410 0.682779 0.376102
O O7 0.821860 0.689302 0.040974
O O8 0.518258 0.308856 0.697278
O O9 0.302906 0.375500 0.947896
O O10 0.719323 0.145847 0.436504
O O11 0.898662 0.977863 0.255604
O O12 0.940396 0.244474 0.989823
O O13 0.867419 0.985057 0.954120
O O14 0.087236 0.320644 0.445988
#
# Coordination Sequence:
#
# PCOD9115806 Si02
#       7
#     2   2   2   2   2   2   2
#     4  10  21  36  59  88 122 160 198 250 305 358
#     4   9  22  39  60  90 118 158 209 244 297 369
#     4  10  21  38  60  90 122 156 205 249 300 365
#     4  11  25  40  63  93 119 158 212 246 297 371
#     4  10  22  41  63  87 120 160 201 253 304 354
#     4  11  22  38  61  91 125 159 200 251 304 360
#     4  11  23  44  64  85 124 161 199 257 303 347
#
# _framework density 20.957612999999998
#
# number of rings (size 3 to 8) (size 9 to 14) (size 15 to 20)
#    0.000    1.714    0.000    3.429    0.000   14.857 
#    0.000    1.429    0.000    0.000    0.000    0.000 
#    0.000    0.000    0.000    0.000    0.000    0.000 
#
# Total GULP energy -78290.256824 kJ/mol
# GULP energy per Si atom -5592.161202 kJ/mol
# Density = 2.090991 g / cm^3
# Si number density = 20.957613 Si / 1000 Ang^3
#
#
#
# Elastic Constant Matrix: (Units=GPa)
#
#
# Indices 1 2 3 4 5 6 
#
# 1 50.2227 13.9529 12.6680 0.0000 11.1031 0.0000
# 2 13.9529 60.4862 13.5269 0.0000 5.0694 0.0000
# 3 12.6680 13.5269 65.0470 0.0000 21.7321 0.0000
# 4 0.0000 0.0000 0.0000 17.7976 0.0000 -0.8772
# 5 11.1031 5.0694 21.7321 0.0000 25.6053 0.0000
# 6 0.0000 0.0000 0.0000 -0.8772 0.0000 32.9491
#
#
#
# Elastic Compliance Matrix: (Units=1/GPa)
#
#
# Indices 1 2 3 4 5 6 
#
# 1 0.023234 -0.004478 -0.000731 0.000000 -0.008568 0.000000
# 2 -0.004478 0.018207 -0.003292 0.000000 0.001131 0.000000
# 3 -0.000731 -0.003292 0.022161 0.000000 -0.017840 0.000000
# 4 0.000000 0.000000 0.000000 0.056261 0.000000 0.001498
# 5 -0.008568 0.001131 -0.017840 0.000000 0.057687 0.000000
# 6 0.000000 0.000000 0.000000 0.001498 0.000000 0.030390
#
#
# Mechanical properties :
#
#
# Convention : Reuss Voigt Hill
#
# Bulk Modulus (GPa) = 21.45957 28.45017 24.95487
# Shear Modulus (GPa) = 20.79218 24.31095 22.55156
#
# Velocity S-wave (km/s) = 3.15319 3.40958 3.28389
# Velocity P-wave (km/s) = 4.84959 5.39489 5.12949
#
# Compressibility (1/GPa) = 0.04659925
#
# Stress axis : x y z
#
# Youngs Moduli (GPa) = 43.04049 54.92368 45.12491
#
# Poissons Ratio (x) = 0.24595 0.03299
# Poissons Ratio (y) = 0.19273 0.14855
# Poissons Ratio (z) = 0.03147 0.18081
#
# Static dielectric constant tensor:
#      x y z
#    x 1.761530 0.000000 -0.010460 
#    y 0.000000 1.757390 0.000000 
#    z -0.010460 0.000000 1.721440 
# 
# From -- ./inp_files/2391.got.cif
#   From: 2010.05.17/outbox.cif.g08.bks.cpg/sg4_2_cif.got.tgz:2391.got - 2010.06.03 18:43:04.
