data_PCOD9115166
_publ_section_title
;
Structure prediction by ZEFSAII (Michael W. Deem and Ramdas Pophale) SiO2 
 PCOD9115166
Probable space group: P 21
;
_chemical_formula_sum "Si O2"
_cell_formula_units_Z 16
_cell_length_a 11.296938
_cell_length_b 8.276368
_cell_length_c 7.748011
_cell_angle_alpha 90.000000
_cell_angle_beta 121.710188
_cell_angle_gamma 90.000000
_cell_volume 616.277362
_symmetry_space_group_name_H-M "P 21"
_symmetry_group_IT_number 4
_symmetry_cell_setting 'monoclinic'
loop_
_space_group_symop_operation_xyz
x,y,z
-x,1/2+y,-z
loop_
_atom_site_type_symbol
_atom_site_label
_atom_site_fract_x
_atom_site_fract_y
_atom_site_fract_z
Si Si1 0.720853 0.643120 0.449466
Si Si2 0.966484 0.485916 0.093118
Si Si3 0.698174 0.308434 0.894814
Si Si4 0.792622 0.178242 0.331207
Si Si5 0.975641 0.456867 0.501170
Si Si6 0.564979 0.963860 0.220135
Si Si7 0.548984 0.984878 0.799290
Si Si8 0.801705 0.793326 0.875575
O O1 0.853324 0.583793 0.445427
O O2 0.640239 0.790813 0.296829
O O3 0.609272 0.498091 0.385130
O O4 0.772012 0.711364 0.669021
O O5 0.001251 0.439228 0.316512
O O6 0.101451 0.450594 0.082767
O O7 0.843835 0.366262 0.932844
O O8 0.895121 0.660257 0.041891
O O9 0.580221 0.445820 0.793826
O O10 0.627723 0.142480 0.783263
O O11 0.728504 0.278715 0.123518
O O12 0.906707 0.290072 0.509764
O O13 0.880043 0.027504 0.317613
O O14 0.672469 0.102930 0.356098
O O15 0.539423 0.996819 0.999007
O O16 0.652390 0.839229 0.838046
#
# Coordination Sequence:
#
# PCOD9115166 Si02
#       8
#     2   2   2   2   2   2   2   2
#     4  11  24  42  66  96 130 166 217 271 314 378
#     4  11  24  42  64  91 128 173 215 261 321 382
#     4   9  20  39  64  92 124 165 218 267 310 373
#     4  10  20  34  61  96 126 154 204 271 320 365
#     4  11  22  40  64  93 123 164 217 266 315 371
#     4  10  20  41  68  94 124 164 216 269 315 373
#     4  10  22  41  65  94 129 172 211 257 325 385
#     4  12  26  43  64  94 134 172 212 262 324 387
#
# _framework density 25.962333999999998
#
# number of rings (size 3 to 8) (size 9 to 14) (size 15 to 20)
#    0.000    1.500    0.000    6.000    0.000    8.000 
#    0.000    3.750    0.000    0.000    0.000    0.000 
#    0.000    0.000    0.000    0.000    0.000    0.000 
#
# Total GULP energy -89593.663922 kJ/mol
# GULP energy per Si atom -5599.603995 kJ/mol
# Density = 2.590324 g / cm^3
# Si number density = 25.962334 Si / 1000 Ang^3
#
#
#
# Elastic Constant Matrix: (Units=GPa)
#
#
# Indices 1 2 3 4 5 6 
#
# 1 84.3596 10.0650 30.9627 0.0000 25.3680 0.0000
# 2 10.0650 84.2156 13.3811 0.0000 14.9522 0.0000
# 3 30.9627 13.3811 64.3074 0.0000 10.5776 0.0000
# 4 0.0000 0.0000 0.0000 34.4768 0.0000 20.7520
# 5 25.3680 14.9522 10.5776 0.0000 34.9000 0.0000
# 6 0.0000 0.0000 0.0000 20.7520 0.0000 55.3129
#
#
#
# Elastic Compliance Matrix: (Units=1/GPa)
#
#
# Indices 1 2 3 4 5 6 
#
# 1 0.017597 0.000960 -0.006842 0.000000 -0.011129 0.000000
# 2 0.000960 0.013119 -0.002266 0.000000 -0.005632 0.000000
# 3 -0.006842 -0.002266 0.019300 0.000000 0.000094 0.000000
# 4 0.000000 0.000000 0.000000 0.037466 0.000000 -0.014056
# 5 -0.011129 -0.005632 0.000094 0.000000 0.039127 0.000000
# 6 0.000000 0.000000 0.000000 -0.014056 0.000000 0.023352
#
#
# Mechanical properties :
#
#
# Convention : Reuss Voigt Hill
#
# Bulk Modulus (GPa) = 29.65458 37.96668 33.81063
# Shear Modulus (GPa) = 28.16931 36.83618 32.50275
#
# Velocity S-wave (km/s) = 3.29752 3.77082 3.54209
# Velocity P-wave (km/s) = 5.09364 5.79779 5.45708
#
# Compressibility (1/GPa) = 0.03372160
#
# Stress axis : x y z
#
# Youngs Moduli (GPa) = 56.82719 76.22256 51.81215
#
# Poissons Ratio (x) = -0.07316 0.35449
# Poissons Ratio (y) = -0.05454 0.11739
# Poissons Ratio (z) = 0.38881 0.17270
#
# Static dielectric constant tensor:
#      x y z
#    x 1.969460 0.000000 0.055960 
#    y 0.000000 2.130720 0.000000 
#    z 0.055960 0.000000 2.026060 
# 
# From -- ./inp_files/7880.got.cif
#   From: 2010.05.17/outbox.cif.g08.bks.cpg/sg4_4_cif.got.tgz:7880.got - 2010.06.03 18:43:04.
