data_PCOD9115278
_publ_section_title
;
Structure prediction by ZEFSAII (Michael W. Deem and Ramdas Pophale) SiO2 
 PCOD9115278
Probable space group: P 21
;
_chemical_formula_sum "Si O2"
_cell_formula_units_Z 14
_cell_length_a 16.609171
_cell_length_b 4.993118
_cell_length_c 18.238889
_cell_angle_alpha 90.000000
_cell_angle_beta 152.968300
_cell_angle_gamma 90.000000
_cell_volume 687.442200
_symmetry_space_group_name_H-M "P 21"
_symmetry_group_IT_number 4
_symmetry_cell_setting 'monoclinic'
loop_
_space_group_symop_operation_xyz
x,y,z
-x,1/2+y,-z
loop_
_atom_site_type_symbol
_atom_site_label
_atom_site_fract_x
_atom_site_fract_y
_atom_site_fract_z
Si Si1 0.346240 0.932740 0.687648
Si Si2 0.610969 0.169411 0.798227
Si Si3 0.592465 0.180608 0.405449
Si Si4 0.614803 0.032632 0.580481
Si Si5 0.606676 0.190731 0.112942
Si Si6 0.000213 0.233060 0.450139
Si Si7 0.897390 0.030092 0.930488
O O1 0.303583 0.729461 0.585959
O O2 0.382585 0.788644 0.793866
O O3 0.525595 0.085173 0.806599
O O4 0.181068 0.134400 0.559862
O O5 0.562323 0.471764 0.740485
O O6 0.809677 0.096805 0.937750
O O7 0.493776 0.971572 0.651330
O O8 0.680587 0.073826 0.550310
O O9 0.449406 0.232705 0.456587
O O10 0.760798 0.117154 0.756921
O O11 0.813831 0.191944 0.257118
O O12 0.485687 0.404187 0.971491
O O13 0.012102 0.535611 0.488803
O O14 0.063688 0.219977 0.050743
#
# Coordination Sequence:
#
# PCOD9115278 Si02
#       7
#     2   2   2   2   2   2   2
#     4   9  23  39  69  86 125 160 218 255 303 367
#     4  10  21  38  63  87 119 162 209 247 322 349
#     4  10  20  36  65  88 112 159 215 254 302 342
#     4  12  20  39  65  89 116 160 219 255 287 373
#     4  11  23  39  63  97 128 165 200 250 320 379
#     4  10  21  38  65  92 118 161 212 252 293 368
#     4  12  24  39  62  93 130 163 203 259 317 374
#
# _framework density 20.365347
#
# number of rings (size 3 to 8) (size 9 to 14) (size 15 to 20)
#    0.857    0.571    2.857    3.429    6.000    0.000 
#    0.000    1.429    0.000    0.000    0.000    0.000 
#    0.000    0.000    0.000    0.000    0.000    0.000 
#
# Total GULP energy -78015.442409 kJ/mol
# GULP energy per Si atom -5572.531601 kJ/mol
# Density = 2.031899 g / cm^3
# Si number density = 20.365347 Si / 1000 Ang^3
#
#
#
# Elastic Constant Matrix: (Units=GPa)
#
#
# Indices 1 2 3 4 5 6 
#
# 1 108.9984 5.8642 13.0001 0.0000 9.9723 0.0000
# 2 5.8642 62.6192 -3.3887 0.0000 5.1726 0.0000
# 3 13.0001 -3.3887 53.1199 0.0000 8.4469 0.0000
# 4 0.0000 0.0000 0.0000 37.3228 0.0000 3.1398
# 5 9.9723 5.1726 8.4469 0.0000 25.0301 0.0000
# 6 0.0000 0.0000 0.0000 3.1398 0.0000 28.7646
#
#
#
# Elastic Compliance Matrix: (Units=1/GPa)
#
#
# Indices 1 2 3 4 5 6 
#
# 1 0.009727 -0.000763 -0.001942 0.000000 -0.003062 0.000000
# 2 -0.000763 0.016446 0.001826 0.000000 -0.003711 0.000000
# 3 -0.001942 0.001826 0.020452 0.000000 -0.006505 0.000000
# 4 0.000000 0.000000 0.000000 0.027042 0.000000 -0.002952
# 5 -0.003062 -0.003711 -0.006505 0.000000 0.044134 0.000000
# 6 0.000000 0.000000 0.000000 -0.002952 0.000000 0.035087
#
#
# Mechanical properties :
#
#
# Convention : Reuss Voigt Hill
#
# Bulk Modulus (GPa) = 22.28832 28.40986 25.34909
# Shear Modulus (GPa) = 29.48068 32.17429 30.82749
#
# Velocity S-wave (km/s) = 3.80885 3.97905 3.89488
# Velocity P-wave (km/s) = 5.50555 5.92375 5.71848
#
# Compressibility (1/GPa) = 0.04486655
#
# Stress axis : x y z
#
# Youngs Moduli (GPa) = 102.80314 60.80369 48.89588
#
# Poissons Ratio (x) = 0.04640 0.09497
# Poissons Ratio (y) = 0.07845 -0.08928
# Poissons Ratio (z) = 0.19967 -0.11103
#
# Static dielectric constant tensor:
#      x y z
#    x 1.803700 0.000000 0.048270 
#    y 0.000000 1.705920 0.000000 
#    z 0.048270 0.000000 1.713080 
# 
# From -- ./inp_files/15882.got.cif
#   From: 2010.05.17/outbox.cif.g08.bks.cpg/sg4_8_cif.got.tgz:15882.got - 2010.06.03 18:43:04.
