data_PCOD9115813
_publ_section_title
;
Structure prediction by ZEFSAII (Michael W. Deem and Ramdas Pophale) SiO2 
 PCOD9115813
Probable space group: P 21
;
_chemical_formula_sum "Si O2"
_cell_formula_units_Z 16
_cell_length_a 10.794541
_cell_length_b 5.011251
_cell_length_c 16.247437
_cell_angle_alpha 90.000000
_cell_angle_beta 52.134060
_cell_angle_gamma 90.000000
_cell_volume 693.840009
_symmetry_space_group_name_H-M "P 21"
_symmetry_group_IT_number 4
_symmetry_cell_setting 'monoclinic'
loop_
_space_group_symop_operation_xyz
x,y,z
-x,1/2+y,-z
loop_
_atom_site_type_symbol
_atom_site_label
_atom_site_fract_x
_atom_site_fract_y
_atom_site_fract_z
Si Si1 0.455961 0.705780 0.968982
Si Si2 0.214139 0.032161 0.735799
Si Si3 0.971073 0.575565 0.566040
Si Si4 0.977338 0.179521 0.278075
Si Si5 0.407014 0.074726 0.511902
Si Si6 0.378868 0.265143 0.262922
Si Si7 0.108952 0.674092 0.144288
Si Si8 0.473855 0.775337 0.318474
O O1 0.550618 0.827270 0.854431
O O2 0.526650 0.421830 0.965584
O O3 0.270745 0.662583 0.031001
O O4 0.361304 0.135033 0.725992
O O5 0.052480 0.135358 0.840621
O O6 0.250187 0.137239 0.627326
O O7 0.167897 0.729622 0.726834
O O8 0.069338 0.629509 0.609065
O O9 0.793171 0.638335 0.665191
O O10 0.987855 0.281411 0.523202
O O11 0.083890 0.442879 0.222332
O O12 0.085988 0.947242 0.200789
O O13 0.499822 0.853288 0.529590
O O14 0.398714 0.922561 0.429016
O O15 0.377260 0.531800 0.318827
O O16 0.489660 0.027151 0.251941
#
# Coordination Sequence:
#
# PCOD9115813 Si02
#       8
#     2   2   2   2   2   2   2   2
#     4  12  25  47  73  96 129 172 231 284 340 404
#     4   9  24  39  70  95 132 176 227 269 316 399
#     4  12  26  43  62  95 137 180 220 274 336 397
#     4  10  23  40  67  95 126 166 232 271 325 382
#     4  10  21  36  61  92 131 183 219 257 313 388
#     4  12  27  42  69  99 139 176 216 279 352 397
#     4  10  22  40  70  95 120 165 228 278 328 376
#     4  11  24  43  62 101 144 174 217 272 340 405
#
# _framework density 23.060071000000001
#
# number of rings (size 3 to 8) (size 9 to 14) (size 15 to 20)
#    0.750    0.500    0.000    6.000    8.750    0.000 
#    0.000    1.250    0.000    0.000    0.000    0.000 
#    0.000    0.000    0.000    0.000    0.000    0.000 
#
# Total GULP energy -89306.920650 kJ/mol
# GULP energy per Si atom -5581.682541 kJ/mol
# Density = 2.300759 g / cm^3
# Si number density = 23.060071 Si / 1000 Ang^3
#
#
#
# Elastic Constant Matrix: (Units=GPa)
#
#
# Indices 1 2 3 4 5 6 
#
# 1 38.4515 22.0884 7.8695 0.0000 -2.7210 0.0000
# 2 22.0884 109.8669 0.0916 0.0000 -3.1941 0.0000
# 3 7.8695 0.0916 43.1286 0.0000 -10.1097 0.0000
# 4 0.0000 0.0000 0.0000 29.1142 0.0000 5.0057
# 5 -2.7210 -3.1941 -10.1097 0.0000 29.1144 0.0000
# 6 0.0000 0.0000 0.0000 5.0057 0.0000 26.9921
#
#
#
# Elastic Compliance Matrix: (Units=1/GPa)
#
#
# Indices 1 2 3 4 5 6 
#
# 1 0.030694 -0.006158 -0.005523 0.000000 0.000275 0.000000
# 2 -0.006158 0.010369 0.001343 0.000000 0.001028 0.000000
# 3 -0.005523 0.001343 0.026241 0.000000 0.008743 0.000000
# 4 0.000000 0.000000 0.000000 0.035479 0.000000 -0.006580
# 5 0.000275 0.001028 0.008743 0.000000 0.037522 0.000000
# 6 0.000000 0.000000 0.000000 -0.006580 0.000000 0.038268
#
#
# Mechanical properties :
#
#
# Convention : Reuss Voigt Hill
#
# Bulk Modulus (GPa) = 21.44706 27.94956 24.69831
# Shear Modulus (GPa) = 23.27831 27.80398 25.54114
#
# Velocity S-wave (km/s) = 3.18065 3.47611 3.33166
# Velocity P-wave (km/s) = 4.77592 5.31581 5.05308
#
# Compressibility (1/GPa) = 0.04662645
#
# Stress axis : x y z
#
# Youngs Moduli (GPa) = 32.57931 96.44298 38.10848
#
# Poissons Ratio (x) = 0.59393 0.21048
# Poissons Ratio (y) = 0.20064 -0.05117
# Poissons Ratio (z) = 0.17994 -0.12949
#
# Static dielectric constant tensor:
#      x y z
#    x 1.997640 0.000000 0.003280 
#    y 0.000000 1.858430 0.000000 
#    z 0.003280 0.000000 1.848990 
# 
# From -- ./inp_files/13847.got.cif
#   From: 2010.05.17/outbox.cif.g08.bks.cpg/sg4_7_cif.got.tgz:13847.got - 2010.06.03 18:43:04.
