data_PCOD9115091
_publ_section_title
;
Structure prediction by ZEFSAII (Michael W. Deem and Ramdas Pophale) SiO2 
 PCOD9115091
Probable space group: P 21
;
_chemical_formula_sum "Si O2"
_cell_formula_units_Z 12
_cell_length_a 11.225665
_cell_length_b 5.202635
_cell_length_c 22.998676
_cell_angle_alpha 90.000000
_cell_angle_beta 22.374639
_cell_angle_gamma 90.000000
_cell_volume 511.301156
_symmetry_space_group_name_H-M "P 21"
_symmetry_group_IT_number 4
_symmetry_cell_setting 'monoclinic'
loop_
_space_group_symop_operation_xyz
x,y,z
-x,1/2+y,-z
loop_
_atom_site_type_symbol
_atom_site_label
_atom_site_fract_x
_atom_site_fract_y
_atom_site_fract_z
Si Si1 0.687978 0.654640 0.325669
Si Si2 0.882663 0.356034 0.342792
Si Si3 0.728298 0.356954 0.805732
Si Si4 0.170072 0.033529 0.064483
Si Si5 0.740489 0.399479 0.185662
Si Si6 0.607811 0.157769 0.133386
O O1 0.766662 0.408282 0.329758
O O2 0.601969 0.579207 0.298560
O O3 0.410281 0.793919 0.484162
O O4 0.000739 0.827615 0.181441
O O5 0.034775 0.621172 0.296112
O O6 0.114286 0.114290 0.240898
O O7 0.617457 0.438946 0.790645
O O8 0.407768 0.251409 0.979977
O O9 0.897413 0.169882 0.151133
O O10 0.367457 0.869614 0.928428
O O11 0.529470 0.287886 0.229758
O O12 0.038881 0.544339 0.022116
#
# Coordination Sequence:
#
# PCOD9115091 Si02
#       6
#     2   2   2   2   2   2
#     4  11  28  47  78 106 143 212 255 301 368 458
#     4  12  27  51  74 105 157 198 255 306 371 451
#     4  11  25  47  77 107 151 194 237 320 386 419
#     4  10  22  46  74 114 141 190 250 302 372 436
#     4  10  21  39  75 113 145 189 255 296 366 453
#     4  10  19  42  72 113 151 185 236 317 371 431
#
# _framework density 23.469532999999998
#
# number of rings (size 3 to 8) (size 9 to 14) (size 15 to 20)
#    0.000    1.333    3.333    1.000    7.000    0.000 
#    9.000    0.000    7.333    0.000    0.000    0.000 
#    0.000    0.000    0.000    0.000    0.000    0.000 
#
# Total GULP energy -67149.289280 kJ/mol
# GULP energy per Si atom -5595.774107 kJ/mol
# Density = 2.341612 g / cm^3
# Si number density = 23.469533 Si / 1000 Ang^3
#
#
#
# Elastic Constant Matrix: (Units=GPa)
#
#
# Indices 1 2 3 4 5 6 
#
# 1 116.9197 53.9731 69.7980 0.0000 23.7743 0.0000
# 2 53.9731 147.7744 49.7258 0.0000 8.3703 0.0000
# 3 69.7980 49.7258 79.0763 0.0000 21.5142 0.0000
# 4 0.0000 0.0000 0.0000 46.8540 0.0000 -7.0034
# 5 23.7743 8.3703 21.5142 0.0000 23.5364 0.0000
# 6 0.0000 0.0000 0.0000 -7.0034 0.0000 62.1153
#
#
#
# Elastic Compliance Matrix: (Units=1/GPa)
#
#
# Indices 1 2 3 4 5 6 
#
# 1 0.018914 -0.001888 -0.013965 0.000000 -0.005668 0.000000
# 2 -0.001888 0.008884 -0.004764 0.000000 0.003102 0.000000
# 3 -0.013965 -0.004764 0.031505 0.000000 -0.012997 0.000000
# 4 0.000000 0.000000 0.000000 0.021709 0.000000 0.002448
# 5 -0.005668 0.003102 -0.012997 0.000000 0.058990 0.000000
# 6 0.000000 0.000000 0.000000 0.002448 0.000000 0.016375
#
#
# Mechanical properties :
#
#
# Convention : Reuss Voigt Hill
#
# Bulk Modulus (GPa) = 55.34729 76.75160 66.04944
# Shear Modulus (GPa) = 24.55379 37.85270 31.20325
#
# Velocity S-wave (km/s) = 3.23801 4.02038 3.65022
# Velocity P-wave (km/s) = 6.13298 7.37054 6.78006
#
# Compressibility (1/GPa) = 0.01806773
#
# Stress axis : x y z
#
# Youngs Moduli (GPa) = 52.87132 112.56155 31.74096
#
# Poissons Ratio (x) = 0.21248 0.44328
# Poissons Ratio (y) = 0.09980 0.15123
# Poissons Ratio (z) = 0.73837 0.53629
#
# Static dielectric constant tensor:
#      x y z
#    x 1.895760 0.000000 -0.002110 
#    y 0.000000 1.950580 0.000000 
#    z -0.002110 0.000000 1.869010 
# 
# From -- ./inp_files/16096.got.cif
#   From: 2010.05.17/outbox.cif.g08.bks.cpg/sg4_9_cif.got.tgz:16096.got - 2010.06.03 18:43:04.
