data_PCOD9115118
_publ_section_title
;
Structure prediction by ZEFSAII (Michael W. Deem and Ramdas Pophale) SiO2 
 PCOD9115118
Probable space group: P 21
;
_chemical_formula_sum "Si O2"
_cell_formula_units_Z 14
_cell_length_a 11.308516
_cell_length_b 13.509277
_cell_length_c 5.220931
_cell_angle_alpha 90.000000
_cell_angle_beta 55.898440
_cell_angle_gamma 90.000000
_cell_volume 660.449556
_symmetry_space_group_name_H-M "P 21"
_symmetry_group_IT_number 4
_symmetry_cell_setting 'monoclinic'
loop_
_space_group_symop_operation_xyz
x,y,z
-x,1/2+y,-z
loop_
_atom_site_type_symbol
_atom_site_label
_atom_site_fract_x
_atom_site_fract_y
_atom_site_fract_z
Si Si1 0.938356 0.209100 0.823719
Si Si2 0.379371 0.390079 0.289451
Si Si3 0.813986 0.273303 0.469760
Si Si4 0.274002 0.575887 0.646644
Si Si5 0.586820 0.635119 0.279632
Si Si6 0.471093 0.859479 0.389064
Si Si7 0.738246 0.665627 0.595071
O O1 0.875222 0.279363 0.678975
O O2 0.093780 0.171480 0.562618
O O3 0.933755 0.266598 0.101970
O O4 0.835672 0.114642 0.006965
O O5 0.264147 0.467838 0.537386
O O6 0.508571 0.390418 0.341040
O O7 0.315972 0.279766 0.352928
O O8 0.438449 0.416469 0.937289
O O9 0.745318 0.162431 0.541694
O O10 0.688973 0.345094 0.522770
O O11 0.437354 0.586303 0.533877
O O12 0.543372 0.750536 0.309321
O O13 0.698833 0.619655 0.369808
O O14 0.654660 0.610822 0.923716
#
# Coordination Sequence:
#
# PCOD9115118 Si02
#       7
#     2   2   2   2   2   2   2
#     4  10  20  33  59  76 108 143 187 215 266 327
#     4  10  20  32  56  79 112 134 183 227 280 302
#     4   9  19  33  57  77 105 142 187 212 256 333
#     4   9  22  33  59  80 107 141 185 226 270 319
#     4   9  19  33  56  76 105 135 186 214 262 322
#     4   9  18  32  52  80 104 134 174 232 255 311
#     4  10  20  36  55  82 105 145 178 222 265 324
#
# _framework density 21.197680999999999
#
# number of rings (size 3 to 8) (size 9 to 14) (size 15 to 20)
#    0.857    1.714    0.000    1.714    8.000    0.000 
#    0.000    0.000    9.429    0.000    0.000    0.000 
#    0.000    0.000    0.000    0.000    0.000    0.000 
#
# Total GULP energy -77949.897240 kJ/mol
# GULP energy per Si atom -5567.849803 kJ/mol
# Density = 2.114943 g / cm^3
# Si number density = 21.197681 Si / 1000 Ang^3
#
#
#
# Elastic Constant Matrix: (Units=GPa)
#
#
# Indices 1 2 3 4 5 6 
#
# 1 81.8934 12.9480 53.1227 0.0000 -3.4811 0.0000
# 2 12.9480 26.6927 7.9773 0.0000 14.7715 0.0000
# 3 53.1227 7.9773 88.9718 0.0000 13.0161 0.0000
# 4 0.0000 0.0000 0.0000 12.1509 0.0000 5.1829
# 5 -3.4811 14.7715 13.0161 0.0000 33.1435 0.0000
# 6 0.0000 0.0000 0.0000 5.1829 0.0000 7.6485
#
#
#
# Elastic Compliance Matrix: (Units=1/GPa)
#
#
# Indices 1 2 3 4 5 6 
#
# 1 0.026608 -0.017363 -0.016838 0.000000 0.017146 0.000000
# 2 -0.017363 0.061198 0.009694 0.000000 -0.032906 0.000000
# 3 -0.016838 0.009694 0.022614 0.000000 -0.014970 0.000000
# 4 0.000000 0.000000 0.000000 0.115756 0.000000 -0.078440
# 5 0.017146 -0.032906 -0.014970 0.000000 0.052517 0.000000
# 6 0.000000 0.000000 0.000000 -0.078440 0.000000 0.183898
#
#
# Mechanical properties :
#
#
# Convention : Reuss Voigt Hill
#
# Bulk Modulus (GPa) = 16.28525 38.40598 27.34562
# Shear Modulus (GPa) = 9.39719 18.82258 14.10988
#
# Velocity S-wave (km/s) = 2.10778 2.98309 2.58279
# Velocity P-wave (km/s) = 3.69092 5.47927 4.67147
#
# Compressibility (1/GPa) = 0.06140526
#
# Stress axis : x y z
#
# Youngs Moduli (GPa) = 37.58320 16.34032 44.22036
#
# Poissons Ratio (x) = 0.28371 0.74459
# Poissons Ratio (y) = 0.65255 -0.42866
# Poissons Ratio (z) = 0.63283 -0.15840
#
# Static dielectric constant tensor:
#      x y z
#    x 1.774900 0.000000 0.019440 
#    y 0.000000 1.852130 0.000000 
#    z 0.019440 0.000000 1.741680 
# 
# From -- ./inp_files/1637.got.cif
#   From: 2010.05.17/outbox.cif.g08.bks.cpg/sg4_1_cif.got.tgz:1637.got - 2010.06.03 18:43:04.
