data_PCOD9115271
_publ_section_title
;
Structure prediction by ZEFSAII (Michael W. Deem and Ramdas Pophale) SiO2 
 PCOD9115271
Probable space group: P 21
;
_chemical_formula_sum "Si O2"
_cell_formula_units_Z 16
_cell_length_a 16.560738
_cell_length_b 5.140979
_cell_length_c 9.949607
_cell_angle_alpha 90.000000
_cell_angle_beta 113.259580
_cell_angle_gamma 90.000000
_cell_volume 778.246309
_symmetry_space_group_name_H-M "P 21"
_symmetry_group_IT_number 4
_symmetry_cell_setting 'monoclinic'
loop_
_space_group_symop_operation_xyz
x,y,z
-x,1/2+y,-z
loop_
_atom_site_type_symbol
_atom_site_label
_atom_site_fract_x
_atom_site_fract_y
_atom_site_fract_z
Si Si1 0.688601 0.218670 0.250062
Si Si2 0.009938 0.711202 0.175663
Si Si3 0.782427 0.714195 0.261873
Si Si4 0.895013 0.209058 0.024422
Si Si5 0.017966 0.047372 0.574142
Si Si6 0.401604 0.543956 0.541595
Si Si7 0.387965 0.038727 0.357288
Si Si8 0.291044 0.911363 0.016574
O O1 0.725360 0.504864 0.310093
O O2 0.625919 0.098004 0.321959
O O3 0.767044 0.008883 0.292357
O O4 0.657806 0.262735 0.073168
O O5 0.950134 0.459631 0.107273
O O6 0.040259 0.674011 0.346765
O O7 0.946708 0.957670 0.112226
O O8 0.090463 0.711295 0.126204
O O9 0.881854 0.624569 0.333715
O O10 0.746493 0.660841 0.088493
O O11 0.794648 0.242613 0.000591
O O12 0.992481 0.238654 0.435504
O O13 0.369179 0.288654 0.439348
O O14 0.507510 0.541622 0.603969
O O15 0.368194 0.787175 0.433418
O O16 0.340628 0.003081 0.182361
#
# Coordination Sequence:
#
# PCOD9115271 Si02
#       8
#     2   2   2   2   2   2   2   2
#     4  10  21  40  67  89 126 165 207 264 322 361
#     4  10  20  38  56  87 106 165 192 254 299 362
#     4  10  22  39  62  88 124 159 209 272 310 362
#     4  10  20  36  64  77 121 143 208 250 311 340
#     4  12  23  38  60  83 125 165 207 250 313 377
#     4  10  22  45  62  93 134 169 198 263 311 404
#     4  10  23  41  68  93 129 169 210 246 333 375
#     4  10  23  39  67  94 119 167 207 273 301 381
#
# _framework density 20.559042999999999
#
# number of rings (size 3 to 8) (size 9 to 14) (size 15 to 20)
#    0.750    1.000    1.250    3.000    1.750    0.000 
#    9.000    0.000    0.000    0.000    0.000    0.000 
#    0.000    0.000    0.000    0.000    0.000    0.000 
#
# Total GULP energy -89121.460281 kJ/mol
# GULP energy per Si atom -5570.091268 kJ/mol
# Density = 2.051225 g / cm^3
# Si number density = 20.559043 Si / 1000 Ang^3
#
#
#
# Elastic Constant Matrix: (Units=GPa)
#
#
# Indices 1 2 3 4 5 6 
#
# 1 59.2013 17.9493 39.5766 0.0000 -29.5824 0.0000
# 2 17.9493 131.3560 31.2958 0.0000 -6.1627 0.0000
# 3 39.5766 31.2958 98.1932 0.0000 -16.8548 0.0000
# 4 0.0000 0.0000 0.0000 24.5907 0.0000 -7.4533
# 5 -29.5824 -6.1627 -16.8548 0.0000 29.6828 0.0000
# 6 0.0000 0.0000 0.0000 -7.4533 0.0000 21.4985
#
#
#
# Elastic Compliance Matrix: (Units=1/GPa)
#
#
# Indices 1 2 3 4 5 6 
#
# 1 0.042221 -0.001622 -0.010343 0.000000 0.035868 0.000000
# 2 -0.001622 0.008302 -0.002187 0.000000 -0.001135 0.000000
# 3 -0.010343 -0.002187 0.014628 0.000000 -0.002456 0.000000
# 4 0.000000 0.000000 0.000000 0.045441 0.000000 0.015754
# 5 0.035868 -0.001135 -0.002456 0.000000 0.067806 0.000000
# 6 0.000000 0.000000 0.000000 0.015754 0.000000 0.051976
#
#
# Mechanical properties :
#
#
# Convention : Reuss Voigt Hill
#
# Bulk Modulus (GPa) = 27.13975 51.82156 39.48065
# Shear Modulus (GPa) = 18.45280 28.48300 23.46790
#
# Velocity S-wave (km/s) = 2.99917 3.72617 3.38226
# Velocity P-wave (km/s) = 5.02224 6.61614 5.87351
#
# Compressibility (1/GPa) = 0.03684633
#
# Stress axis : x y z
#
# Youngs Moduli (GPa) = 23.68503 120.44712 68.36040
#
# Poissons Ratio (x) = 0.19539 0.70707
# Poissons Ratio (y) = 0.03842 0.14951
# Poissons Ratio (z) = 0.24498 0.26343
#
# Static dielectric constant tensor:
#      x y z
#    x 1.744960 0.000000 -0.089350 
#    y 0.000000 1.735290 0.000000 
#    z -0.089350 0.000000 1.865750 
# 
# From -- ./inp_files/9399.got.cif
#   From: 2010.05.17/outbox.cif.g08.bks.cpg/sg4_5_cif.got.tgz:9399.got - 2010.06.03 18:43:04.
