data_PCOD9115073
_publ_section_title
;
Structure prediction by ZEFSAII (Michael W. Deem and Ramdas Pophale) SiO2 
 PCOD9115073
Probable space group: P 21
;
_chemical_formula_sum "Si O2"
_cell_formula_units_Z 16
_cell_length_a 8.513360
_cell_length_b 10.913378
_cell_length_c 9.863415
_cell_angle_alpha 90.000000
_cell_angle_beta 135.492247
_cell_angle_gamma 90.000000
_cell_volume 642.405272
_symmetry_space_group_name_H-M "P 21"
_symmetry_group_IT_number 4
_symmetry_cell_setting 'monoclinic'
loop_
_space_group_symop_operation_xyz
x,y,z
-x,1/2+y,-z
loop_
_atom_site_type_symbol
_atom_site_label
_atom_site_fract_x
_atom_site_fract_y
_atom_site_fract_z
Si Si1 0.583776 0.772990 0.653230
Si Si2 0.355096 0.423633 0.782030
Si Si3 0.348972 0.895499 0.286849
Si Si4 0.370831 0.908192 0.775833
Si Si5 0.010142 0.101643 0.090082
Si Si6 0.816763 0.146030 0.713051
Si Si7 0.231796 0.163644 0.765854
Si Si8 0.731410 0.165500 0.180718
O O1 0.566011 0.862574 0.512306
O O2 0.478503 0.851406 0.708830
O O3 0.818190 0.713172 0.830676
O O4 0.414077 0.658531 0.512857
O O5 0.563996 0.426492 0.808283
O O6 0.234025 0.293509 0.690178
O O7 0.221789 0.550996 0.691719
O O8 0.444985 0.423054 0.991922
O O9 0.215322 0.768561 0.215375
O O10 0.177270 0.993827 0.239386
O O11 0.209006 0.800285 0.730340
O O12 0.264840 0.042297 0.695594
O O13 0.844044 0.139078 0.106701
O O14 0.883249 0.055508 0.875887
O O15 0.020908 0.152798 0.734750
O O16 0.461157 0.167935 0.996342
#
# Coordination Sequence:
#
# PCOD9115073 Si02
#       8
#     2   2   2   2   2   2   2   2
#     4  10  26  46  64 108 141 179 247 294 357 428
#     4  10  19  40  72  99 139 188 239 289 356 432
#     4  10  24  45  69 107 137 186 251 290 356 441
#     4  10  20  42  65 101 142 184 236 295 358 420
#     4  12  22  47  71  96 149 190 232 307 360 425
#     4  10  23  45  70 104 142 187 244 292 358 433
#     4  10  20  39  68 101 136 186 236 291 352 429
#     4  10  22  38  71 106 136 190 239 288 365 430
#
# _framework density 24.906395
#
# number of rings (size 3 to 8) (size 9 to 14) (size 15 to 20)
#    0.750    1.000    0.000    6.000    0.000    2.000 
#   11.250    0.000    0.000    0.000    0.000    0.000 
#    0.000    0.000    0.000    0.000    0.000    0.000 
#
# Total GULP energy -89376.115115 kJ/mol
# GULP energy per Si atom -5586.007195 kJ/mol
# Density = 2.484971 g / cm^3
# Si number density = 24.906395 Si / 1000 Ang^3
#
#
#
# Elastic Constant Matrix: (Units=GPa)
#
#
# Indices 1 2 3 4 5 6 
#
# 1 113.1301 -10.9438 20.9516 0.0000 2.0870 0.0000
# 2 -10.9438 75.6887 7.8622 0.0000 2.3249 0.0000
# 3 20.9516 7.8622 115.9864 0.0000 19.3259 0.0000
# 4 0.0000 0.0000 0.0000 4.9067 0.0000 -11.3735
# 5 2.0870 2.3249 19.3259 0.0000 25.2049 0.0000
# 6 0.0000 0.0000 0.0000 -11.3735 0.0000 33.4902
#
#
#
# Elastic Compliance Matrix: (Units=1/GPa)
#
#
# Indices 1 2 3 4 5 6 
#
# 1 0.009325 0.001527 -0.001875 0.000000 0.000525 0.000000
# 2 0.001527 0.013564 -0.001107 0.000000 -0.000529 0.000000
# 3 -0.001875 -0.001107 0.010310 0.000000 -0.007648 0.000000
# 4 0.000000 0.000000 0.000000 0.957667 0.000000 0.325229
# 5 0.000525 -0.000529 -0.007648 0.000000 0.045544 0.000000
# 6 0.000000 0.000000 0.000000 0.325229 0.000000 0.140309
#
#
# Mechanical properties :
#
#
# Convention : Reuss Voigt Hill
#
# Bulk Modulus (GPa) = 33.01716 37.83835 35.42775
# Shear Modulus (GPa) = 4.20265 31.84938 18.02602
#
# Velocity S-wave (km/s) = 1.30040 3.57986 2.69318
# Velocity P-wave (km/s) = 3.94208 5.68440 4.89144
#
# Compressibility (1/GPa) = 0.03028728
#
# Stress axis : x y z
#
# Youngs Moduli (GPa) = 107.24178 73.72434 96.99520
#
# Poissons Ratio (x) = -0.11257 0.18190
# Poissons Ratio (y) = -0.16375 0.10739
# Poissons Ratio (z) = 0.20112 0.08163
#
# Static dielectric constant tensor:
#      x y z
#    x 1.854120 0.000000 -0.012540 
#    y 0.000000 2.098810 0.000000 
#    z -0.012540 0.000000 2.102220 
# 
# From -- ./inp_files/11270.got.cif
#   From: 2010.05.17/outbox.cif.g08.bks.cpg/sg4_6_cif.got.tgz:11270.got - 2010.06.03 18:43:04.
