data_PCOD9115126
_publ_section_title
;
Structure prediction by ZEFSAII (Michael W. Deem and Ramdas Pophale) SiO2 
 PCOD9115126
Probable space group: P 21
;
_chemical_formula_sum "Si O2"
_cell_formula_units_Z 16
_cell_length_a 11.824818
_cell_length_b 5.372432
_cell_length_c 20.609808
_cell_angle_alpha 90.000000
_cell_angle_beta 29.072285
_cell_angle_gamma 90.000000
_cell_volume 636.205701
_symmetry_space_group_name_H-M "P 21"
_symmetry_group_IT_number 4
_symmetry_cell_setting 'monoclinic'
loop_
_space_group_symop_operation_xyz
x,y,z
-x,1/2+y,-z
loop_
_atom_site_type_symbol
_atom_site_label
_atom_site_fract_x
_atom_site_fract_y
_atom_site_fract_z
Si Si1 0.782272 0.615200 0.926586
Si Si2 0.258094 0.420941 0.643357
Si Si3 0.623441 0.701245 0.540459
Si Si4 0.561602 0.445095 0.689868
Si Si5 0.634690 0.790938 0.862854
Si Si6 0.111680 0.669674 0.969464
Si Si7 0.250211 0.081474 0.755296
Si Si8 0.370320 0.777037 0.208530
O O1 0.716662 0.769104 0.895337
O O2 0.053649 0.572192 0.781584
O O3 0.647860 0.728231 0.055888
O O4 0.640235 0.354382 0.993064
O O5 0.503135 0.518507 0.548591
O O6 0.243016 0.394930 0.573283
O O7 0.238783 0.154722 0.686676
O O8 0.726473 0.572736 0.552922
O O9 0.400285 0.835839 0.684239
O O10 0.381593 0.626300 0.819212
O O11 0.397447 0.271321 0.727014
O O12 0.677430 0.296666 0.691046
O O13 0.685613 0.536443 0.799226
O O14 0.733002 0.035048 0.776350
O O15 0.033373 0.955157 0.997162
O O16 0.010579 0.598843 0.089627
#
# Coordination Sequence:
#
# PCOD9115126 Si02
#       8
#     2   2   2   2   2   2   2   2
#     4  10  22  40  67  98 138 177 220 298 357 416
#     4  11  24  39  64  94 133 191 231 273 338 402
#     4  11  22  42  56  92 143 181 236 272 312 433
#     4  10  23  35  60  88 133 180 213 270 351 403
#     4  10  21  41  63 102 139 155 228 289 360 419
#     4  10  20  33  52  82 119 168 212 258 322 383
#     4  10  22  37  54  84 132 169 223 274 312 410
#     4  10  22  37  64 100 135 167 211 288 362 420
#
# _framework density 25.149099
#
# number of rings (size 3 to 8) (size 9 to 14) (size 15 to 20)
#    0.750    1.000    3.750    0.000    5.250    2.000 
#    0.000    0.000    0.000    0.000    3.250    0.000 
#    0.000    0.000    0.000    0.000    0.000    0.000 
#
# Total GULP energy -89191.033747 kJ/mol
# GULP energy per Si atom -5574.439609 kJ/mol
# Density = 2.509186 g / cm^3
# Si number density = 25.149099 Si / 1000 Ang^3
#
#
#
# Elastic Constant Matrix: (Units=GPa)
#
#
# Indices 1 2 3 4 5 6 
#
# 1 36.1905 17.5860 22.4991 0.0000 24.4496 0.0000
# 2 17.5860 100.8239 14.5460 0.0000 14.5258 0.0000
# 3 22.4991 14.5460 109.0297 0.0000 44.8963 0.0000
# 4 0.0000 0.0000 0.0000 18.2377 0.0000 14.8744
# 5 24.4496 14.5258 44.8963 0.0000 42.1292 0.0000
# 6 0.0000 0.0000 0.0000 14.8744 0.0000 36.5558
#
#
#
# Elastic Compliance Matrix: (Units=1/GPa)
#
#
# Indices 1 2 3 4 5 6 
#
# 1 0.047779 -0.004539 0.002708 0.000000 -0.029049 0.000000
# 2 -0.004539 0.010870 -0.000098 0.000000 -0.001009 0.000000
# 3 0.002708 -0.000098 0.016500 0.000000 -0.019121 0.000000
# 4 0.000000 0.000000 0.000000 0.082066 0.000000 -0.033392
# 5 -0.029049 -0.001009 -0.019121 0.000000 0.061320 0.000000
# 6 0.000000 0.000000 0.000000 -0.033392 0.000000 0.040943
#
#
# Mechanical properties :
#
#
# Convention : Reuss Voigt Hill
#
# Bulk Modulus (GPa) = 14.02726 39.47846 26.75286
# Shear Modulus (GPa) = 17.41562 32.14542 24.78052
#
# Velocity S-wave (km/s) = 2.63438 3.57906 3.14242
# Velocity P-wave (km/s) = 3.85267 5.72813 4.88132
#
# Compressibility (1/GPa) = 0.07128977
#
# Stress axis : x y z
#
# Youngs Moduli (GPa) = 20.92977 92.00027 60.60629
#
# Poissons Ratio (x) = 0.41761 -0.16412
# Poissons Ratio (y) = 0.09501 0.00594
# Poissons Ratio (z) = -0.05668 0.00901
#
# Static dielectric constant tensor:
#      x y z
#    x 1.995940 0.000000 -0.011580 
#    y 0.000000 2.148790 0.000000 
#    z -0.011580 0.000000 2.048180 
# 
# From -- ./inp_files/15098.got.cif
#   From: 2010.05.17/outbox.cif.g08.bks.cpg/sg4_8_cif.got.tgz:15098.got - 2010.06.03 18:43:04.
