data_PCOD9115993
_publ_section_title
;
Structure prediction by ZEFSAII (Michael W. Deem and Ramdas Pophale) SiO2 
 PCOD9115993
Probable space group: P 21
;
_chemical_formula_sum "Si O2"
_cell_formula_units_Z 16
_cell_length_a 28.231461
_cell_length_b 4.988800
_cell_length_c 5.822538
_cell_angle_alpha 90.000000
_cell_angle_beta 127.380867
_cell_angle_gamma 90.000000
_cell_volume 651.628168
_symmetry_space_group_name_H-M "P 21"
_symmetry_group_IT_number 4
_symmetry_cell_setting 'monoclinic'
loop_
_space_group_symop_operation_xyz
x,y,z
-x,1/2+y,-z
loop_
_atom_site_type_symbol
_atom_site_label
_atom_site_fract_x
_atom_site_fract_y
_atom_site_fract_z
Si Si1 0.434860 0.891050 0.450974
Si Si2 0.809722 0.235310 0.286151
Si Si3 0.933307 0.929485 0.084890
Si Si4 0.312943 0.709040 0.322422
Si Si5 0.563626 0.891402 0.842134
Si Si6 0.685996 0.711777 0.429858
Si Si7 0.189989 0.224214 0.434498
Si Si8 0.064653 0.693365 0.412627
O O1 0.374211 0.807267 0.391891
O O2 0.498524 0.836158 0.760954
O O3 0.435651 0.700583 0.228656
O O4 0.434591 0.200153 0.377013
O O5 0.805445 0.411039 0.501564
O O6 0.871663 0.338689 0.358508
O O7 0.814999 0.919850 0.357832
O O8 0.749062 0.290323 0.975633
O O9 0.998821 0.811988 0.233009
O O10 0.935727 0.008263 0.360583
O O11 0.871502 0.768055 0.880804
O O12 0.929069 0.116225 0.840881
O O13 0.312323 0.388157 0.333055
O O14 0.313324 0.891740 0.552288
O O15 0.623484 0.810101 0.145229
O O16 0.746987 0.803841 0.489646
#
# Coordination Sequence:
#
# PCOD9115993 Si02
#       8
#     2   2   2   2   2   2   2   2
#     4  10  21  39  61  84 117 164 214 264 326 402
#     4  11  24  44  68  94 130 175 223 274 332 403
#     4  11  24  43  69 103 141 185 233 287 347 413
#     4  12  24  38  61  93 128 164 210 271 335 402
#     4  10  21  39  61  84 117 164 214 264 326 402
#     4  12  24  38  61  93 128 164 210 271 335 402
#     4  11  24  44  68  94 130 175 223 274 332 403
#     4  11  24  43  69 103 141 185 233 287 347 413
#
# _framework density 24.553881000000001
#
# number of rings (size 3 to 8) (size 9 to 14) (size 15 to 20)
#    0.000    1.000    0.000    6.750    0.000    6.000 
#    0.000    0.000    0.000    0.000    0.000    0.000 
#    0.000    0.000    0.000    0.000    0.000    0.000 
#
# Total GULP energy -89165.579147 kJ/mol
# GULP energy per Si atom -5572.848697 kJ/mol
# Density = 2.449800 g / cm^3
# Si number density = 24.553881 Si / 1000 Ang^3
#
#
#
# Elastic Constant Matrix: (Units=GPa)
#
#
# Indices 1 2 3 4 5 6 
#
# 1 209.1113 10.5054 -5.1269 0.0000 50.8152 0.0000
# 2 10.5054 67.0484 14.3814 0.0000 3.1188 0.0000
# 3 -5.1269 14.3814 155.5967 0.0000 64.2146 0.0000
# 4 0.0000 0.0000 0.0000 31.1012 0.0000 0.8826
# 5 50.8152 3.1188 64.2146 0.0000 61.6390 0.0000
# 6 0.0000 0.0000 0.0000 0.8826 0.0000 37.7320
#
#
#
# Elastic Compliance Matrix: (Units=1/GPa)
#
#
# Indices 1 2 3 4 5 6 
#
# 1 0.007957 -0.001849 0.005441 0.000000 -0.012135 0.000000
# 2 -0.001849 0.015699 -0.003181 0.000000 0.004044 0.000000
# 3 0.005441 -0.003181 0.015235 0.000000 -0.020197 0.000000
# 4 0.000000 0.000000 0.000000 0.032174 0.000000 -0.000753
# 5 -0.012135 0.004044 -0.020197 0.000000 0.047064 0.000000
# 6 0.000000 0.000000 0.000000 -0.000753 0.000000 0.026520
#
#
# Mechanical properties :
#
#
# Convention : Reuss Voigt Hill
#
# Bulk Modulus (GPa) = 25.18059 52.36401 38.77230
# Shear Modulus (GPa) = 31.83380 53.56088 42.69734
#
# Velocity S-wave (km/s) = 3.60458 4.67557 4.17457
# Velocity P-wave (km/s) = 5.25372 7.10777 6.24988
#
# Compressibility (1/GPa) = 0.03971312
#
# Stress axis : x y z
#
# Youngs Moduli (GPa) = 125.66968 63.70020 65.63666
#
# Poissons Ratio (x) = 0.11781 -0.35715
# Poissons Ratio (y) = 0.23242 0.20879
# Poissons Ratio (z) = -0.68381 0.20263
#
# Static dielectric constant tensor:
#      x y z
#    x 2.038320 0.000000 0.002740 
#    y 0.000000 1.960080 0.000000 
#    z 0.002740 0.000000 1.995780 
# 
# From -- ./inp_files/4182.got.cif
#   From: 2010.05.17/outbox.cif.g08.bks.cpg/sg4_3_cif.got.tgz:4182.got - 2010.06.03 18:43:04.
