data_PCOD9115992
_publ_section_title
;
Structure prediction by ZEFSAII (Michael W. Deem and Ramdas Pophale) SiO2 
 PCOD9115992
Probable space group: P 21
;
_chemical_formula_sum "Si O2"
_cell_formula_units_Z 14
_cell_length_a 7.176931
_cell_length_b 11.627243
_cell_length_c 7.348237
_cell_angle_alpha 90.000000
_cell_angle_beta 120.504033
_cell_angle_gamma 90.000000
_cell_volume 528.324870
_symmetry_space_group_name_H-M "P 21"
_symmetry_group_IT_number 4
_symmetry_cell_setting 'monoclinic'
loop_
_space_group_symop_operation_xyz
x,y,z
-x,1/2+y,-z
loop_
_atom_site_type_symbol
_atom_site_label
_atom_site_fract_x
_atom_site_fract_y
_atom_site_fract_z
Si Si1 0.202492 0.304120 0.837500
Si Si2 0.200132 0.550218 0.766568
Si Si3 0.797507 0.296316 0.162496
Si Si4 0.736528 0.810071 0.699905
Si Si5 0.736528 0.290361 0.699901
Si Si6 0.282863 0.550216 0.226191
Si Si7 0.236379 0.050217 0.674241
O O1 0.246590 0.177479 0.776716
O O2 0.306526 0.420581 0.798065
O O3 0.948002 0.342578 0.712657
O O4 0.262148 0.293189 0.081487
O O5 0.984777 0.550218 0.544346
O O6 0.306526 0.679855 0.798067
O O7 0.179333 0.550216 0.975942
O O8 0.753412 0.422957 0.223281
O O9 0.051996 0.257855 0.287335
O O10 0.737851 0.307247 0.918507
O O11 0.500000 0.800213 0.500003
O O12 0.794118 0.942469 0.704540
O O13 0.794122 0.157963 0.704543
O O14 0.541567 0.550216 0.333011
#
# Coordination Sequence:
#
# PCOD9115992 Si02
#       7
#     2   2   2   2   2   2   2
#     4  10  23  39  61  89 117 154 199 240 291 351
#     4  10  22  40  58  84 124 156 190 244 296 344
#     4  10  23  39  61  89 117 154 199 240 291 351
#     4  10  21  39  61  84 116 155 197 244 290 341
#     4  10  21  39  61  84 116 155 197 244 290 341
#     4  10  23  38  58  88 120 154 197 240 292 354
#     4  12  23  38  62  90 120 156 195 240 292 348
#
# _framework density 26.498850000000001
#
# number of rings (size 3 to 8) (size 9 to 14) (size 15 to 20)
#    0.000    1.714    0.000    3.429    0.000   11.429 
#    0.000    0.000    0.000    1.714    0.000    0.000 
#    0.000    0.000    0.000    0.000    0.000    0.000 
#
# Total GULP energy -78119.536408 kJ/mol
# GULP energy per Si atom -5579.966886 kJ/mol
# Density = 2.643854 g / cm^3
# Si number density = 26.498850 Si / 1000 Ang^3
#
#
#
# Elastic Constant Matrix: (Units=GPa)
#
#
# Indices 1 2 3 4 5 6 
#
# 1 98.6043 19.4604 29.1453 0.0000 21.6694 0.0000
# 2 19.4604 221.6853 13.0123 0.0000 -25.1317 0.0000
# 3 29.1453 13.0123 127.7788 0.0000 20.6415 0.0000
# 4 0.0000 0.0000 0.0000 31.6320 0.0000 -6.9860
# 5 21.6694 -25.1317 20.6415 0.0000 36.0912 0.0000
# 6 0.0000 0.0000 0.0000 -6.9860 0.0000 28.5855
#
#
#
# Elastic Compliance Matrix: (Units=1/GPa)
#
#
# Indices 1 2 3 4 5 6 
#
# 1 0.012749 -0.001973 -0.001376 0.000000 -0.008241 0.000000
# 2 -0.001973 0.005363 -0.000981 0.000000 0.005480 0.000000
# 3 -0.001376 -0.000981 0.009053 0.000000 -0.005035 0.000000
# 4 0.000000 0.000000 0.000000 0.033417 0.000000 0.008167
# 5 -0.008241 0.005480 -0.005035 0.000000 0.039351 0.000000
# 6 0.000000 0.000000 0.000000 0.008167 0.000000 0.036979
#
#
# Mechanical properties :
#
#
# Convention : Reuss Voigt Hill
#
# Bulk Modulus (GPa) = 54.03915 63.47828 58.75871
# Shear Modulus (GPa) = 32.95113 45.02511 38.98812
#
# Velocity S-wave (km/s) = 3.53014 4.12653 3.83993
# Velocity P-wave (km/s) = 6.08713 6.83458 6.47165
#
# Compressibility (1/GPa) = 0.01850510
#
# Stress axis : x y z
#
# Youngs Moduli (GPa) = 78.44020 186.46497 110.45894
#
# Poissons Ratio (x) = 0.36783 0.15195
# Poissons Ratio (y) = 0.15473 0.10841
# Poissons Ratio (z) = 0.10791 0.18301
#
# Static dielectric constant tensor:
#      x y z
#    x 2.107800 0.000000 0.073330 
#    y 0.000000 2.212830 0.000000 
#    z 0.073330 0.000000 2.129190 
# 
# From -- ./inp_files/6364.got.cif
#   From: 2010.05.17/outbox.cif.g08.bks.cpg/sg4_4_cif.got.tgz:6364.got - 2010.06.03 18:43:04.
