data_PCOD9115768
_publ_section_title
;
Structure prediction by ZEFSAII (Michael W. Deem and Ramdas Pophale) SiO2 
 PCOD9115768
Probable space group: P 21
;
_chemical_formula_sum "Si O2"
_cell_formula_units_Z 14
_cell_length_a 7.407555
_cell_length_b 5.620781
_cell_length_c 13.894173
_cell_angle_alpha 90.000000
_cell_angle_beta 107.651448
_cell_angle_gamma 90.000000
_cell_volume 551.264638
_symmetry_space_group_name_H-M "P 21"
_symmetry_group_IT_number 4
_symmetry_cell_setting 'monoclinic'
loop_
_space_group_symop_operation_xyz
x,y,z
-x,1/2+y,-z
loop_
_atom_site_type_symbol
_atom_site_label
_atom_site_fract_x
_atom_site_fract_y
_atom_site_fract_z
Si Si1 0.056762 0.383370 0.130520
Si Si2 0.338149 0.009439 0.204100
Si Si3 0.295692 0.627927 0.340028
Si Si4 0.747437 0.078254 0.026792
Si Si5 0.621826 0.681570 0.131752
Si Si6 0.108281 0.602509 0.515391
Si Si7 0.633420 0.379006 0.303512
O O1 0.142409 0.115479 0.137543
O O2 0.149255 0.498770 0.241344
O O3 0.834058 0.324072 0.083546
O O4 0.140098 0.523247 0.053217
O O5 0.474998 0.234029 0.221094
O O6 0.308706 0.899318 0.304988
O O7 0.452263 0.817773 0.162877
O O8 0.226935 0.597471 0.436382
O O9 0.507456 0.522102 0.360423
O O10 0.765668 0.863385 0.105756
O O11 0.521341 0.068844 0.969738
O O12 0.721290 0.546723 0.237128
O O13 0.030285 0.334600 0.518448
O O14 0.231811 0.689988 0.625408
#
# Coordination Sequence:
#
# PCOD9115768 Si02
#       7
#     2   2   2   2   2   2   2
#     4  11  24  45  69 112 148 209 255 322 384 474
#     4  10  20  46  73 106 146 200 261 318 392 466
#     4  10  25  49  80 107 153 205 263 321 403 482
#     4  12  24  44  71 104 162 198 263 312 392 472
#     4  11  24  45  69 112 148 209 255 322 384 474
#     4  12  32  52  78 126 162 198 268 342 418 470
#     4  10  25  49  80 107 153 205 263 321 403 482
#
# _framework density 25.396152000000001
#
# number of rings (size 3 to 8) (size 9 to 14) (size 15 to 20)
#    0.000    1.143    4.286    1.714   10.000    2.286 
#    0.000    0.000    0.000    0.000    0.000    0.000 
#    0.000    0.000    0.000    0.000    0.000    0.000 
#
# Total GULP energy -78276.215223 kJ/mol
# GULP energy per Si atom -5591.158230 kJ/mol
# Density = 2.533835 g / cm^3
# Si number density = 25.396152 Si / 1000 Ang^3
#
#
#
# Elastic Constant Matrix: (Units=GPa)
#
#
# Indices 1 2 3 4 5 6 
#
# 1 74.9650 -2.6827 16.5376 0.0000 6.1294 0.0000
# 2 -2.6827 45.4622 -0.2400 0.0000 -10.2440 0.0000
# 3 16.5376 -0.2400 63.4452 0.0000 -15.2618 0.0000
# 4 0.0000 0.0000 0.0000 41.9593 0.0000 -2.0176
# 5 6.1294 -10.2440 -15.2618 0.0000 46.9533 0.0000
# 6 0.0000 0.0000 0.0000 -2.0176 0.0000 52.8461
#
#
#
# Elastic Compliance Matrix: (Units=1/GPa)
#
#
# Indices 1 2 3 4 5 6 
#
# 1 0.014643 0.000073 -0.004635 0.000000 -0.003402 0.000000
# 2 0.000073 0.023251 0.001396 0.000000 0.005517 0.000000
# 3 -0.004635 0.001396 0.018652 0.000000 0.006972 0.000000
# 4 0.000000 0.000000 0.000000 0.023876 0.000000 0.000912
# 5 -0.003402 0.005517 0.006972 0.000000 0.025212 0.000000
# 6 0.000000 0.000000 0.000000 0.000912 0.000000 0.018958
#
#
# Mechanical properties :
#
#
# Convention : Reuss Voigt Hill
#
# Bulk Modulus (GPa) = 19.91454 23.45579 21.68516
# Shear Modulus (GPa) = 33.86108 39.70225 36.78167
#
# Velocity S-wave (km/s) = 3.65542 3.95817 3.80980
# Velocity P-wave (km/s) = 5.06702 5.49049 5.28300
#
# Compressibility (1/GPa) = 0.05021456
#
# Stress axis : x y z
#
# Youngs Moduli (GPa) = 68.29277 43.00866 53.61274
#
# Poissons Ratio (x) = -0.00314 0.24849
# Poissons Ratio (y) = -0.00499 -0.07485
# Poissons Ratio (z) = 0.31653 -0.06004
#
# Static dielectric constant tensor:
#      x y z
#    x 2.025000 0.000000 0.045100 
#    y 0.000000 2.101830 0.000000 
#    z 0.045100 0.000000 1.982000 
# 
# From -- ./inp_files/10678.got.cif
#   From: 2010.05.17/outbox.cif.g08.bks.cpg/sg4_6_cif.got.tgz:10678.got - 2010.06.03 18:43:04.
