data_PCOD9115755
_publ_section_title
;
Structure prediction by ZEFSAII (Michael W. Deem and Ramdas Pophale) SiO2 
 PCOD9115755
Probable space group: P 21
;
_chemical_formula_sum "Si O2"
_cell_formula_units_Z 14
_cell_length_a 5.946541
_cell_length_b 16.551832
_cell_length_c 6.235754
_cell_angle_alpha 90.000000
_cell_angle_beta 72.906541
_cell_angle_gamma 90.000000
_cell_volume 586.649309
_symmetry_space_group_name_H-M "P 21"
_symmetry_group_IT_number 4
_symmetry_cell_setting 'monoclinic'
loop_
_space_group_symop_operation_xyz
x,y,z
-x,1/2+y,-z
loop_
_atom_site_type_symbol
_atom_site_label
_atom_site_fract_x
_atom_site_fract_y
_atom_site_fract_z
Si Si1 0.705235 0.588330 0.099775
Si Si2 0.021202 0.948762 0.822766
Si Si3 0.584939 0.017680 0.169710
Si Si4 0.564856 0.242454 0.899118
Si Si5 0.240908 0.357132 0.789124
Si Si6 0.846103 0.170506 0.189860
Si Si7 0.981110 0.298929 0.488736
O O1 0.769210 0.513470 0.233788
O O2 0.504105 0.655328 0.182304
O O3 0.646967 0.548755 0.883033
O O4 0.943611 0.640069 0.020741
O O5 0.029271 0.883244 0.635259
O O6 0.999397 0.897427 0.052058
O O7 0.771130 0.996508 0.920909
O O8 0.700544 0.088828 0.277048
O O9 0.587852 0.933299 0.291828
O O10 0.342383 0.301289 0.948737
O O11 0.755022 0.285460 0.699704
O O12 0.669447 0.226187 0.103186
O O13 0.199183 0.305625 0.590035
O O14 0.967603 0.221072 0.341261
#
# Coordination Sequence:
#
# PCOD9115755 Si02
#       7
#     2   2   2   2   2   2   2
#     4  10  20  45  71  90 129 180 219 264 327 393
#     4   9  22  42  65  92 132 177 215 271 329 378
#     4   8  21  42  66  91 125 176 220 259 325 389
#     4  11  24  41  66  99 132 172 222 270 324 393
#     4  10  24  43  64  96 134 169 222 270 324 391
#     4  10  23  45  68  91 132 178 213 270 329 384
#     4  12  24  40  66 101 134 168 215 278 330 380
#
# _framework density 23.864345
#
# number of rings (size 3 to 8) (size 9 to 14) (size 15 to 20)
#    0.857    1.143    0.000    2.571    4.000    4.571 
#   12.857    0.000    0.000    0.000    0.000    0.000 
#    0.000    0.000    0.000    0.000    0.000    0.000 
#
# Total GULP energy -78093.286992 kJ/mol
# GULP energy per Si atom -5578.091928 kJ/mol
# Density = 2.381003 g / cm^3
# Si number density = 23.864345 Si / 1000 Ang^3
#
#
#
# Elastic Constant Matrix: (Units=GPa)
#
#
# Indices 1 2 3 4 5 6 
#
# 1 42.4674 41.5631 16.6780 0.0000 19.6956 0.0000
# 2 41.5631 136.2260 39.0217 0.0000 27.1703 0.0000
# 3 16.6780 39.0217 40.6908 0.0000 19.2860 0.0000
# 4 0.0000 0.0000 0.0000 38.9687 0.0000 8.1405
# 5 19.6956 27.1703 19.2860 0.0000 32.6824 0.0000
# 6 0.0000 0.0000 0.0000 8.1405 0.0000 46.0486
#
#
#
# Elastic Compliance Matrix: (Units=1/GPa)
#
#
# Indices 1 2 3 4 5 6 
#
# 1 0.039977 -0.008874 0.000065 0.000000 -0.016752 0.000000
# 2 -0.008874 0.012429 -0.008218 0.000000 -0.000136 0.000000
# 3 0.000065 -0.008218 0.040552 0.000000 -0.017137 0.000000
# 4 0.000000 0.000000 0.000000 0.026646 0.000000 -0.004710
# 5 -0.016752 -0.000136 -0.017137 0.000000 0.050918 0.000000
# 6 0.000000 0.000000 0.000000 -0.004710 0.000000 0.022549
#
#
# Mechanical properties :
#
#
# Convention : Reuss Voigt Hill
#
# Bulk Modulus (GPa) = 16.97689 45.98997 31.48343
# Shear Modulus (GPa) = 20.26257 31.68139 25.97198
#
# Velocity S-wave (km/s) = 2.91705 3.64752 3.30254
# Velocity P-wave (km/s) = 4.29824 6.08708 5.26913
#
# Compressibility (1/GPa) = 0.05890359
#
# Stress axis : x y z
#
# Youngs Moduli (GPa) = 25.01460 80.45418 24.65955
#
# Poissons Ratio (x) = 0.71399 -0.00160
# Poissons Ratio (y) = 0.22199 0.20265
# Poissons Ratio (z) = -0.00163 0.66117
#
# Static dielectric constant tensor:
#      x y z
#    x 1.952140 0.000000 -0.024350 
#    y 0.000000 1.918930 0.000000 
#    z -0.024350 0.000000 1.922250 
# 
# From -- ./inp_files/427.got.cif
#   From: 2010.05.17/outbox.cif.g08.bks.cpg/sg4_1_cif.got.tgz:427.got - 2010.06.03 18:43:04.
