data_PCOD9115716
_publ_section_title
;
Structure prediction by ZEFSAII (Michael W. Deem and Ramdas Pophale) SiO2 
 PCOD9115716
Probable space group: P 21
;
_chemical_formula_sum "Si O2"
_cell_formula_units_Z 16
_cell_length_a 17.166139
_cell_length_b 7.467260
_cell_length_c 5.807884
_cell_angle_alpha 90.000000
_cell_angle_beta 114.886517
_cell_angle_gamma 90.000000
_cell_volume 675.348000
_symmetry_space_group_name_H-M "P 21"
_symmetry_group_IT_number 4
_symmetry_cell_setting 'monoclinic'
loop_
_space_group_symop_operation_xyz
x,y,z
-x,1/2+y,-z
loop_
_atom_site_type_symbol
_atom_site_label
_atom_site_fract_x
_atom_site_fract_y
_atom_site_fract_z
Si Si1 0.079359 0.969110 0.824053
Si Si2 0.587010 0.922378 0.448527
Si Si3 0.680753 0.204277 0.855497
Si Si4 0.156752 0.520353 0.137201
Si Si5 0.745558 0.029925 0.333171
Si Si6 0.766296 0.714697 0.016332
Si Si7 0.590893 0.563014 0.697946
Si Si8 0.985208 0.348305 0.761273
O O1 0.052490 0.888465 0.541080
O O2 0.175509 0.041108 0.906358
O O3 0.025171 0.151400 0.792826
O O4 0.066160 0.868886 0.056202
O O5 0.622312 0.031637 0.717108
O O6 0.663687 0.954757 0.368957
O O7 0.572270 0.712903 0.481783
O O8 0.496102 0.013531 0.279050
O O9 0.776297 0.159081 0.888074
O O10 0.634355 0.373360 0.686539
O O11 0.701093 0.198493 0.150787
O O12 0.169187 0.574556 0.416956
O O13 0.204874 0.323751 0.177348
O O14 0.066298 0.483799 0.907740
O O15 0.779993 0.870817 0.216043
O O16 0.668771 0.656647 0.926056
#
# Coordination Sequence:
#
# PCOD9115716 Si02
#       8
#     2   2   2   2   2   2   2   2
#     4  11  26  44  72 109 145 194 248 296 374 430
#     4  11  23  42  64  97 135 181 226 296 358 428
#     4  10  22  40  63  98 131 174 235 285 346 429
#     4   9  21  42  70  92 135 190 230 280 365 416
#     4  10  20  43  67  93 132 180 240 283 353 433
#     4  10  23  42  70  95 139 181 237 290 360 430
#     4  12  22  43  67  94 139 178 226 298 357 430
#     4  11  25  44  73 104 150 190 240 312 355 442
#
# _framework density 23.691492
#
# number of rings (size 3 to 8) (size 9 to 14) (size 15 to 20)
#    0.000    1.500    5.000    0.750    8.750    3.000 
#    4.500    0.000    0.000    0.000    0.000    0.000 
#    0.000    0.000    0.000    0.000    0.000    0.000 
#
# Total GULP energy -89105.940056 kJ/mol
# GULP energy per Si atom -5569.121254 kJ/mol
# Density = 2.363757 g / cm^3
# Si number density = 23.691492 Si / 1000 Ang^3
#
#
#
# Elastic Constant Matrix: (Units=GPa)
#
#
# Indices 1 2 3 4 5 6 
#
# 1 102.5785 10.0673 37.0123 0.0000 10.7095 0.0000
# 2 10.0673 120.6863 25.3338 0.0000 -7.2535 0.0000
# 3 37.0123 25.3338 101.0346 0.0000 -6.4391 0.0000
# 4 0.0000 0.0000 0.0000 34.9866 0.0000 8.1144
# 5 10.7095 -7.2535 -6.4391 0.0000 23.9545 0.0000
# 6 0.0000 0.0000 0.0000 8.1144 0.0000 44.9678
#
#
#
# Elastic Compliance Matrix: (Units=1/GPa)
#
#
# Indices 1 2 3 4 5 6 
#
# 1 0.012250 -0.000425 -0.004821 0.000000 -0.006901 0.000000
# 2 -0.000425 0.008866 -0.001917 0.000000 0.002359 0.000000
# 3 -0.004821 -0.001917 0.012458 0.000000 0.004924 0.000000
# 4 0.000000 0.000000 0.000000 0.029831 0.000000 -0.005383
# 5 -0.006901 0.002359 0.004924 0.000000 0.046869 0.000000
# 6 0.000000 0.000000 0.000000 -0.005383 0.000000 0.023209
#
#
# Mechanical properties :
#
#
# Convention : Reuss Voigt Hill
#
# Bulk Modulus (GPa) = 51.95201 52.12515 52.03858
# Shear Modulus (GPa) = 32.42009 37.57417 34.99713
#
# Velocity S-wave (km/s) = 3.70324 3.98675 3.84761
# Velocity P-wave (km/s) = 6.34519 6.57584 6.46155
#
# Compressibility (1/GPa) = 0.01924853
#
# Stress axis : x y z
#
# Youngs Moduli (GPa) = 81.63027 112.79584 80.26843
#
# Poissons Ratio (x) = 0.04790 0.38698
# Poissons Ratio (y) = 0.03467 0.15388
# Poissons Ratio (z) = 0.39354 0.21624
#
# Static dielectric constant tensor:
#      x y z
#    x 1.992440 0.000000 -0.046770 
#    y 0.000000 1.952670 0.000000 
#    z -0.046770 0.000000 2.065500 
# 
# From -- ./inp_files/4052.got.cif
#   From: 2010.05.17/outbox.cif.g08.bks.cpg/sg4_3_cif.got.tgz:4052.got - 2010.06.03 18:43:04.
