data_PCOD9115629
_publ_section_title
;
Structure prediction by ZEFSAII (Michael W. Deem and Ramdas Pophale) SiO2 
 PCOD9115629
Probable space group: P 21
;
_chemical_formula_sum "Si O2"
_cell_formula_units_Z 14
_cell_length_a 12.249334
_cell_length_b 10.851832
_cell_length_c 5.094113
_cell_angle_alpha 90.000000
_cell_angle_beta 119.862565
_cell_angle_gamma 90.000000
_cell_volume 587.238511
_symmetry_space_group_name_H-M "P 21"
_symmetry_group_IT_number 4
_symmetry_cell_setting 'monoclinic'
loop_
_space_group_symop_operation_xyz
x,y,z
-x,1/2+y,-z
loop_
_atom_site_type_symbol
_atom_site_label
_atom_site_fract_x
_atom_site_fract_y
_atom_site_fract_z
Si Si1 0.812282 0.388720 0.203879
Si Si2 0.091350 0.547466 0.114415
Si Si3 0.240763 0.398435 0.631788
Si Si4 0.239631 0.132720 0.607274
Si Si5 0.651502 0.000573 0.734324
Si Si6 0.623116 0.554328 0.759840
Si Si7 0.046631 0.806603 0.147362
O O1 0.671480 0.420067 0.926587
O O2 0.888317 0.354059 0.039455
O O3 0.003728 0.665996 0.039560
O O4 0.852741 0.302397 0.493215
O O5 0.134440 0.499888 0.452287
O O6 0.051491 0.419067 0.925133
O O7 0.225689 0.588425 0.149425
O O8 0.179760 0.265350 0.574746
O O9 0.320601 0.400213 0.458208
O O10 0.333518 0.437628 0.969773
O O11 0.287192 0.095581 0.375134
O O12 0.158084 0.023504 0.634462
O O13 0.356987 0.135493 0.955087
O O14 0.517292 0.056406 0.514347
#
# Coordination Sequence:
#
# PCOD9115629 Si02
#       7
#     2   2   2   2   2   2   2
#     4  10  24  42  68 101 133 181 222 286 325 423
#     4  10  30  45  71 101 135 187 226 299 336 418
#     4  10  23  42  65 101 136 175 234 274 351 392
#     4  10  20  41  68 103 130 186 222 277 339 410
#     4  10  23  44  62 102 143 176 228 277 343 408
#     4  10  20  42  65 103 140 181 223 273 340 414
#     4  12  26  46  71  99 141 178 241 278 354 391
#
# _framework density 23.840399000000001
#
# number of rings (size 3 to 8) (size 9 to 14) (size 15 to 20)
#    1.714    0.000    1.429    1.714    6.000    1.143 
#    7.714    0.000    0.000    0.000    0.000    0.000 
#    0.000    0.000    0.000    0.000    0.000    0.000 
#
# Total GULP energy -77967.398729 kJ/mol
# GULP energy per Si atom -5569.099909 kJ/mol
# Density = 2.378614 g / cm^3
# Si number density = 23.840399 Si / 1000 Ang^3
#
#
#
# Elastic Constant Matrix: (Units=GPa)
#
#
# Indices 1 2 3 4 5 6 
#
# 1 54.1609 15.4047 29.8384 0.0000 9.6147 0.0000
# 2 15.4047 100.2381 19.6425 0.0000 19.0164 0.0000
# 3 29.8384 19.6425 146.0777 0.0000 -9.0242 0.0000
# 4 0.0000 0.0000 0.0000 11.8094 0.0000 1.9165
# 5 9.6147 19.0164 -9.0242 0.0000 40.6889 0.0000
# 6 0.0000 0.0000 0.0000 1.9165 0.0000 19.6161
#
#
#
# Elastic Compliance Matrix: (Units=1/GPa)
#
#
# Indices 1 2 3 4 5 6 
#
# 1 0.022505 -0.001446 -0.004754 0.000000 -0.005697 0.000000
# 2 -0.001446 0.011535 -0.001589 0.000000 -0.005402 0.000000
# 3 -0.004754 -0.001589 0.008259 0.000000 0.003698 0.000000
# 4 0.000000 0.000000 0.000000 0.086042 0.000000 -0.008406
# 5 -0.005697 -0.005402 0.003698 0.000000 0.029267 0.000000
# 6 0.000000 0.000000 0.000000 -0.008406 0.000000 0.051800
#
#
# Mechanical properties :
#
#
# Convention : Reuss Voigt Hill
#
# Bulk Modulus (GPa) = 37.42648 47.80530 42.61589
# Shear Modulus (GPa) = 21.37710 30.12898 25.75304
#
# Velocity S-wave (km/s) = 2.99770 3.55882 3.29025
# Velocity P-wave (km/s) = 5.26445 6.08134 5.68758
#
# Compressibility (1/GPa) = 0.02671905
#
# Stress axis : x y z
#
# Youngs Moduli (GPa) = 44.43364 86.69493 121.08008
#
# Poissons Ratio (x) = 0.12538 0.57567
# Poissons Ratio (y) = 0.06426 0.19243
# Poissons Ratio (z) = 0.21126 0.13778
#
# Static dielectric constant tensor:
#      x y z
#    x 1.940600 0.000000 0.043740 
#    y 0.000000 1.989510 0.000000 
#    z 0.043740 0.000000 1.993050 
# 
# From -- ./inp_files/3109.got.cif
#   From: 2010.05.17/outbox.cif.g08.bks.cpg/sg4_2_cif.got.tgz:3109.got - 2010.06.03 18:43:04.
