data_PCOD9115638
_publ_section_title
;
Structure prediction by ZEFSAII (Michael W. Deem and Ramdas Pophale) SiO2 
 PCOD9115638
Probable space group: P 21
;
_chemical_formula_sum "Si O2"
_cell_formula_units_Z 16
_cell_length_a 11.482873
_cell_length_b 8.549509
_cell_length_c 8.348261
_cell_angle_alpha 90.000000
_cell_angle_beta 59.359307
_cell_angle_gamma 90.000000
_cell_volume 705.144624
_symmetry_space_group_name_H-M "P 21"
_symmetry_group_IT_number 4
_symmetry_cell_setting 'monoclinic'
loop_
_space_group_symop_operation_xyz
x,y,z
-x,1/2+y,-z
loop_
_atom_site_type_symbol
_atom_site_label
_atom_site_fract_x
_atom_site_fract_y
_atom_site_fract_z
Si Si1 0.906245 0.134420 0.524230
Si Si2 0.069977 0.923319 0.160762
Si Si3 0.808133 0.745220 0.611996
Si Si4 0.796635 0.932736 0.896310
Si Si5 0.884150 0.706944 0.099849
Si Si6 0.726439 0.402343 0.697298
Si Si7 0.373063 0.295281 0.525677
Si Si8 0.462210 0.519126 0.738412
O O1 0.782298 0.248709 0.569806
O O2 0.030928 0.250034 0.480655
O O3 0.968567 0.028754 0.340745
O O4 0.865750 0.035399 0.709585
O O5 0.996745 0.766713 0.147089
O O6 0.204623 0.894742 0.174217
O O7 0.097650 0.040228 0.994225
O O8 0.742263 0.785368 0.829115
O O9 0.784848 0.564190 0.583894
O O10 0.728464 0.852590 0.542818
O O11 0.886345 0.844427 0.964243
O O12 0.679778 0.024895 0.069893
O O13 0.735041 0.710034 0.282426
O O14 0.567922 0.428811 0.780782
O O15 0.442748 0.421608 0.588621
O O16 0.477495 0.183789 0.360830
#
# Coordination Sequence:
#
# PCOD9115638 Si02
#       8
#     2   2   2   2   2   2   2   2
#     4  11  22  40  69 102 130 175 229 281 343 407
#     4  11  25  42  69 101 140 179 224 293 351 404
#     4  10  20  41  69  91 136 172 216 287 346 387
#     4  11  23  42  66 100 135 177 227 275 338 411
#     4  11  24  42  66 103 140 175 229 287 351 405
#     4  10  22  40  65  97 126 182 223 273 334 404
#     4  10  23  45  68  95 133 182 221 287 343 396
#     4  10  25  46  68  93 138 182 231 279 336 416
#
# _framework density 22.690380999999999
#
# number of rings (size 3 to 8) (size 9 to 14) (size 15 to 20)
#    0.000    1.500    2.500    3.000    3.500    6.000 
#    4.500    0.000    0.000    0.000    0.000    0.000 
#    0.000    0.000    0.000    0.000    0.000    0.000 
#
# Total GULP energy -89283.863261 kJ/mol
# GULP energy per Si atom -5580.241454 kJ/mol
# Density = 2.263874 g / cm^3
# Si number density = 22.690381 Si / 1000 Ang^3
#
#
#
# Elastic Constant Matrix: (Units=GPa)
#
#
# Indices 1 2 3 4 5 6 
#
# 1 89.7123 -4.6694 1.8082 0.0000 17.1350 0.0000
# 2 -4.6694 31.3463 2.2294 0.0000 -0.1681 0.0000
# 3 1.8082 2.2294 73.2406 0.0000 9.3943 0.0000
# 4 0.0000 0.0000 0.0000 46.7985 0.0000 0.5944
# 5 17.1350 -0.1681 9.3943 0.0000 30.1239 0.0000
# 6 0.0000 0.0000 0.0000 0.5944 0.0000 32.1622
#
#
#
# Elastic Compliance Matrix: (Units=1/GPa)
#
#
# Indices 1 2 3 4 5 6 
#
# 1 0.012634 0.001802 0.000577 0.000000 -0.007356 0.000000
# 2 0.001802 0.032235 -0.000956 0.000000 -0.000547 0.000000
# 3 0.000577 -0.000956 0.014283 0.000000 -0.004788 0.000000
# 4 0.000000 0.000000 0.000000 0.021373 0.000000 -0.000395
# 5 -0.007356 -0.000547 -0.004788 0.000000 0.038870 0.000000
# 6 0.000000 0.000000 0.000000 -0.000395 0.000000 0.031100
#
#
# Mechanical properties :
#
#
# Convention : Reuss Voigt Hill
#
# Bulk Modulus (GPa) = 16.12979 21.44839 18.78909
# Shear Modulus (GPa) = 29.70619 34.81233 32.25926
#
# Velocity S-wave (km/s) = 3.62221 3.92118 3.77465
# Velocity P-wave (km/s) = 4.96165 5.47485 5.22455
#
# Compressibility (1/GPa) = 0.06199708
#
# Stress axis : x y z
#
# Youngs Moduli (GPa) = 79.15202 31.02214 70.01545
#
# Poissons Ratio (x) = -0.05589 -0.04039
# Poissons Ratio (y) = -0.14259 0.06690
# Poissons Ratio (z) = -0.04566 0.02964
#
# Static dielectric constant tensor:
#      x y z
#    x 1.882450 0.000000 0.031770 
#    y 0.000000 1.912200 0.000000 
#    z 0.031770 0.000000 1.848440 
# 
# From -- ./inp_files/7834.got.cif
#   From: 2010.05.17/outbox.cif.g08.bks.cpg/sg4_4_cif.got.tgz:7834.got - 2010.06.03 18:43:04.
