data_PCOD9115209
_publ_section_title
;
Structure prediction by ZEFSAII (Michael W. Deem and Ramdas Pophale) SiO2 
 PCOD9115209
Probable space group: P 21
;
_chemical_formula_sum "Si O2"
_cell_formula_units_Z 16
_cell_length_a 5.631292
_cell_length_b 13.395302
_cell_length_c 10.736905
_cell_angle_alpha 90.000000
_cell_angle_beta 126.108118
_cell_angle_gamma 90.000000
_cell_volume 654.335847
_symmetry_space_group_name_H-M "P 21"
_symmetry_group_IT_number 4
_symmetry_cell_setting 'monoclinic'
loop_
_space_group_symop_operation_xyz
x,y,z
-x,1/2+y,-z
loop_
_atom_site_type_symbol
_atom_site_label
_atom_site_fract_x
_atom_site_fract_y
_atom_site_fract_z
Si Si1 0.196098 0.102520 0.724076
Si Si2 0.133994 0.009813 0.278401
Si Si3 0.701139 0.407436 0.360024
Si Si4 0.719408 0.951294 0.567046
Si Si5 0.550970 0.096424 0.071996
Si Si6 0.277554 0.287814 0.067073
Si Si7 0.829344 0.816403 0.262886
Si Si8 0.249630 0.904102 0.070889
O O1 0.067784 0.210660 0.651710
O O2 0.306243 0.029475 0.649287
O O3 0.462696 0.120583 0.902610
O O4 0.937098 0.031966 0.700052
O O5 0.479483 0.014441 0.413515
O O6 0.096048 0.973131 0.125512
O O7 0.021677 0.916563 0.328559
O O8 0.892406 0.095720 0.216029
O O9 0.469657 0.384185 0.397799
O O10 0.545530 0.356969 0.192743
O O11 0.049039 0.388732 0.445108
O O12 0.375824 0.173217 0.105894
O O13 0.428989 0.983884 0.046757
O O14 0.202021 0.299572 0.897010
O O15 0.992789 0.327839 0.053046
O O16 0.504234 0.838642 0.212549
#
# Coordination Sequence:
#
# PCOD9115209 Si02
#       8
#     2   2   2   2   2   2   2   2
#     4   9  20  37  61  96 120 164 201 262 308 376
#     4  10  22  40  58  87 121 167 205 257 310 373
#     4  10  22  40  62  89 125 165 204 258 305 373
#     4  10  24  41  65  84 132 165 210 250 318 361
#     4  10  21  38  62  91 125 153 212 257 316 366
#     4  10  21  37  60  97 117 163 205 265 311 371
#     4   9  20  36  62  91 123 156 210 254 317 372
#     4  10  20  35  64  85 125 159 205 257 315 370
#
# _framework density 24.452276999999999
#
# number of rings (size 3 to 8) (size 9 to 14) (size 15 to 20)
#    0.750    1.500    0.000    3.000    5.250    6.000 
#    2.250    1.250    0.000    0.000    0.000    0.000 
#    0.000    0.000    0.000    0.000    0.000    0.000 
#
# Total GULP energy -89080.015429 kJ/mol
# GULP energy per Si atom -5567.500964 kJ/mol
# Density = 2.439662 g / cm^3
# Si number density = 24.452277 Si / 1000 Ang^3
#
#
#
# Elastic Constant Matrix: (Units=GPa)
#
#
# Indices 1 2 3 4 5 6 
#
# 1 88.1431 3.8492 7.1345 0.0000 16.3486 0.0000
# 2 3.8492 69.1502 1.9419 0.0000 11.4501 0.0000
# 3 7.1345 1.9419 101.6706 0.0000 39.2599 0.0000
# 4 0.0000 0.0000 0.0000 17.6920 0.0000 -0.3024
# 5 16.3486 11.4501 39.2599 0.0000 37.3496 0.0000
# 6 0.0000 0.0000 0.0000 -0.3024 0.0000 21.1276
#
#
#
# Elastic Compliance Matrix: (Units=1/GPa)
#
#
# Indices 1 2 3 4 5 6 
#
# 1 0.012628 0.000561 0.002195 0.000000 -0.008007 0.000000
# 2 0.000561 0.015661 0.002711 0.000000 -0.007896 0.000000
# 3 0.002195 0.002711 0.017374 0.000000 -0.020054 0.000000
# 4 0.000000 0.000000 0.000000 0.056536 0.000000 0.000809
# 5 -0.008007 -0.007896 -0.020054 0.000000 0.053779 0.000000
# 6 0.000000 0.000000 0.000000 0.000809 0.000000 0.047343
#
#
# Mechanical properties :
#
#
# Convention : Reuss Voigt Hill
#
# Bulk Modulus (GPa) = 17.66892 31.64611 24.65752
# Shear Modulus (GPa) = 23.66821 31.63642 27.65231
#
# Velocity S-wave (km/s) = 3.11454 3.60085 3.36649
# Velocity P-wave (km/s) = 4.49170 5.50075 5.02163
#
# Compressibility (1/GPa) = 0.05659655
#
# Stress axis : x y z
#
# Youngs Moduli (GPa) = 79.18845 63.85144 57.55825
#
# Poissons Ratio (x) = -0.03583 -0.12634
# Poissons Ratio (y) = -0.04444 -0.15601
# Poissons Ratio (z) = -0.17381 -0.17307
#
# Static dielectric constant tensor:
#      x y z
#    x 1.986710 0.000000 -0.024040 
#    y 0.000000 1.947190 0.000000 
#    z -0.024040 0.000000 2.066080 
# 
# From -- ./inp_files/13431.got.cif
#   From: 2010.05.17/outbox.cif.g08.bks.cpg/sg4_7_cif.got.tgz:13431.got - 2010.06.03 18:43:04.
