data_PCOD9115890
_publ_section_title
;
Structure prediction by ZEFSAII (Michael W. Deem and Ramdas Pophale) SiO2 
 PCOD9115890
Probable space group: P 21
;
_chemical_formula_sum "Si O2"
_cell_formula_units_Z 12
_cell_length_a 19.621668
_cell_length_b 5.368908
_cell_length_c 4.906041
_cell_angle_alpha 90.000000
_cell_angle_beta 57.604491
_cell_angle_gamma 90.000000
_cell_volume 436.401077
_symmetry_space_group_name_H-M "P 21"
_symmetry_group_IT_number 4
_symmetry_cell_setting 'monoclinic'
loop_
_space_group_symop_operation_xyz
x,y,z
-x,1/2+y,-z
loop_
_atom_site_type_symbol
_atom_site_label
_atom_site_fract_x
_atom_site_fract_y
_atom_site_fract_z
Si Si1 0.760419 0.611030 0.143317
Si Si2 0.437568 0.221779 0.807412
Si Si3 0.045916 0.600279 0.438654
Si Si4 0.280252 0.435887 0.269521
Si Si5 0.600763 0.424672 0.610973
Si Si6 0.142154 0.749315 0.752967
O O1 0.724204 0.816634 0.422455
O O2 0.691321 0.393919 0.305087
O O3 0.839173 0.500873 0.120136
O O4 0.761962 0.739468 0.847435
O O5 0.529324 0.234543 0.706948
O O6 0.432462 0.152642 0.504086
O O7 0.374523 0.446569 0.992298
O O8 0.399188 0.004782 0.076183
O O9 0.076684 0.719394 0.656264
O O10 0.009983 0.324829 0.559144
O O11 0.115231 0.572314 0.060037
O O12 0.223395 0.673121 0.417478
#
# Coordination Sequence:
#
# PCOD9115890 Si02
#       6
#     2   2   2   2   2   2
#     4  10  23  42  66 103 143 185 249 303 365 438
#     4  10  21  38  59  90 133 184 234 300 355 423
#     4  12  30  52  80 116 150 196 248 308 394 478
#     4  10  23  42  66 103 143 185 249 303 365 438
#     4  10  21  38  59  90 133 184 234 300 355 423
#     4  12  26  46  80 106 142 200 232 318 372 460
#
# _framework density 27.497638999999999
#
# number of rings (size 3 to 8) (size 9 to 14) (size 15 to 20)
#    0.000    1.333    0.000    4.000    9.333    0.000 
#    3.000    0.000    0.000    0.000    0.000    0.000 
#    0.000    0.000    0.000    0.000    0.000    0.000 
#
# Total GULP energy -67143.519670 kJ/mol
# GULP energy per Si atom -5595.293306 kJ/mol
# Density = 2.743505 g / cm^3
# Si number density = 27.497639 Si / 1000 Ang^3
#
#
#
# Elastic Constant Matrix: (Units=GPa)
#
#
# Indices 1 2 3 4 5 6 
#
# 1 123.9506 29.1476 11.9959 0.0000 35.0685 0.0000
# 2 29.1476 102.8058 29.1506 0.0000 1.2347 0.0000
# 3 11.9959 29.1506 118.9762 0.0000 12.1908 0.0000
# 4 0.0000 0.0000 0.0000 30.6901 0.0000 -3.7836
# 5 35.0685 1.2347 12.1908 0.0000 37.5348 0.0000
# 6 0.0000 0.0000 0.0000 -3.7836 0.0000 36.5323
#
#
#
# Elastic Compliance Matrix: (Units=1/GPa)
#
#
# Indices 1 2 3 4 5 6 
#
# 1 0.012038 -0.003507 0.000813 0.000000 -0.011395 0.000000
# 2 -0.003507 0.011484 -0.002852 0.000000 0.003825 0.000000
# 3 0.000813 -0.002852 0.009403 0.000000 -0.003720 0.000000
# 4 0.000000 0.000000 0.000000 0.033005 0.000000 0.003418
# 5 -0.011395 0.003825 -0.003720 0.000000 0.038371 0.000000
# 6 0.000000 0.000000 0.000000 0.003418 0.000000 0.027727
#
#
# Mechanical properties :
#
#
# Convention : Reuss Voigt Hill
#
# Bulk Modulus (GPa) = 45.80119 54.03564 49.91842
# Shear Modulus (GPa) = 33.24530 39.31398 36.27964
#
# Velocity S-wave (km/s) = 3.48087 3.78527 3.63626
# Velocity P-wave (km/s) = 5.73131 6.22881 5.98523
#
# Compressibility (1/GPa) = 0.02183349
#
# Stress axis : x y z
#
# Youngs Moduli (GPa) = 83.07246 87.07722 106.34900
#
# Poissons Ratio (x) = 0.30535 -0.08647
# Poissons Ratio (y) = 0.29130 0.30332
# Poissons Ratio (z) = -0.06754 0.24835
#
# Static dielectric constant tensor:
#      x y z
#    x 2.195790 0.000000 -0.142550 
#    y 0.000000 2.216810 0.000000 
#    z -0.142550 0.000000 2.136410 
# 
# From -- ./inp_files/4223.got.cif
#   From: 2010.05.17/outbox.cif.g08.bks.cpg/sg4_3_cif.got.tgz:4223.got - 2010.06.03 18:43:04.
