data_PCOD9115500
_publ_section_title
;
Structure prediction by ZEFSAII (Michael W. Deem and Ramdas Pophale) SiO2 
 PCOD9115500
Probable space group: P 21
;
_chemical_formula_sum "Si O2"
_cell_formula_units_Z 16
_cell_length_a 6.131452
_cell_length_b 9.196509
_cell_length_c 16.911039
_cell_angle_alpha 90.000000
_cell_angle_beta 44.761630
_cell_angle_gamma 90.000000
_cell_volume 671.471022
_symmetry_space_group_name_H-M "P 21"
_symmetry_group_IT_number 4
_symmetry_cell_setting 'monoclinic'
loop_
_space_group_symop_operation_xyz
x,y,z
-x,1/2+y,-z
loop_
_atom_site_type_symbol
_atom_site_label
_atom_site_fract_x
_atom_site_fract_y
_atom_site_fract_z
Si Si1 0.243704 0.700860 0.384475
Si Si2 0.293084 0.960605 0.663047
Si Si3 0.829477 0.447125 0.476098
Si Si4 0.482994 0.179051 0.092506
Si Si5 0.793638 0.404938 0.916806
Si Si6 0.259349 0.674222 0.196082
Si Si7 0.112602 0.033783 0.956439
Si Si8 0.506987 0.817282 0.746343
O O1 0.493003 0.586549 0.354362
O O2 0.273302 0.848353 0.425227
O O3 0.271040 0.723974 0.283929
O O4 0.919966 0.611194 0.477033
O O5 0.951752 0.030334 0.752947
O O6 0.378948 0.941748 0.548853
O O7 0.335680 0.816095 0.705110
O O8 0.152158 0.373768 0.363370
O O9 0.446436 0.200332 0.196168
O O10 0.270567 0.055008 0.111481
O O11 0.498573 0.329094 0.038330
O O12 0.831927 0.118578 0.991426
O O13 0.882139 0.291376 0.826722
O O14 0.006215 0.442883 0.937270
O O15 0.613366 0.638078 0.083136
O O16 0.286556 0.931871 0.849493
#
# Coordination Sequence:
#
# PCOD9115500 Si02
#       8
#     2   2   2   2   2   2   2   2
#     4  10  23  41  68  93 126 169 216 274 322 388
#     4  10  20  39  67  93 123 172 217 260 334 382
#     4  10  22  43  66  93 128 164 221 266 329 386
#     4  11  26  39  64  96 131 170 219 261 325 381
#     4  11  25  39  63  92 131 171 212 268 316 390
#     4  11  22  40  64  94 128 169 216 266 320 382
#     4  11  22  39  63  95 124 172 213 261 313 383
#     4  10  22  40  65  92 125 171 208 272 315 386
#
# _framework density 23.828282000000002
#
# number of rings (size 3 to 8) (size 9 to 14) (size 15 to 20)
#    0.000    1.500    5.000    0.750    3.500    6.000 
#    0.000    0.000    0.000    0.000    0.000    0.000 
#    0.000    0.000    0.000    0.000    0.000    0.000 
#
# Total GULP energy -89325.208669 kJ/mol
# GULP energy per Si atom -5582.825542 kJ/mol
# Density = 2.377405 g / cm^3
# Si number density = 23.828282 Si / 1000 Ang^3
#
#
#
# Elastic Constant Matrix: (Units=GPa)
#
#
# Indices 1 2 3 4 5 6 
#
# 1 85.4950 8.1414 31.6313 0.0000 44.4276 0.0000
# 2 8.1414 49.9291 10.5709 0.0000 28.4414 0.0000
# 3 31.6313 10.5709 49.4292 0.0000 25.7116 0.0000
# 4 0.0000 0.0000 0.0000 40.7198 0.0000 19.0604
# 5 44.4276 28.4414 25.7116 0.0000 46.6521 0.0000
# 6 0.0000 0.0000 0.0000 19.0604 0.0000 43.0906
#
#
#
# Elastic Compliance Matrix: (Units=1/GPa)
#
#
# Indices 1 2 3 4 5 6 
#
# 1 0.031578 0.017756 -0.003829 0.000000 -0.038787 0.000000
# 2 0.017756 0.041380 0.002392 0.000000 -0.043455 0.000000
# 3 -0.003829 0.002392 0.029484 0.000000 -0.014061 0.000000
# 4 0.000000 0.000000 0.000000 0.030971 0.000000 -0.013699
# 5 -0.038787 -0.043455 -0.014061 0.000000 0.092615 0.000000
# 6 0.000000 0.000000 0.000000 -0.013699 0.000000 0.029267
#
#
# Mechanical properties :
#
#
# Convention : Reuss Voigt Hill
#
# Bulk Modulus (GPa) = 7.40303 31.72673 19.56488
# Shear Modulus (GPa) = 18.67873 35.05980 26.86926
#
# Velocity S-wave (km/s) = 2.80284 3.83998 3.36165
# Velocity P-wave (km/s) = 3.68621 5.74493 4.82661
#
# Compressibility (1/GPa) = 0.13507980
#
# Stress axis : x y z
#
# Youngs Moduli (GPa) = 31.66734 24.16615 33.91644
#
# Poissons Ratio (x) = -0.42910 0.12988
# Poissons Ratio (y) = -0.56229 -0.08112
# Poissons Ratio (z) = 0.12127 -0.05780
#
# Static dielectric constant tensor:
#      x y z
#    x 1.953110 0.000000 0.013140 
#    y 0.000000 1.968270 0.000000 
#    z 0.013140 0.000000 1.915710 
# 
# From -- ./inp_files/3445.got.cif
#   From: 2010.05.17/outbox.cif.g08.bks.cpg/sg4_2_cif.got.tgz:3445.got - 2010.06.03 18:43:04.
