data_PCOD9115984
_publ_section_title
;
Structure prediction by ZEFSAII (Michael W. Deem and Ramdas Pophale) SiO2 
 PCOD9115984
Probable space group: P 21
;
_chemical_formula_sum "Si O2"
_cell_formula_units_Z 16
_cell_length_a 5.206702
_cell_length_b 26.321145
_cell_length_c 5.297187
_cell_angle_alpha 90.000000
_cell_angle_beta 61.388509
_cell_angle_gamma 90.000000
_cell_volume 637.310977
_symmetry_space_group_name_H-M "P 21"
_symmetry_group_IT_number 4
_symmetry_cell_setting 'monoclinic'
loop_
_space_group_symop_operation_xyz
x,y,z
-x,1/2+y,-z
loop_
_atom_site_type_symbol
_atom_site_label
_atom_site_fract_x
_atom_site_fract_y
_atom_site_fract_z
Si Si1 0.004871 0.227280 0.045949
Si Si2 0.338846 0.264195 0.387431
Si Si3 0.469801 0.513156 0.660897
Si Si4 0.198434 0.920857 0.319148
Si Si5 0.464781 0.384037 0.337737
Si Si6 0.367288 0.113280 0.174935
Si Si7 0.121084 0.031758 0.923636
Si Si8 0.039140 0.631972 0.233384
O O1 0.661324 0.238866 0.244935
O O2 0.178156 0.248197 0.204289
O O3 0.139905 0.251762 0.726625
O O4 0.031237 0.166833 0.974216
O O5 0.395676 0.324405 0.356797
O O6 0.702080 0.479888 0.706158
O O7 0.456345 0.573834 0.721661
O O8 0.583056 0.507732 0.322612
O O9 0.146629 0.495507 0.887890
O O10 0.361263 0.896237 0.485756
O O11 0.852997 0.911414 0.508970
O O12 0.337056 0.899019 0.996835
O O13 0.171370 0.148107 0.442425
O O14 0.188150 0.072401 0.104315
O O15 0.616818 0.138943 0.889605
O O16 0.015236 0.071246 0.753551
#
# Coordination Sequence:
#
# PCOD9115984 Si02
#       8
#     2   2   2   2   2   2   2   2
#     4  12  26  44  74 100 138 177 234 285 342 429
#     4  12  26  49  71 105 138 184 225 296 358 417
#     4  10  23  37  60  94 126 174 228 266 342 387
#     4  12  26  44  74 106 138 185 232 293 334 437
#     4  12  26  47  73 103 142 180 231 290 364 409
#     4  10  21  39  60  85 131 169 217 276 330 399
#     4  10  21  39  60  85 131 173 213 280 324 405
#     4  10  23  37  58  94 118 174 220 272 334 395
#
# _framework density 25.105483
#
# number of rings (size 3 to 8) (size 9 to 14) (size 15 to 20)
#    0.000    1.000    0.000    6.000    7.000    0.000 
#    0.000    0.000    0.000    0.000    0.000    0.000 
#    0.000    0.000    0.000    0.000    0.000    0.000 
#
# Total GULP energy -89532.342658 kJ/mol
# GULP energy per Si atom -5595.771416 kJ/mol
# Density = 2.504834 g / cm^3
# Si number density = 25.105483 Si / 1000 Ang^3
#
#
#
# Elastic Constant Matrix: (Units=GPa)
#
#
# Indices 1 2 3 4 5 6 
#
# 1 122.0132 -5.5250 67.2580 0.0000 -19.1204 0.0000
# 2 -5.5250 97.2196 16.3326 0.0000 -3.5538 0.0000
# 3 67.2580 16.3326 187.0523 0.0000 -18.3528 0.0000
# 4 0.0000 0.0000 0.0000 41.1267 0.0000 0.4974
# 5 -19.1204 -3.5538 -18.3528 0.0000 52.9723 0.0000
# 6 0.0000 0.0000 0.0000 0.4974 0.0000 32.7674
#
#
#
# Elastic Compliance Matrix: (Units=1/GPa)
#
#
# Indices 1 2 3 4 5 6 
#
# 1 0.010719 0.001330 -0.003708 0.000000 0.002674 0.000000
# 2 0.001330 0.010612 -0.001333 0.000000 0.000730 0.000000
# 3 -0.003708 -0.001333 0.006890 0.000000 0.000959 0.000000
# 4 0.000000 0.000000 0.000000 0.024320 0.000000 -0.000369
# 5 0.002674 0.000730 0.000959 0.000000 0.020224 0.000000
# 6 0.000000 0.000000 0.000000 -0.000369 0.000000 0.030524
#
#
# Mechanical properties :
#
#
# Convention : Reuss Voigt Hill
#
# Bulk Modulus (GPa) = 48.08048 62.49071 55.28560
# Shear Modulus (GPa) = 42.50112 47.25460 44.87786
#
# Velocity S-wave (km/s) = 4.11895 4.34319 4.23256
# Velocity P-wave (km/s) = 6.46637 7.07788 6.77902
#
# Compressibility (1/GPa) = 0.02079846
#
# Stress axis : x y z
#
# Youngs Moduli (GPa) = 93.29228 94.23105 145.14012
#
# Poissons Ratio (x) = -0.12531 0.53818
# Poissons Ratio (y) = -0.12406 0.19349
# Poissons Ratio (z) = 0.34593 0.12562
#
# Static dielectric constant tensor:
#      x y z
#    x 2.037280 0.000000 0.014640 
#    y 0.000000 2.020850 0.000000 
#    z 0.014640 0.000000 2.039720 
# 
# From -- ./inp_files/829.got.cif
#   From: 2010.05.17/outbox.cif.g08.bks.cpg/sg4_1_cif.got.tgz:829.got - 2010.06.03 18:43:04.
