data_PCOD9115417
_publ_section_title
;
Structure prediction by ZEFSAII (Michael W. Deem and Ramdas Pophale) SiO2 
 PCOD9115417
Probable space group: P 21
;
_chemical_formula_sum "Si O2"
_cell_formula_units_Z 16
_cell_length_a 8.249352
_cell_length_b 15.785215
_cell_length_c 6.105534
_cell_angle_alpha 90.000000
_cell_angle_beta 120.143139
_cell_angle_gamma 90.000000
_cell_volume 687.537520
_symmetry_space_group_name_H-M "P 21"
_symmetry_group_IT_number 4
_symmetry_cell_setting 'monoclinic'
loop_
_space_group_symop_operation_xyz
x,y,z
-x,1/2+y,-z
loop_
_atom_site_type_symbol
_atom_site_label
_atom_site_fract_x
_atom_site_fract_y
_atom_site_fract_z
Si Si1 0.718232 0.103230 0.272529
Si Si2 0.707781 0.369542 0.597692
Si Si3 0.889764 0.206456 0.740334
Si Si4 0.635932 0.502348 0.871625
Si Si5 0.230959 0.164167 0.229951
Si Si6 0.508762 0.262388 0.091883
Si Si7 0.036101 0.967120 0.548907
Si Si8 0.170246 0.294570 0.576783
O O1 0.741069 0.143961 0.531229
O O2 0.546040 0.039049 0.131717
O O3 0.655364 0.190303 0.104977
O O4 0.907616 0.047203 0.390098
O O5 0.796961 0.288958 0.779113
O O6 0.594595 0.419959 0.701141
O O7 0.605711 0.329938 0.317038
O O8 0.864829 0.429807 0.599832
O O9 0.019145 0.247552 0.633906
O O10 0.022904 0.158178 0.993005
O O11 0.688405 0.570781 0.718672
O O12 0.807279 0.490959 0.160938
O O13 0.363117 0.210314 0.143593
O O14 0.216194 0.225277 0.424532
O O15 0.368041 0.306794 0.831154
O O16 0.914759 0.885552 0.550279
#
# Coordination Sequence:
#
# PCOD9115417 Si02
#       8
#     2   2   2   2   2   2   2   2
#     4  10  22  42  66  88 133 168 202 274 323 365
#     4  10  23  40  63  93 127 167 215 263 319 384
#     4   9  19  43  61  86 128 167 206 262 320 373
#     4  11  24  40  63  98 128 167 212 268 322 378
#     4  10  20  38  65  90 125 164 211 261 312 387
#     4   9  22  42  62  92 129 170 211 265 322 377
#     4  11  24  42  64  95 131 167 213 274 320 371
#     4  10  22  39  68  96 119 176 220 251 324 391
#
# _framework density 23.271457000000002
#
# number of rings (size 3 to 8) (size 9 to 14) (size 15 to 20)
#    0.000    2.000    1.250    0.750    5.250    0.000 
#    0.000   10.000    0.000    0.000    0.000    0.000 
#    0.000    0.000    0.000    0.000    0.000    0.000 
#
# Total GULP energy -89290.099324 kJ/mol
# GULP energy per Si atom -5580.631208 kJ/mol
# Density = 2.321849 g / cm^3
# Si number density = 23.271457 Si / 1000 Ang^3
#
#
#
# Elastic Constant Matrix: (Units=GPa)
#
#
# Indices 1 2 3 4 5 6 
#
# 1 54.0734 53.5059 43.7498 0.0000 17.4547 0.0000
# 2 53.5059 107.1562 34.6558 0.0000 5.5646 0.0000
# 3 43.7498 34.6558 55.9541 0.0000 30.4361 0.0000
# 4 0.0000 0.0000 0.0000 26.7993 0.0000 9.6462
# 5 17.4547 5.5646 30.4361 0.0000 40.0643 0.0000
# 6 0.0000 0.0000 0.0000 9.6462 0.0000 52.4877
#
#
#
# Elastic Compliance Matrix: (Units=1/GPa)
#
#
# Indices 1 2 3 4 5 6 
#
# 1 0.087021 -0.025404 -0.057268 0.000000 0.009122 0.000000
# 2 -0.025404 0.020207 0.004864 0.000000 0.004566 0.000000
# 3 -0.057268 0.004864 0.079132 0.000000 -0.035841 0.000000
# 4 0.000000 0.000000 0.000000 0.039958 0.000000 -0.007343
# 5 0.009122 0.004566 -0.035841 0.000000 0.047579 0.000000
# 6 0.000000 0.000000 0.000000 -0.007343 0.000000 0.020402
#
#
# Mechanical properties :
#
#
# Convention : Reuss Voigt Hill
#
# Bulk Modulus (GPa) = 32.52700 53.44516 42.98608
# Shear Modulus (GPa) = 10.86573 29.55509 20.21041
#
# Velocity S-wave (km/s) = 2.16316 3.56759 2.95017
# Velocity P-wave (km/s) = 4.49962 6.32346 5.48784
#
# Compressibility (1/GPa) = 0.03074369
#
# Stress axis : x y z
#
# Youngs Moduli (GPa) = 11.49144 49.48795 12.63717
#
# Poissons Ratio (x) = 1.25721 0.72371
# Poissons Ratio (y) = 0.29193 -0.06147
# Poissons Ratio (z) = 0.65809 -0.24073
#
# Static dielectric constant tensor:
#      x y z
#    x 1.920410 0.000000 0.016900 
#    y 0.000000 1.926940 0.000000 
#    z 0.016900 0.000000 1.876970 
# 
# From -- ./inp_files/1759.got.cif
#   From: 2010.05.17/outbox.cif.g08.bks.cpg/sg4_1_cif.got.tgz:1759.got - 2010.06.03 18:43:04.
