data_PCOD9115146
_publ_section_title
;
Structure prediction by ZEFSAII (Michael W. Deem and Ramdas Pophale) SiO2 
 PCOD9115146
Probable space group: P 21
;
_chemical_formula_sum "Si O2"
_cell_formula_units_Z 16
_cell_length_a 9.265575
_cell_length_b 7.941688
_cell_length_c 11.796239
_cell_angle_alpha 90.000000
_cell_angle_beta 122.499573
_cell_angle_gamma 90.000000
_cell_volume 732.082480
_symmetry_space_group_name_H-M "P 21"
_symmetry_group_IT_number 4
_symmetry_cell_setting 'monoclinic'
loop_
_space_group_symop_operation_xyz
x,y,z
-x,1/2+y,-z
loop_
_atom_site_type_symbol
_atom_site_label
_atom_site_fract_x
_atom_site_fract_y
_atom_site_fract_z
Si Si1 0.953879 0.721750 0.583699
Si Si2 0.622555 0.525529 0.437145
Si Si3 0.342511 0.359910 0.183236
Si Si4 0.452033 0.891977 0.345807
Si Si5 0.238480 0.477198 0.660819
Si Si6 0.126228 0.698653 0.138023
Si Si7 0.833689 0.851377 0.124153
Si Si8 0.943741 0.687166 0.830188
O O1 0.825477 0.558883 0.522020
O O2 0.876959 0.863303 0.471175
O O3 0.952152 0.779472 0.713479
O O4 0.140251 0.653038 0.632454
O O5 0.530787 0.409388 0.304710
O O6 0.548933 0.712431 0.392182
O O7 0.562852 0.461206 0.534138
O O8 0.223833 0.521446 0.169022
O O9 0.253643 0.205470 0.213045
O O10 0.309205 0.340391 0.034894
O O11 0.574161 0.995662 0.313578
O O12 0.266236 0.837668 0.226081
O O13 0.241557 0.381201 0.783328
O O14 0.969171 0.700642 0.160716
O O15 0.044566 0.750374 0.983135
O O16 0.956924 0.012807 0.152811
#
# Coordination Sequence:
#
# PCOD9115146 Si02
#       8
#     2   2   2   2   2   2   2   2
#     4  10  21  36  53  75 106 138 172 214 258 308
#     4  10  20  34  55  78 104 135 174 217 251 300
#     4   9  17  31  54  80 102 133 176 216 252 296
#     4  10  20  34  54  79 104 135 174 217 257 303
#     4  10  21  35  52  76 108 139 169 211 265 312
#     4   9  18  32  55  78 100 134 175 213 252 301
#     4   9  18  33  53  76 106 138 169 211 259 308
#     4   9  17  33  54  76 102 132 171 213 252 298
#
# _framework density 21.855460999999998
#
# number of rings (size 3 to 8) (size 9 to 14) (size 15 to 20)
#    0.000    2.500    0.000    3.000    0.000    4.000 
#    0.000    1.250    0.000   39.000    0.000    0.000 
#    0.000    0.000    0.000    0.000    0.000    0.000 
#
# Total GULP energy -89289.293463 kJ/mol
# GULP energy per Si atom -5580.580841 kJ/mol
# Density = 2.180572 g / cm^3
# Si number density = 21.855461 Si / 1000 Ang^3
#
#
#
# Elastic Constant Matrix: (Units=GPa)
#
#
# Indices 1 2 3 4 5 6 
#
# 1 98.2180 7.7726 37.8635 0.0000 8.5712 0.0000
# 2 7.7726 33.7021 4.1593 0.0000 -4.7297 0.0000
# 3 37.8635 4.1593 93.0756 0.0000 -5.3175 0.0000
# 4 0.0000 0.0000 0.0000 16.4406 0.0000 -11.9126
# 5 8.5712 -4.7297 -5.3175 0.0000 29.8817 0.0000
# 6 0.0000 0.0000 0.0000 -11.9126 0.0000 15.3877
#
#
#
# Elastic Compliance Matrix: (Units=1/GPa)
#
#
# Indices 1 2 3 4 5 6 
#
# 1 0.012969 -0.003046 -0.005435 0.000000 -0.005169 0.000000
# 2 -0.003046 0.031172 0.000180 0.000000 0.005839 0.000000
# 3 -0.005435 0.000180 0.013171 0.000000 0.003931 0.000000
# 4 0.000000 0.000000 0.000000 0.138537 0.000000 0.107250
# 5 -0.005169 0.005839 0.003931 0.000000 0.036572 0.000000
# 6 0.000000 0.000000 0.000000 0.107250 0.000000 0.148016
#
#
# Mechanical properties :
#
#
# Convention : Reuss Voigt Hill
#
# Bulk Modulus (GPa) = 24.56410 36.06515 30.31463
# Shear Modulus (GPa) = 12.17704 24.02202 18.09953
#
# Velocity S-wave (km/s) = 2.36299 3.31891 2.88088
# Velocity P-wave (km/s) = 4.32536 5.58788 4.99665
#
# Compressibility (1/GPa) = 0.04070982
#
# Stress axis : x y z
#
# Youngs Moduli (GPa) = 77.10846 32.08057 75.92162
#
# Poissons Ratio (x) = 0.09771 0.41263
# Poissons Ratio (y) = 0.23484 -0.01364
# Poissons Ratio (z) = 0.41908 -0.00576
#
# Static dielectric constant tensor:
#      x y z
#    x 1.810880 0.000000 0.020590 
#    y 0.000000 1.867060 0.000000 
#    z 0.020590 0.000000 1.786220 
# 
# From -- ./inp_files/7818.got.cif
#   From: 2010.05.17/outbox.cif.g08.bks.cpg/sg4_4_cif.got.tgz:7818.got - 2010.06.03 18:43:04.
