data_PCOD9115381
_publ_section_title
;
Structure prediction by ZEFSAII (Michael W. Deem and Ramdas Pophale) SiO2 
 PCOD9115381
Probable space group: P 21
;
_chemical_formula_sum "Si O2"
_cell_formula_units_Z 16
_cell_length_a 7.932250
_cell_length_b 13.401777
_cell_length_c 8.892731
_cell_angle_alpha 90.000000
_cell_angle_beta 50.297618
_cell_angle_gamma 90.000000
_cell_volume 727.328954
_symmetry_space_group_name_H-M "P 21"
_symmetry_group_IT_number 4
_symmetry_cell_setting 'monoclinic'
loop_
_space_group_symop_operation_xyz
x,y,z
-x,1/2+y,-z
loop_
_atom_site_type_symbol
_atom_site_label
_atom_site_fract_x
_atom_site_fract_y
_atom_site_fract_z
Si Si1 0.593004 0.829410 0.517958
Si Si2 0.596083 0.668813 0.744466
Si Si3 0.653442 0.203415 0.813585
Si Si4 0.400708 0.022164 0.514213
Si Si5 0.055584 0.567767 0.535215
Si Si6 0.240850 0.190984 0.824184
Si Si7 0.125913 0.723909 0.729766
Si Si8 0.089480 0.873545 0.500802
O O1 0.675718 0.770525 0.617696
O O2 0.730923 0.786510 0.299926
O O3 0.349430 0.780372 0.640083
O O4 0.552030 0.946254 0.521356
O O5 0.500575 0.595243 0.669842
O O6 0.805461 0.608040 0.687343
O O7 0.427827 0.696388 0.970466
O O8 0.441412 0.190078 0.827930
O O9 0.769030 0.305079 0.692870
O O10 0.826446 0.116637 0.676194
O O11 0.268474 0.094331 0.702590
O O12 0.242063 0.949815 0.508711
O O13 0.168287 0.623348 0.610945
O O14 0.055349 0.449639 0.514039
O O15 0.020827 0.199871 0.044212
O O16 0.004586 0.798628 0.679498
#
# Coordination Sequence:
#
# PCOD9115381 Si02
#       8
#     2   2   2   2   2   2   2   2
#     4  10  21  42  58  86 129 155 197 253 301 355
#     4  10  22  37  62  90 120 160 202 252 296 357
#     4  11  21  40  63  89 122 162 199 254 302 350
#     4   9  20  39  59  87 122 158 197 251 296 358
#     4  10  20  39  59  91 121 157 203 249 300 353
#     4  11  20  37  66  85 117 166 195 243 305 358
#     4  10  20  38  62  84 121 165 192 248 303 353
#     4   9  20  40  61  84 130 155 195 260 295 356
#
# _framework density 21.9983
#
# number of rings (size 3 to 8) (size 9 to 14) (size 15 to 20)
#    0.000    2.000    5.000    0.000    0.000    5.000 
#    4.500    3.750    0.000    0.000    0.000    0.000 
#    0.000    0.000    0.000    0.000    0.000    0.000 
#
# Total GULP energy -89352.804762 kJ/mol
# GULP energy per Si atom -5584.550298 kJ/mol
# Density = 2.194823 g / cm^3
# Si number density = 21.998300 Si / 1000 Ang^3
#
#
#
# Elastic Constant Matrix: (Units=GPa)
#
#
# Indices 1 2 3 4 5 6 
#
# 1 58.0337 7.9844 5.4783 0.0000 5.3009 0.0000
# 2 7.9844 144.4224 70.7880 0.0000 -1.1499 0.0000
# 3 5.4783 70.7880 176.6613 0.0000 23.2764 0.0000
# 4 0.0000 0.0000 0.0000 9.2286 0.0000 1.0146
# 5 5.3009 -1.1499 23.2764 0.0000 19.2316 0.0000
# 6 0.0000 0.0000 0.0000 1.0146 0.0000 38.6598
#
#
#
# Elastic Compliance Matrix: (Units=1/GPa)
#
#
# Indices 1 2 3 4 5 6 
#
# 1 0.017900 -0.001435 0.000810 0.000000 -0.006001 0.000000
# 2 -0.001435 0.009267 -0.004514 0.000000 0.006412 0.000000
# 3 0.000810 -0.004514 0.008934 0.000000 -0.011306 0.000000
# 4 0.000000 0.000000 0.000000 0.108672 0.000000 -0.002852
# 5 -0.006001 0.006412 -0.011306 0.000000 0.067719 0.000000
# 6 0.000000 0.000000 0.000000 -0.002852 0.000000 0.025942
#
#
# Mechanical properties :
#
#
# Convention : Reuss Voigt Hill
#
# Bulk Modulus (GPa) = 38.72196 60.84654 49.78425
# Shear Modulus (GPa) = 19.43127 33.08177 26.25652
#
# Velocity S-wave (km/s) = 2.97527 3.88214 3.45856
# Velocity P-wave (km/s) = 5.42618 6.91479 6.21522
#
# Compressibility (1/GPa) = 0.02582514
#
# Stress axis : x y z
#
# Youngs Moduli (GPa) = 55.86481 107.91186 111.93662
#
# Poissons Ratio (x) = 0.15481 -0.09071
# Poissons Ratio (y) = 0.08014 0.50524
# Poissons Ratio (z) = -0.04527 0.48707
#
# Static dielectric constant tensor:
#      x y z
#    x 1.952430 0.000000 0.016170 
#    y 0.000000 1.808720 0.000000 
#    z 0.016170 0.000000 1.735960 
# 
# From -- ./inp_files/6598.got.cif
#   From: 2010.05.17/outbox.cif.g08.bks.cpg/sg4_4_cif.got.tgz:6598.got - 2010.06.03 18:43:04.
