data_PCOD9115908
_publ_section_title
;
Structure prediction by ZEFSAII (Michael W. Deem and Ramdas Pophale) SiO2 
 PCOD9115908
Probable space group: P 21
;
_chemical_formula_sum "Si O2"
_cell_formula_units_Z 16
_cell_length_a 18.759983
_cell_length_b 5.366809
_cell_length_c 5.535323
_cell_angle_alpha 90.000000
_cell_angle_beta 83.569880
_cell_angle_gamma 90.000000
_cell_volume 553.797322
_symmetry_space_group_name_H-M "P 21"
_symmetry_group_IT_number 4
_symmetry_cell_setting 'monoclinic'
loop_
_space_group_symop_operation_xyz
x,y,z
-x,1/2+y,-z
loop_
_atom_site_type_symbol
_atom_site_label
_atom_site_fract_x
_atom_site_fract_y
_atom_site_fract_z
Si Si1 0.908775 0.285610 0.069478
Si Si2 0.789362 0.962747 0.170967
Si Si3 0.334981 0.400844 0.086543
Si Si4 0.408073 0.939204 0.562695
Si Si5 0.032138 0.284164 0.703000
Si Si6 0.154227 0.223859 0.350854
Si Si7 0.277220 0.899021 0.346563
Si Si8 0.535230 0.940281 0.209384
O O1 0.824325 0.235516 0.120704
O O2 0.948114 0.272872 0.794488
O O3 0.932999 0.543831 0.177604
O O4 0.940783 0.045231 0.197256
O O5 0.705282 0.938559 0.154951
O O6 0.825075 0.822232 0.922927
O O7 0.810866 0.864926 0.427978
O O8 0.310449 0.131670 0.185565
O O9 0.300471 0.630148 0.244549
O O10 0.420929 0.425189 0.056241
O O11 0.322754 0.927800 0.573635
O O12 0.450881 0.928492 0.289702
O O13 0.433126 0.195586 0.671933
O O14 0.437120 0.700368 0.693070
O O15 0.069256 0.256666 0.428615
O O16 0.192934 0.956397 0.369474
#
# Coordination Sequence:
#
# PCOD9115908 Si02
#       8
#     2   2   2   2   2   2   2   2
#     4   9  19  38  64  94 128 168 214 265 322 384
#     4  10  23  44  67  96 131 172 217 268 324 386
#     4  11  24  40  61  91 125 166 215 266 322 384
#     4  10  21  38  61  89 123 166 214 265 322 384
#     4   9  19  38  64  94 128 168 214 265 322 384
#     4  10  23  44  67  96 131 172 217 268 324 386
#     4  11  24  40  61  91 125 166 215 266 322 384
#     4  10  21  38  61  89 123 166 214 265 322 384
#
# _framework density 28.891435000000001
#
# number of rings (size 3 to 8) (size 9 to 14) (size 15 to 20)
#    0.000    2.000    0.000    2.250    0.000   12.000 
#    0.000   11.250    0.000    0.000    0.000    0.000 
#    0.000    0.000    0.000    0.000    0.000    0.000 
#
# Total GULP energy -89557.885195 kJ/mol
# GULP energy per Si atom -5597.367825 kJ/mol
# Density = 2.882568 g / cm^3
# Si number density = 28.891435 Si / 1000 Ang^3
#
#
#
# Elastic Constant Matrix: (Units=GPa)
#
#
# Indices 1 2 3 4 5 6 
#
# 1 112.3114 45.9761 38.4651 0.0000 -12.5005 0.0000
# 2 45.9761 190.7300 67.7506 0.0000 13.2499 0.0000
# 3 38.4651 67.7506 123.4535 0.0000 -20.1393 0.0000
# 4 0.0000 0.0000 0.0000 94.3229 0.0000 15.4209
# 5 -12.5005 13.2499 -20.1393 0.0000 61.6114 0.0000
# 6 0.0000 0.0000 0.0000 15.4209 0.0000 47.9025
#
#
#
# Elastic Compliance Matrix: (Units=1/GPa)
#
#
# Indices 1 2 3 4 5 6 
#
# 1 0.010593 -0.002028 -0.001865 0.000000 0.001976 0.000000
# 2 -0.002028 0.007361 -0.003943 0.000000 -0.003283 0.000000
# 3 -0.001865 -0.003943 0.011537 0.000000 0.004241 0.000000
# 4 0.000000 0.000000 0.000000 0.011191 0.000000 -0.003603
# 5 0.001976 -0.003283 0.004241 0.000000 0.018724 0.000000
# 6 0.000000 0.000000 0.000000 -0.003603 0.000000 0.022036
#
#
# Mechanical properties :
#
#
# Convention : Reuss Voigt Hill
#
# Bulk Modulus (GPa) = 72.37109 81.20871 76.78990
# Shear Modulus (GPa) = 49.15463 59.05422 54.10442
#
# Velocity S-wave (km/s) = 4.12923 4.52597 4.33214
# Velocity P-wave (km/s) = 6.91648 7.44861 7.18747
#
# Compressibility (1/GPa) = 0.01381767
#
# Stress axis : x y z
#
# Youngs Moduli (GPa) = 94.40430 135.85650 86.67637
#
# Poissons Ratio (x) = 0.27554 0.16166
# Poissons Ratio (y) = 0.19147 0.34178
# Poissons Ratio (z) = 0.17607 0.53571
#
# Static dielectric constant tensor:
#      x y z
#    x 2.239990 0.000000 -0.037460 
#    y 0.000000 2.212550 0.000000 
#    z -0.037460 0.000000 2.348410 
# 
# From -- ./inp_files/4252.got.cif
#   From: 2010.05.17/outbox.cif.g08.bks.cpg/sg4_3_cif.got.tgz:4252.got - 2010.06.03 18:43:04.
