data_PCOD9115577
_publ_section_title
;
Structure prediction by ZEFSAII (Michael W. Deem and Ramdas Pophale) SiO2 
 PCOD9115577
Probable space group: P 21
;
_chemical_formula_sum "Si O2"
_cell_formula_units_Z 16
_cell_length_a 13.047663
_cell_length_b 4.928595
_cell_length_c 9.871977
_cell_angle_alpha 90.000000
_cell_angle_beta 68.686211
_cell_angle_gamma 90.000000
_cell_volume 591.413508
_symmetry_space_group_name_H-M "P 21"
_symmetry_group_IT_number 4
_symmetry_cell_setting 'monoclinic'
loop_
_space_group_symop_operation_xyz
x,y,z
-x,1/2+y,-z
loop_
_atom_site_type_symbol
_atom_site_label
_atom_site_fract_x
_atom_site_fract_y
_atom_site_fract_z
Si Si1 0.092388 0.115450 0.138538
Si Si2 0.050392 0.573398 0.552319
Si Si3 0.248612 0.366787 0.302991
Si Si4 0.230197 0.325831 0.845726
Si Si5 0.731860 0.221368 0.939843
Si Si6 0.538835 0.634064 0.065190
Si Si7 0.438315 0.999933 0.337337
Si Si8 0.341457 0.794604 0.662205
O O1 0.171905 0.238533 0.220058
O O2 0.116354 0.250173 0.980204
O O3 0.979436 0.113089 0.275386
O O4 0.142659 0.815523 0.098267
O O5 0.032267 0.852189 0.477522
O O6 0.168900 0.450249 0.462901
O O7 0.281878 0.640153 0.208571
O O8 0.347289 0.179692 0.304167
O O9 0.253640 0.551930 0.720935
O O10 0.290190 0.485838 0.941693
O O11 0.284519 0.055209 0.759276
O O12 0.532299 0.893695 0.969958
O O13 0.491858 0.754942 0.226003
O O14 0.653152 0.471816 0.010724
O O15 0.376071 0.876425 0.495481
O O16 0.542385 0.187090 0.330717
#
# Coordination Sequence:
#
# PCOD9115577 Si02
#       8
#     2   2   2   2   2   2   2   2
#     4  10  20  42  71 114 150 182 234 302 384 453
#     4  10  20  40  69 111 158 187 227 294 388 465
#     4  10  24  45  72 112 154 197 238 305 376 456
#     4  11  25  44  73 105 141 194 257 300 366 434
#     4  11  23  43  71 107 148 195 237 295 381 443
#     4  12  32  46  70 106 150 196 241 309 375 445
#     4  12  30  53  71 103 153 202 261 302 365 429
#     4  12  28  49  69 100 142 207 259 309 349 423
#
# _framework density 27.053830000000001
#
# number of rings (size 3 to 8) (size 9 to 14) (size 15 to 20)
#    0.000    1.000    2.500    2.250    8.750    4.000 
#    6.750    0.000    0.000    0.000    3.250    0.000 
#    0.000    0.000    0.000    0.000    0.000    0.000 
#
# Total GULP energy -89573.395076 kJ/mol
# GULP energy per Si atom -5598.337192 kJ/mol
# Density = 2.699225 g / cm^3
# Si number density = 27.053830 Si / 1000 Ang^3
#
#
#
# Elastic Constant Matrix: (Units=GPa)
#
#
# Indices 1 2 3 4 5 6 
#
# 1 60.1401 13.9389 29.2823 0.0000 -6.2710 0.0000
# 2 13.9389 170.3266 77.3350 0.0000 -5.0555 0.0000
# 3 29.2823 77.3350 280.6377 0.0000 -32.2885 0.0000
# 4 0.0000 0.0000 0.0000 69.7690 0.0000 -2.0351
# 5 -6.2710 -5.0555 -32.2885 0.0000 30.6983 0.0000
# 6 0.0000 0.0000 0.0000 -2.0351 0.0000 14.0195
#
#
#
# Elastic Compliance Matrix: (Units=1/GPa)
#
#
# Indices 1 2 3 4 5 6 
#
# 1 0.017697 -0.000749 -0.001409 0.000000 0.002010 0.000000
# 2 -0.000749 0.006767 -0.001907 0.000000 -0.001044 0.000000
# 3 -0.001409 -0.001907 0.004740 0.000000 0.004384 0.000000
# 4 0.000000 0.000000 0.000000 0.014394 0.000000 0.002089
# 5 0.002010 -0.001044 0.004384 0.000000 0.037425 0.000000
# 6 0.000000 0.000000 0.000000 0.002089 0.000000 0.071633
#
#
# Mechanical properties :
#
#
# Convention : Reuss Voigt Hill
#
# Bulk Modulus (GPa) = 47.44948 83.57966 65.51457
# Shear Modulus (GPa) = 29.79560 48.93388 39.36474
#
# Velocity S-wave (km/s) = 3.32225 4.25757 3.81865
# Velocity P-wave (km/s) = 5.68273 7.42496 6.61149
#
# Compressibility (1/GPa) = 0.02107505
#
# Stress axis : x y z
#
# Youngs Moduli (GPa) = 56.50680 147.77313 210.96317
#
# Poissons Ratio (x) = 0.11067 0.29723
# Poissons Ratio (y) = 0.04232 0.40226
# Poissons Ratio (z) = 0.07961 0.28177
#
# Static dielectric constant tensor:
#      x y z
#    x 2.254470 0.000000 -0.020390 
#    y 0.000000 2.210320 0.000000 
#    z -0.020390 0.000000 2.116630 
# 
# From -- ./inp_files/12392.got.cif
#   From: 2010.05.17/outbox.cif.g08.bks.cpg/sg4_7_cif.got.tgz:12392.got - 2010.06.03 18:43:04.
