data_PCOD9115327
_publ_section_title
;
Structure prediction by ZEFSAII (Michael W. Deem and Ramdas Pophale) SiO2 
 PCOD9115327
Probable space group: P 21
;
_chemical_formula_sum "Si O2"
_cell_formula_units_Z 16
_cell_length_a 10.084669
_cell_length_b 7.505524
_cell_length_c 9.622310
_cell_angle_alpha 90.000000
_cell_angle_beta 65.957666
_cell_angle_gamma 90.000000
_cell_volume 665.134023
_symmetry_space_group_name_H-M "P 21"
_symmetry_group_IT_number 4
_symmetry_cell_setting 'monoclinic'
loop_
_space_group_symop_operation_xyz
x,y,z
-x,1/2+y,-z
loop_
_atom_site_type_symbol
_atom_site_label
_atom_site_fract_x
_atom_site_fract_y
_atom_site_fract_z
Si Si1 0.373195 0.877170 0.625676
Si Si2 0.692795 0.980067 0.459702
Si Si3 0.148737 0.737381 0.255089
Si Si4 0.111851 0.360691 0.139042
Si Si5 0.115908 0.283155 0.427670
Si Si6 0.305238 0.434891 0.842331
Si Si7 0.839477 0.322900 0.057470
Si Si8 0.353466 0.991489 0.331045
O O1 0.337455 0.678726 0.583563
O O2 0.285057 0.920824 0.801442
O O3 0.542204 0.903643 0.581873
O O4 0.339542 0.990733 0.503750
O O5 0.725210 0.873790 0.302252
O O6 0.813149 0.953439 0.524903
O O7 0.171232 0.539565 0.188184
O O8 0.001834 0.728715 0.407414
O O9 0.274999 0.822826 0.293629
O O10 0.139144 0.852923 0.115602
O O11 0.041900 0.277836 0.307712
O O12 0.984393 0.364499 0.080704
O O13 0.249149 0.302651 0.986495
O O14 0.253606 0.157703 0.335036
O O15 0.210970 0.616072 0.903138
O O16 0.476039 0.483318 0.778268
#
# Coordination Sequence:
#
# PCOD9115327 Si02
#       8
#     2   2   2   2   2   2   2   2
#     4  10  20  38  62  89 122 164 210 264 317 377
#     4  10  20  37  63  89 123 163 210 261 317 380
#     4  11  24  41  63  90 127 167 210 265 316 376
#     4  11  24  40  64  91 123 167 213 264 316 375
#     4  12  23  38  62  94 126 169 213 258 316 377
#     4   9  22  42  63  92 128 166 209 264 320 378
#     4  10  21  40  64  92 127 165 210 262 315 376
#     4  11  24  42  63  93 132 169 211 262 319 379
#
# _framework density 24.055304
#
# number of rings (size 3 to 8) (size 9 to 14) (size 15 to 20)
#    0.000    1.500    0.000    6.000    0.000    8.000 
#    0.000    5.000    0.000    0.000    0.000    0.000 
#    0.000    0.000    0.000    0.000    0.000    0.000 
#
# Total GULP energy -89264.734114 kJ/mol
# GULP energy per Si atom -5579.045882 kJ/mol
# Density = 2.400055 g / cm^3
# Si number density = 24.055304 Si / 1000 Ang^3
#
#
#
# Elastic Constant Matrix: (Units=GPa)
#
#
# Indices 1 2 3 4 5 6 
#
# 1 97.3834 12.8960 50.4488 0.0000 4.5959 0.0000
# 2 12.8960 46.7785 -5.3013 0.0000 -5.9227 0.0000
# 3 50.4488 -5.3013 204.2725 0.0000 -11.1184 0.0000
# 4 0.0000 0.0000 0.0000 19.9359 0.0000 -0.7610
# 5 4.5959 -5.9227 -11.1184 0.0000 35.0469 0.0000
# 6 0.0000 0.0000 0.0000 -0.7610 0.0000 25.6333
#
#
#
# Elastic Compliance Matrix: (Units=1/GPa)
#
#
# Indices 1 2 3 4 5 6 
#
# 1 0.012810 -0.004370 -0.003469 0.000000 -0.003519 0.000000
# 2 -0.004370 0.023459 0.001969 0.000000 0.005162 0.000000
# 3 -0.003469 0.001969 0.005949 0.000000 0.002675 0.000000
# 4 0.000000 0.000000 0.000000 0.050218 0.000000 0.001491
# 5 -0.003519 0.005162 0.002675 0.000000 0.030716 0.000000
# 6 0.000000 0.000000 0.000000 0.001491 0.000000 0.039056
#
#
# Mechanical properties :
#
#
# Convention : Reuss Voigt Hill
#
# Bulk Modulus (GPa) = 32.81013 51.61348 42.21180
# Shear Modulus (GPa) = 27.15817 35.48261 31.32039
#
# Velocity S-wave (km/s) = 3.36369 3.84480 3.61226
# Velocity P-wave (km/s) = 5.36236 6.41971 5.91471
#
# Compressibility (1/GPa) = 0.03047839
#
# Stress axis : x y z
#
# Youngs Moduli (GPa) = 78.06139 42.62776 168.10179
#
# Poissons Ratio (x) = 0.18629 0.58310
# Poissons Ratio (y) = 0.34115 -0.33101
# Poissons Ratio (z) = 0.27077 -0.08394
#
# Static dielectric constant tensor:
#      x y z
#    x 1.881570 0.000000 0.017720 
#    y 0.000000 2.173810 0.000000 
#    z 0.017720 0.000000 2.008810 
# 
# From -- ./inp_files/5389.got.cif
#   From: 2010.05.17/outbox.cif.g08.bks.cpg/sg4_3_cif.got.tgz:5389.got - 2010.06.03 18:43:04.
