data_PCOD9115151
_publ_section_title
;
Structure prediction by ZEFSAII (Michael W. Deem and Ramdas Pophale) SiO2 
 PCOD9115151
Probable space group: P 21
;
_chemical_formula_sum "Si O2"
_cell_formula_units_Z 16
_cell_length_a 10.051458
_cell_length_b 7.927074
_cell_length_c 7.399690
_cell_angle_alpha 90.000000
_cell_angle_beta 77.920486
_cell_angle_gamma 90.000000
_cell_volume 576.542528
_symmetry_space_group_name_H-M "P 21"
_symmetry_group_IT_number 4
_symmetry_cell_setting 'monoclinic'
loop_
_space_group_symop_operation_xyz
x,y,z
-x,1/2+y,-z
loop_
_atom_site_type_symbol
_atom_site_label
_atom_site_fract_x
_atom_site_fract_y
_atom_site_fract_z
Si Si1 0.498158 0.826000 0.822604
Si Si2 0.232278 0.404866 0.690484
Si Si3 0.357399 0.149715 0.914149
Si Si4 0.009495 0.534662 0.513055
Si Si5 0.103536 0.848315 0.728810
Si Si6 0.205060 0.663702 0.005021
Si Si7 0.392144 0.732417 0.521384
Si Si8 0.735634 0.397581 0.746201
O O1 0.365261 0.716201 0.921561
O O2 0.521138 0.751790 0.616325
O O3 0.475145 0.025085 0.809008
O O4 0.601524 0.793448 0.954340
O O5 0.284683 0.231013 0.762587
O O6 0.111867 0.398642 0.578371
O O7 0.185395 0.499532 0.889995
O O8 0.334714 0.542940 0.566876
O O9 0.290022 0.015268 0.072996
O O10 0.052549 0.699810 0.610292
O O11 0.989887 0.502688 0.303660
O O12 0.854149 0.494298 0.611298
O O13 0.099404 0.792141 0.936664
O O14 0.266590 0.843647 0.647045
O O15 0.204022 0.714916 0.213592
O O16 0.395038 0.837351 0.333035
#
# Coordination Sequence:
#
# PCOD9115151 Si02
#       8
#     2   2   2   2   2   2   2   2
#     4   9  18  35  58  77 109 149 186 233 284 352
#     4   9  19  34  54  81 110 150 194 226 281 358
#     4  11  21  36  60  88 109 147 199 240 288 348
#     4   9  18  33  52  78 113 146 184 234 278 337
#     4   8  16  31  52  74 103 147 187 217 279 352
#     4   8  17  34  52  74 105 147 187 230 286 344
#     4   8  17  37  55  76 110 148 185 230 285 347
#     4  10  20  34  55  84 115 146 188 244 293 332
#
# _framework density 27.751639999999998
#
# number of rings (size 3 to 8) (size 9 to 14) (size 15 to 20)
#    0.000    3.500    0.000    1.500    0.000    6.000 
#    0.000   13.750    0.000    3.000    0.000    0.000 
#    0.000    0.000    0.000    0.000    0.000    0.000 
#
# Total GULP energy -89101.428642 kJ/mol
# GULP energy per Si atom -5568.839290 kJ/mol
# Density = 2.768848 g / cm^3
# Si number density = 27.751640 Si / 1000 Ang^3
#
#
#
# Elastic Constant Matrix: (Units=GPa)
#
#
# Indices 1 2 3 4 5 6 
#
# 1 49.9539 18.5575 20.8726 0.0000 29.9242 0.0000
# 2 18.5575 91.3812 11.2510 0.0000 6.8682 0.0000
# 3 20.8726 11.2510 53.9513 0.0000 35.8668 0.0000
# 4 0.0000 0.0000 0.0000 44.6105 0.0000 19.7726
# 5 29.9242 6.8682 35.8668 0.0000 52.5245 0.0000
# 6 0.0000 0.0000 0.0000 19.7726 0.0000 62.6992
#
#
#
# Elastic Compliance Matrix: (Units=1/GPa)
#
#
# Indices 1 2 3 4 5 6 
#
# 1 0.032763 -0.005354 0.000705 0.000000 -0.018447 0.000000
# 2 -0.005354 0.012108 -0.002617 0.000000 0.003254 0.000000
# 3 0.000705 -0.002617 0.034517 0.000000 -0.023630 0.000000
# 4 0.000000 0.000000 0.000000 0.026059 0.000000 -0.008218
# 5 -0.018447 0.003254 -0.023630 0.000000 0.045259 0.000000
# 6 0.000000 0.000000 0.000000 -0.008218 0.000000 0.018541
#
#
# Mechanical properties :
#
#
# Convention : Reuss Voigt Hill
#
# Bulk Modulus (GPa) = 15.41862 32.96095 24.18979
# Shear Modulus (GPa) = 24.34299 41.60718 32.97508
#
# Velocity S-wave (km/s) = 2.96492 3.87624 3.45080
# Velocity P-wave (km/s) = 4.15801 5.65124 4.96113
#
# Compressibility (1/GPa) = 0.06485664
#
# Stress axis : x y z
#
# Youngs Moduli (GPa) = 30.52189 82.58964 28.97087
#
# Poissons Ratio (x) = 0.44217 -0.02041
# Poissons Ratio (y) = 0.16341 0.07581
# Poissons Ratio (z) = -0.02151 0.21613
#
# Static dielectric constant tensor:
#      x y z
#    x 2.220690 0.000000 -0.156110 
#    y 0.000000 2.214530 0.000000 
#    z -0.156110 0.000000 2.601420 
# 
# From -- ./inp_files/7703.got.cif
#   From: 2010.05.17/outbox.cif.g08.bks.cpg/sg4_4_cif.got.tgz:7703.got - 2010.06.03 18:43:04.
