data_PCOD9115463
_publ_section_title
;
Structure prediction by ZEFSAII (Michael W. Deem and Ramdas Pophale) SiO2 
 PCOD9115463
Probable space group: P 21
;
_chemical_formula_sum "Si O2"
_cell_formula_units_Z 14
_cell_length_a 9.661872
_cell_length_b 5.272126
_cell_length_c 12.419464
_cell_angle_alpha 90.000000
_cell_angle_beta 86.164836
_cell_angle_gamma 90.000000
_cell_volume 631.213483
_symmetry_space_group_name_H-M "P 21"
_symmetry_group_IT_number 4
_symmetry_cell_setting 'monoclinic'
loop_
_space_group_symop_operation_xyz
x,y,z
-x,1/2+y,-z
loop_
_atom_site_type_symbol
_atom_site_label
_atom_site_fract_x
_atom_site_fract_y
_atom_site_fract_z
Si Si1 0.337585 0.278550 0.623493
Si Si2 0.713909 0.112890 0.941010
Si Si3 0.356346 0.099736 0.171385
Si Si4 0.419722 0.778714 0.668602
Si Si5 0.077808 0.858834 0.220302
Si Si6 0.210714 0.578316 0.816248
Si Si7 0.955548 0.632672 0.443474
O O1 0.395482 0.552266 0.586226
O O2 0.282275 0.347421 0.747070
O O3 0.208045 0.188582 0.560042
O O4 0.448454 0.057089 0.626700
O O5 0.618998 0.343883 0.900062
O O6 0.861231 0.175555 0.875412
O O7 0.663499 0.840587 0.904297
O O8 0.735405 0.115137 0.066896
O O9 0.470517 0.174481 0.251866
O O10 0.210763 0.035336 0.237994
O O11 0.270218 0.800925 0.737716
O O12 0.951706 0.027614 0.182907
O O13 0.026811 0.704783 0.326259
O O14 0.985319 0.344848 0.476903
#
# Coordination Sequence:
#
# PCOD9115463 Si02
#       7
#     2   2   2   2   2   2   2
#     4   9  21  37  62  90 118 156 207 242 307 355
#     4  10  23  36  59  87 129 162 207 240 307 350
#     4  10  23  37  60  88 126 167 199 252 296 362
#     4  10  20  39  62  86 126 164 205 244 296 360
#     4   9  24  40  61  94 123 157 207 250 322 352
#     4   9  22  37  62  85 126 164 206 250 290 365
#     4  11  23  40  68  96 120 150 205 266 312 366
#
# _framework density 22.179500999999998
#
# number of rings (size 3 to 8) (size 9 to 14) (size 15 to 20)
#    1.714    0.571    0.000    1.714    6.000    2.286 
#    0.000    0.000    0.000    3.429    0.000    0.000 
#    0.000    0.000    0.000    0.000    0.000    0.000 
#
# Total GULP energy -78045.942413 kJ/mol
# GULP energy per Si atom -5574.710172 kJ/mol
# Density = 2.212902 g / cm^3
# Si number density = 22.179501 Si / 1000 Ang^3
#
#
#
# Elastic Constant Matrix: (Units=GPa)
#
#
# Indices 1 2 3 4 5 6 
#
# 1 43.9112 -0.5617 28.8697 0.0000 5.6110 0.0000
# 2 -0.5617 84.1360 -9.2973 0.0000 -8.5716 0.0000
# 3 28.8697 -9.2973 59.1510 0.0000 -9.2259 0.0000
# 4 0.0000 0.0000 0.0000 16.2510 0.0000 21.4410
# 5 5.6110 -8.5716 -9.2259 0.0000 28.3558 0.0000
# 6 0.0000 0.0000 0.0000 21.4410 0.0000 9.1824
#
#
#
# Elastic Compliance Matrix: (Units=1/GPa)
#
#
# Indices 1 2 3 4 5 6 
#
# 1 0.039586 -0.003882 -0.022476 0.000000 -0.016320 0.000000
# 2 -0.003882 0.013048 0.004931 0.000000 0.006317 0.000000
# 3 -0.022476 0.004931 0.031158 0.000000 0.016076 0.000000
# 4 0.000000 0.000000 0.000000 -0.029573 0.000000 0.069055
# 5 -0.016320 0.006317 0.016076 0.000000 0.045635 0.000000
# 6 0.000000 0.000000 0.000000 0.069055 0.000000 -0.052339
#
#
# Mechanical properties :
#
#
# Convention : Reuss Voigt Hill
#
# Bulk Modulus (GPa) = 24.42760 25.02439 24.72599
# Shear Modulus (GPa) = 48.06925 21.97033 35.01979
#
# Velocity S-wave (km/s) = 4.66046 3.15075 3.97788
# Velocity P-wave (km/s) = 6.32434 4.95413 5.68070
#
# Compressibility (1/GPa) = 0.04093731
#
# Stress axis : x y z
#
# Youngs Moduli (GPa) = 25.26129 76.64009 32.09409
#
# Poissons Ratio (x) = 0.29752 0.72136
# Poissons Ratio (y) = 0.09807 -0.15825
# Poissons Ratio (z) = 0.56778 -0.37790
#
# Static dielectric constant tensor:
#      x y z
#    x 1.877180 0.000000 -0.038800 
#    y 0.000000 1.849220 0.000000 
#    z -0.038800 0.000000 1.796880 
# 
# From -- ./inp_files/11513.got.cif
#   From: 2010.05.17/outbox.cif.g08.bks.cpg/sg4_6_cif.got.tgz:11513.got - 2010.06.03 18:43:04.
