data_PCOD9115847
_publ_section_title
;
Structure prediction by ZEFSAII (Michael W. Deem and Ramdas Pophale) SiO2 
 PCOD9115847
Probable space group: P 21
;
_chemical_formula_sum "Si O2"
_cell_formula_units_Z 16
_cell_length_a 12.645948
_cell_length_b 8.327024
_cell_length_c 5.923553
_cell_angle_alpha 90.000000
_cell_angle_beta 103.195203
_cell_angle_gamma 90.000000
_cell_volume 607.299841
_symmetry_space_group_name_H-M "P 21"
_symmetry_group_IT_number 4
_symmetry_cell_setting 'monoclinic'
loop_
_space_group_symop_operation_xyz
x,y,z
-x,1/2+y,-z
loop_
_atom_site_type_symbol
_atom_site_label
_atom_site_fract_x
_atom_site_fract_y
_atom_site_fract_z
Si Si1 0.067468 0.497940 0.349382
Si Si2 0.622951 0.019849 0.957282
Si Si3 0.219762 0.314524 0.711975
Si Si4 0.419635 0.014598 0.158107
Si Si5 0.053509 0.204043 0.014738
Si Si6 0.296104 0.820427 0.783048
Si Si7 0.860613 0.511294 0.565131
Si Si8 0.487436 0.318485 0.423611
O O1 0.178513 0.458322 0.529879
O O2 0.037956 0.334681 0.200722
O O3 0.974563 0.524465 0.489612
O O4 0.053434 0.640372 0.163352
O O5 0.508927 0.060149 0.016919
O O6 0.704480 0.161992 0.061441
O O7 0.671431 0.864674 0.110209
O O8 0.593853 0.962189 0.692685
O O9 0.216396 0.156946 0.556815
O O10 0.131405 0.282577 0.865394
O O11 0.421810 0.155710 0.342648
O O12 0.465400 0.857734 0.309862
O O13 0.312899 0.964645 0.971920
O O14 0.110663 0.050966 0.163508
O O15 0.405794 0.816242 0.684580
O O16 0.199074 0.855434 0.563216
#
# Coordination Sequence:
#
# PCOD9115847 Si02
#       8
#     2   2   2   2   2   2   2   2
#     4  10  22  40  62  88 121 159 202 249 304 362
#     4  10  22  38  58  86 117 153 197 246 298 354
#     4  10  22  39  59  87 121 159 198 245 304 363
#     4  10  21  39  58  85 118 154 198 247 299 354
#     4  10  22  40  62  89 120 160 202 246 305 362
#     4  10  22  38  58  86 117 152 198 247 297 354
#     4  10  22  39  59  86 121 159 198 247 302 361
#     4  10  21  37  60  83 115 156 197 245 299 356
#
# _framework density 26.346128
#
# number of rings (size 3 to 8) (size 9 to 14) (size 15 to 20)
#    0.000    2.000    0.000    2.250    0.000   13.000 
#    0.000    1.250    0.000    0.000    0.000    0.000 
#    0.000    0.000    0.000    0.000    0.000    0.000 
#
# Total GULP energy -89541.976300 kJ/mol
# GULP energy per Si atom -5596.373519 kJ/mol
# Density = 2.628616 g / cm^3
# Si number density = 26.346128 Si / 1000 Ang^3
#
#
#
# Elastic Constant Matrix: (Units=GPa)
#
#
# Indices 1 2 3 4 5 6 
#
# 1 46.9580 -5.1572 16.4027 0.0000 -8.9308 0.0000
# 2 -5.1572 64.0284 22.8747 0.0000 4.7655 0.0000
# 3 16.4027 22.8747 138.5738 0.0000 31.4758 0.0000
# 4 0.0000 0.0000 0.0000 63.0217 0.0000 11.7900
# 5 -8.9308 4.7655 31.4758 0.0000 42.4377 0.0000
# 6 0.0000 0.0000 0.0000 11.7900 0.0000 25.8419
#
#
#
# Elastic Compliance Matrix: (Units=1/GPa)
#
#
# Indices 1 2 3 4 5 6 
#
# 1 0.025374 0.003377 -0.005638 0.000000 0.009142 0.000000
# 2 0.003377 0.017048 -0.003536 0.000000 0.001419 0.000000
# 3 -0.005638 -0.003536 0.010399 0.000000 -0.008502 0.000000
# 4 0.000000 0.000000 0.000000 0.017348 0.000000 -0.007915
# 5 0.009142 0.001419 -0.008502 0.000000 0.031634 0.000000
# 6 0.000000 0.000000 0.000000 -0.007915 0.000000 0.042308
#
#
# Mechanical properties :
#
#
# Convention : Reuss Voigt Hill
#
# Bulk Modulus (GPa) = 24.25534 35.31118 29.78326
# Shear Modulus (GPa) = 29.50779 40.62292 35.06535
#
# Velocity S-wave (km/s) = 3.35028 3.93095 3.65218
# Velocity P-wave (km/s) = 4.91856 5.83396 5.39571
#
# Compressibility (1/GPa) = 0.04122804
#
# Stress axis : x y z
#
# Youngs Moduli (GPa) = 39.40966 58.65844 96.16733
#
# Poissons Ratio (x) = -0.19812 0.54215
# Poissons Ratio (y) = -0.13310 0.34007
# Poissons Ratio (z) = 0.22218 0.20743
#
# Static dielectric constant tensor:
#      x y z
#    x 1.961130 0.000000 0.017290 
#    y 0.000000 2.170070 0.000000 
#    z 0.017290 0.000000 2.001210 
# 
# From -- ./inp_files/3416.got.cif
#   From: 2010.05.17/outbox.cif.g08.bks.cpg/sg4_2_cif.got.tgz:3416.got - 2010.06.03 18:43:04.
