data_PCOD9115773
_publ_section_title
;
Structure prediction by ZEFSAII (Michael W. Deem and Ramdas Pophale) SiO2 
 PCOD9115773
Probable space group: P 21
;
_chemical_formula_sum "Si O2"
_cell_formula_units_Z 16
_cell_length_a 22.780481
_cell_length_b 5.931121
_cell_length_c 12.499739
_cell_angle_alpha 90.000000
_cell_angle_beta 25.554420
_cell_angle_gamma 90.000000
_cell_volume 728.532164
_symmetry_space_group_name_H-M "P 21"
_symmetry_group_IT_number 4
_symmetry_cell_setting 'monoclinic'
loop_
_space_group_symop_operation_xyz
x,y,z
-x,1/2+y,-z
loop_
_atom_site_type_symbol
_atom_site_label
_atom_site_fract_x
_atom_site_fract_y
_atom_site_fract_z
Si Si1 0.376160 0.327750 0.057232
Si Si2 0.091896 0.293892 0.607559
Si Si3 0.798427 0.520491 0.074357
Si Si4 0.845623 0.090630 0.295995
Si Si5 0.049956 0.403732 0.085706
Si Si6 0.428911 0.476710 0.208632
Si Si7 0.541973 0.394006 0.384538
Si Si8 0.423128 0.123786 0.392118
O O1 0.213719 0.351550 0.327440
O O2 0.427007 0.435563 0.085974
O O3 0.455226 0.450677 0.832301
O O4 0.428616 0.072251 0.983729
O O5 0.136742 0.378456 0.651847
O O6 0.063816 0.030706 0.660242
O O7 0.942524 0.395551 0.833843
O O8 0.701800 0.443314 0.137675
O O9 0.701605 0.506282 0.339719
O O10 0.846527 0.779236 0.006125
O O11 0.964124 0.246800 0.146607
O O12 0.689671 0.159704 0.571484
O O13 0.867893 0.052434 0.134408
O O14 0.386536 0.254285 0.343933
O O15 0.483057 0.644960 0.515244
O O16 0.479362 0.324610 0.374827
#
# Coordination Sequence:
#
# PCOD9115773 Si02
#       8
#     2   2   2   2   2   2   2   2
#     4  11  25  40  60  96 141 187 225 274 336 430
#     4  10  24  38  59  92 138 180 222 282 345 407
#     4  10  24  42  71  96 128 174 231 296 348 402
#     4  10  21  32  54  90 130 178 228 271 334 412
#     4  11  20  35  58  94 133 177 225 279 347 409
#     4  11  23  37  61  92 136 180 225 271 342 413
#     4  10  25  46  75 110 138 172 236 307 358 402
#     4  11  24  42  70  98 130 176 232 284 350 405
#
# _framework density 21.961967999999999
#
# number of rings (size 3 to 8) (size 9 to 14) (size 15 to 20)
#    0.000    1.500    3.750    0.000   10.500    1.000 
#    0.000    0.000    2.750    0.000    0.000    0.000 
#    0.000    0.000    0.000    0.000    0.000    0.000 
#
# Total GULP energy -89131.049909 kJ/mol
# GULP energy per Si atom -5570.690619 kJ/mol
# Density = 2.191198 g / cm^3
# Si number density = 21.961968 Si / 1000 Ang^3
#
#
#
# Elastic Constant Matrix: (Units=GPa)
#
#
# Indices 1 2 3 4 5 6 
#
# 1 34.0081 8.7371 15.7093 0.0000 -21.5248 0.0000
# 2 8.7371 56.4573 28.8834 0.0000 -4.7394 0.0000
# 3 15.7093 28.8834 146.1951 0.0000 -19.1599 0.0000
# 4 0.0000 0.0000 0.0000 37.1414 0.0000 -0.2119
# 5 -21.5248 -4.7394 -19.1599 0.0000 36.0956 0.0000
# 6 0.0000 0.0000 0.0000 -0.2119 0.0000 27.0480
#
#
#
# Elastic Compliance Matrix: (Units=1/GPa)
#
#
# Indices 1 2 3 4 5 6 
#
# 1 0.048713 -0.004879 -0.000588 0.000000 0.028096 0.000000
# 2 -0.004879 0.020203 -0.003763 0.000000 -0.002254 0.000000
# 3 -0.000588 -0.003763 0.008099 0.000000 0.003454 0.000000
# 4 0.000000 0.000000 0.000000 0.026925 0.000000 0.000211
# 5 0.028096 -0.002254 0.003454 0.000000 0.045996 0.000000
# 6 0.000000 0.000000 0.000000 0.000211 0.000000 0.036973
#
#
# Mechanical properties :
#
#
# Convention : Reuss Voigt Hill
#
# Bulk Modulus (GPa) = 17.07784 38.14668 27.61226
# Shear Modulus (GPa) = 22.23327 32.27907 27.25617
#
# Velocity S-wave (km/s) = 3.18520 3.83792 3.52669
# Velocity P-wave (km/s) = 4.61739 6.08659 5.40217
#
# Compressibility (1/GPa) = 0.05855542
#
# Stress axis : x y z
#
# Youngs Moduli (GPa) = 20.52856 49.49685 123.46459
#
# Poissons Ratio (x) = 0.24150 0.07264
# Poissons Ratio (y) = 0.10016 0.46455
# Poissons Ratio (z) = 0.01208 0.18624
#
# Static dielectric constant tensor:
#      x y z
#    x 1.793830 0.000000 -0.008970 
#    y 0.000000 1.952880 0.000000 
#    z -0.008970 0.000000 1.841230 
# 
# From -- ./inp_files/14586.got.cif
#   From: 2010.05.17/outbox.cif.g08.bks.cpg/sg4_8_cif.got.tgz:14586.got - 2010.06.03 18:43:04.
