data_PCOD9115811
_publ_section_title
;
Structure prediction by ZEFSAII (Michael W. Deem and Ramdas Pophale) SiO2 
 PCOD9115811
Probable space group: P 21
;
_chemical_formula_sum "Si O2"
_cell_formula_units_Z 12
_cell_length_a 14.209697
_cell_length_b 4.984895
_cell_length_c 7.637832
_cell_angle_alpha 90.000000
_cell_angle_beta 122.514123
_cell_angle_gamma 90.000000
_cell_volume 456.217466
_symmetry_space_group_name_H-M "P 21"
_symmetry_group_IT_number 4
_symmetry_cell_setting 'monoclinic'
loop_
_space_group_symop_operation_xyz
x,y,z
-x,1/2+y,-z
loop_
_atom_site_type_symbol
_atom_site_label
_atom_site_fract_x
_atom_site_fract_y
_atom_site_fract_z
Si Si1 0.143424 0.525590 0.840912
Si Si2 0.843558 0.292098 0.793127
Si Si3 0.656442 0.350266 0.106010
Si Si4 0.356576 0.116772 0.554064
Si Si5 0.983938 0.513653 0.226923
Si Si6 0.483938 0.628709 0.740953
O O1 0.181504 0.577262 0.080112
O O2 0.102411 0.225664 0.777719
O O3 0.559863 0.174026 0.102736
O O4 0.242973 0.653345 0.832403
O O5 0.742973 0.489018 0.653543
O O6 0.940137 0.468337 0.983010
O O7 0.894813 0.140543 0.676500
O O8 0.681504 0.565101 0.282896
O O9 0.963286 0.225048 0.291033
O O10 0.605187 0.501819 0.886873
O O11 0.463286 0.917314 0.635540
O O12 0.397589 0.416698 0.572898
#
# Coordination Sequence:
#
# PCOD9115811 Si02
#       6
#     2   2   2   2   2   2
#     4  10  22  34  62  87 111 154 193 234 280 345
#     4  10  21  40  61  84 116 153 192 233 290 341
#     4  10  21  40  61  84 116 153 192 233 290 341
#     4  10  22  34  62  87 111 154 193 234 280 345
#     4  10  21  36  61  83 117 151 189 229 296 332
#     4  10  21  36  61  83 117 151 189 229 296 332
#
# _framework density 26.303243999999999
#
# number of rings (size 3 to 8) (size 9 to 14) (size 15 to 20)
#    2.000    0.000    3.333    0.000    4.667    0.000 
#    0.000    3.333    0.000    0.000    0.000    0.000 
#    0.000    0.000    0.000    0.000    0.000    0.000 
#
# Total GULP energy -67053.008286 kJ/mol
# GULP energy per Si atom -5587.750691 kJ/mol
# Density = 2.624338 g / cm^3
# Si number density = 26.303244 Si / 1000 Ang^3
#
#
#
# Elastic Constant Matrix: (Units=GPa)
#
#
# Indices 1 2 3 4 5 6 
#
# 1 82.6392 -8.2753 -9.6462 0.0000 -7.2729 0.0000
# 2 -8.2753 114.8973 -9.0235 0.0000 1.6375 0.0000
# 3 -9.6462 -9.0235 76.4436 0.0000 20.8322 0.0000
# 4 0.0000 0.0000 0.0000 21.8698 0.0000 8.9584
# 5 -7.2729 1.6375 20.8322 0.0000 -13.6961 0.0000
# 6 0.0000 0.0000 0.0000 8.9584 0.0000 25.9636
#
#
#
# Elastic Compliance Matrix: (Units=1/GPa)
#
#
# Indices 1 2 3 4 5 6 
#
# 1 0.012256 0.001111 0.002414 0.000000 -0.002703 0.000000
# 2 0.001111 0.008819 0.000746 0.000000 0.001599 0.000000
# 3 0.002414 0.000746 0.009756 0.000000 0.013646 0.000000
# 4 0.000000 0.000000 0.000000 0.053251 0.000000 -0.018374
# 5 -0.002703 0.001599 0.013646 0.000000 -0.050632 0.000000
# 6 0.000000 0.000000 0.000000 -0.018374 0.000000 0.044855
#
#
# Mechanical properties :
#
#
# Convention : Reuss Voigt Hill
#
# Bulk Modulus (GPa) = 25.39869 24.45445 24.92657
# Shear Modulus (GPa) = 60.32219 26.88913 43.60566
#
# Velocity S-wave (km/s) = 4.79407 3.20077 4.07603
# Velocity P-wave (km/s) = 6.34990 4.79346 5.62577
#
# Compressibility (1/GPa) = 0.03937211
#
# Stress axis : x y z
#
# Youngs Moduli (GPa) = 81.59300 113.38892 102.50601
#
# Poissons Ratio (x) = -0.12596 -0.24748
# Poissons Ratio (y) = -0.09064 -0.07642
# Poissons Ratio (z) = -0.19699 -0.08454
#
# Static dielectric constant tensor:
#      x y z
#    x 2.106640 0.000000 -0.031410 
#    y 0.000000 2.009870 0.000000 
#    z -0.031410 0.000000 2.121000 
# 
# From -- ./inp_files/9061.got.cif
#   From: 2010.05.17/outbox.cif.g08.bks.cpg/sg4_5_cif.got.tgz:9061.got - 2010.06.03 18:43:04.
