data_PCOD9115369
_publ_section_title
;
Structure prediction by ZEFSAII (Michael W. Deem and Ramdas Pophale) SiO2 
 PCOD9115369
Probable space group: P 21
;
_chemical_formula_sum "Si O2"
_cell_formula_units_Z 16
_cell_length_a 13.485137
_cell_length_b 9.132313
_cell_length_c 9.057584
_cell_angle_alpha 90.000000
_cell_angle_beta 48.791188
_cell_angle_gamma 90.000000
_cell_volume 839.165134
_symmetry_space_group_name_H-M "P 21"
_symmetry_group_IT_number 4
_symmetry_cell_setting 'monoclinic'
loop_
_space_group_symop_operation_xyz
x,y,z
-x,1/2+y,-z
loop_
_atom_site_type_symbol
_atom_site_label
_atom_site_fract_x
_atom_site_fract_y
_atom_site_fract_z
Si Si1 0.964135 0.974240 0.381870
Si Si2 0.786687 0.729970 0.098792
Si Si3 0.156837 0.223685 0.294029
Si Si4 0.192916 0.632699 0.728828
Si Si5 0.693266 0.444139 0.337791
Si Si6 0.012134 0.225673 0.853459
Si Si7 0.286439 0.156717 0.437039
Si Si8 0.406976 0.394677 0.519631
O O1 0.889502 0.869021 0.572164
O O2 0.038137 0.854972 0.203881
O O3 0.877499 0.065143 0.346789
O O4 0.049253 0.094175 0.384237
O O5 0.773501 0.559819 0.158907
O O6 0.906120 0.787073 0.084942
O O7 0.652228 0.801593 0.286832
O O8 0.808988 0.757444 0.907399
O O9 0.277499 0.157826 0.271143
O O10 0.223264 0.804867 0.695085
O O11 0.331077 0.548088 0.605387
O O12 0.098984 0.623963 0.966120
O O13 0.649798 0.528460 0.530205
O O14 0.562387 0.402767 0.377254
O O15 0.132129 0.153464 0.642605
O O16 0.351799 0.305801 0.432755
#
# Coordination Sequence:
#
# PCOD9115369 Si02
#       8
#     2   2   2   2   2   2   2   2
#     4  11  23  37  56  90 127 162 187 247 304 383
#     4  10  20  38  61  85 123 156 194 259 297 358
#     4  11  22  39  56  87 131 158 188 236 333 362
#     4  12  19  33  65  86 114 151 202 252 287 357
#     4  10  22  36  63  87 110 158 213 249 289 342
#     4   9  19  35  57  87 117 148 205 238 302 338
#     4   9  21  38  57  83 130 151 185 259 300 360
#     4  10  20  40  59  85 112 160 212 250 288 336
#
# _framework density 19.066566999999999
#
# number of rings (size 3 to 8) (size 9 to 14) (size 15 to 20)
#    0.000    2.000    5.000    2.250    3.500    2.000 
#    0.000    1.250    0.000    0.000    0.000    0.000 
#    0.000    0.000    0.000    0.000    0.000    0.000 
#
# Total GULP energy -89098.281877 kJ/mol
# GULP energy per Si atom -5568.642617 kJ/mol
# Density = 1.902317 g / cm^3
# Si number density = 19.066567 Si / 1000 Ang^3
#
#
#
# Elastic Constant Matrix: (Units=GPa)
#
#
# Indices 1 2 3 4 5 6 
#
# 1 69.9530 20.7177 21.9795 0.0000 17.4312 0.0000
# 2 20.7177 99.3697 16.0602 0.0000 8.0335 0.0000
# 3 21.9795 16.0602 49.4936 0.0000 29.0740 0.0000
# 4 0.0000 0.0000 0.0000 26.7538 0.0000 6.9248
# 5 17.4312 8.0335 29.0740 0.0000 35.0124 0.0000
# 6 0.0000 0.0000 0.0000 6.9248 0.0000 33.7020
#
#
#
# Elastic Compliance Matrix: (Units=1/GPa)
#
#
# Indices 1 2 3 4 5 6 
#
# 1 0.017548 -0.002601 -0.004232 0.000000 -0.004626 0.000000
# 2 -0.002601 0.011018 -0.003311 0.000000 0.001516 0.000000
# 3 -0.004232 -0.003311 0.041925 0.000000 -0.031948 0.000000
# 4 0.000000 0.000000 0.000000 0.039477 0.000000 -0.008111
# 5 -0.004626 0.001516 -0.031948 0.000000 0.057046 0.000000
# 6 0.000000 0.000000 0.000000 -0.008111 0.000000 0.031339
#
#
# Mechanical properties :
#
#
# Convention : Reuss Voigt Hill
#
# Bulk Modulus (GPa) = 19.91832 37.37011 28.64421
# Shear Modulus (GPa) = 21.24274 29.76423 25.50348
#
# Velocity S-wave (km/s) = 3.34149 3.95532 3.66129
# Velocity P-wave (km/s) = 5.03555 6.36410 5.73841
#
# Compressibility (1/GPa) = 0.05020504
#
# Stress axis : x y z
#
# Youngs Moduli (GPa) = 56.98728 90.75902 23.85185
#
# Poissons Ratio (x) = 0.23603 0.10093
# Poissons Ratio (y) = 0.14821 0.07897
# Poissons Ratio (z) = 0.24115 0.30049
#
# Static dielectric constant tensor:
#      x y z
#    x 1.675660 0.000000 -0.005050 
#    y 0.000000 1.730580 0.000000 
#    z -0.005050 0.000000 1.681230 
# 
# From -- ./inp_files/7808.got.cif
#   From: 2010.05.17/outbox.cif.g08.bks.cpg/sg4_4_cif.got.tgz:7808.got - 2010.06.03 18:43:04.
