data_PCOD9115971
_publ_section_title
;
Structure prediction by ZEFSAII (Michael W. Deem and Ramdas Pophale) SiO2 
 PCOD9115971
Probable space group: P 21
;
_chemical_formula_sum "Si O2"
_cell_formula_units_Z 16
_cell_length_a 9.439506
_cell_length_b 8.596425
_cell_length_c 11.992053
_cell_angle_alpha 90.000000
_cell_angle_beta 45.485967
_cell_angle_gamma 90.000000
_cell_volume 693.902073
_symmetry_space_group_name_H-M "P 21"
_symmetry_group_IT_number 4
_symmetry_cell_setting 'monoclinic'
loop_
_space_group_symop_operation_xyz
x,y,z
-x,1/2+y,-z
loop_
_atom_site_type_symbol
_atom_site_label
_atom_site_fract_x
_atom_site_fract_y
_atom_site_fract_z
Si Si1 0.971748 0.417610 0.401601
Si Si2 0.661387 0.819360 0.441826
Si Si3 0.668936 0.580421 0.134710
Si Si4 0.679448 0.913900 0.072568
Si Si5 0.356128 0.109600 0.326976
Si Si6 0.070639 0.075190 0.811202
Si Si7 0.573451 0.868285 0.879942
Si Si8 0.678061 0.165138 0.512692
O O1 0.851408 0.517553 0.558171
O O2 0.912318 0.487044 0.314695
O O3 0.878849 0.246046 0.443585
O O4 0.207650 0.428569 0.278926
O O5 0.652309 0.733680 0.567774
O O6 0.836466 0.742344 0.270677
O O7 0.455827 0.774512 0.494038
O O8 0.699816 0.000381 0.438916
O O9 0.771591 0.744384 0.047604
O O10 0.796094 0.505673 0.163343
O O11 0.608224 0.465990 0.069980
O O12 0.460762 0.629737 0.304859
O O13 0.523214 0.977159 0.248498
O O14 0.573316 0.878888 0.012906
O O15 0.844746 0.046892 0.969554
O O16 0.419636 0.198270 0.179504
#
# Coordination Sequence:
#
# PCOD9115971 Si02
#       8
#     2   2   2   2   2   2   2   2
#     4  10  23  42  67  98 133 164 226 288 330 400
#     4  10  21  38  70  98 131 165 220 285 336 394
#     4  11  22  42  69  92 132 179 219 275 335 404
#     4  11  24  45  63  93 140 175 222 274 329 406
#     4  11  22  39  67  94 128 178 217 275 338 392
#     4   9  23  44  64 102 128 170 224 280 333 396
#     4  11  25  42  63  94 133 179 225 271 332 400
#     4  11  20  40  67 101 129 168 221 280 347 390
#
# _framework density 23.058008000000001
#
# number of rings (size 3 to 8) (size 9 to 14) (size 15 to 20)
#    0.000    1.500    2.500    3.000    3.500    1.000 
#    2.250    6.250    0.000    0.000    0.000    0.000 
#    0.000    0.000    0.000    0.000    0.000    0.000 
#
# Total GULP energy -89371.288567 kJ/mol
# GULP energy per Si atom -5585.705535 kJ/mol
# Density = 2.300553 g / cm^3
# Si number density = 23.058008 Si / 1000 Ang^3
#
#
#
# Elastic Constant Matrix: (Units=GPa)
#
#
# Indices 1 2 3 4 5 6 
#
# 1 83.3833 48.3650 10.5109 0.0000 8.2292 0.0000
# 2 48.3650 98.0053 16.2613 0.0000 -4.5524 0.0000
# 3 10.5109 16.2613 43.5346 0.0000 1.9966 0.0000
# 4 0.0000 0.0000 0.0000 22.8366 0.0000 2.7560
# 5 8.2292 -4.5524 1.9966 0.0000 21.0536 0.0000
# 6 0.0000 0.0000 0.0000 2.7560 0.0000 33.6728
#
#
#
# Elastic Compliance Matrix: (Units=1/GPa)
#
#
# Indices 1 2 3 4 5 6 
#
# 1 0.018443 -0.009446 -0.000503 0.000000 -0.009204 0.000000
# 2 -0.009446 0.015876 -0.003994 0.000000 0.007504 0.000000
# 3 -0.000503 -0.003994 0.024721 0.000000 -0.003012 0.000000
# 4 0.000000 0.000000 0.000000 0.044226 0.000000 -0.003620
# 5 -0.009204 0.007504 -0.003012 0.000000 0.053003 0.000000
# 6 0.000000 0.000000 0.000000 -0.003620 0.000000 0.029994
#
#
# Mechanical properties :
#
#
# Convention : Reuss Voigt Hill
#
# Bulk Modulus (GPa) = 32.09574 41.68863 36.89218
# Shear Modulus (GPa) = 22.26830 25.49833 23.88332
#
# Velocity S-wave (km/s) = 3.11103 3.32902 3.22186
# Velocity P-wave (km/s) = 5.18212 5.73547 5.46580
#
# Compressibility (1/GPa) = 0.03115678
#
# Stress axis : x y z
#
# Youngs Moduli (GPa) = 54.21996 62.98732 40.45073
#
# Poissons Ratio (x) = 0.59497 0.02033
# Poissons Ratio (y) = 0.51215 0.16155
# Poissons Ratio (z) = 0.02725 0.25156
#
# Static dielectric constant tensor:
#      x y z
#    x 1.875360 0.000000 -0.012820 
#    y 0.000000 1.923420 0.000000 
#    z -0.012820 0.000000 1.856460 
# 
# From -- ./inp_files/11026.got.cif
#   From: 2010.05.17/outbox.cif.g08.bks.cpg/sg4_6_cif.got.tgz:11026.got - 2010.06.03 18:43:04.
