data_PCOD9115274
_publ_section_title
;
Structure prediction by ZEFSAII (Michael W. Deem and Ramdas Pophale) SiO2 
 PCOD9115274
Probable space group: P 21
;
_chemical_formula_sum "Si O2"
_cell_formula_units_Z 12
_cell_length_a 21.147134
_cell_length_b 5.304127
_cell_length_c 11.341894
_cell_angle_alpha 90.000000
_cell_angle_beta 156.807227
_cell_angle_gamma 90.000000
_cell_volume 501.020353
_symmetry_space_group_name_H-M "P 21"
_symmetry_group_IT_number 4
_symmetry_cell_setting 'monoclinic'
loop_
_space_group_symop_operation_xyz
x,y,z
-x,1/2+y,-z
loop_
_atom_site_type_symbol
_atom_site_label
_atom_site_fract_x
_atom_site_fract_y
_atom_site_fract_z
Si Si1 0.659292 0.877240 0.495390
Si Si2 0.063825 0.028632 0.669578
Si Si3 0.736285 0.675413 0.373184
Si Si4 0.309104 0.677379 0.653495
Si Si5 0.437243 0.868099 0.326919
Si Si6 0.009101 0.335932 0.811025
O O1 0.719049 0.708323 0.486288
O O2 0.632909 0.137153 0.378984
O O3 0.512873 0.811977 0.328170
O O4 0.814438 0.888581 0.843879
O O5 0.014217 0.153862 0.708455
O O6 0.033573 0.275514 0.534040
O O7 0.249887 0.941110 0.995042
O O8 0.671975 0.942553 0.226183
O O9 0.910096 0.596466 0.625411
O O10 0.634823 0.423158 0.181978
O O11 0.114521 0.705359 0.309089
O O12 0.472901 0.616716 0.465353
#
# Coordination Sequence:
#
# PCOD9115274 Si02
#       6
#     2   2   2   2   2   2
#     4  10  20  36  65 103 141 162 228 306 357 409
#     4  12  29  49  69 100 150 204 241 285 356 445
#     4   8  19  31  56 102 132 171 206 306 354 408
#     4   8  19  30  58  96 138 163 219 286 374 390
#     4  12  27  46  73 106 143 194 242 306 355 413
#     4  10  20  38  65  97 138 178 232 289 344 429
#
# _framework density 23.951125000000001
#
# number of rings (size 3 to 8) (size 9 to 14) (size 15 to 20)
#    2.000    0.000    1.667    2.000    4.667    0.000 
#    0.000    0.000    0.000    4.000    0.000    0.000 
#    0.000    0.000    0.000    0.000    0.000    0.000 
#
# Total GULP energy -66803.686263 kJ/mol
# GULP energy per Si atom -5566.973855 kJ/mol
# Density = 2.389661 g / cm^3
# Si number density = 23.951125 Si / 1000 Ang^3
#
#
#
# Elastic Constant Matrix: (Units=GPa)
#
#
# Indices 1 2 3 4 5 6 
#
# 1 114.5182 11.4742 24.3889 0.0000 8.3465 0.0000
# 2 11.4742 153.7425 27.0514 0.0000 -23.7137 0.0000
# 3 24.3889 27.0514 101.0200 0.0000 9.0514 0.0000
# 4 0.0000 0.0000 0.0000 19.5460 0.0000 2.2995
# 5 8.3465 -23.7137 9.0514 0.0000 28.9392 0.0000
# 6 0.0000 0.0000 0.0000 2.2995 0.0000 33.5130
#
#
#
# Elastic Compliance Matrix: (Units=1/GPa)
#
#
# Indices 1 2 3 4 5 6 
#
# 1 0.009403 -0.000821 -0.001797 0.000000 -0.002822 0.000000
# 2 -0.000821 0.008254 -0.002716 0.000000 0.007850 0.000000
# 3 -0.001797 -0.002716 0.011536 0.000000 -0.005315 0.000000
# 4 0.000000 0.000000 0.000000 0.051578 0.000000 -0.003539
# 5 -0.002822 0.007850 -0.005315 0.000000 0.043464 0.000000
# 6 0.000000 0.000000 0.000000 -0.003539 0.000000 0.030082
#
#
# Mechanical properties :
#
#
# Convention : Reuss Voigt Hill
#
# Bulk Modulus (GPa) = 53.97817 55.01219 54.49518
# Shear Modulus (GPa) = 29.21237 36.82404 33.01821
#
# Velocity S-wave (km/s) = 3.49616 3.92531 3.71693
# Velocity P-wave (km/s) = 6.23564 6.60018 6.42050
#
# Compressibility (1/GPa) = 0.01852601
#
# Stress axis : x y z
#
# Youngs Moduli (GPa) = 106.34913 121.14988 86.68225
#
# Poissons Ratio (x) = 0.09945 0.15581
# Poissons Ratio (y) = 0.08730 0.23539
# Poissons Ratio (z) = 0.19116 0.32899
#
# Static dielectric constant tensor:
#      x y z
#    x 1.911160 0.000000 0.024790 
#    y 0.000000 2.175530 0.000000 
#    z 0.024790 0.000000 1.930210 
# 
# From -- ./inp_files/13041.got.cif
#   From: 2010.05.17/outbox.cif.g08.bks.cpg/sg4_7_cif.got.tgz:13041.got - 2010.06.03 18:43:04.
