data_PCOD9115128
_publ_section_title
;
Structure prediction by ZEFSAII (Michael W. Deem and Ramdas Pophale) SiO2 
 PCOD9115128
Probable space group: P 21
;
_chemical_formula_sum "Si O2"
_cell_formula_units_Z 16
_cell_length_a 9.153034
_cell_length_b 9.345032
_cell_length_c 12.582949
_cell_angle_alpha 90.000000
_cell_angle_beta 37.848678
_cell_angle_gamma 90.000000
_cell_volume 660.386497
_symmetry_space_group_name_H-M "P 21"
_symmetry_group_IT_number 4
_symmetry_cell_setting 'monoclinic'
loop_
_space_group_symop_operation_xyz
x,y,z
-x,1/2+y,-z
loop_
_atom_site_type_symbol
_atom_site_label
_atom_site_fract_x
_atom_site_fract_y
_atom_site_fract_z
Si Si1 0.550144 0.141080 0.642844
Si Si2 0.607642 0.228246 0.389639
Si Si3 0.904948 0.227461 0.825731
Si Si4 0.121414 0.474202 0.824499
Si Si5 0.815548 0.855886 0.510304
Si Si6 0.354478 0.138636 0.976083
Si Si7 0.608482 0.843737 0.857138
Si Si8 0.074299 0.974313 0.841977
O O1 0.589391 0.251737 0.526109
O O2 0.482786 0.198551 0.797013
O O3 0.317785 0.049283 0.742458
O O4 0.765863 0.025809 0.525295
O O5 0.607457 0.777648 0.561278
O O6 0.840749 0.313374 0.219744
O O7 0.654966 0.059859 0.348282
O O8 0.950526 0.296566 0.683464
O O9 0.981779 0.063734 0.795117
O O10 0.078526 0.316328 0.805125
O O11 0.642284 0.260796 0.018459
O O12 0.885429 0.555390 0.917092
O O13 0.114082 0.482510 0.955063
O O14 0.775031 0.827541 0.658091
O O15 0.302466 0.261836 0.090241
O O16 0.529983 0.009858 0.915210
#
# Coordination Sequence:
#
# PCOD9115128 Si02
#       8
#     2   2   2   2   2   2   2   2
#     4   9  18  36  57  78 119 151 177 234 287 336
#     4  11  19  34  58  89 116 149 188 229 287 346
#     4  11  20  37  58  83 117 154 186 230 298 335
#     4  10  20  36  60  80 114 160 185 228 295 346
#     4  10  20  37  59  85 118 152 186 229 287 348
#     4   9  21  41  59  79 110 153 197 236 285 334
#     4  10  22  42  60  80 112 155 196 239 285 332
#     4  10  20  33  53  90 118 142 191 233 276 349
#
# _framework density 24.228238000000001
#
# number of rings (size 3 to 8) (size 9 to 14) (size 15 to 20)
#    0.000    2.000    2.500    3.750    0.000    1.000 
#    4.500    1.250    0.000    0.000    0.000    0.000 
#    0.000    0.000    0.000    0.000    0.000    0.000 
#
# Total GULP energy -89460.755523 kJ/mol
# GULP energy per Si atom -5591.297220 kJ/mol
# Density = 2.417309 g / cm^3
# Si number density = 24.228238 Si / 1000 Ang^3
#
#
#
# Elastic Constant Matrix: (Units=GPa)
#
#
# Indices 1 2 3 4 5 6 
#
# 1 43.9404 9.5732 2.4004 0.0000 11.9826 0.0000
# 2 9.5732 69.1371 8.8292 0.0000 12.8866 0.0000
# 3 2.4004 8.8292 119.4966 0.0000 39.3247 0.0000
# 4 0.0000 0.0000 0.0000 26.8981 0.0000 6.1193
# 5 11.9826 12.8866 39.3247 0.0000 34.1105 0.0000
# 6 0.0000 0.0000 0.0000 6.1193 0.0000 33.7880
#
#
#
# Elastic Compliance Matrix: (Units=1/GPa)
#
#
# Indices 1 2 3 4 5 6 
#
# 1 0.026519 -0.001713 0.003942 0.000000 -0.013214 0.000000
# 2 -0.001713 0.015790 0.001020 0.000000 -0.006539 0.000000
# 3 0.003942 0.001020 0.014174 0.000000 -0.018111 0.000000
# 4 0.000000 0.000000 0.000000 0.038775 0.000000 -0.007022
# 5 -0.013214 -0.006539 -0.018111 0.000000 0.057308 0.000000
# 6 0.000000 0.000000 0.000000 -0.007022 0.000000 0.030868
#
#
# Mechanical properties :
#
#
# Convention : Reuss Voigt Hill
#
# Bulk Modulus (GPa) = 15.87755 30.46442 23.17098
# Shear Modulus (GPa) = 25.26160 33.07741 29.16950
#
# Velocity S-wave (km/s) = 3.23251 3.69893 3.47356
# Velocity P-wave (km/s) = 4.52766 5.55374 5.06674
#
# Compressibility (1/GPa) = 0.06298202
#
# Stress axis : x y z
#
# Youngs Moduli (GPa) = 37.70833 63.33209 70.55238
#
# Poissons Ratio (x) = 0.10846 -0.27814
# Poissons Ratio (y) = 0.06458 -0.07194
# Poissons Ratio (z) = -0.14866 -0.06458
#
# Static dielectric constant tensor:
#      x y z
#    x 1.968730 0.000000 -0.005600 
#    y 0.000000 1.895260 0.000000 
#    z -0.005600 0.000000 1.930480 
# 
# From -- ./inp_files/11966.got.cif
#   From: 2010.05.17/outbox.cif.g08.bks.cpg/sg4_6_cif.got.tgz:11966.got - 2010.06.03 18:43:04.
