data_PCOD9115970
_publ_section_title
;
Structure prediction by ZEFSAII (Michael W. Deem and Ramdas Pophale) SiO2 
 PCOD9115970
Probable space group: P 21
;
_chemical_formula_sum "Si O2"
_cell_formula_units_Z 14
_cell_length_a 9.381533
_cell_length_b 4.691756
_cell_length_c 13.561140
_cell_angle_alpha 90.000000
_cell_angle_beta 119.141683
_cell_angle_gamma 90.000000
_cell_volume 521.347932
_symmetry_space_group_name_H-M "P 21"
_symmetry_group_IT_number 4
_symmetry_cell_setting 'monoclinic'
loop_
_space_group_symop_operation_xyz
x,y,z
-x,1/2+y,-z
loop_
_atom_site_type_symbol
_atom_site_label
_atom_site_fract_x
_atom_site_fract_y
_atom_site_fract_z
Si Si1 0.069628 0.312760 0.083059
Si Si2 0.129589 0.711543 0.756541
Si Si3 0.442384 0.048688 0.421797
Si Si4 0.378922 0.356188 0.704558
Si Si5 0.870540 0.348903 0.773380
Si Si6 0.570477 0.561149 0.083502
Si Si7 0.917200 0.653059 0.511715
O O1 0.547303 0.816255 0.998078
O O2 0.191022 0.058815 0.157468
O O3 0.065176 0.578170 0.003557
O O4 0.260995 0.554634 0.730190
O O5 0.040484 0.491195 0.797555
O O6 0.982094 0.795571 0.633946
O O7 0.245328 0.938338 0.849735
O O8 0.448903 0.363241 0.466360
O O9 0.264828 0.904396 0.354996
O O10 0.516960 0.030463 0.338059
O O11 0.467732 0.167948 0.818254
O O12 0.262400 0.174684 0.592386
O O13 0.908497 0.025392 0.815396
O O14 0.971985 0.328404 0.529002
#
# Coordination Sequence:
#
# PCOD9115970 Si02
#       7
#     2   2   2   2   2   2   2
#     4   9  21  46  68 101 141 196 255 322 376 435
#     4  11  25  45  77 113 152 196 268 320 398 449
#     4  12  29  50  76 114 160 209 255 319 403 478
#     4  11  26  49  77 112 161 202 263 315 408 467
#     4  11  24  45  73 110 150 196 262 323 377 463
#     4  12  26  49  70 116 160 209 251 318 392 479
#     4  10  21  38  69 106 140 184 244 319 370 445
#
# _framework density 26.853466999999998
#
# number of rings (size 3 to 8) (size 9 to 14) (size 15 to 20)
#    0.000    1.143    2.857    1.714    4.000    4.571 
#   10.286    1.429    0.000    0.000    0.000    0.000 
#    0.000    0.000    0.000    0.000    0.000    0.000 
#
# Total GULP energy -78060.627525 kJ/mol
# GULP energy per Si atom -5575.759109 kJ/mol
# Density = 2.679235 g / cm^3
# Si number density = 26.853467 Si / 1000 Ang^3
#
#
#
# Elastic Constant Matrix: (Units=GPa)
#
#
# Indices 1 2 3 4 5 6 
#
# 1 80.5799 21.4772 34.0057 0.0000 -1.6259 0.0000
# 2 21.4772 167.9747 61.1483 0.0000 13.4020 0.0000
# 3 34.0057 61.1483 188.2416 0.0000 18.7334 0.0000
# 4 0.0000 0.0000 0.0000 53.1411 0.0000 -7.9231
# 5 -1.6259 13.4020 18.7334 0.0000 23.3295 0.0000
# 6 0.0000 0.0000 0.0000 -7.9231 0.0000 16.6889
#
#
#
# Elastic Compliance Matrix: (Units=1/GPa)
#
#
# Indices 1 2 3 4 5 6 
#
# 1 0.013840 -0.001154 -0.002486 0.000000 0.003624 0.000000
# 2 -0.001154 0.006963 -0.001791 0.000000 -0.002643 0.000000
# 3 -0.002486 -0.001791 0.006801 0.000000 -0.004606 0.000000
# 4 0.000000 0.000000 0.000000 0.020251 0.000000 0.009614
# 5 0.003624 -0.002643 -0.004606 0.000000 0.048334 0.000000
# 6 0.000000 0.000000 0.000000 0.009614 0.000000 0.064485
#
#
# Mechanical properties :
#
#
# Convention : Reuss Voigt Hill
#
# Bulk Modulus (GPa) = 59.72215 74.45096 67.08656
# Shear Modulus (GPa) = 28.23006 39.97623 34.10314
#
# Velocity S-wave (km/s) = 3.24584 3.86253 3.56753
# Velocity P-wave (km/s) = 6.02790 6.90487 6.48124
#
# Compressibility (1/GPa) = 0.01674421
#
# Stress axis : x y z
#
# Youngs Moduli (GPa) = 72.25552 143.60633 147.02726
#
# Poissons Ratio (x) = 0.16568 0.36551
# Poissons Ratio (y) = 0.08336 0.26327
# Poissons Ratio (z) = 0.17963 0.25714
#
# Static dielectric constant tensor:
#      x y z
#    x 2.184060 0.000000 -0.092820 
#    y 0.000000 2.069490 0.000000 
#    z -0.092820 0.000000 2.289530 
# 
# From -- ./inp_files/13481.got.cif
#   From: 2010.05.17/outbox.cif.g08.bks.cpg/sg4_7_cif.got.tgz:13481.got - 2010.06.03 18:43:04.
