data_PCOD9115338
_publ_section_title
;
Structure prediction by ZEFSAII (Michael W. Deem and Ramdas Pophale) SiO2 
 PCOD9115338
Probable space group: P 21
;
_chemical_formula_sum "Si O2"
_cell_formula_units_Z 14
_cell_length_a 16.785866
_cell_length_b 7.862942
_cell_length_c 7.450375
_cell_angle_alpha 90.000000
_cell_angle_beta 36.143530
_cell_angle_gamma 90.000000
_cell_volume 579.988157
_symmetry_space_group_name_H-M "P 21"
_symmetry_group_IT_number 4
_symmetry_cell_setting 'monoclinic'
loop_
_space_group_symop_operation_xyz
x,y,z
-x,1/2+y,-z
loop_
_atom_site_type_symbol
_atom_site_label
_atom_site_fract_x
_atom_site_fract_y
_atom_site_fract_z
Si Si1 0.156380 0.944220 0.432081
Si Si2 0.415068 0.062706 0.535591
Si Si3 0.230229 0.274024 0.129846
Si Si4 0.712917 0.890951 0.607594
Si Si5 0.911434 0.080200 0.485954
Si Si6 0.831232 0.548383 0.215431
Si Si7 0.466012 0.880340 0.807473
O O1 0.107180 0.774549 0.427434
O O2 0.132538 0.122993 0.377672
O O3 0.107823 0.952692 0.724112
O O4 0.319086 0.929504 0.142970
O O5 0.309438 0.967945 0.599518
O O6 0.520937 0.176039 0.235274
O O7 0.474091 0.957167 0.591840
O O8 0.315095 0.201756 0.812631
O O9 0.327952 0.312069 0.123325
O O10 0.145821 0.446732 0.264595
O O11 0.791117 0.736979 0.362919
O O12 0.586322 0.940099 0.717084
O O13 0.814317 0.037545 0.489259
O O14 0.059805 0.049598 0.139626
#
# Coordination Sequence:
#
# PCOD9115338 Si02
#       7
#     2   2   2   2   2   2   2
#     4  10  21  36  62  90 117 159 212 251 300 371
#     4  10  22  39  61  87 130 162 195 266 314 369
#     4   8  20  40  55  88 121 153 202 254 304 349
#     4   8  19  37  60  87 115 158 204 255 300 351
#     4  10  20  37  66  87 116 166 209 245 313 362
#     4  10  20  39  59  90 125 157 203 262 306 363
#     4  10  22  38  59  89 124 159 207 255 313 367
#
# _framework density 24.138424000000001
#
# number of rings (size 3 to 8) (size 9 to 14) (size 15 to 20)
#    0.857    1.714    0.000    0.857    2.000    6.857 
#    5.143    0.000    0.000    0.000    0.000    0.000 
#    0.000    0.000    0.000    0.000    0.000    0.000 
#
# Total GULP energy -78191.716893 kJ/mol
# GULP energy per Si atom -5585.122635 kJ/mol
# Density = 2.408348 g / cm^3
# Si number density = 24.138424 Si / 1000 Ang^3
#
#
#
# Elastic Constant Matrix: (Units=GPa)
#
#
# Indices 1 2 3 4 5 6 
#
# 1 104.6076 12.9600 0.2673 0.0000 -3.6304 0.0000
# 2 12.9600 87.7482 -8.2596 0.0000 -10.6098 0.0000
# 3 0.2673 -8.2596 34.0065 0.0000 -3.5978 0.0000
# 4 0.0000 0.0000 0.0000 31.1534 0.0000 0.9948
# 5 -3.6304 -10.6098 -3.5978 0.0000 34.9343 0.0000
# 6 0.0000 0.0000 0.0000 0.9948 0.0000 33.7915
#
#
#
# Elastic Compliance Matrix: (Units=1/GPa)
#
#
# Indices 1 2 3 4 5 6 
#
# 1 0.009754 -0.001408 -0.000361 0.000000 0.000549 0.000000
# 2 -0.001408 0.012410 0.003446 0.000000 0.003977 0.000000
# 3 -0.000361 0.003446 0.030687 0.000000 0.004169 0.000000
# 4 0.000000 0.000000 0.000000 0.032129 0.000000 -0.000946
# 5 0.000549 0.003977 0.004169 0.000000 0.030320 0.000000
# 6 0.000000 0.000000 0.000000 -0.000946 0.000000 0.029621
#
#
# Mechanical properties :
#
#
# Convention : Reuss Voigt Hill
#
# Bulk Modulus (GPa) = 17.79212 26.25532 22.02372
# Shear Modulus (GPa) = 31.19126 34.73548 32.96337
#
# Velocity S-wave (km/s) = 3.59859 3.79755 3.69941
# Velocity P-wave (km/s) = 4.96522 5.48900 5.23366
#
# Compressibility (1/GPa) = 0.05620464
#
# Stress axis : x y z
#
# Youngs Moduli (GPa) = 102.52237 80.58338 32.58703
#
# Poissons Ratio (x) = 0.11348 0.01175
# Poissons Ratio (y) = 0.14437 -0.11229
# Poissons Ratio (z) = 0.03697 -0.27768
#
# Static dielectric constant tensor:
#      x y z
#    x 1.961580 0.000000 -0.018390 
#    y 0.000000 1.953290 0.000000 
#    z -0.018390 0.000000 1.890700 
# 
# From -- ./inp_files/7738.got.cif
#   From: 2010.05.17/outbox.cif.g08.bks.cpg/sg4_4_cif.got.tgz:7738.got - 2010.06.03 18:43:04.
