data_PCOD9115563
_publ_section_title
;
Structure prediction by ZEFSAII (Michael W. Deem and Ramdas Pophale) SiO2 
 PCOD9115563
Probable space group: P 21
;
_chemical_formula_sum "Si O2"
_cell_formula_units_Z 12
_cell_length_a 26.927860
_cell_length_b 4.997616
_cell_length_c 20.941423
_cell_angle_alpha 90.000000
_cell_angle_beta 11.764744
_cell_angle_gamma 90.000000
_cell_volume 574.611992
_symmetry_space_group_name_H-M "P 21"
_symmetry_group_IT_number 4
_symmetry_cell_setting 'monoclinic'
loop_
_space_group_symop_operation_xyz
x,y,z
-x,1/2+y,-z
loop_
_atom_site_type_symbol
_atom_site_label
_atom_site_fract_x
_atom_site_fract_y
_atom_site_fract_z
Si Si1 0.565423 0.334610 0.875097
Si Si2 0.346706 0.180379 0.711258
Si Si3 0.091250 0.498875 0.222762
Si Si4 0.374385 0.012311 0.823432
Si Si5 0.093064 0.251286 0.412964
Si Si6 0.940016 0.090729 0.117849
O O1 0.833089 0.416027 0.516687
O O2 0.439073 0.585105 0.070417
O O3 0.383996 0.250809 0.047755
O O4 0.445451 0.480020 0.577348
O O5 0.328668 0.113097 0.808644
O O6 0.103530 0.132219 0.975333
O O7 0.007512 0.621383 0.395564
O O8 0.243035 0.728780 0.996892
O O9 0.251947 0.233530 0.022910
O O10 0.661160 0.999300 0.477568
O O11 0.004891 0.552372 0.516971
O O12 0.063538 0.865778 0.917751
#
# Coordination Sequence:
#
# PCOD9115563 Si02
#       6
#     2   2   2   2   2   2
#     4  10  20  40  67  86 119 173 209 243 314 400
#     4  12  23  43  70  94 126 176 226 257 316 404
#     4  11  24  43  64  94 132 165 208 272 333 364
#     4  12  24  42  67  97 137 165 214 283 324 367
#     4  11  22  41  68  94 125 167 217 261 313 398
#     4  12  23  43  70  95 127 176 220 262 320 395
#
# _framework density 20.883658
#
# number of rings (size 3 to 8) (size 9 to 14) (size 15 to 20)
#    0.000    0.667    3.333    7.000    0.000    0.000 
#    9.000    0.000    0.000    0.000    0.000    0.000 
#    0.000    0.000    0.000    0.000    0.000    0.000 
#
# Total GULP energy -67094.089696 kJ/mol
# GULP energy per Si atom -5591.174141 kJ/mol
# Density = 2.083613 g / cm^3
# Si number density = 20.883658 Si / 1000 Ang^3
#
#
#
# Elastic Constant Matrix: (Units=GPa)
#
#
# Indices 1 2 3 4 5 6 
#
# 1 105.4862 51.3662 106.6037 0.0000 -49.9290 0.0000
# 2 51.3662 160.1686 114.8793 0.0000 -43.9984 0.0000
# 3 106.6037 114.8793 271.1877 0.0000 -82.3482 0.0000
# 4 0.0000 0.0000 0.0000 44.3383 0.0000 3.4596
# 5 -49.9290 -43.9984 -82.3482 0.0000 53.5834 0.0000
# 6 0.0000 0.0000 0.0000 3.4596 0.0000 32.6830
#
#
#
# Elastic Compliance Matrix: (Units=1/GPa)
#
#
# Indices 1 2 3 4 5 6 
#
# 1 0.018943 -0.000106 -0.003878 0.000000 0.011605 0.000000
# 2 -0.000106 0.009209 -0.002987 0.000000 0.002872 0.000000
# 3 -0.003878 -0.002987 0.008691 0.000000 0.007290 0.000000
# 4 0.000000 0.000000 0.000000 0.022742 0.000000 -0.002407
# 5 0.011605 0.002872 0.007290 0.000000 0.043038 0.000000
# 6 0.000000 0.000000 0.000000 -0.002407 0.000000 0.030852
#
#
# Mechanical properties :
#
#
# Convention : Reuss Voigt Hill
#
# Bulk Modulus (GPa) = 43.66604 120.28235 81.97419
# Shear Modulus (GPa) = 32.24756 43.72051 37.98403
#
# Velocity S-wave (km/s) = 3.93383 4.58047 4.26941
# Velocity P-wave (km/s) = 6.44887 9.25720 7.97758
#
# Compressibility (1/GPa) = 0.02290109
#
# Stress axis : x y z
#
# Youngs Moduli (GPa) = 52.78950 108.59007 115.06027
#
# Poissons Ratio (x) = 0.01151 0.44618
# Poissons Ratio (y) = 0.00559 0.34372
# Poissons Ratio (z) = 0.20471 0.32439
#
# Static dielectric constant tensor:
#      x y z
#    x 1.761170 0.000000 -0.003720 
#    y 0.000000 1.720780 0.000000 
#    z -0.003720 0.000000 1.748880 
# 
# From -- ./inp_files/15952.got.cif
#   From: 2010.05.17/outbox.cif.g08.bks.cpg/sg4_8_cif.got.tgz:15952.got - 2010.06.03 18:43:04.
