data_PCOD9115101
_publ_section_title
;
Structure prediction by ZEFSAII (Michael W. Deem and Ramdas Pophale) SiO2 
 PCOD9115101
Probable space group: P 21
;
_chemical_formula_sum "Si O2"
_cell_formula_units_Z 14
_cell_length_a 7.422221
_cell_length_b 5.906046
_cell_length_c 12.027978
_cell_angle_alpha 90.000000
_cell_angle_beta 78.531030
_cell_angle_gamma 90.000000
_cell_volume 516.730177
_symmetry_space_group_name_H-M "P 21"
_symmetry_group_IT_number 4
_symmetry_cell_setting 'monoclinic'
loop_
_space_group_symop_operation_xyz
x,y,z
-x,1/2+y,-z
loop_
_atom_site_type_symbol
_atom_site_label
_atom_site_fract_x
_atom_site_fract_y
_atom_site_fract_z
Si Si1 0.735141 0.088160 0.278288
Si Si2 0.127439 0.340521 0.374285
Si Si3 0.243172 0.088161 0.733793
Si Si4 0.408480 0.088160 0.139786
Si Si5 0.422538 0.588160 0.127795
Si Si6 0.573812 0.088161 0.546148
Si Si7 0.872562 0.335800 0.625717
O O1 0.834994 0.331328 0.248894
O O2 0.654267 0.088161 0.413243
O O3 0.331302 0.796379 0.400186
O O4 0.834995 0.844993 0.248894
O O5 0.115850 0.088161 0.328225
O O6 0.331303 0.379944 0.400185
O O7 0.000001 0.338160 0.500001
O O8 0.082629 0.588160 0.327978
O O9 0.429181 0.588159 0.790179
O O10 0.401285 0.088160 0.811772
O O11 0.361912 0.088162 0.604385
O O12 0.322577 0.343788 0.157270
O O13 0.322576 0.832532 0.157271
O O14 0.502608 0.088160 0.006612
#
# Coordination Sequence:
#
# PCOD9115101 Si02
#       7
#     2   2   2   2   2   2   2
#     4  10  20  28  37  58  83 109 134 151 183 234
#     4   8  16  28  41  55  71  99 130 164 191 223
#     4  10  20  28  37  58  83 109 134 151 183 234
#     4   8  14  26  40  51  69  99 133 164 184 205
#     4   8  14  26  40  51  69  99 133 164 184 205
#     4  10  20  26  44  54  86 106 126 156 200 226
#     4   8  16  28  41  55  71  99 130 164 191 223
#
# _framework density 27.093444999999999
#
# number of rings (size 3 to 8) (size 9 to 14) (size 15 to 20)
#    0.857    2.286    0.000    0.857    4.000    0.000 
#    0.000    0.000    0.000    0.000    0.000    0.000 
#    0.000    2.286    0.000    0.000    0.000    5.143 
#
# Total GULP energy -78120.230277 kJ/mol
# GULP energy per Si atom -5580.016448 kJ/mol
# Density = 2.703178 g / cm^3
# Si number density = 27.093445 Si / 1000 Ang^3
#
#
#
# Elastic Constant Matrix: (Units=GPa)
#
#
# Indices 1 2 3 4 5 6 
#
# 1 29.5039 91.3967 -5.3327 0.0000 2.4634 0.0000
# 2 91.3967 394.3225 57.7125 0.0000 -5.9914 0.0000
# 3 -5.3327 57.7125 138.4735 0.0000 8.5043 0.0000
# 4 0.0000 0.0000 0.0000 60.2206 0.0000 3.3551
# 5 2.4634 -5.9914 8.5043 0.0000 12.1053 0.0000
# 6 0.0000 0.0000 0.0000 3.3551 0.0000 74.5473
#
#
#
# Elastic Compliance Matrix: (Units=1/GPa)
#
#
# Indices 1 2 3 4 5 6 
#
# 1 0.308555 -0.081661 0.054612 0.000000 -0.141575 0.000000
# 2 -0.081661 0.024372 -0.015743 0.000000 0.039740 0.000000
# 3 0.054612 -0.015743 0.017816 0.000000 -0.031421 0.000000
# 4 0.000000 0.000000 0.000000 0.016647 0.000000 -0.000749
# 5 -0.141575 0.039740 -0.031421 0.000000 0.153163 0.000000
# 6 0.000000 0.000000 0.000000 -0.000749 0.000000 0.013448
#
#
# Mechanical properties :
#
#
# Convention : Reuss Voigt Hill
#
# Bulk Modulus (GPa) = 3.77135 94.42809 49.09972
# Shear Modulus (GPa) = 7.06244 57.27620 32.16932
#
# Velocity S-wave (km/s) = 1.61628 4.60284 3.44953
# Velocity P-wave (km/s) = 2.20865 7.94837 5.83330
#
# Compressibility (1/GPa) = 0.26515723
#
# Stress axis : x y z
#
# Youngs Moduli (GPa) = 3.24091 41.03147 56.13017
#
# Poissons Ratio (x) = 3.35069 -3.06537
# Poissons Ratio (y) = 0.26466 0.88365
# Poissons Ratio (z) = -0.17699 0.64596
#
# Static dielectric constant tensor:
#      x y z
#    x 2.824710 0.000000 0.383470 
#    y 0.000000 2.233280 0.000000 
#    z 0.383470 0.000000 2.362670 
# 
# From -- ./inp_files/13528.got.cif
#   From: 2010.05.17/outbox.cif.g08.bks.cpg/sg4_7_cif.got.tgz:13528.got - 2010.06.03 18:43:04.
