data_PCOD9115528
_publ_section_title
;
Structure prediction by ZEFSAII (Michael W. Deem and Ramdas Pophale) SiO2 
 PCOD9115528
Probable space group: P 21
;
_chemical_formula_sum "Si O2"
_cell_formula_units_Z 16
_cell_length_a 13.958009
_cell_length_b 8.089484
_cell_length_c 9.064846
_cell_angle_alpha 90.000000
_cell_angle_beta 132.979066
_cell_angle_gamma 90.000000
_cell_volume 748.824600
_symmetry_space_group_name_H-M "P 21"
_symmetry_group_IT_number 4
_symmetry_cell_setting 'monoclinic'
loop_
_space_group_symop_operation_xyz
x,y,z
-x,1/2+y,-z
loop_
_atom_site_type_symbol
_atom_site_label
_atom_site_fract_x
_atom_site_fract_y
_atom_site_fract_z
Si Si1 0.024427 0.230670 0.971461
Si Si2 0.332353 0.043167 0.024360
Si Si3 0.596921 0.733484 0.173248
Si Si4 0.390055 0.429142 0.554204
Si Si5 0.276787 0.387877 0.133752
Si Si6 0.682995 0.081259 0.110741
Si Si7 0.850857 0.107750 0.552105
Si Si8 0.082231 0.901149 0.885748
O O1 0.927327 0.243208 0.728825
O O2 0.951616 0.246057 0.049809
O O3 0.086106 0.049610 0.011955
O O4 0.140625 0.362168 0.077328
O O5 0.216803 0.915751 0.939980
O O6 0.470631 0.988841 0.237902
O O7 0.342301 0.088935 0.862187
O O8 0.297868 0.217099 0.067513
O O9 0.441742 0.700111 0.009104
O O10 0.638276 0.758539 0.386373
O O11 0.636267 0.906851 0.137449
O O12 0.384404 0.411235 0.373673
O O13 0.276112 0.553551 0.487246
O O14 0.280830 0.531708 0.017160
O O15 0.800440 0.145123 0.336402
O O16 0.956430 0.957077 0.657557
#
# Coordination Sequence:
#
# PCOD9115528 Si02
#       8
#     2   2   2   2   2   2   2   2
#     4   9  18  38  62  89 119 164 204 259 304 362
#     4  10  21  38  60  92 124 159 207 258 297 376
#     4  10  20  40  61  88 124 161 199 256 311 366
#     4  11  21  38  65  89 122 165 202 253 322 358
#     4  10  21  37  64  88 128 160 206 256 314 360
#     4  10  21  40  63  86 127 164 208 254 314 371
#     4   9  19  38  66  76 125 171 197 245 321 357
#     4   9  19  37  65  86 129 158 207 259 301 362
#
# _framework density 21.366817000000001
#
# number of rings (size 3 to 8) (size 9 to 14) (size 15 to 20)
#    0.750    1.500    3.750    0.000    1.750    1.000 
#    2.250    1.250    8.250    0.000    0.000    0.000 
#    0.000    0.000    0.000    0.000    0.000    0.000 
#
# Total GULP energy -89188.191397 kJ/mol
# GULP energy per Si atom -5574.261962 kJ/mol
# Density = 2.131819 g / cm^3
# Si number density = 21.366817 Si / 1000 Ang^3
#
#
#
# Elastic Constant Matrix: (Units=GPa)
#
#
# Indices 1 2 3 4 5 6 
#
# 1 82.9133 1.7772 16.8358 0.0000 8.5673 0.0000
# 2 1.7772 39.8331 3.3864 0.0000 0.0415 0.0000
# 3 16.8358 3.3864 90.1612 0.0000 -12.2811 0.0000
# 4 0.0000 0.0000 0.0000 30.5889 0.0000 -3.0855
# 5 8.5673 0.0415 -12.2811 0.0000 40.0981 0.0000
# 6 0.0000 0.0000 0.0000 -3.0855 0.0000 26.4754
#
#
#
# Elastic Compliance Matrix: (Units=1/GPa)
#
#
# Indices 1 2 3 4 5 6 
#
# 1 0.013042 -0.000329 -0.002925 0.000000 -0.003682 0.000000
# 2 -0.000329 0.025198 -0.000917 0.000000 -0.000237 0.000000
# 3 -0.002925 -0.000917 0.012269 0.000000 0.004383 0.000000
# 4 0.000000 0.000000 0.000000 0.033080 0.000000 0.003855
# 5 -0.003682 -0.000237 0.004383 0.000000 0.027068 0.000000
# 6 0.000000 0.000000 0.000000 0.003855 0.000000 0.038220
#
#
# Mechanical properties :
#
#
# Convention : Reuss Voigt Hill
#
# Bulk Modulus (GPa) = 23.71550 28.54518 26.13034
# Shear Modulus (GPa) = 29.19279 32.15971 30.67625
#
# Velocity S-wave (km/s) = 3.70032 3.88380 3.79317
# Velocity P-wave (km/s) = 5.42031 5.78796 5.60715
#
# Compressibility (1/GPa) = 0.04216651
#
# Stress axis : x y z
#
# Youngs Moduli (GPa) = 76.67457 39.68624 81.50716
#
# Poissons Ratio (x) = 0.01307 0.23837
# Poissons Ratio (y) = 0.02526 0.07475
# Poissons Ratio (z) = 0.22424 0.03640
#
# Static dielectric constant tensor:
#      x y z
#    x 1.819040 0.000000 -0.019690 
#    y 0.000000 1.832220 0.000000 
#    z -0.019690 0.000000 1.745340 
# 
# From -- ./inp_files/9258.got.cif
#   From: 2010.05.17/outbox.cif.g08.bks.cpg/sg4_5_cif.got.tgz:9258.got - 2010.06.03 18:43:04.
