data_PCOD9115231
_publ_section_title
;
Structure prediction by ZEFSAII (Michael W. Deem and Ramdas Pophale) SiO2 
 PCOD9115231
Probable space group: P 21
;
_chemical_formula_sum "Si O2"
_cell_formula_units_Z 16
_cell_length_a 19.129098
_cell_length_b 5.505619
_cell_length_c 10.833573
_cell_angle_alpha 90.000000
_cell_angle_beta 32.248012
_cell_angle_gamma 90.000000
_cell_volume 608.802058
_symmetry_space_group_name_H-M "P 21"
_symmetry_group_IT_number 4
_symmetry_cell_setting 'monoclinic'
loop_
_space_group_symop_operation_xyz
x,y,z
-x,1/2+y,-z
loop_
_atom_site_type_symbol
_atom_site_label
_atom_site_fract_x
_atom_site_fract_y
_atom_site_fract_z
Si Si1 0.968370 0.917590 0.117151
Si Si2 0.872448 0.407089 0.536925
Si Si3 0.251914 0.401456 0.366592
Si Si4 0.869454 0.742896 0.968264
Si Si5 0.562954 0.061444 0.298323
Si Si6 0.242170 0.932124 0.065663
Si Si7 0.634343 0.934798 0.461225
Si Si8 0.448130 0.192637 0.903780
O O1 0.823077 0.875495 0.390237
O O2 0.017024 0.675190 0.977020
O O3 0.071358 0.988070 0.070832
O O4 0.822598 0.682937 0.593918
O O5 0.884176 0.366231 0.666049
O O6 0.785612 0.176149 0.616962
O O7 0.006675 0.389569 0.263126
O O8 0.401806 0.320623 0.101595
O O9 0.781229 0.891022 0.196293
O O10 0.783081 0.658717 0.983026
O O11 0.428006 0.168170 0.443303
O O12 0.548640 0.018998 0.467097
O O13 0.693543 0.222695 0.107713
O O14 0.588734 0.876433 0.149516
O O15 0.353467 0.970062 0.006172
O O16 0.590872 0.091894 0.646132
#
# Coordination Sequence:
#
# PCOD9115231 Si02
#       8
#     2   2   2   2   2   2   2   2
#     4  11  25  48  70  95 125 165 226 296 357 396
#     4  10  22  38  59  95 137 171 213 261 324 398
#     4  10  21  43  68  94 124 173 220 266 334 404
#     4  11  24  39  60  95 130 175 219 275 335 400
#     4  11  18  33  54  83 136 178 208 243 292 376
#     4  10  21  34  56  89 133 175 211 254 308 390
#     4  11  21  33  53  93 133 179 222 249 306 382
#     4  10  20  36  58  90 136 176 211 250 300 392
#
# _framework density 26.281120999999999
#
# number of rings (size 3 to 8) (size 9 to 14) (size 15 to 20)
#    0.000    1.500    3.750    2.250    0.000    8.000 
#    0.000    0.000    0.000    0.000    3.250    0.000 
#    0.000    0.000    0.000    0.000    0.000    0.000 
#
# Total GULP energy -89127.059853 kJ/mol
# GULP energy per Si atom -5570.441241 kJ/mol
# Density = 2.622130 g / cm^3
# Si number density = 26.281121 Si / 1000 Ang^3
#
#
#
# Elastic Constant Matrix: (Units=GPa)
#
#
# Indices 1 2 3 4 5 6 
#
# 1 21.9739 -0.6079 26.0942 0.0000 -0.1964 0.0000
# 2 -0.6079 57.9945 34.9743 0.0000 -5.7735 0.0000
# 3 26.0942 34.9743 212.4922 0.0000 17.4456 0.0000
# 4 0.0000 0.0000 0.0000 59.6167 0.0000 12.2822
# 5 -0.1964 -5.7735 17.4456 0.0000 43.2196 0.0000
# 6 0.0000 0.0000 0.0000 12.2822 0.0000 29.2091
#
#
#
# Elastic Compliance Matrix: (Units=1/GPa)
#
#
# Indices 1 2 3 4 5 6 
#
# 1 0.055360 0.005911 -0.008126 0.000000 0.004321 0.000000
# 2 0.005911 0.020453 -0.004467 0.000000 0.004562 0.000000
# 3 -0.008126 -0.004467 0.006714 0.000000 -0.003344 0.000000
# 4 0.000000 0.000000 0.000000 0.018365 0.000000 -0.007722
# 5 0.004321 0.004562 -0.003344 0.000000 0.025116 0.000000
# 6 0.000000 0.000000 0.000000 -0.007722 0.000000 0.037483
#
#
# Mechanical properties :
#
#
# Convention : Reuss Voigt Hill
#
# Bulk Modulus (GPa) = 14.45854 45.93132 30.19493
# Shear Modulus (GPa) = 25.01136 41.87573 33.44355
#
# Velocity S-wave (km/s) = 3.08829 3.99604 3.57113
# Velocity P-wave (km/s) = 4.26968 6.22945 5.34023
#
# Compressibility (1/GPa) = 0.06916328
#
# Stress axis : x y z
#
# Youngs Moduli (GPa) = 18.06345 48.89284 148.95084
#
# Poissons Ratio (x) = -0.28900 1.21037
# Poissons Ratio (y) = -0.10677 0.66533
# Poissons Ratio (z) = 0.14678 0.21839
#
# Static dielectric constant tensor:
#      x y z
#    x 2.200500 0.000000 -0.012070 
#    y 0.000000 2.185950 0.000000 
#    z -0.012070 0.000000 2.235310 
# 
# From -- ./inp_files/12432.got.cif
#   From: 2010.05.17/outbox.cif.g08.bks.cpg/sg4_7_cif.got.tgz:12432.got - 2010.06.03 18:43:04.
