data_PCOD9115535
_publ_section_title
;
Structure prediction by ZEFSAII (Michael W. Deem and Ramdas Pophale) SiO2 
 PCOD9115535
Probable space group: P 21
;
_chemical_formula_sum "Si O2"
_cell_formula_units_Z 12
_cell_length_a 23.216790
_cell_length_b 4.980834
_cell_length_c 9.632464
_cell_angle_alpha 90.000000
_cell_angle_beta 147.886265
_cell_angle_gamma 90.000000
_cell_volume 592.144835
_symmetry_space_group_name_H-M "P 21"
_symmetry_group_IT_number 4
_symmetry_cell_setting 'monoclinic'
loop_
_space_group_symop_operation_xyz
x,y,z
-x,1/2+y,-z
loop_
_atom_site_type_symbol
_atom_site_label
_atom_site_fract_x
_atom_site_fract_y
_atom_site_fract_z
Si Si1 0.935819 0.180310 0.486319
Si Si2 0.610173 0.472646 0.839377
Si Si3 0.819763 0.682791 0.394664
Si Si4 0.929895 0.919076 0.880125
Si Si5 0.369308 0.466911 0.310561
Si Si6 0.866921 0.989330 0.057759
O O1 0.886396 0.434586 0.466700
O O2 0.064318 0.215636 0.775212
O O3 0.865648 0.930046 0.397638
O O4 0.916008 0.175303 0.280224
O O5 0.484249 0.505312 0.621938
O O6 0.627660 0.668616 0.744338
O O7 0.631886 0.176189 0.821929
O O8 0.696681 0.584736 0.124854
O O9 0.845820 0.778398 0.603691
O O10 0.887466 0.040631 0.937699
O O11 0.012631 0.672330 0.075853
O O12 0.260684 0.490244 0.175980
#
# Coordination Sequence:
#
# PCOD9115535 Si02
#       6
#     2   2   2   2   2   2
#     4  12  25  36  67  95 133 166 223 273 327 387
#     4  10  20  40  62  94 126 164 224 267 340 363
#     4  12  21  44  61  95 132 181 212 268 333 407
#     4  12  26  42  61  93 140 180 211 260 343 408
#     4  10  22  36  66  94 124 166 216 290 310 385
#     4  12  24  42  63 103 133 169 224 272 333 388
#
# _framework density 20.265314
#
# number of rings (size 3 to 8) (size 9 to 14) (size 15 to 20)
#    0.000    0.667    6.667    1.000    0.000    4.000 
#    0.000    0.000    0.000   10.000    0.000    0.000 
#    0.000    0.000    0.000    0.000    0.000    0.000 
#
# Total GULP energy -66935.534937 kJ/mol
# GULP energy per Si atom -5577.961245 kJ/mol
# Density = 2.021919 g / cm^3
# Si number density = 20.265314 Si / 1000 Ang^3
#
#
#
# Elastic Constant Matrix: (Units=GPa)
#
#
# Indices 1 2 3 4 5 6 
#
# 1 111.3580 10.8174 69.8859 0.0000 5.6054 0.0000
# 2 10.8174 92.9397 5.1738 0.0000 1.6076 0.0000
# 3 69.8859 5.1738 133.8231 0.0000 11.3034 0.0000
# 4 0.0000 0.0000 0.0000 27.7319 0.0000 0.4850
# 5 5.6054 1.6076 11.3034 0.0000 43.5454 0.0000
# 6 0.0000 0.0000 0.0000 0.4850 0.0000 21.8738
#
#
#
# Elastic Compliance Matrix: (Units=1/GPa)
#
#
# Indices 1 2 3 4 5 6 
#
# 1 0.013487 -0.001182 -0.007008 0.000000 0.000127 0.000000
# 2 -0.001182 0.010890 0.000222 0.000000 -0.000308 0.000000
# 3 -0.007008 0.000222 0.011296 0.000000 -0.002038 0.000000
# 4 0.000000 0.000000 0.000000 0.036074 0.000000 -0.000800
# 5 0.000127 -0.000308 -0.002038 0.000000 0.023489 0.000000
# 6 0.000000 0.000000 0.000000 -0.000800 0.000000 0.045735
#
#
# Mechanical properties :
#
#
# Convention : Reuss Voigt Hill
#
# Bulk Modulus (GPa) = 50.66577 56.65280 53.65929
# Shear Modulus (GPa) = 30.58406 35.44646 33.01526
#
# Velocity S-wave (km/s) = 3.88903 4.18679 4.04065
# Velocity P-wave (km/s) = 6.72470 7.16857 6.95018
#
# Compressibility (1/GPa) = 0.01973719
#
# Stress axis : x y z
#
# Youngs Moduli (GPa) = 74.14792 91.82591 88.52774
#
# Poissons Ratio (x) = 0.10852 0.62041
# Poissons Ratio (y) = 0.08763 -0.01966
# Poissons Ratio (z) = 0.51963 -0.02040
#
# Static dielectric constant tensor:
#      x y z
#    x 1.717800 0.000000 0.007120 
#    y 0.000000 1.739170 0.000000 
#    z 0.007120 0.000000 1.813910 
# 
# From -- ./inp_files/9787.got.cif
#   From: 2010.05.17/outbox.cif.g08.bks.cpg/sg4_5_cif.got.tgz:9787.got - 2010.06.03 18:43:04.
