data_PCOD9115008
_publ_section_title
;
Structure prediction by ZEFSAII (Michael W. Deem and Ramdas Pophale) SiO2 
 PCOD9115008
Probable space group: P 21
;
_chemical_formula_sum "Si O2"
_cell_formula_units_Z 16
_cell_length_a 18.711466
_cell_length_b 5.383267
_cell_length_c 6.677343
_cell_angle_alpha 90.000000
_cell_angle_beta 76.400392
_cell_angle_gamma 90.000000
_cell_volume 653.742891
_symmetry_space_group_name_H-M "P 21"
_symmetry_group_IT_number 4
_symmetry_cell_setting 'monoclinic'
loop_
_space_group_symop_operation_xyz
x,y,z
-x,1/2+y,-z
loop_
_atom_site_type_symbol
_atom_site_label
_atom_site_fract_x
_atom_site_fract_y
_atom_site_fract_z
Si Si1 0.097165 0.972920 0.289899
Si Si2 0.340833 0.996869 0.126981
Si Si3 0.226827 0.727475 0.462889
Si Si4 0.589330 0.291694 0.315766
Si Si5 0.211929 0.334522 0.198184
Si Si6 0.170788 0.680366 0.897492
Si Si7 0.588076 0.785151 0.565616
Si Si8 0.973229 0.928119 0.127345
O O1 0.150628 0.838171 0.414621
O O2 0.010189 0.939257 0.325163
O O3 0.127303 0.251230 0.265748
O O4 0.123404 0.867380 0.058442
O O5 0.268189 0.130071 0.088636
O O6 0.384356 0.207740 0.227316
O O7 0.300213 0.825582 0.314862
O O8 0.381702 0.838586 0.930418
O O9 0.228980 0.436764 0.406682
O O10 0.220773 0.792877 0.695730
O O11 0.609159 0.546791 0.417379
O O12 0.500486 0.289173 0.362467
O O13 0.609725 0.039894 0.429519
O O14 0.218478 0.546103 0.031738
O O15 0.112991 0.493192 0.828345
O O16 0.990398 0.660342 0.019227
#
# Coordination Sequence:
#
# PCOD9115008 Si02
#       8
#     2   2   2   2   2   2   2   2
#     4   9  20  41  60  90 131 171 230 288 349 422
#     4  11  26  45  74 103 147 195 238 295 369 431
#     4  10  24  42  61 103 133 181 237 285 354 429
#     4  10  25  48  75 112 149 190 242 307 360 435
#     4  10  22  42  63  95 137 179 229 287 348 428
#     4  10  21  41  67  91 137 178 230 296 350 418
#     4  10  25  47  77 112 148 189 248 297 368 440
#     4  10  19  38  69  96 124 181 230 285 368 413
#
# _framework density 24.474449
#
# number of rings (size 3 to 8) (size 9 to 14) (size 15 to 20)
#    0.000    2.000    1.250    0.000    3.500    9.000 
#    2.250    0.000    0.000    0.000    0.000    0.000 
#    0.000    0.000    0.000    0.000    0.000    0.000 
#
# Total GULP energy -89239.647053 kJ/mol
# GULP energy per Si atom -5577.477941 kJ/mol
# Density = 2.441874 g / cm^3
# Si number density = 24.474449 Si / 1000 Ang^3
#
#
#
# Elastic Constant Matrix: (Units=GPa)
#
#
# Indices 1 2 3 4 5 6 
#
# 1 63.6455 22.6905 26.8605 0.0000 7.9259 0.0000
# 2 22.6905 114.4199 42.1497 0.0000 4.1034 0.0000
# 3 26.8605 42.1497 113.7202 0.0000 -12.7617 0.0000
# 4 0.0000 0.0000 0.0000 25.4358 0.0000 7.7220
# 5 7.9259 4.1034 -12.7617 0.0000 30.8485 0.0000
# 6 0.0000 0.0000 0.0000 7.7220 0.0000 39.4836
#
#
#
# Elastic Compliance Matrix: (Units=1/GPa)
#
#
# Indices 1 2 3 4 5 6 
#
# 1 0.019119 -0.001879 -0.004554 0.000000 -0.006546 0.000000
# 2 -0.001879 0.010586 -0.003758 0.000000 -0.002480 0.000000
# 3 -0.004554 -0.003758 0.012007 0.000000 0.006637 0.000000
# 4 0.000000 0.000000 0.000000 0.041796 0.000000 -0.008174
# 5 -0.006546 -0.002480 0.006637 0.000000 0.037174 0.000000
# 6 0.000000 0.000000 0.000000 -0.008174 0.000000 0.026926
#
#
# Mechanical properties :
#
#
# Convention : Reuss Voigt Hill
#
# Bulk Modulus (GPa) = 46.88365 52.79855 49.84110
# Shear Modulus (GPa) = 28.55519 32.49259 30.52389
#
# Velocity S-wave (km/s) = 3.41946 3.64759 3.53537
# Velocity P-wave (km/s) = 5.89813 6.27373 6.08883
#
# Compressibility (1/GPa) = 0.02132940
#
# Stress axis : x y z
#
# Youngs Moduli (GPa) = 52.30359 94.46731 83.28580
#
# Poissons Ratio (x) = 0.17752 0.37929
# Poissons Ratio (y) = 0.09828 0.31299
# Poissons Ratio (z) = 0.23819 0.35500
#
# Static dielectric constant tensor:
#      x y z
#    x 2.021240 0.000000 0.060170 
#    y 0.000000 2.037290 0.000000 
#    z 0.060170 0.000000 1.976500 
# 
# From -- ./inp_files/4239.got.cif
#   From: 2010.05.17/outbox.cif.g08.bks.cpg/sg4_3_cif.got.tgz:4239.got - 2010.06.03 18:43:04.
