data_PCOD9115821
_publ_section_title
;
Structure prediction by ZEFSAII (Michael W. Deem and Ramdas Pophale) SiO2 
 PCOD9115821
Probable space group: P 21
;
_chemical_formula_sum "Si O2"
_cell_formula_units_Z 16
_cell_length_a 26.157768
_cell_length_b 5.330559
_cell_length_c 20.821180
_cell_angle_alpha 90.000000
_cell_angle_beta 11.895012
_cell_angle_gamma 90.000000
_cell_volume 598.407187
_symmetry_space_group_name_H-M "P 21"
_symmetry_group_IT_number 4
_symmetry_cell_setting 'monoclinic'
loop_
_space_group_symop_operation_xyz
x,y,z
-x,1/2+y,-z
loop_
_atom_site_type_symbol
_atom_site_label
_atom_site_fract_x
_atom_site_fract_y
_atom_site_fract_z
Si Si1 0.234268 0.467540 0.890852
Si Si2 0.157397 0.126911 0.304030
Si Si3 0.620105 0.450930 0.308855
Si Si4 0.186433 0.208562 0.126297
Si Si5 0.718319 0.668742 0.574077
Si Si6 0.666901 0.172797 0.716615
Si Si7 0.023636 0.384000 0.929422
Si Si8 0.552966 0.213697 0.221985
O O1 0.355977 0.462173 0.668975
O O2 0.381707 0.708883 0.734065
O O3 0.307857 0.192427 0.819114
O O4 0.956394 0.546580 0.244695
O O5 0.276200 0.199290 0.089240
O O6 0.976676 0.360223 0.539708
O O7 0.379934 0.109122 0.082178
O O8 0.829217 0.428162 0.108863
O O9 0.888440 0.193830 0.494823
O O10 0.293987 0.453381 0.957617
O O11 0.277426 0.956013 0.981734
O O12 0.658450 0.454290 0.698644
O O13 0.511976 0.694922 0.774248
O O14 0.752949 0.943729 0.563053
O O15 0.281338 0.279886 0.584432
O O16 0.057661 0.657226 0.922088
#
# Coordination Sequence:
#
# PCOD9115821 Si02
#       8
#     2   2   2   2   2   2   2   2
#     4  10  21  36  64  86 119 168 235 296 359 421
#     4  12  26  48  80 114 154 193 234 291 364 437
#     4  10  21  38  55  89 121 169 226 301 367 432
#     4  12  27  49  76 114 151 193 249 300 359 441
#     4  12  22  43  75 102 138 194 256 298 365 441
#     4  12  27  46  75 114 146 190 246 293 353 438
#     4  12  26  40  64  94 137 185 246 307 378 435
#     4  12  24  46  75  99 146 206 246 308 375 437
#
# _framework density 26.737649000000001
#
# number of rings (size 3 to 8) (size 9 to 14) (size 15 to 20)
#    0.000    0.500    3.750    4.500    1.750    4.000 
#    0.000    0.000    0.000    0.000    0.000    0.000 
#    0.000    0.000    0.000    0.000    0.000    0.000 
#
# Total GULP energy -89491.145543 kJ/mol
# GULP energy per Si atom -5593.196596 kJ/mol
# Density = 2.667679 g / cm^3
# Si number density = 26.737649 Si / 1000 Ang^3
#
#
#
# Elastic Constant Matrix: (Units=GPa)
#
#
# Indices 1 2 3 4 5 6 
#
# 1 68.9937 23.0158 7.3458 0.0000 -13.1606 0.0000
# 2 23.0158 206.5715 34.9627 0.0000 19.9920 0.0000
# 3 7.3458 34.9627 121.7961 0.0000 -5.9734 0.0000
# 4 0.0000 0.0000 0.0000 58.5077 0.0000 9.6668
# 5 -13.1606 19.9920 -5.9734 0.0000 46.3488 0.0000
# 6 0.0000 0.0000 0.0000 9.6668 0.0000 47.3997
#
#
#
# Elastic Compliance Matrix: (Units=1/GPa)
#
#
# Indices 1 2 3 4 5 6 
#
# 1 0.016367 -0.002367 -0.000030 0.000000 0.005664 0.000000
# 2 -0.002367 0.005710 -0.001661 0.000000 -0.003349 0.000000
# 3 -0.000030 -0.001661 0.008779 0.000000 0.001839 0.000000
# 4 0.000000 0.000000 0.000000 0.017688 0.000000 -0.003607
# 5 0.005664 -0.003349 0.001839 0.000000 0.024865 0.000000
# 6 0.000000 0.000000 0.000000 -0.003607 0.000000 0.021833
#
#
# Mechanical properties :
#
#
# Convention : Reuss Voigt Hill
#
# Bulk Modulus (GPa) = 43.97203 58.66777 51.31990
# Shear Modulus (GPa) = 45.07046 52.58703 48.82874
#
# Velocity S-wave (km/s) = 4.11013 4.43965 4.27806
# Velocity P-wave (km/s) = 6.24545 6.94768 6.60590
#
# Compressibility (1/GPa) = 0.02274173
#
# Stress axis : x y z
#
# Youngs Moduli (GPa) = 61.09745 175.13758 113.90653
#
# Poissons Ratio (x) = 0.41451 0.00341
# Poissons Ratio (y) = 0.14460 0.18915
# Poissons Ratio (z) = 0.00183 0.29083
#
# Static dielectric constant tensor:
#      x y z
#    x 2.187680 0.000000 0.051740 
#    y 0.000000 2.122180 0.000000 
#    z 0.051740 0.000000 2.093920 
# 
# From -- ./inp_files/16257.got.cif
#   From: 2010.05.17/outbox.cif.g08.bks.cpg/sg4_9_cif.got.tgz:16257.got - 2010.06.03 18:43:04.
