data_PCOD9115749
_publ_section_title
;
Structure prediction by ZEFSAII (Michael W. Deem and Ramdas Pophale) SiO2 
 PCOD9115749
Probable space group: P 21
;
_chemical_formula_sum "Si O2"
_cell_formula_units_Z 16
_cell_length_a 6.531301
_cell_length_b 19.264013
_cell_length_c 5.313153
_cell_angle_alpha 90.000000
_cell_angle_beta 100.327571
_cell_angle_gamma 90.000000
_cell_volume 657.665574
_symmetry_space_group_name_H-M "P 21"
_symmetry_group_IT_number 4
_symmetry_cell_setting 'monoclinic'
loop_
_space_group_symop_operation_xyz
x,y,z
-x,1/2+y,-z
loop_
_atom_site_type_symbol
_atom_site_label
_atom_site_fract_x
_atom_site_fract_y
_atom_site_fract_z
Si Si1 0.444366 0.340140 0.746968
Si Si2 0.875674 0.955611 0.257594
Si Si3 0.090681 0.567098 0.369279
Si Si4 0.772064 0.666380 0.057744
Si Si5 0.766486 0.437311 0.066319
Si Si6 0.033608 0.199853 0.402594
Si Si7 0.451748 0.554720 0.081838
Si Si8 0.648152 0.301267 0.284026
O O1 0.225598 0.380130 0.719704
O O2 0.607555 0.403864 0.822733
O O3 0.502568 0.307679 0.494018
O O4 0.508770 0.292913 0.000995
O O5 0.034024 0.952110 0.060759
O O6 0.957013 0.990854 0.532616
O O7 0.701693 0.011759 0.132116
O O8 0.321314 0.568118 0.305987
O O9 0.943285 0.603582 0.128435
O O10 0.045006 0.620829 0.583407
O O11 0.822087 0.710584 0.319730
O O12 0.552979 0.626355 0.008358
O O13 0.835436 0.705485 0.820943
O O14 0.641431 0.501235 0.159401
O O15 0.770032 0.373714 0.262663
O O16 0.827824 0.245480 0.357226
#
# Coordination Sequence:
#
# PCOD9115749 Si02
#       8
#     2   2   2   2   2   2   2   2
#     4   9  22  39  64  91 124 164 208 265 319 377
#     4  11  22  40  62  99 128 166 211 269 326 386
#     4  10  23  35  65  91 130 166 212 266 319 384
#     4  10  24  41  64  94 125 168 212 262 317 380
#     4   9  22  36  65  90 126 164 209 263 323 379
#     4  10  22  43  67  90 128 175 215 259 315 381
#     4  11  21  39  61  94 130 165 209 267 321 379
#     4  10  20  45  66  89 129 170 214 263 314 378
#
# _framework density 24.328474
#
# number of rings (size 3 to 8) (size 9 to 14) (size 15 to 20)
#    1.500    0.500    0.000    3.750    1.750    3.000 
#    0.000    2.500    0.000    0.000    0.000    0.000 
#    0.000    0.000    0.000    0.000    0.000    0.000 
#
# Total GULP energy -89358.690871 kJ/mol
# GULP energy per Si atom -5584.918179 kJ/mol
# Density = 2.427310 g / cm^3
# Si number density = 24.328474 Si / 1000 Ang^3
#
#
#
# Elastic Constant Matrix: (Units=GPa)
#
#
# Indices 1 2 3 4 5 6 
#
# 1 113.7333 20.3854 54.7043 0.0000 -18.8516 0.0000
# 2 20.3854 55.4260 17.8232 0.0000 -3.5034 0.0000
# 3 54.7043 17.8232 156.2660 0.0000 -31.7731 0.0000
# 4 0.0000 0.0000 0.0000 33.7493 0.0000 -1.7157
# 5 -18.8516 -3.5034 -31.7731 0.0000 44.7515 0.0000
# 6 0.0000 0.0000 0.0000 -1.7157 0.0000 54.6400
#
#
#
# Elastic Compliance Matrix: (Units=1/GPa)
#
#
# Indices 1 2 3 4 5 6 
#
# 1 0.011203 -0.002973 -0.003121 0.000000 0.002271 0.000000
# 2 -0.002973 0.019518 -0.001320 0.000000 -0.000662 0.000000
# 3 -0.003121 -0.001320 0.008595 0.000000 0.004684 0.000000
# 4 0.000000 0.000000 0.000000 0.029678 0.000000 0.000932
# 5 0.002271 -0.000662 0.004684 0.000000 0.026576 0.000000
# 6 0.000000 0.000000 0.000000 0.000932 0.000000 0.018331
#
#
# Mechanical properties :
#
#
# Convention : Reuss Voigt Hill
#
# Bulk Modulus (GPa) = 40.83665 56.80566 48.82115
# Shear Modulus (GPa) = 36.52529 42.12901 39.32715
#
# Velocity S-wave (km/s) = 3.87892 4.16585 4.02494
# Velocity P-wave (km/s) = 6.07316 6.82197 6.45843
#
# Compressibility (1/GPa) = 0.02448781
#
# Stress axis : x y z
#
# Youngs Moduli (GPa) = 89.26208 51.23417 116.34809
#
# Poissons Ratio (x) = 0.15233 0.36313
# Poissons Ratio (y) = 0.26540 0.15356
# Poissons Ratio (z) = 0.27859 0.06762
#
# Static dielectric constant tensor:
#      x y z
#    x 1.935870 0.000000 0.125420 
#    y 0.000000 2.015680 0.000000 
#    z 0.125420 0.000000 1.986080 
# 
# From -- ./inp_files/691.got.cif
#   From: 2010.05.17/outbox.cif.g08.bks.cpg/sg4_1_cif.got.tgz:691.got - 2010.06.03 18:43:04.
