data_PCOD9115591
_publ_section_title
;
Structure prediction by ZEFSAII (Michael W. Deem and Ramdas Pophale) SiO2 
 PCOD9115591
Probable space group: P 21
;
_chemical_formula_sum "Si O2"
_cell_formula_units_Z 16
_cell_length_a 6.722372
_cell_length_b 8.842807
_cell_length_c 13.465725
_cell_angle_alpha 90.000000
_cell_angle_beta 44.988584
_cell_angle_gamma 90.000000
_cell_volume 565.901548
_symmetry_space_group_name_H-M "P 21"
_symmetry_group_IT_number 4
_symmetry_cell_setting 'monoclinic'
loop_
_space_group_symop_operation_xyz
x,y,z
-x,1/2+y,-z
loop_
_atom_site_type_symbol
_atom_site_label
_atom_site_fract_x
_atom_site_fract_y
_atom_site_fract_z
Si Si1 0.722165 0.313540 0.201114
Si Si2 0.366868 0.043053 0.169325
Si Si3 0.844617 0.525275 0.345452
Si Si4 0.468916 0.333125 0.704195
Si Si5 0.079424 0.346851 0.450461
Si Si6 0.324817 0.723780 0.087798
Si Si7 0.174784 0.112457 0.952812
Si Si8 0.760268 0.016649 0.402870
O O1 0.793216 0.392271 0.282456
O O2 0.386849 0.281996 0.313223
O O3 0.820993 0.442720 0.088147
O O4 0.656223 0.401464 0.900209
O O5 0.455745 0.957415 0.238172
O O6 0.049454 0.106972 0.284740
O O7 0.593420 0.161609 0.048943
O O8 0.537298 0.597047 0.473061
O O9 0.982476 0.461734 0.397745
O O10 0.050760 0.648359 0.229052
O O11 0.256159 0.216280 0.829458
O O12 0.328607 0.415117 0.660177
O O13 0.780307 0.260648 0.572162
O O14 0.155618 0.419602 0.530030
O O15 0.565769 0.648747 0.068824
O O16 0.085845 0.670848 0.890933
#
# Coordination Sequence:
#
# PCOD9115591 Si02
#       8
#     2   2   2   2   2   2   2   2
#     4  11  24  44  71 107 141 187 229 285 346 418
#     4  10  23  43  68 104 144 183 228 286 345 416
#     4  10  20  40  71  98 132 181 234 283 346 405
#     4   9  20  41  68  98 132 177 234 284 341 409
#     4   9  19  43  70  95 136 177 232 288 343 406
#     4  11  23  44  70 102 145 185 228 284 349 413
#     4  11  25  44  69 105 144 182 235 282 345 418
#     4   9  20  39  71  97 132 178 234 284 347 403
#
# _framework density 28.273471000000001
#
# number of rings (size 3 to 8) (size 9 to 14) (size 15 to 20)
#    0.000    2.000    1.250    1.500    3.500    0.000 
#    2.250    7.500   19.250    0.000    0.000    0.000 
#    0.000    0.000    0.000    0.000    0.000    0.000 
#
# Total GULP energy -89812.357874 kJ/mol
# GULP energy per Si atom -5613.272367 kJ/mol
# Density = 2.820912 g / cm^3
# Si number density = 28.273471 Si / 1000 Ang^3
#
#
#
# Elastic Constant Matrix: (Units=GPa)
#
#
# Indices 1 2 3 4 5 6 
#
# 1 192.2579 49.9590 67.9739 0.0000 -2.7032 0.0000
# 2 49.9590 101.7195 74.2977 0.0000 -26.0187 0.0000
# 3 67.9739 74.2977 175.6768 0.0000 -32.0711 0.0000
# 4 0.0000 0.0000 0.0000 35.2061 0.0000 -2.1228
# 5 -2.7032 -26.0187 -32.0711 0.0000 62.0418 0.0000
# 6 0.0000 0.0000 0.0000 -2.1228 0.0000 50.4689
#
#
#
# Elastic Compliance Matrix: (Units=1/GPa)
#
#
# Indices 1 2 3 4 5 6 
#
# 1 0.006402 -0.002215 -0.001832 0.000000 -0.001597 0.000000
# 2 -0.002215 0.015573 -0.005029 0.000000 0.003835 0.000000
# 3 -0.001832 -0.005029 0.008975 0.000000 0.002451 0.000000
# 4 0.000000 0.000000 0.000000 0.028476 0.000000 0.001198
# 5 -0.001597 0.003835 0.002451 0.000000 0.018924 0.000000
# 6 0.000000 0.000000 0.000000 0.001198 0.000000 0.019865
#
#
# Mechanical properties :
#
#
# Convention : Reuss Voigt Hill
#
# Bulk Modulus (GPa) = 78.13254 94.90172 86.51713
# Shear Modulus (GPa) = 41.44796 48.03826 44.74311
#
# Velocity S-wave (km/s) = 3.83295 4.12643 3.98240
# Velocity P-wave (km/s) = 6.87628 7.50612 7.19809
#
# Compressibility (1/GPa) = 0.01279876
#
# Stress axis : x y z
#
# Youngs Moduli (GPa) = 156.19850 64.21385 111.41448
#
# Poissons Ratio (x) = 0.14221 0.20411
# Poissons Ratio (y) = 0.34593 0.56033
# Poissons Ratio (z) = 0.28616 0.32294
#
# Static dielectric constant tensor:
#      x y z
#    x 2.171070 0.000000 0.048730 
#    y 0.000000 2.182930 0.000000 
#    z 0.048730 0.000000 2.271530 
# 
# From -- ./inp_files/1656.got.cif
#   From: 2010.05.17/outbox.cif.g08.bks.cpg/sg4_1_cif.got.tgz:1656.got - 2010.06.03 18:43:04.
