data_PCOD9115899
_publ_section_title
;
Structure prediction by ZEFSAII (Michael W. Deem and Ramdas Pophale) SiO2 
 PCOD9115899
Probable space group: P 21
;
_chemical_formula_sum "Si O2"
_cell_formula_units_Z 16
_cell_length_a 13.516434
_cell_length_b 5.607096
_cell_length_c 20.775029
_cell_angle_alpha 90.000000
_cell_angle_beta 157.230156
_cell_angle_gamma 90.000000
_cell_volume 609.377993
_symmetry_space_group_name_H-M "P 21"
_symmetry_group_IT_number 4
_symmetry_cell_setting 'monoclinic'
loop_
_space_group_symop_operation_xyz
x,y,z
-x,1/2+y,-z
loop_
_atom_site_type_symbol
_atom_site_label
_atom_site_fract_x
_atom_site_fract_y
_atom_site_fract_z
Si Si1 0.562616 0.150140 0.848519
Si Si2 0.429491 0.166643 0.990931
Si Si3 0.363552 0.001953 0.460101
Si Si4 0.240267 0.494364 0.715991
Si Si5 0.770988 0.546729 0.885017
Si Si6 0.829233 0.017054 0.650443
Si Si7 0.049239 0.881517 0.142129
Si Si8 0.251995 0.783920 0.597684
O O1 0.484876 0.323585 0.858316
O O2 0.668041 0.300718 0.851856
O O3 0.313852 0.021322 0.674315
O O4 0.771147 0.967080 0.997216
O O5 0.133694 0.082435 0.831463
O O6 0.559887 0.929563 0.035643
O O7 0.648016 0.209010 0.176801
O O8 0.664585 0.009040 0.620128
O O9 0.299182 0.754740 0.457476
O O10 0.221729 0.959360 0.305941
O O11 0.251241 0.249849 0.422296
O O12 0.201734 0.577488 0.619358
O O13 0.994390 0.349862 0.591177
O O14 0.866201 0.525424 0.870182
O O15 0.527930 0.721044 0.735320
O O16 0.976946 0.634757 0.061603
#
# Coordination Sequence:
#
# PCOD9115899 Si02
#       8
#     2   2   2   2   2   2   2   2
#     4  10  21  38  60  90 125 165 212 263 322 388
#     4  12  29  47  70 100 138 186 226 281 345 404
#     4  10  23  40  74  93 127 169 221 279 326 376
#     4  11  23  42  69  93 130 168 227 276 320 400
#     4  10  22  36  55  91 134 162 203 253 322 408
#     4  10  23  48  65 100 123 167 233 276 319 396
#     4  11  21  36  59  93 126 169 197 259 326 389
#     4  10  22  39  64  96 123 172 215 269 332 377
#
# _framework density 26.25628
#
# number of rings (size 3 to 8) (size 9 to 14) (size 15 to 20)
#    0.000    1.500    2.500    1.500    8.750    1.000 
#    2.250    0.000    0.000    0.000    0.000    0.000 
#    0.000    0.000    0.000    0.000    0.000    0.000 
#
# Total GULP energy -89131.694768 kJ/mol
# GULP energy per Si atom -5570.730923 kJ/mol
# Density = 2.619652 g / cm^3
# Si number density = 26.256280 Si / 1000 Ang^3
#
#
#
# Elastic Constant Matrix: (Units=GPa)
#
#
# Indices 1 2 3 4 5 6 
#
# 1 62.4176 15.6883 43.3813 0.0000 1.8994 0.0000
# 2 15.6883 139.9538 17.3268 0.0000 13.5133 0.0000
# 3 43.3813 17.3268 117.5867 0.0000 24.6253 0.0000
# 4 0.0000 0.0000 0.0000 24.1947 0.0000 8.6613
# 5 1.8994 13.5133 24.6253 0.0000 34.3908 0.0000
# 6 0.0000 0.0000 0.0000 8.6613 0.0000 20.0025
#
#
#
# Elastic Compliance Matrix: (Units=1/GPa)
#
#
# Indices 1 2 3 4 5 6 
#
# 1 0.022925 -0.002005 -0.009484 0.000000 0.006313 0.000000
# 2 -0.002005 0.007635 0.000259 0.000000 -0.003074 0.000000
# 3 -0.009484 0.000259 0.013972 0.000000 -0.009582 0.000000
# 4 0.000000 0.000000 0.000000 0.048914 0.000000 -0.021180
# 5 0.006313 -0.003074 -0.009582 0.000000 0.036798 0.000000
# 6 0.000000 0.000000 0.000000 -0.021180 0.000000 0.059165
#
#
# Mechanical properties :
#
#
# Convention : Reuss Voigt Hill
#
# Bulk Modulus (GPa) = 45.31032 52.52789 48.91911
# Shear Modulus (GPa) = 22.80742 31.95502 27.38122
#
# Velocity S-wave (km/s) = 2.95048 3.49240 3.23281
# Velocity P-wave (km/s) = 5.37601 6.02592 5.71022
#
# Compressibility (1/GPa) = 0.02207003
#
# Stress axis : x y z
#
# Youngs Moduli (GPa) = 43.62116 130.97890 71.57158
#
# Poissons Ratio (x) = 0.26263 0.67880
# Poissons Ratio (y) = 0.08747 -0.01851
# Poissons Ratio (z) = 0.41371 -0.03387
#
# Static dielectric constant tensor:
#      x y z
#    x 2.121170 0.000000 -0.024740 
#    y 0.000000 2.208730 0.000000 
#    z -0.024740 0.000000 2.128740 
# 
# From -- ./inp_files/12483.got.cif
#   From: 2010.05.17/outbox.cif.g08.bks.cpg/sg4_7_cif.got.tgz:12483.got - 2010.06.03 18:43:04.
