data_PCOD9115138
_publ_section_title
;
Structure prediction by ZEFSAII (Michael W. Deem and Ramdas Pophale) SiO2 
 PCOD9115138
Probable space group: P 21
;
_chemical_formula_sum "Si O2"
_cell_formula_units_Z 12
_cell_length_a 8.263793
_cell_length_b 8.163044
_cell_length_c 9.022299
_cell_angle_alpha 90.000000
_cell_angle_beta 130.738554
_cell_angle_gamma 90.000000
_cell_volume 461.151279
_symmetry_space_group_name_H-M "P 21"
_symmetry_group_IT_number 4
_symmetry_cell_setting 'monoclinic'
loop_
_space_group_symop_operation_xyz
x,y,z
-x,1/2+y,-z
loop_
_atom_site_type_symbol
_atom_site_label
_atom_site_fract_x
_atom_site_fract_y
_atom_site_fract_z
Si Si1 0.028555 0.021030 0.433238
Si Si2 0.803676 0.681041 0.725305
Si Si3 0.405241 0.824720 0.327797
Si Si4 0.217776 0.688597 0.478618
Si Si5 0.647067 0.789115 0.910678
Si Si6 0.462967 0.128324 0.853474
O O1 0.009448 0.140536 0.279712
O O2 0.260392 0.069517 0.636212
O O3 0.865024 0.043952 0.468582
O O4 0.045002 0.833511 0.395555
O O5 0.638669 0.800915 0.541408
O O6 0.694163 0.501339 0.692461
O O7 0.837539 0.757435 0.908015
O O8 0.270101 0.686201 0.336597
O O9 0.429286 0.778446 0.171094
O O10 0.435877 0.747067 0.687362
O O11 0.621072 0.974127 0.948637
O O12 0.624483 0.674621 0.038834
#
# Coordination Sequence:
#
# PCOD9115138 Si02
#       6
#     2   2   2   2   2   2
#     4   9  19  33  51  75 101 128 164 204 245 293
#     4   9  17  31  50  73  99 130 167 205 242 292
#     4   9  17  31  50  73  99 130 167 205 242 292
#     4   9  19  33  51  75 101 128 164 204 245 293
#     4  10  20  34  52  76 101 130 167 207 248 295
#     4  10  20  34  52  76 101 130 167 207 248 295
#
# _framework density 26.021832
#
# number of rings (size 3 to 8) (size 9 to 14) (size 15 to 20)
#    0.000    2.667    0.000    4.000    0.000    8.000 
#    0.000    1.667    0.000    0.000    0.000    0.000 
#    0.000    0.000    0.000    0.000    0.000    0.000 
#
# Total GULP energy -67101.330484 kJ/mol
# GULP energy per Si atom -5591.777540 kJ/mol
# Density = 2.596260 g / cm^3
# Si number density = 26.021832 Si / 1000 Ang^3
#
#
#
# Elastic Constant Matrix: (Units=GPa)
#
#
# Indices 1 2 3 4 5 6 
#
# 1 87.8479 23.1173 32.4483 0.0000 -32.9402 0.0000
# 2 23.1173 77.2036 15.2470 0.0000 -16.1647 0.0000
# 3 32.4483 15.2470 86.5189 0.0000 -26.3347 0.0000
# 4 0.0000 0.0000 0.0000 28.0053 0.0000 -7.0900
# 5 -32.9402 -16.1647 -26.3347 0.0000 57.5782 0.0000
# 6 0.0000 0.0000 0.0000 -7.0900 0.0000 46.6265
#
#
#
# Elastic Compliance Matrix: (Units=1/GPa)
#
#
# Indices 1 2 3 4 5 6 
#
# 1 0.015891 -0.002663 -0.003428 0.000000 0.006776 0.000000
# 2 -0.002663 0.014366 -0.000894 0.000000 0.002101 0.000000
# 3 -0.003428 -0.000894 0.014322 0.000000 0.004338 0.000000
# 4 0.000000 0.000000 0.000000 0.037137 0.000000 0.005647
# 5 0.006776 0.002101 0.004338 0.000000 0.023818 0.000000
# 6 0.000000 0.000000 0.000000 0.005647 0.000000 0.022306
#
#
# Mechanical properties :
#
#
# Convention : Reuss Voigt Hill
#
# Bulk Modulus (GPa) = 32.66846 43.68842 38.17844
# Shear Modulus (GPa) = 32.89206 38.49253 35.69229
#
# Velocity S-wave (km/s) = 3.55916 3.85026 3.70757
# Velocity P-wave (km/s) = 5.42878 6.04910 5.74732
#
# Compressibility (1/GPa) = 0.03061056
#
# Stress axis : x y z
#
# Youngs Moduli (GPa) = 62.92918 69.60654 69.82332
#
# Poissons Ratio (x) = 0.18533 0.23937
# Poissons Ratio (y) = 0.16755 0.06239
# Poissons Ratio (z) = 0.21573 0.06220
#
# Static dielectric constant tensor:
#      x y z
#    x 2.092960 0.000000 0.012250 
#    y 0.000000 2.051770 0.000000 
#    z 0.012250 0.000000 2.059910 
# 
# From -- ./inp_files/5199.got.cif
#   From: 2010.05.17/outbox.cif.g08.bks.cpg/sg4_3_cif.got.tgz:5199.got - 2010.06.03 18:43:04.
