data_PCOD9115322
_publ_section_title
;
Structure prediction by ZEFSAII (Michael W. Deem and Ramdas Pophale) SiO2 
 PCOD9115322
Probable space group: P 21
;
_chemical_formula_sum "Si O2"
_cell_formula_units_Z 14
_cell_length_a 7.035954
_cell_length_b 5.431066
_cell_length_c 14.796893
_cell_angle_alpha 90.000000
_cell_angle_beta 72.769914
_cell_angle_gamma 90.000000
_cell_volume 540.054871
_symmetry_space_group_name_H-M "P 21"
_symmetry_group_IT_number 4
_symmetry_cell_setting 'monoclinic'
loop_
_space_group_symop_operation_xyz
x,y,z
-x,1/2+y,-z
loop_
_atom_site_type_symbol
_atom_site_label
_atom_site_fract_x
_atom_site_fract_y
_atom_site_fract_z
Si Si1 0.051548 0.388250 0.544263
Si Si2 0.027213 0.238036 0.295571
Si Si3 0.719052 0.498383 0.035950
Si Si4 0.179123 0.487226 0.016521
Si Si5 0.766378 0.998579 0.202879
Si Si6 0.302406 0.122656 0.637343
Si Si7 0.456615 0.406495 0.250636
O O1 0.266276 0.301486 0.556828
O O2 0.039872 0.634565 0.483344
O O3 0.937596 0.498179 0.647650
O O4 0.224921 0.392932 0.265944
O O5 0.837047 0.387423 0.361024
O O6 0.949018 0.165272 0.209079
O O7 0.717910 0.733630 0.969615
O O8 0.566561 0.495125 0.142342
O O9 0.726360 0.249762 0.974101
O O10 0.940464 0.494646 0.051554
O O11 0.225786 0.465609 0.903079
O O12 0.788156 0.763487 0.262786
O O13 0.561433 0.141129 0.252530
O O14 0.504436 0.042853 0.658541
#
# Coordination Sequence:
#
# PCOD9115322 Si02
#       7
#     2   2   2   2   2   2   2
#     4  11  22  43  70  88 122 164 199 246 316 377
#     4  10  22  38  66  93 123 160 202 255 310 361
#     4   9  17  30  55  85 117 164 207 257 295 355
#     4   9  16  31  54  82 119 166 212 245 306 347
#     4   9  19  35  58  86 124 165 209 251 296 365
#     4  10  20  38  67  89 119 164 199 252 302 369
#     4  10  20  37  62  95 124 157 214 252 303 362
#
# _framework density 25.923293000000001
#
# number of rings (size 3 to 8) (size 9 to 14) (size 15 to 20)
#    0.000    2.286    2.857    0.000    0.000    2.286 
#    0.000    0.000   15.714    0.000    0.000    0.000 
#    0.000    0.000    0.000    0.000    0.000    0.000 
#
# Total GULP energy -78058.357221 kJ/mol
# GULP energy per Si atom -5575.596944 kJ/mol
# Density = 2.586429 g / cm^3
# Si number density = 25.923293 Si / 1000 Ang^3
#
#
#
# Elastic Constant Matrix: (Units=GPa)
#
#
# Indices 1 2 3 4 5 6 
#
# 1 95.7909 4.4866 -20.7738 0.0000 -5.7849 0.0000
# 2 4.4866 146.2155 7.8367 0.0000 12.1848 0.0000
# 3 -20.7738 7.8367 37.0881 0.0000 8.1935 0.0000
# 4 0.0000 0.0000 0.0000 33.0140 0.0000 4.0935
# 5 -5.7849 12.1848 8.1935 0.0000 21.8154 0.0000
# 6 0.0000 0.0000 0.0000 4.0935 0.0000 4.9655
#
#
#
# Elastic Compliance Matrix: (Units=1/GPa)
#
#
# Indices 1 2 3 4 5 6 
#
# 1 0.011985 -0.000819 0.006634 0.000000 0.001144 0.000000
# 2 -0.000819 0.007245 -0.001142 0.000000 -0.003835 0.000000
# 3 0.006634 -0.001142 0.033140 0.000000 -0.010050 0.000000
# 4 0.000000 0.000000 0.000000 0.033739 0.000000 -0.027814
# 5 0.001144 -0.003835 -0.010050 0.000000 0.052059 0.000000
# 6 0.000000 0.000000 0.000000 -0.027814 0.000000 0.224318
#
#
# Mechanical properties :
#
#
# Convention : Reuss Voigt Hill
#
# Bulk Modulus (GPa) = 16.20333 29.13261 22.66797
# Shear Modulus (GPa) = 13.37925 31.12866 22.25395
#
# Velocity S-wave (km/s) = 2.27427 3.46901 2.93312
# Velocity P-wave (km/s) = 3.62773 5.22569 4.49824
#
# Compressibility (1/GPa) = 0.06171573
#
# Stress axis : x y z
#
# Youngs Moduli (GPa) = 83.43470 138.02370 30.17508
#
# Poissons Ratio (x) = 0.11299 -0.20017
# Poissons Ratio (y) = 0.06830 0.03447
# Poissons Ratio (z) = -0.55347 0.15766
#
# Static dielectric constant tensor:
#      x y z
#    x 2.008960 0.000000 0.006660 
#    y 0.000000 2.309430 0.000000 
#    z 0.006660 0.000000 2.036150 
# 
# From -- ./inp_files/3983.got.cif
#   From: 2010.05.17/outbox.cif.g08.bks.cpg/sg4_2_cif.got.tgz:3983.got - 2010.06.03 18:43:04.
