data_PCOD9115815
_publ_section_title
;
Structure prediction by ZEFSAII (Michael W. Deem and Ramdas Pophale) SiO2 
 PCOD9115815
Probable space group: P 21
;
_chemical_formula_sum "Si O2"
_cell_formula_units_Z 16
_cell_length_a 9.273011
_cell_length_b 5.192280
_cell_length_c 14.063251
_cell_angle_alpha 90.000000
_cell_angle_beta 66.551580
_cell_angle_gamma 90.000000
_cell_volume 621.201052
_symmetry_space_group_name_H-M "P 21"
_symmetry_group_IT_number 4
_symmetry_cell_setting 'monoclinic'
loop_
_space_group_symop_operation_xyz
x,y,z
-x,1/2+y,-z
loop_
_atom_site_type_symbol
_atom_site_label
_atom_site_fract_x
_atom_site_fract_y
_atom_site_fract_z
Si Si1 0.593167 0.820200 0.984406
Si Si2 0.860160 0.424233 0.615087
Si Si3 0.122687 0.125552 0.603689
Si Si4 0.589973 0.071398 0.633477
Si Si5 0.150463 0.574647 0.803077
Si Si6 0.380491 0.761883 0.590074
Si Si7 0.292391 0.089848 0.849212
Si Si8 0.137272 0.292392 0.223185
O O1 0.723335 0.907431 0.874534
O O2 0.493201 0.585175 0.964146
O O3 0.665666 0.672890 0.055712
O O4 0.871197 0.518362 0.504890
O O5 0.751240 0.169871 0.636799
O O6 0.792509 0.621332 0.709623
O O7 0.040941 0.397324 0.603582
O O8 0.281032 0.029862 0.611706
O O9 0.986890 0.991693 0.701282
O O10 0.590213 0.193812 0.526661
O O11 0.451832 0.125854 0.744894
O O12 0.539602 0.785741 0.610362
O O13 0.263884 0.581270 0.679946
O O14 0.168136 0.299201 0.845364
O O15 0.972790 0.625933 0.818539
O O16 0.221261 0.806349 0.848971
#
# Coordination Sequence:
#
# PCOD9115815 Si02
#       8
#     2   2   2   2   2   2   2   2
#     4  12  29  50  73 104 141 185 241 297 352 421
#     4  11  22  40  64 101 140 182 234 288 356 432
#     4  10  22  40  63  99 138 180 234 289 352 433
#     4  10  21  36  62  94 135 189 227 290 349 416
#     4  10  24  43  71 101 135 180 229 293 350 422
#     4   9  20  38  59  99 136 182 235 286 351 422
#     4  11  24  46  68 100 141 178 236 289 345 412
#     4  11  26  43  72  98 136 188 230 296 359 416
#
# _framework density 25.756557999999998
#
# number of rings (size 3 to 8) (size 9 to 14) (size 15 to 20)
#    0.000    1.500    1.250    2.250    8.750    2.000 
#    2.250    0.000    0.000    0.000    0.000    0.000 
#    0.000    0.000    0.000    0.000    0.000    0.000 
#
# Total GULP energy -89467.635920 kJ/mol
# GULP energy per Si atom -5591.727245 kJ/mol
# Density = 2.569793 g / cm^3
# Si number density = 25.756558 Si / 1000 Ang^3
#
#
#
# Elastic Constant Matrix: (Units=GPa)
#
#
# Indices 1 2 3 4 5 6 
#
# 1 88.0897 16.6158 29.1423 0.0000 4.2340 0.0000
# 2 16.6158 40.9896 -16.1655 0.0000 -5.2019 0.0000
# 3 29.1423 -16.1655 79.7922 0.0000 -7.2883 0.0000
# 4 0.0000 0.0000 0.0000 24.0408 0.0000 5.4727
# 5 4.2340 -5.2019 -7.2883 0.0000 37.0344 0.0000
# 6 0.0000 0.0000 0.0000 5.4727 0.0000 42.4700
#
#
#
# Elastic Compliance Matrix: (Units=1/GPa)
#
#
# Indices 1 2 3 4 5 6 
#
# 1 0.016493 -0.010751 -0.008668 0.000000 -0.005102 0.000000
# 2 -0.010751 0.034415 0.011662 0.000000 0.008358 0.000000
# 3 -0.008668 0.011662 0.018636 0.000000 0.006297 0.000000
# 4 0.000000 0.000000 0.000000 0.042853 0.000000 -0.005522
# 5 -0.005102 0.008358 0.006297 0.000000 0.029998 0.000000
# 6 0.000000 0.000000 0.000000 -0.005522 0.000000 0.024258
#
#
# Mechanical properties :
#
#
# Convention : Reuss Voigt Hill
#
# Bulk Modulus (GPa) = 18.50815 29.78406 24.14611
# Shear Modulus (GPa) = 24.97798 32.66097 28.81948
#
# Velocity S-wave (km/s) = 3.11749 3.56485 3.34865
# Velocity P-wave (km/s) = 4.48996 5.34163 4.93421
#
# Compressibility (1/GPa) = 0.05403025
#
# Stress axis : x y z
#
# Youngs Moduli (GPa) = 60.63272 29.05726 53.65916
#
# Poissons Ratio (x) = 0.31241 0.46510
# Poissons Ratio (y) = 0.65189 -0.62580
# Poissons Ratio (z) = 0.52555 -0.33888
#
# Static dielectric constant tensor:
#      x y z
#    x 2.062070 0.000000 0.015760 
#    y 0.000000 2.118800 0.000000 
#    z 0.015760 0.000000 1.989020 
# 
# From -- ./inp_files/13446.got.cif
#   From: 2010.05.17/outbox.cif.g08.bks.cpg/sg4_7_cif.got.tgz:13446.got - 2010.06.03 18:43:04.
