data_PCOD9115303
_publ_section_title
;
Structure prediction by ZEFSAII (Michael W. Deem and Ramdas Pophale) SiO2 
 PCOD9115303
Probable space group: P 21
;
_chemical_formula_sum "Si O2"
_cell_formula_units_Z 16
_cell_length_a 9.014469
_cell_length_b 10.708483
_cell_length_c 12.457028
_cell_angle_alpha 90.000000
_cell_angle_beta 33.234465
_cell_angle_gamma 90.000000
_cell_volume 659.046060
_symmetry_space_group_name_H-M "P 21"
_symmetry_group_IT_number 4
_symmetry_cell_setting 'monoclinic'
loop_
_space_group_symop_operation_xyz
x,y,z
-x,1/2+y,-z
loop_
_atom_site_type_symbol
_atom_site_label
_atom_site_fract_x
_atom_site_fract_y
_atom_site_fract_z
Si Si1 0.489483 0.452100 0.592489
Si Si2 0.623472 0.166204 0.513152
Si Si3 0.008857 0.376165 0.020218
Si Si4 0.405502 0.183453 0.865368
Si Si5 0.358687 0.911744 0.176298
Si Si6 0.965425 0.012476 0.791247
Si Si7 0.773350 0.662666 0.790310
Si Si8 0.258336 0.785319 0.028882
O O1 0.486590 0.301366 0.566546
O O2 0.396696 0.558178 0.563506
O O3 0.268248 0.454603 0.821195
O O4 0.796580 0.491243 0.437814
O O5 0.505869 0.116004 0.698269
O O6 0.931959 0.200998 0.353161
O O7 0.124882 0.246927 0.997892
O O8 0.822359 0.348673 0.032495
O O9 0.894797 0.450787 0.188874
O O10 0.616881 0.297692 0.757244
O O11 0.370716 0.129964 0.006196
O O12 0.196722 0.868169 0.169610
O O13 0.224916 0.041576 0.285853
O O14 0.676176 0.943410 0.956106
O O15 0.895639 0.154672 0.859996
O O16 0.576801 0.757299 0.848955
#
# Coordination Sequence:
#
# PCOD9115303 Si02
#       8
#     2   2   2   2   2   2   2   2
#     4  11  23  38  61  91 124 163 204 256 310 363
#     4  11  23  40  63  94 130 166 209 258 315 375
#     4  10  21  37  58  86 119 153 201 258 304 358
#     4   9  20  40  60  84 122 161 203 260 311 362
#     4   9  19  38  62  86 122 164 203 257 314 363
#     4  10  21  39  60  85 120 161 204 247 305 370
#     4  10  21  41  64  87 122 166 205 251 314 379
#     4  10  20  37  60  87 119 156 199 253 309 360
#
# _framework density 24.277515000000001
#
# number of rings (size 3 to 8) (size 9 to 14) (size 15 to 20)
#    0.000    2.000    0.000    4.500    0.000    5.000 
#    0.000   21.250    0.000    0.000    0.000    0.000 
#    0.000    0.000    0.000    0.000    0.000    0.000 
#
# Total GULP energy -89316.443008 kJ/mol
# GULP energy per Si atom -5582.277688 kJ/mol
# Density = 2.422226 g / cm^3
# Si number density = 24.277515 Si / 1000 Ang^3
#
#
#
# Elastic Constant Matrix: (Units=GPa)
#
#
# Indices 1 2 3 4 5 6 
#
# 1 118.5293 18.2244 12.2341 0.0000 14.6378 0.0000
# 2 18.2244 65.3357 10.9812 0.0000 8.1548 0.0000
# 3 12.2341 10.9812 61.1035 0.0000 6.5004 0.0000
# 4 0.0000 0.0000 0.0000 22.7014 0.0000 11.4740
# 5 14.6378 8.1548 6.5004 0.0000 34.0744 0.0000
# 6 0.0000 0.0000 0.0000 11.4740 0.0000 42.7139
#
#
#
# Elastic Compliance Matrix: (Units=1/GPa)
#
#
# Indices 1 2 3 4 5 6 
#
# 1 0.009266 -0.001981 -0.001149 0.000000 -0.003287 0.000000
# 2 -0.001981 0.016579 -0.002298 0.000000 -0.002678 0.000000
# 3 -0.001149 -0.002298 0.017248 0.000000 -0.002247 0.000000
# 4 0.000000 0.000000 0.000000 0.050971 0.000000 -0.013692
# 5 -0.003287 -0.002678 -0.002247 0.000000 0.031829 0.000000
# 6 0.000000 0.000000 0.000000 -0.013692 0.000000 0.027090
#
#
# Mechanical properties :
#
#
# Convention : Reuss Voigt Hill
#
# Bulk Modulus (GPa) = 31.02174 36.42755 33.72465
# Shear Modulus (GPa) = 28.63954 33.46653 31.05303
#
# Velocity S-wave (km/s) = 3.43836 3.71684 3.58031
# Velocity P-wave (km/s) = 5.34498 5.78421 5.56893
#
# Compressibility (1/GPa) = 0.03223546
#
# Stress axis : x y z
#
# Youngs Moduli (GPa) = 107.92230 60.31852 57.97844
#
# Poissons Ratio (x) = 0.11950 0.06665
# Poissons Ratio (y) = 0.21381 0.13323
# Poissons Ratio (z) = 0.12406 0.13860
#
# Static dielectric constant tensor:
#      x y z
#    x 1.910340 0.000000 -0.012470 
#    y 0.000000 1.949350 0.000000 
#    z -0.012470 0.000000 1.957520 
# 
# From -- ./inp_files/11236.got.cif
#   From: 2010.05.17/outbox.cif.g08.bks.cpg/sg4_6_cif.got.tgz:11236.got - 2010.06.03 18:43:04.
