data_PCOD9115466
_publ_section_title
;
Structure prediction by ZEFSAII (Michael W. Deem and Ramdas Pophale) SiO2 
 PCOD9115466
Probable space group: P 21
;
_chemical_formula_sum "Si O2"
_cell_formula_units_Z 12
_cell_length_a 8.448508
_cell_length_b 8.688087
_cell_length_c 13.639875
_cell_angle_alpha 90.000000
_cell_angle_beta 27.029756
_cell_angle_gamma 90.000000
_cell_volume 454.991949
_symmetry_space_group_name_H-M "P 21"
_symmetry_group_IT_number 4
_symmetry_cell_setting 'monoclinic'
loop_
_space_group_symop_operation_xyz
x,y,z
-x,1/2+y,-z
loop_
_atom_site_type_symbol
_atom_site_label
_atom_site_fract_x
_atom_site_fract_y
_atom_site_fract_z
Si Si1 0.944367 0.941140 0.218830
Si Si2 0.767992 0.864343 0.921834
Si Si3 0.660509 0.064006 0.790163
Si Si4 0.645240 0.201784 0.289960
Si Si5 0.784281 0.976638 0.515790
Si Si6 0.955742 0.630895 0.120827
O O1 0.010049 0.000073 0.293373
O O2 0.912303 0.759678 0.227798
O O3 0.626369 0.028749 0.341212
O O4 0.285655 0.987525 0.970478
O O5 0.138986 0.785084 0.742180
O O6 0.780019 0.951257 0.811471
O O7 0.468579 0.735274 0.105318
O O8 0.763872 0.003271 0.002318
O O9 0.882236 0.039969 0.568255
O O10 0.311160 0.295083 0.438829
O O11 0.904015 0.207122 0.054885
O O12 0.419339 0.058451 0.690421
#
# Coordination Sequence:
#
# PCOD9115466 Si02
#       6
#     2   2   2   2   2   2
#     4  11  21  37  64  91 128 162 209 259 309 368
#     4  10  22  38  66  88 122 171 204 254 313 368
#     4  11  22  41  60  90 127 164 209 255 311 377
#     4  10  20  39  62  93 121 166 209 258 308 366
#     4  11  22  37  63  92 125 164 212 256 308 366
#     4  11  19  40  65  90 121 165 213 254 313 363
#
# _framework density 26.374091
#
# number of rings (size 3 to 8) (size 9 to 14) (size 15 to 20)
#    0.000    1.333    5.000    3.000    0.000    0.000 
#    0.000    6.667    7.333    0.000    0.000    0.000 
#    0.000    0.000    0.000    0.000    0.000    0.000 
#
# Total GULP energy -67088.641441 kJ/mol
# GULP energy per Si atom -5590.720120 kJ/mol
# Density = 2.631406 g / cm^3
# Si number density = 26.374091 Si / 1000 Ang^3
#
#
#
# Elastic Constant Matrix: (Units=GPa)
#
#
# Indices 1 2 3 4 5 6 
#
# 1 110.9038 61.9328 31.2061 0.0000 30.4224 0.0000
# 2 61.9328 156.2628 23.1617 0.0000 20.8515 0.0000
# 3 31.2061 23.1617 102.6656 0.0000 25.4912 0.0000
# 4 0.0000 0.0000 0.0000 22.1233 0.0000 8.5047
# 5 30.4224 20.8515 25.4912 0.0000 48.6060 0.0000
# 6 0.0000 0.0000 0.0000 8.5047 0.0000 58.9333
#
#
#
# Elastic Compliance Matrix: (Units=1/GPa)
#
#
# Indices 1 2 3 4 5 6 
#
# 1 0.013473 -0.004329 -0.001708 0.000000 -0.005680 0.000000
# 2 -0.004329 0.008257 -0.000391 0.000000 -0.000628 0.000000
# 3 -0.001708 -0.000391 0.011544 0.000000 -0.004817 0.000000
# 4 0.000000 0.000000 0.000000 0.047856 0.000000 -0.006906
# 5 -0.005680 -0.000628 -0.004817 0.000000 0.026924 0.000000
# 6 0.000000 0.000000 0.000000 -0.006906 0.000000 0.017965
#
#
# Mechanical properties :
#
#
# Convention : Reuss Voigt Hill
#
# Bulk Modulus (GPa) = 48.97858 66.93706 57.95782
# Shear Modulus (GPa) = 34.32156 42.83461 38.57808
#
# Velocity S-wave (km/s) = 3.61132 4.03441 3.82871
# Velocity P-wave (km/s) = 5.99999 6.86563 6.44735
#
# Compressibility (1/GPa) = 0.02041709
#
# Stress axis : x y z
#
# Youngs Moduli (GPa) = 74.22338 121.11192 86.62557
#
# Poissons Ratio (x) = 0.52425 0.14799
# Poissons Ratio (y) = 0.32129 0.03389
# Poissons Ratio (z) = 0.12680 0.04738
#
# Static dielectric constant tensor:
#      x y z
#    x 2.084260 0.000000 -0.016590 
#    y 0.000000 2.154290 0.000000 
#    z -0.016590 0.000000 2.006160 
# 
# From -- ./inp_files/5444.got.cif
#   From: 2010.05.17/outbox.cif.g08.bks.cpg/sg4_3_cif.got.tgz:5444.got - 2010.06.03 18:43:04.
