data_PCOD9115837
_publ_section_title
;
Structure prediction by ZEFSAII (Michael W. Deem and Ramdas Pophale) SiO2 
 PCOD9115837
Probable space group: P 21
;
_chemical_formula_sum "Si O2"
_cell_formula_units_Z 16
_cell_length_a 10.994123
_cell_length_b 8.063648
_cell_length_c 19.137288
_cell_angle_alpha 90.000000
_cell_angle_beta 159.515685
_cell_angle_gamma 90.000000
_cell_volume 593.717325
_symmetry_space_group_name_H-M "P 21"
_symmetry_group_IT_number 4
_symmetry_cell_setting 'monoclinic'
loop_
_space_group_symop_operation_xyz
x,y,z
-x,1/2+y,-z
loop_
_atom_site_type_symbol
_atom_site_label
_atom_site_fract_x
_atom_site_fract_y
_atom_site_fract_z
Si Si1 0.272284 0.009500 0.529461
Si Si2 0.648753 0.365733 0.294001
Si Si3 0.550131 0.532938 0.880535
Si Si4 0.478229 0.335089 0.715343
Si Si5 0.817600 0.687969 0.655866
Si Si6 0.144526 0.242170 0.844952
Si Si7 0.436426 0.958770 0.383995
Si Si8 0.537433 0.558618 0.098981
O O1 0.485825 0.156124 0.683743
O O2 0.302218 0.045330 0.464367
O O3 0.853712 0.020024 0.314242
O O4 0.391759 0.865156 0.644353
O O5 0.446743 0.205411 0.159817
O O6 0.556564 0.519332 0.192131
O O7 0.063437 0.356385 0.503918
O O8 0.645575 0.386877 0.878807
O O9 0.781139 0.574499 0.071167
O O10 0.606928 0.452066 0.721798
O O11 0.773007 0.854771 0.588501
O O12 0.576281 0.642116 0.591578
O O13 0.194054 0.656297 0.889800
O O14 0.849743 0.342226 0.729856
O O15 0.165746 0.174473 0.776443
O O16 0.462161 0.374654 0.026581
#
# Coordination Sequence:
#
# PCOD9115837 Si02
#       8
#     2   2   2   2   2   2   2   2
#     4   9  17  35  56  84 113 143 192 244 282 337
#     4   9  19  33  59  89 111 142 197 245 287 335
#     4   9  17  35  58  81 111 151 186 243 286 336
#     4   9  19  35  57  81 118 152 186 236 299 347
#     4  10  21  39  58  82 122 156 195 242 293 351
#     4  10  21  37  58  89 118 155 199 240 295 346
#     4  10  23  37  55  88 122 159 192 236 301 360
#     4  10  21  37  59  86 117 152 197 252 277 346
#
# _framework density 26.948851000000001
#
# number of rings (size 3 to 8) (size 9 to 14) (size 15 to 20)
#    0.000    2.500    1.250    0.000    3.500    2.000 
#    9.000    7.500    0.000    1.500    0.000    0.000 
#    0.000    0.000    0.000    0.000    0.000    0.000 
#
# Total GULP energy -89281.427334 kJ/mol
# GULP energy per Si atom -5580.089208 kJ/mol
# Density = 2.688751 g / cm^3
# Si number density = 26.948851 Si / 1000 Ang^3
#
#
#
# Elastic Constant Matrix: (Units=GPa)
#
#
# Indices 1 2 3 4 5 6 
#
# 1 97.8199 16.5631 15.5728 0.0000 -14.8018 0.0000
# 2 16.5631 43.5348 3.6469 0.0000 -3.3632 0.0000
# 3 15.5728 3.6469 52.7868 0.0000 -1.8427 0.0000
# 4 0.0000 0.0000 0.0000 -43.1797 0.0000 -20.3868
# 5 -14.8018 -3.3632 -1.8427 0.0000 39.7850 0.0000
# 6 0.0000 0.0000 0.0000 -20.3868 0.0000 47.2185
#
#
#
# Elastic Compliance Matrix: (Units=1/GPa)
#
#
# Indices 1 2 3 4 5 6 
#
# 1 0.011999 -0.003996 -0.003125 0.000000 0.003982 0.000000
# 2 -0.003996 0.024576 -0.000499 0.000000 0.000568 0.000000
# 3 -0.003125 -0.000499 0.019891 0.000000 -0.000284 0.000000
# 4 0.000000 0.000000 0.000000 -0.019238 0.000000 -0.008306
# 5 0.003982 0.000568 -0.000284 0.000000 0.026651 0.000000
# 6 0.000000 0.000000 0.000000 -0.008306 0.000000 0.017592
#
#
# Mechanical properties :
#
#
# Convention : Reuss Voigt Hill
#
# Bulk Modulus (GPa) = 24.25651 29.52300 26.88975
# Shear Modulus (GPa) = 45.26764 19.32202 32.29483
#
# Velocity S-wave (km/s) = 4.10294 2.68057 3.46551
# Velocity P-wave (km/s) = 5.60945 4.53427 5.10027
#
# Compressibility (1/GPa) = 0.04122605
#
# Stress axis : x y z
#
# Youngs Moduli (GPa) = 83.33710 40.68994 50.27492
#
# Poissons Ratio (x) = 0.16259 0.15711
# Poissons Ratio (y) = 0.33301 0.02510
# Poissons Ratio (z) = 0.26042 0.02031
#
# Static dielectric constant tensor:
#      x y z
#    x 2.160260 0.000000 0.125850 
#    y 0.000000 2.205170 0.000000 
#    z 0.125850 0.000000 2.375560 
# 
# From -- ./inp_files/15710.got.cif
#   From: 2010.05.17/outbox.cif.g08.bks.cpg/sg4_8_cif.got.tgz:15710.got - 2010.06.03 18:43:04.
