data_PCOD9115552
_publ_section_title
;
Structure prediction by ZEFSAII (Michael W. Deem and Ramdas Pophale) SiO2 
 PCOD9115552
Probable space group: P 21
;
_chemical_formula_sum "Si O2"
_cell_formula_units_Z 16
_cell_length_a 13.987169
_cell_length_b 8.279595
_cell_length_c 5.801510
_cell_angle_alpha 90.000000
_cell_angle_beta 110.355143
_cell_angle_gamma 90.000000
_cell_volume 629.907138
_symmetry_space_group_name_H-M "P 21"
_symmetry_group_IT_number 4
_symmetry_cell_setting 'monoclinic'
loop_
_space_group_symop_operation_xyz
x,y,z
-x,1/2+y,-z
loop_
_atom_site_type_symbol
_atom_site_label
_atom_site_fract_x
_atom_site_fract_y
_atom_site_fract_z
Si Si1 0.297919 0.252170 0.959285
Si Si2 0.807245 0.227677 0.704901
Si Si3 0.645451 0.057610 0.292747
Si Si4 0.874394 0.930878 0.036048
Si Si5 0.463162 0.355559 0.446987
Si Si6 0.447492 0.085491 0.800070
Si Si7 0.009907 0.216497 0.569025
Si Si8 0.928509 0.411837 0.122388
O O1 0.201728 0.275848 0.046656
O O2 0.393921 0.263552 0.207868
O O3 0.295837 0.412252 0.791475
O O4 0.337023 0.110907 0.823835
O O5 0.723001 0.197457 0.436866
O O6 0.806746 0.078976 0.887553
O O7 0.913312 0.218913 0.655462
O O8 0.826295 0.382282 0.887230
O O9 0.602173 0.000202 0.501536
O O10 0.543561 0.076168 0.054071
O O11 0.974437 0.937666 0.961233
O O12 0.922205 0.877468 0.323248
O O13 0.478397 0.241767 0.676128
O O14 0.552339 0.435433 0.374888
O O15 0.073967 0.057371 0.693207
O O16 0.961576 0.245243 0.279292
#
# Coordination Sequence:
#
# PCOD9115552 Si02
#       8
#     2   2   2   2   2   2   2   2
#     4  10  21  37  68  97 120 166 219 259 323 385
#     4  10  21  38  66  96 119 164 219 262 308 376
#     4  10  21  37  67  97 121 165 218 265 317 386
#     4  10  21  38  67  95 121 166 213 265 309 377
#     4  10  20  40  65  92 128 162 213 271 318 380
#     4  10  22  38  67  97 123 164 214 270 323 380
#     4  10  22  38  64  91 133 168 209 257 315 379
#     4  10  22  38  64  97 129 169 207 261 319 367
#
# _framework density 25.400568
#
# number of rings (size 3 to 8) (size 9 to 14) (size 15 to 20)
#    0.000    2.000    1.250    1.500    5.250    1.000 
#    0.000    0.000   35.750    0.000    0.000    0.000 
#    0.000    0.000    0.000    0.000    0.000    0.000 
#
# Total GULP energy -89132.430244 kJ/mol
# GULP energy per Si atom -5570.776890 kJ/mol
# Density = 2.534276 g / cm^3
# Si number density = 25.400568 Si / 1000 Ang^3
#
#
#
# Elastic Constant Matrix: (Units=GPa)
#
#
# Indices 1 2 3 4 5 6 
#
# 1 33.0095 0.0687 0.7538 0.0000 8.8594 0.0000
# 2 0.0687 45.9492 18.4948 0.0000 13.3181 0.0000
# 3 0.7538 18.4948 71.7119 0.0000 -2.8437 0.0000
# 4 0.0000 0.0000 0.0000 41.4868 0.0000 -3.7617
# 5 8.8594 13.3181 -2.8437 0.0000 19.1163 0.0000
# 6 0.0000 0.0000 0.0000 -3.7617 0.0000 28.1417
#
#
#
# Elastic Compliance Matrix: (Units=1/GPa)
#
#
# Indices 1 2 3 4 5 6 
#
# 1 0.036515 0.007944 -0.003343 0.000000 -0.022955 0.000000
# 2 0.007944 0.034207 -0.010056 0.000000 -0.029009 0.000000
# 3 -0.003343 -0.010056 0.017013 0.000000 0.011086 0.000000
# 4 0.000000 0.000000 0.000000 0.024400 0.000000 0.003262
# 5 -0.022955 -0.029009 0.011086 0.000000 0.084809 0.000000
# 6 0.000000 0.000000 0.000000 0.003262 0.000000 0.035970
#
#
# Mechanical properties :
#
#
# Convention : Reuss Voigt Hill
#
# Bulk Modulus (GPa) = 13.01650 21.03393 17.02521
# Shear Modulus (GPa) = 18.55754 26.50585 22.53169
#
# Velocity S-wave (km/s) = 2.70589 3.23385 2.98158
# Velocity P-wave (km/s) = 3.85980 4.71621 4.30933
#
# Compressibility (1/GPa) = 0.07682559
#
# Stress axis : x y z
#
# Youngs Moduli (GPa) = 27.38605 29.23373 58.77890
#
# Poissons Ratio (x) = -0.23224 0.19650
# Poissons Ratio (y) = -0.21756 0.59108
# Poissons Ratio (z) = 0.09155 0.29397
#
# Static dielectric constant tensor:
#      x y z
#    x 2.063260 0.000000 0.028800 
#    y 0.000000 2.141600 0.000000 
#    z 0.028800 0.000000 1.998170 
# 
# From -- ./inp_files/3474.got.cif
#   From: 2010.05.17/outbox.cif.g08.bks.cpg/sg4_2_cif.got.tgz:3474.got - 2010.06.03 18:43:04.
