data_PCOD9115791
_publ_section_title
;
Structure prediction by ZEFSAII (Michael W. Deem and Ramdas Pophale) SiO2 
 PCOD9115791
Probable space group: P 21
;
_chemical_formula_sum "Si O2"
_cell_formula_units_Z 14
_cell_length_a 7.531799
_cell_length_b 8.423776
_cell_length_c 9.119542
_cell_angle_alpha 90.000000
_cell_angle_beta 112.457045
_cell_angle_gamma 90.000000
_cell_volume 534.722708
_symmetry_space_group_name_H-M "P 21"
_symmetry_group_IT_number 4
_symmetry_cell_setting 'monoclinic'
loop_
_space_group_symop_operation_xyz
x,y,z
-x,1/2+y,-z
loop_
_atom_site_type_symbol
_atom_site_label
_atom_site_fract_x
_atom_site_fract_y
_atom_site_fract_z
Si Si1 0.981710 0.353360 0.330155
Si Si2 0.577563 0.239211 0.237609
Si Si3 0.618841 0.949233 0.057908
Si Si4 0.394350 0.232188 0.499745
Si Si5 0.008141 0.634137 0.935569
Si Si6 0.742197 0.419620 0.656963
Si Si7 0.085281 0.205584 0.757095
O O1 0.806689 0.244448 0.329256
O O2 0.997732 0.293733 0.165077
O O3 0.924947 0.536349 0.322653
O O4 0.193065 0.320760 0.461004
O O5 0.468091 0.255070 0.355235
O O6 0.529976 0.074031 0.142207
O O7 0.521791 0.377999 0.107286
O O8 0.716689 0.801096 0.172792
O O9 0.791234 0.044873 0.031378
O O10 0.573014 0.299249 0.647374
O O11 0.348168 0.045756 0.485317
O O12 0.843604 0.521503 0.815873
O O13 0.971590 0.673016 0.091328
O O14 0.920447 0.322998 0.648318
#
# Coordination Sequence:
#
# PCOD9115791 Si02
#       7
#     2   2   2   2   2   2   2
#     4  10  21  37  62  91 124 165 213 261 315 387
#     4  11  23  40  63  94 132 171 214 271 323 380
#     4  10  21  35  58  93 129 167 220 265 318 386
#     4  11  23  44  64  92 133 171 213 265 322 384
#     4   9  19  36  62  95 126 163 213 270 324 375
#     4  10  22  39  65  94 127 171 216 257 317 392
#     4  11  19  37  64  95 129 166 213 271 323 376
#
# _framework density 26.181795999999999
#
# number of rings (size 3 to 8) (size 9 to 14) (size 15 to 20)
#    0.000    1.714    0.000    6.857    0.000    2.286 
#    0.000   14.286    0.000    0.000    0.000    0.000 
#    0.000    0.000    0.000    0.000    0.000    0.000 
#
# Total GULP energy -78529.362831 kJ/mol
# GULP energy per Si atom -5609.240202 kJ/mol
# Density = 2.612220 g / cm^3
# Si number density = 26.181796 Si / 1000 Ang^3
#
#
#
# Elastic Constant Matrix: (Units=GPa)
#
#
# Indices 1 2 3 4 5 6 
#
# 1 144.7809 17.3896 37.2885 0.0000 8.3618 0.0000
# 2 17.3896 127.8599 28.2285 0.0000 2.2749 0.0000
# 3 37.2885 28.2285 88.9279 0.0000 -5.5523 0.0000
# 4 0.0000 0.0000 0.0000 39.8098 0.0000 23.4480
# 5 8.3618 2.2749 -5.5523 0.0000 37.3896 0.0000
# 6 0.0000 0.0000 0.0000 23.4480 0.0000 39.1555
#
#
#
# Elastic Compliance Matrix: (Units=1/GPa)
#
#
# Indices 1 2 3 4 5 6 
#
# 1 0.007943 -0.000294 -0.003378 0.000000 -0.002260 0.000000
# 2 -0.000294 0.008453 -0.002612 0.000000 -0.000836 0.000000
# 3 -0.003378 -0.002612 0.013675 0.000000 0.002945 0.000000
# 4 0.000000 0.000000 0.000000 0.038808 0.000000 -0.023240
# 5 -0.002260 -0.000836 0.002945 0.000000 0.027739 0.000000
# 6 0.000000 0.000000 0.000000 -0.023240 0.000000 0.039456
#
#
# Mechanical properties :
#
#
# Convention : Reuss Voigt Hill
#
# Bulk Modulus (GPa) = 57.13887 58.59799 57.86843
# Shear Modulus (GPa) = 32.36754 41.84845 37.10799
#
# Velocity S-wave (km/s) = 3.51987 4.00231 3.76882
# Velocity P-wave (km/s) = 6.19601 6.61723 6.41008
#
# Compressibility (1/GPa) = 0.01750122
#
# Stress axis : x y z
#
# Youngs Moduli (GPa) = 125.89798 118.30656 73.12819
#
# Poissons Ratio (x) = 0.03481 0.24705
# Poissons Ratio (y) = 0.03704 0.19101
# Poissons Ratio (z) = 0.42532 0.30901
#
# Static dielectric constant tensor:
#      x y z
#    x 2.023130 0.000000 -0.023130 
#    y 0.000000 2.037740 0.000000 
#    z -0.023130 0.000000 2.042440 
# 
# From -- ./inp_files/10959.got.cif
#   From: 2010.05.17/outbox.cif.g08.bks.cpg/sg4_6_cif.got.tgz:10959.got - 2010.06.03 18:43:04.
