data_PCOD9115691
_publ_section_title
;
Structure prediction by ZEFSAII (Michael W. Deem and Ramdas Pophale) SiO2 
 PCOD9115691
Probable space group: P 21
;
_chemical_formula_sum "Si O2"
_cell_formula_units_Z 16
_cell_length_a 16.883121
_cell_length_b 8.356018
_cell_length_c 13.794931
_cell_angle_alpha 90.000000
_cell_angle_beta 21.219743
_cell_angle_gamma 90.000000
_cell_volume 704.393249
_symmetry_space_group_name_H-M "P 21"
_symmetry_group_IT_number 4
_symmetry_cell_setting 'monoclinic'
loop_
_space_group_symop_operation_xyz
x,y,z
-x,1/2+y,-z
loop_
_atom_site_type_symbol
_atom_site_label
_atom_site_fract_x
_atom_site_fract_y
_atom_site_fract_z
Si Si1 0.855687 0.925910 0.857120
Si Si2 0.136031 0.232248 0.588424
Si Si3 0.221989 0.934453 0.084951
Si Si4 0.340368 0.178753 0.803849
Si Si5 0.230980 0.811522 0.289886
Si Si6 0.539977 0.031561 0.056504
Si Si7 0.552365 0.440114 0.466536
Si Si8 0.412830 0.250831 0.450941
O O1 0.018566 0.835486 0.597752
O O2 0.822037 0.825925 0.993780
O O3 0.969665 0.090586 0.755047
O O4 0.638038 0.962949 0.043891
O O5 0.355543 0.167786 0.285877
O O6 0.198468 0.241768 0.629890
O O7 0.017387 0.390959 0.684697
O O8 0.213883 0.907657 0.208283
O O9 0.395283 0.813129 0.837728
O O10 0.324228 0.098628 0.927945
O O11 0.560929 0.272623 0.517107
O O12 0.281199 0.038822 0.794796
O O13 0.429459 0.889858 0.123079
O O14 0.273104 0.627807 0.213836
O O15 0.391988 0.376817 0.563405
O O16 0.515759 0.581637 0.584739
#
# Coordination Sequence:
#
# PCOD9115691 Si02
#       8
#     2   2   2   2   2   2   2   2
#     4  11  25  42  67 100 142 177 230 284 334 411
#     4  11  21  41  66  95 134 183 219 280 338 409
#     4  11  23  40  66  99 137 180 227 277 335 409
#     4  10  22  40  68  97 129 178 222 281 348 397
#     4  11  26  40  66 100 140 190 224 283 330 409
#     4  11  25  43  64  96 142 186 232 272 338 402
#     4   9  20  42  66  94 129 165 224 286 341 405
#     4  10  20  42  69  95 129 177 220 281 348 404
#
# _framework density 22.714585
#
# number of rings (size 3 to 8) (size 9 to 14) (size 15 to 20)
#    0.000    1.500    2.500    1.500    5.250    0.000 
#    0.000   15.000    0.000    1.500    0.000    0.000 
#    0.000    0.000    0.000    0.000    0.000    0.000 
#
# Total GULP energy -89132.872813 kJ/mol
# GULP energy per Si atom -5570.804551 kJ/mol
# Density = 2.266289 g / cm^3
# Si number density = 22.714585 Si / 1000 Ang^3
#
#
#
# Elastic Constant Matrix: (Units=GPa)
#
#
# Indices 1 2 3 4 5 6 
#
# 1 134.6665 32.6337 45.8674 0.0000 5.2228 0.0000
# 2 32.6337 82.5791 27.5438 0.0000 6.8437 0.0000
# 3 45.8674 27.5438 65.3811 0.0000 11.3213 0.0000
# 4 0.0000 0.0000 0.0000 36.6638 0.0000 19.7045
# 5 5.2228 6.8437 11.3213 0.0000 31.5456 0.0000
# 6 0.0000 0.0000 0.0000 19.7045 0.0000 42.2660
#
#
#
# Elastic Compliance Matrix: (Units=1/GPa)
#
#
# Indices 1 2 3 4 5 6 
#
# 1 0.010034 -0.001913 -0.006416 0.000000 0.001056 0.000000
# 2 -0.001913 0.014483 -0.004553 0.000000 -0.001191 0.000000
# 3 -0.006416 -0.004553 0.022775 0.000000 -0.006123 0.000000
# 4 0.000000 0.000000 0.000000 0.036393 0.000000 -0.016967
# 5 0.001056 -0.001191 -0.006123 0.000000 0.033981 0.000000
# 6 0.000000 0.000000 0.000000 -0.016967 0.000000 0.031570
#
#
# Mechanical properties :
#
#
# Convention : Reuss Voigt Hill
#
# Bulk Modulus (GPa) = 46.45328 54.96852 50.71090
# Shear Modulus (GPa) = 27.44610 33.86719 30.65665
#
# Velocity S-wave (km/s) = 3.47984 3.86552 3.67774
# Velocity P-wave (km/s) = 6.05318 6.64644 6.35673
#
# Compressibility (1/GPa) = 0.02152701
#
# Stress axis : x y z
#
# Youngs Moduli (GPa) = 99.66515 69.04703 43.90835
#
# Poissons Ratio (x) = 0.13206 0.28172
# Poissons Ratio (y) = 0.19062 0.19993
# Poissons Ratio (z) = 0.63947 0.31440
#
# Static dielectric constant tensor:
#      x y z
#    x 1.838470 0.000000 0.046920 
#    y 0.000000 1.927390 0.000000 
#    z 0.046920 0.000000 1.907010 
# 
# From -- ./inp_files/13255.got.cif
#   From: 2010.05.17/outbox.cif.g08.bks.cpg/sg4_7_cif.got.tgz:13255.got - 2010.06.03 18:43:04.
