data_PCOD9115711
_publ_section_title
;
Structure prediction by ZEFSAII (Michael W. Deem and Ramdas Pophale) SiO2 
 PCOD9115711
Probable space group: P 21
;
_chemical_formula_sum "Si O2"
_cell_formula_units_Z 16
_cell_length_a 11.920174
_cell_length_b 9.027141
_cell_length_c 11.854955
_cell_angle_alpha 90.000000
_cell_angle_beta 39.165316
_cell_angle_gamma 90.000000
_cell_volume 805.651830
_symmetry_space_group_name_H-M "P 21"
_symmetry_group_IT_number 4
_symmetry_cell_setting 'monoclinic'
loop_
_space_group_symop_operation_xyz
x,y,z
-x,1/2+y,-z
loop_
_atom_site_type_symbol
_atom_site_label
_atom_site_fract_x
_atom_site_fract_y
_atom_site_fract_z
Si Si1 0.025783 0.254470 0.728532
Si Si2 0.172686 0.278884 0.102153
Si Si3 0.087486 0.566058 0.787352
Si Si4 0.392183 0.074890 0.103411
Si Si5 0.629605 0.603654 0.616983
Si Si6 0.268067 0.740339 0.219485
Si Si7 0.764788 0.062200 0.083771
Si Si8 0.213442 0.790053 0.521424
O O1 0.030725 0.424554 0.760311
O O2 0.226300 0.199971 0.559902
O O3 0.921321 0.231659 0.692931
O O4 0.910551 0.163123 0.908595
O O5 0.290762 0.179437 0.092870
O O6 0.084307 0.173499 0.075714
O O7 0.996049 0.334321 0.306637
O O8 0.264414 0.416256 0.970086
O O9 0.160824 0.523998 0.851278
O O10 0.227314 0.663180 0.605125
O O11 0.337708 0.112917 0.273900
O O12 0.349337 0.901245 0.122306
O O13 0.599110 0.113965 0.927140
O O14 0.424752 0.641608 0.756919
O O15 0.668100 0.433893 0.551207
O O16 0.251838 0.732638 0.366509
#
# Coordination Sequence:
#
# PCOD9115711 Si02
#       8
#     2   2   2   2   2   2   2   2
#     4  12  23  43  65 102 134 176 223 286 334 396
#     4  10  20  43  65  92 133 177 220 278 332 393
#     4  10  24  43  68  96 134 182 229 275 340 399
#     4  11  22  39  64 105 135 173 224 273 342 401
#     4  11  24  40  67  98 134 175 221 275 338 402
#     4  11  22  39  66  99 145 169 225 279 339 408
#     4  12  24  45  68  97 134 184 230 273 335 410
#     4   9  21  42  63  95 129 184 212 273 342 391
#
# _framework density 19.859696
#
# number of rings (size 3 to 8) (size 9 to 14) (size 15 to 20)
#    0.750    0.500    3.750    3.000    0.000    2.000 
#    0.000    1.250    0.000    0.000    0.000    0.000 
#    0.000    0.000    0.000    0.000    0.000    0.000 
#
# Total GULP energy -89319.920996 kJ/mol
# GULP energy per Si atom -5582.495062 kJ/mol
# Density = 1.981449 g / cm^3
# Si number density = 19.859696 Si / 1000 Ang^3
#
#
#
# Elastic Constant Matrix: (Units=GPa)
#
#
# Indices 1 2 3 4 5 6 
#
# 1 51.9207 4.6991 0.5056 0.0000 -4.9642 0.0000
# 2 4.6991 49.7087 23.3806 0.0000 4.6328 0.0000
# 3 0.5056 23.3806 75.0121 0.0000 -19.7701 0.0000
# 4 0.0000 0.0000 0.0000 19.6075 0.0000 -3.8374
# 5 -4.9642 4.6328 -19.7701 0.0000 29.3216 0.0000
# 6 0.0000 0.0000 0.0000 -3.8374 0.0000 26.6215
#
#
#
# Elastic Compliance Matrix: (Units=1/GPa)
#
#
# Indices 1 2 3 4 5 6 
#
# 1 0.020099 -0.003585 0.002466 0.000000 0.005632 0.000000
# 2 -0.003585 0.027244 -0.011872 0.000000 -0.012916 0.000000
# 3 0.002466 -0.011872 0.021427 0.000000 0.016740 0.000000
# 4 0.000000 0.000000 0.000000 0.052481 0.000000 0.007565
# 5 0.005632 -0.012916 0.016740 0.000000 0.048386 0.000000
# 6 0.000000 0.000000 0.000000 0.007565 0.000000 0.038654
#
#
# Mechanical properties :
#
#
# Convention : Reuss Voigt Hill
#
# Bulk Modulus (GPa) = 23.37036 25.97915 24.67476
# Shear Modulus (GPa) = 20.11794 24.98053 22.54923
#
# Velocity S-wave (km/s) = 3.18622 3.55047 3.37327
# Velocity P-wave (km/s) = 5.03282 5.46969 5.25580
#
# Compressibility (1/GPa) = 0.04278924
#
# Stress axis : x y z
#
# Youngs Moduli (GPa) = 49.75355 36.70583 46.67037
#
# Poissons Ratio (x) = 0.13159 -0.11510
# Poissons Ratio (y) = 0.17837 0.55405
# Poissons Ratio (z) = -0.12271 0.43575
#
# Static dielectric constant tensor:
#      x y z
#    x 1.689500 0.000000 -0.025160 
#    y 0.000000 1.689500 0.000000 
#    z -0.025160 0.000000 1.695080 
# 
# From -- ./inp_files/12096.got.cif
#   From: 2010.05.17/outbox.cif.g08.bks.cpg/sg4_7_cif.got.tgz:12096.got - 2010.06.03 18:43:04.
