data_PCOD9115394
_publ_section_title
;
Structure prediction by ZEFSAII (Michael W. Deem and Ramdas Pophale) SiO2 
 PCOD9115394
Probable space group: P 21
;
_chemical_formula_sum "Si O2"
_cell_formula_units_Z 14
_cell_length_a 8.973193
_cell_length_b 13.426490
_cell_length_c 7.182497
_cell_angle_alpha 90.000000
_cell_angle_beta 129.282559
_cell_angle_gamma 90.000000
_cell_volume 669.798882
_symmetry_space_group_name_H-M "P 21"
_symmetry_group_IT_number 4
_symmetry_cell_setting 'monoclinic'
loop_
_space_group_symop_operation_xyz
x,y,z
-x,1/2+y,-z
loop_
_atom_site_type_symbol
_atom_site_label
_atom_site_fract_x
_atom_site_fract_y
_atom_site_fract_z
Si Si1 0.470337 0.830190 0.720947
Si Si2 0.879822 0.901274 0.076576
Si Si3 0.855494 0.709370 0.317427
Si Si4 0.270781 0.925624 0.259489
Si Si5 0.436352 0.110164 0.198492
Si Si6 0.784595 0.099464 0.212819
Si Si7 0.532979 0.269156 0.853484
O O1 0.304177 0.894136 0.498880
O O2 0.488039 0.716206 0.665332
O O3 0.668586 0.883968 0.827025
O O4 0.453367 0.819484 0.929565
O O5 0.906896 0.806257 0.234430
O O6 0.044346 0.911385 0.052555
O O7 0.871464 0.003405 0.183984
O O8 0.691691 0.739616 0.338827
O O9 0.044444 0.660422 0.552553
O O10 0.734483 0.637423 0.082375
O O11 0.389482 0.846471 0.233051
O O12 0.350850 0.033744 0.276749
O O13 0.618722 0.067979 0.228753
O O14 0.670289 0.172570 0.980466
#
# Coordination Sequence:
#
# PCOD9115394 Si02
#       7
#     2   2   2   2   2   2   2
#     4   9  22  43  57  80 123 153 189 244 283 337
#     4  10  22  36  56  89 118 149 196 237 285 352
#     4   9  20  40  60  82 119 155 191 241 286 338
#     4  12  23  37  63  89 117 154 190 240 293 338
#     4   9  21  38  57  86 117 153 196 234 287 350
#     4  10  20  38  63  85 115 156 194 238 287 339
#     4   9  22  40  60  87 115 152 198 234 283 350
#
# _framework density 20.901796999999998
#
# number of rings (size 3 to 8) (size 9 to 14) (size 15 to 20)
#    0.000    2.857    0.000    3.429    0.000   11.429 
#    0.000    0.000    0.000    0.000    0.000    0.000 
#    0.000    0.000    0.000    0.000    0.000    0.000 
#
# Total GULP energy -78144.089230 kJ/mol
# GULP energy per Si atom -5581.720659 kJ/mol
# Density = 2.085422 g / cm^3
# Si number density = 20.901797 Si / 1000 Ang^3
#
#
#
# Elastic Constant Matrix: (Units=GPa)
#
#
# Indices 1 2 3 4 5 6 
#
# 1 81.8731 32.8981 18.9734 0.0000 22.6176 0.0000
# 2 32.8981 51.3300 17.4127 0.0000 2.1650 0.0000
# 3 18.9734 17.4127 32.9821 0.0000 18.0087 0.0000
# 4 0.0000 0.0000 0.0000 17.0750 0.0000 6.9222
# 5 22.6176 2.1650 18.0087 0.0000 22.3609 0.0000
# 6 0.0000 0.0000 0.0000 6.9222 0.0000 28.9717
#
#
#
# Elastic Compliance Matrix: (Units=1/GPa)
#
#
# Indices 1 2 3 4 5 6 
#
# 1 0.028513 -0.022659 0.018044 0.000000 -0.041179 0.000000
# 2 -0.022659 0.044438 -0.036752 0.000000 0.048215 0.000000
# 3 0.018044 -0.036752 0.084542 0.000000 -0.082780 0.000000
# 4 0.000000 0.000000 0.000000 0.064846 0.000000 -0.015494
# 5 -0.041179 0.048215 -0.082780 0.000000 0.148373 0.000000
# 6 0.000000 0.000000 0.000000 -0.015494 0.000000 0.038218
#
#
# Mechanical properties :
#
#
# Convention : Reuss Voigt Hill
#
# Bulk Modulus (GPa) = 13.37632 33.86151 23.61891
# Shear Modulus (GPa) = 9.67899 20.14160 14.91029
#
# Velocity S-wave (km/s) = 2.15424 3.10761 2.67376
# Velocity P-wave (km/s) = 3.54981 5.39553 4.56689
#
# Compressibility (1/GPa) = 0.07475900
#
# Stress axis : x y z
#
# Youngs Moduli (GPa) = 35.07203 22.50333 11.82846
#
# Poissons Ratio (x) = 0.50989 -0.21344
# Poissons Ratio (y) = 0.79468 0.43473
# Poissons Ratio (z) = -0.63285 0.82705
#
# Static dielectric constant tensor:
#      x y z
#    x 1.754070 0.000000 -0.017900 
#    y 0.000000 1.736960 0.000000 
#    z -0.017900 0.000000 1.749240 
# 
# From -- ./inp_files/6459.got.cif
#   From: 2010.05.17/outbox.cif.g08.bks.cpg/sg4_4_cif.got.tgz:6459.got - 2010.06.03 18:43:04.
