data_PCOD9115545
_publ_section_title
;
Structure prediction by ZEFSAII (Michael W. Deem and Ramdas Pophale) SiO2 
 PCOD9115545
Probable space group: P 21
;
_chemical_formula_sum "Si O2"
_cell_formula_units_Z 16
_cell_length_a 8.055193
_cell_length_b 14.029255
_cell_length_c 10.891528
_cell_angle_alpha 90.000000
_cell_angle_beta 38.487499
_cell_angle_gamma 90.000000
_cell_volume 766.001796
_symmetry_space_group_name_H-M "P 21"
_symmetry_group_IT_number 4
_symmetry_cell_setting 'monoclinic'
loop_
_space_group_symop_operation_xyz
x,y,z
-x,1/2+y,-z
loop_
_atom_site_type_symbol
_atom_site_label
_atom_site_fract_x
_atom_site_fract_y
_atom_site_fract_z
Si Si1 0.467645 0.934450 0.048075
Si Si2 0.502062 0.223182 0.665391
Si Si3 0.747616 0.057307 0.671797
Si Si4 0.652305 0.560604 0.641959
Si Si5 0.867132 0.940886 0.355380
Si Si6 0.265280 0.632063 0.695902
Si Si7 0.333761 0.891976 0.558069
Si Si8 0.121481 0.305212 0.059830
O O1 0.428223 0.002542 0.190046
O O2 0.168346 0.903802 0.183511
O O3 0.644170 0.844429 0.988657
O O4 0.617319 0.996910 0.857413
O O5 0.574146 0.147747 0.729171
O O6 0.515965 0.161395 0.533639
O O7 0.711150 0.308162 0.515915
O O8 0.246003 0.282464 0.856108
O O9 0.789677 0.985513 0.532450
O O10 0.046566 0.097071 0.521677
O O11 0.417672 0.631470 0.736970
O O12 0.666320 0.487588 0.519022
O O13 0.619669 0.876426 0.456406
O O14 0.858482 0.030591 0.267080
O O15 0.029799 0.707869 0.821392
O O16 0.106681 0.884975 0.792079
#
# Coordination Sequence:
#
# PCOD9115545 Si02
#       8
#     2   2   2   2   2   2   2   2
#     4  11  21  37  67  94 123 164 211 255 309 383
#     4  10  21  39  62  87 124 162 202 263 313 359
#     4  10  21  39  63  92 124 167 203 255 318 377
#     4  10  20  40  64  91 122 171 206 251 314 381
#     4   9  21  39  63  89 120 167 207 251 311 379
#     4   9  21  39  62  86 126 163 208 257 313 372
#     4  10  20  40  64  88 124 162 210 257 310 369
#     4  11  21  37  61  95 121 160 205 265 308 358
#
# _framework density 20.88768
#
# number of rings (size 3 to 8) (size 9 to 14) (size 15 to 20)
#    0.000    2.000    2.500    0.750    0.000    3.000 
#    6.750    0.000   22.000    0.000    0.000    0.000 
#    0.000    0.000    0.000    0.000    0.000    0.000 
#
# Total GULP energy -89123.759064 kJ/mol
# GULP energy per Si atom -5570.234942 kJ/mol
# Density = 2.084014 g / cm^3
# Si number density = 20.887680 Si / 1000 Ang^3
#
#
#
# Elastic Constant Matrix: (Units=GPa)
#
#
# Indices 1 2 3 4 5 6 
#
# 1 85.7814 8.6808 42.2932 0.0000 -12.9203 0.0000
# 2 8.6808 29.9649 6.7850 0.0000 -0.8662 0.0000
# 3 42.2932 6.7850 107.8067 0.0000 -10.6185 0.0000
# 4 0.0000 0.0000 0.0000 31.6950 0.0000 -3.9761
# 5 -12.9203 -0.8662 -10.6185 0.0000 23.0438 0.0000
# 6 0.0000 0.0000 0.0000 -3.9761 0.0000 15.1025
#
#
#
# Elastic Compliance Matrix: (Units=1/GPa)
#
#
# Indices 1 2 3 4 5 6 
#
# 1 0.015501 -0.003118 -0.005280 0.000000 0.006141 0.000000
# 2 -0.003118 0.034484 -0.001039 0.000000 -0.000931 0.000000
# 3 -0.005280 -0.001039 0.011646 0.000000 0.002367 0.000000
# 4 0.000000 0.000000 0.000000 0.032628 0.000000 0.008590
# 5 0.006141 -0.000931 0.002367 0.000000 0.047894 0.000000
# 6 0.000000 0.000000 0.000000 0.008590 0.000000 0.068476
#
#
# Mechanical properties :
#
#
# Convention : Reuss Voigt Hill
#
# Bulk Modulus (GPa) = 23.38764 37.67455 30.53109
# Shear Modulus (GPa) = 20.51239 25.02122 22.76680
#
# Velocity S-wave (km/s) = 3.13714 3.46481 3.30504
# Velocity P-wave (km/s) = 4.93390 5.83802 5.40490
#
# Compressibility (1/GPa) = 0.04275763
#
# Stress axis : x y z
#
# Youngs Moduli (GPa) = 64.51076 28.99908 85.86786
#
# Poissons Ratio (x) = 0.09041 0.45340
# Poissons Ratio (y) = 0.20112 0.08921
# Poissons Ratio (z) = 0.34063 0.03013
#
# Static dielectric constant tensor:
#      x y z
#    x 1.777440 0.000000 -0.015590 
#    y 0.000000 1.774110 0.000000 
#    z -0.015590 0.000000 1.816990 
# 
# From -- ./inp_files/11405.got.cif
#   From: 2010.05.17/outbox.cif.g08.bks.cpg/sg4_6_cif.got.tgz:11405.got - 2010.06.03 18:43:04.
