data_PCOD9115427
_publ_section_title
;
Structure prediction by ZEFSAII (Michael W. Deem and Ramdas Pophale) SiO2 
 PCOD9115427
Probable space group: P 21
;
_chemical_formula_sum "Si O2"
_cell_formula_units_Z 16
_cell_length_a 12.316165
_cell_length_b 10.791085
_cell_length_c 7.661202
_cell_angle_alpha 90.000000
_cell_angle_beta 139.487708
_cell_angle_gamma 90.000000
_cell_volume 661.440842
_symmetry_space_group_name_H-M "P 21"
_symmetry_group_IT_number 4
_symmetry_cell_setting 'monoclinic'
loop_
_space_group_symop_operation_xyz
x,y,z
-x,1/2+y,-z
loop_
_atom_site_type_symbol
_atom_site_label
_atom_site_fract_x
_atom_site_fract_y
_atom_site_fract_z
Si Si1 0.284282 0.059560 0.787739
Si Si2 0.893483 0.255392 0.269549
Si Si3 0.229791 0.540533 0.128534
Si Si4 0.776989 0.836563 0.423417
Si Si5 0.433742 0.878588 0.205514
Si Si6 0.561739 0.936362 0.890526
Si Si7 0.660977 0.258785 0.539085
Si Si8 0.044266 0.868135 0.319046
O O1 0.247903 0.197809 0.681622
O O2 0.430089 0.012015 0.838733
O O3 0.123706 0.976784 0.537031
O O4 0.357943 0.015437 0.066573
O O5 0.864981 0.137990 0.111849
O O6 0.973894 0.256751 0.562296
O O7 0.021888 0.340863 0.310555
O O8 0.701395 0.298094 0.071281
O O9 0.115768 0.418684 0.980607
O O10 0.400470 0.503275 0.243030
O O11 0.280745 0.617919 0.360930
O O12 0.626387 0.859873 0.379533
O O13 0.729110 0.928454 0.207531
O O14 0.395337 0.819573 0.346369
O O15 0.489512 0.798667 0.771098
O O16 0.819686 0.329424 0.655913
#
# Coordination Sequence:
#
# PCOD9115427 Si02
#       8
#     2   2   2   2   2   2   2   2
#     4   9  18  35  61  85 115 157 206 265 313 346
#     4  10  20  38  66  94 115 154 221 263 309 366
#     4  11  21  42  64  90 127 170 205 264 324 361
#     4  11  19  37  65  92 113 162 218 266 309 366
#     4   9  21  38  57  87 129 158 205 262 309 372
#     4  10  22  38  63  89 127 166 209 257 314 381
#     4  10  23  42  57  89 137 168 206 250 312 399
#     4  10  20  40  61  90 125 159 204 263 310 371
#
# _framework density 24.189617999999999
#
# number of rings (size 3 to 8) (size 9 to 14) (size 15 to 20)
#    0.000    2.000    2.500    2.250    0.000    1.000 
#    6.750    1.250    0.000    0.000    0.000    0.000 
#    0.000    0.000    0.000    0.000    0.000    0.000 
#
# Total GULP energy -89113.098841 kJ/mol
# GULP energy per Si atom -5569.568678 kJ/mol
# Density = 2.413456 g / cm^3
# Si number density = 24.189618 Si / 1000 Ang^3
#
#
#
# Elastic Constant Matrix: (Units=GPa)
#
#
# Indices 1 2 3 4 5 6 
#
# 1 105.2611 2.1219 23.2403 0.0000 16.2657 0.0000
# 2 2.1219 36.7698 15.0203 0.0000 -0.1012 0.0000
# 3 23.2403 15.0203 84.3184 0.0000 18.1761 0.0000
# 4 0.0000 0.0000 0.0000 50.6171 0.0000 1.8843
# 5 16.2657 -0.1012 18.1761 0.0000 26.9290 0.0000
# 6 0.0000 0.0000 0.0000 1.8843 0.0000 24.7867
#
#
#
# Elastic Compliance Matrix: (Units=1/GPa)
#
#
# Indices 1 2 3 4 5 6 
#
# 1 0.010713 0.000123 -0.001849 0.000000 -0.005222 0.000000
# 2 0.000123 0.029755 -0.006252 0.000000 0.004258 0.000000
# 3 -0.001849 -0.006252 0.015503 0.000000 -0.009371 0.000000
# 4 0.000000 0.000000 0.000000 0.019812 0.000000 -0.001506
# 5 -0.005222 0.004258 -0.009371 0.000000 0.046630 0.000000
# 6 0.000000 0.000000 0.000000 -0.001506 0.000000 0.040459
#
#
# Mechanical properties :
#
#
# Convention : Reuss Voigt Hill
#
# Bulk Modulus (GPa) = 24.99102 34.12383 29.55743
# Shear Modulus (GPa) = 26.01911 32.86436 29.44173
#
# Velocity S-wave (km/s) = 3.28324 3.68994 3.49251
# Velocity P-wave (km/s) = 4.97259 5.68257 5.33939
#
# Compressibility (1/GPa) = 0.04001437
#
# Stress axis : x y z
#
# Youngs Moduli (GPa) = 93.34518 33.60804 64.50313
#
# Poissons Ratio (x) = -0.00412 0.11925
# Poissons Ratio (y) = -0.01145 0.40328
# Poissons Ratio (z) = 0.17258 0.21012
#
# Static dielectric constant tensor:
#      x y z
#    x 1.954060 0.000000 0.009410 
#    y 0.000000 2.042160 0.000000 
#    z 0.009410 0.000000 2.010710 
# 
# From -- ./inp_files/6095.got.cif
#   From: 2010.05.17/outbox.cif.g08.bks.cpg/sg4_4_cif.got.tgz:6095.got - 2010.06.03 18:43:04.
