data_PCOD9115906
_publ_section_title
;
Structure prediction by ZEFSAII (Michael W. Deem and Ramdas Pophale) SiO2 
 PCOD9115906
Probable space group: P 21
;
_chemical_formula_sum "Si O2"
_cell_formula_units_Z 16
_cell_length_a 10.870477
_cell_length_b 12.985933
_cell_length_c 11.885637
_cell_angle_alpha 90.000000
_cell_angle_beta 25.684421
_cell_angle_gamma 90.000000
_cell_volume 727.188863
_symmetry_space_group_name_H-M "P 21"
_symmetry_group_IT_number 4
_symmetry_cell_setting 'monoclinic'
loop_
_space_group_symop_operation_xyz
x,y,z
-x,1/2+y,-z
loop_
_atom_site_type_symbol
_atom_site_label
_atom_site_fract_x
_atom_site_fract_y
_atom_site_fract_z
Si Si1 0.319863 0.036430 0.655759
Si Si2 0.272997 0.617082 0.488789
Si Si3 0.180092 0.390611 0.480542
Si Si4 0.544383 0.394565 0.964040
Si Si5 0.738923 0.935025 0.150447
Si Si6 0.520765 0.085228 0.130023
Si Si7 0.102422 0.184361 0.636098
Si Si8 0.721991 0.748945 0.000803
O O1 0.509557 0.095461 0.588895
O O2 0.218557 0.117613 0.644354
O O3 0.510825 0.950674 0.436017
O O4 0.043199 0.981009 0.934413
O O5 0.169162 0.505071 0.536755
O O6 0.458133 0.674059 0.241608
O O7 0.007745 0.686472 0.742791
O O8 0.203101 0.301864 0.555111
O O9 0.874651 0.368572 0.675935
O O10 0.431129 0.384596 0.183481
O O11 0.511991 0.512684 0.950116
O O12 0.354685 0.322447 0.040559
O O13 0.757010 0.822607 0.081241
O O14 0.629888 0.008365 0.138400
O O15 0.236197 0.135838 0.412149
O O16 0.765562 0.168954 0.911700
#
# Coordination Sequence:
#
# PCOD9115906 Si02
#       8
#     2   2   2   2   2   2   2   2
#     4  10  21  41  64  91 124 159 201 258 312 356
#     4  12  26  42  61  96 133 162 204 260 316 372
#     4  12  26  39  58  91 126 159 202 252 312 370
#     4  11  24  42  63  89 121 161 204 258 311 358
#     4   9  19  38  65  91 115 155 210 254 294 362
#     4   9  19  37  62  86 112 149 206 253 290 355
#     4  10  21  38  61  88 117 160 207 244 298 374
#     4  11  24  43  66  92 124 169 216 251 305 383
#
# _framework density 22.00254
#
# number of rings (size 3 to 8) (size 9 to 14) (size 15 to 20)
#    0.000    1.500    0.000    4.500    0.000   12.000 
#    0.000    0.000    0.000    0.000    0.000    0.000 
#    0.000    0.000    0.000    0.000    0.000    0.000 
#
# Total GULP energy -89525.037122 kJ/mol
# GULP energy per Si atom -5595.314820 kJ/mol
# Density = 2.195246 g / cm^3
# Si number density = 22.002540 Si / 1000 Ang^3
#
#
#
# Elastic Constant Matrix: (Units=GPa)
#
#
# Indices 1 2 3 4 5 6 
#
# 1 32.4568 9.8985 -6.2412 0.0000 -7.1864 0.0000
# 2 9.8985 82.1645 -11.6674 0.0000 -8.7080 0.0000
# 3 -6.2412 -11.6674 64.9058 0.0000 -18.7850 0.0000
# 4 0.0000 0.0000 0.0000 30.0443 0.0000 -3.9867
# 5 -7.1864 -8.7080 -18.7850 0.0000 21.6741 0.0000
# 6 0.0000 0.0000 0.0000 -3.9867 0.0000 21.1263
#
#
#
# Elastic Compliance Matrix: (Units=1/GPa)
#
#
# Indices 1 2 3 4 5 6 
#
# 1 0.037292 -0.001093 0.009131 0.000000 0.019840 0.000000
# 2 -0.001093 0.014102 0.005292 0.000000 0.009890 0.000000
# 3 0.009131 0.005292 0.024999 0.000000 0.026820 0.000000
# 4 0.000000 0.000000 0.000000 0.034139 0.000000 0.006442
# 5 0.019840 0.009890 0.026820 0.000000 0.079935 0.000000
# 6 0.000000 0.000000 0.000000 0.006442 0.000000 0.048550
#
#
# Mechanical properties :
#
#
# Convention : Reuss Voigt Hill
#
# Bulk Modulus (GPa) = 9.70368 18.16744 13.93556
# Shear Modulus (GPa) = 20.26689 27.07142 23.66916
#
# Velocity S-wave (km/s) = 3.03828 3.51148 3.28342
# Velocity P-wave (km/s) = 4.08999 4.97147 4.55212
#
# Compressibility (1/GPa) = 0.10305373
#
# Stress axis : x y z
#
# Youngs Moduli (GPa) = 26.81517 70.91145 40.00215
#
# Poissons Ratio (x) = 0.07753 -0.36528
# Poissons Ratio (y) = 0.02932 -0.21170
# Poissons Ratio (z) = -0.24486 -0.37528
#
# Static dielectric constant tensor:
#      x y z
#    x 1.802370 0.000000 0.001820 
#    y 0.000000 1.809600 0.000000 
#    z 0.001820 0.000000 1.760320 
# 
# From -- ./inp_files/12260.got.cif
#   From: 2010.05.17/outbox.cif.g08.bks.cpg/sg4_7_cif.got.tgz:12260.got - 2010.06.03 18:43:04.
