data_PCOD9115266
_publ_section_title
;
Structure prediction by ZEFSAII (Michael W. Deem and Ramdas Pophale) SiO2 
 PCOD9115266
Probable space group: P 21
;
_chemical_formula_sum "Si O2"
_cell_formula_units_Z 14
_cell_length_a 25.774504
_cell_length_b 4.979814
_cell_length_c 10.729457
_cell_angle_alpha 90.000000
_cell_angle_beta 148.846132
_cell_angle_gamma 90.000000
_cell_volume 712.452114
_symmetry_space_group_name_H-M "P 21"
_symmetry_group_IT_number 4
_symmetry_cell_setting 'monoclinic'
loop_
_space_group_symop_operation_xyz
x,y,z
-x,1/2+y,-z
loop_
_atom_site_type_symbol
_atom_site_label
_atom_site_fract_x
_atom_site_fract_y
_atom_site_fract_z
Si Si1 0.307745 0.156060 0.283679
Si Si2 0.983553 0.387278 0.385511
Si Si3 0.277075 0.065272 0.925600
Si Si4 0.927315 0.202471 0.857407
Si Si5 0.803179 0.171075 0.856330
Si Si6 0.164266 0.562488 0.590199
Si Si7 0.508639 0.363958 0.605982
O O1 0.234540 0.372804 0.194993
O O2 0.421552 0.261773 0.517474
O O3 0.288863 0.875432 0.313141
O O4 0.282839 0.126755 0.085068
O O5 0.966500 0.659728 0.426260
O O6 0.059326 0.461665 0.431244
O O7 0.883126 0.260967 0.124921
O O8 0.243609 0.328611 0.782347
O O9 0.200056 0.827941 0.735955
O O10 0.388355 0.961155 0.121225
O O11 0.860376 0.201560 0.843720
O O12 0.856703 0.129665 0.595784
O O13 0.983927 0.482790 0.950719
O O14 0.469191 0.615473 0.442358
#
# Coordination Sequence:
#
# PCOD9115266 Si02
#       7
#     2   2   2   2   2   2   2
#     4  11  22  39  62  96 126 156 199 251 319 367
#     4  12  24  36  56  88 124 156 188 248 318 360
#     4  11  22  39  62  96 126 156 199 251 319 367
#     4  12  26  46  62  82 120 174 226 248 294 360
#     4  12  24  40  61  87 124 164 207 256 293 368
#     4  12  24  40  61  87 124 164 207 256 293 368
#     4  10  20  36  62  94 130 164 194 246 310 388
#
# _framework density 19.650444
#
# number of rings (size 3 to 8) (size 9 to 14) (size 15 to 20)
#    0.000    0.571    1.429   10.286    2.000    0.000 
#    0.000    0.000    0.000    3.429    0.000    2.000 
#    0.000    0.000    0.000    0.000    0.000    0.000 
#
# Total GULP energy -78363.492445 kJ/mol
# GULP energy per Si atom -5597.392317 kJ/mol
# Density = 1.960572 g / cm^3
# Si number density = 19.650444 Si / 1000 Ang^3
#
#
#
# Elastic Constant Matrix: (Units=GPa)
#
#
# Indices 1 2 3 4 5 6 
#
# 1 79.1331 -4.6526 17.8907 0.0000 -0.4962 0.0000
# 2 -4.6526 82.3780 -2.2293 0.0000 -6.9023 0.0000
# 3 17.8907 -2.2293 36.2094 0.0000 4.6788 0.0000
# 4 0.0000 0.0000 0.0000 24.7003 0.0000 14.4428
# 5 -0.4962 -6.9023 4.6788 0.0000 23.6630 0.0000
# 6 0.0000 0.0000 0.0000 14.4428 0.0000 34.0536
#
#
#
# Elastic Compliance Matrix: (Units=1/GPa)
#
#
# Indices 1 2 3 4 5 6 
#
# 1 0.014344 0.000778 -0.007294 0.000000 0.001970 0.000000
# 2 0.000778 0.012489 -0.000091 0.000000 0.003677 0.000000
# 3 -0.007294 -0.000091 0.032058 0.000000 -0.006518 0.000000
# 4 0.000000 0.000000 0.000000 0.053836 0.000000 -0.022833
# 5 0.001970 0.003677 -0.006518 0.000000 0.044663 0.000000
# 6 0.000000 0.000000 0.000000 -0.022833 0.000000 0.039049
#
#
# Mechanical properties :
#
#
# Convention : Reuss Voigt Hill
#
# Bulk Modulus (GPa) = 21.89280 24.41536 23.15408
# Shear Modulus (GPa) = 22.23430 28.93083 25.58256
#
# Velocity S-wave (km/s) = 3.36741 3.84118 3.61207
# Velocity P-wave (km/s) = 5.12685 5.66787 5.40413
#
# Compressibility (1/GPa) = 0.04567712
#
# Stress axis : x y z
#
# Youngs Moduli (GPa) = 69.71534 80.07218 31.19379
#
# Poissons Ratio (x) = -0.06228 0.22752
# Poissons Ratio (y) = -0.05422 0.00282
# Poissons Ratio (z) = 0.50850 0.00725
#
# Static dielectric constant tensor:
#      x y z
#    x 1.689100 0.000000 0.024910 
#    y 0.000000 1.706120 0.000000 
#    z 0.024910 0.000000 1.695350 
# 
# From -- ./inp_files/9795.got.cif
#   From: 2010.05.17/outbox.cif.g08.bks.cpg/sg4_5_cif.got.tgz:9795.got - 2010.06.03 18:43:04.
