data_PCOD9115746
_publ_section_title
;
Structure prediction by ZEFSAII (Michael W. Deem and Ramdas Pophale) SiO2 
 PCOD9115746
Probable space group: P 21
;
_chemical_formula_sum "Si O2"
_cell_formula_units_Z 16
_cell_length_a 14.079852
_cell_length_b 8.069690
_cell_length_c 16.685701
_cell_angle_alpha 90.000000
_cell_angle_beta 20.878867
_cell_angle_gamma 90.000000
_cell_volume 675.661315
_symmetry_space_group_name_H-M "P 21"
_symmetry_group_IT_number 4
_symmetry_cell_setting 'monoclinic'
loop_
_space_group_symop_operation_xyz
x,y,z
-x,1/2+y,-z
loop_
_atom_site_type_symbol
_atom_site_label
_atom_site_fract_x
_atom_site_fract_y
_atom_site_fract_z
Si Si1 0.840379 0.938320 0.805388
Si Si2 0.175252 0.425661 0.993770
Si Si3 0.684646 0.523707 0.738431
Si Si4 0.852443 0.173825 0.527603
Si Si5 0.649817 0.662431 0.605071
Si Si6 0.181284 0.367031 0.686844
Si Si7 0.327479 0.060947 0.681880
Si Si8 0.329547 0.047607 0.865885
O O1 0.943355 0.758583 0.696947
O O2 0.823816 0.954796 0.913205
O O3 0.077978 0.061052 0.598754
O O4 0.547042 0.998030 0.012015
O O5 0.390594 0.551266 0.784055
O O6 0.265622 0.240413 0.914710
O O7 0.873120 0.440044 0.204861
O O8 0.717895 0.337187 0.674464
O O9 0.601924 0.670543 0.740060
O O10 0.964995 0.573867 0.555272
O O11 0.630238 0.054651 0.663359
O O12 0.718146 0.786179 0.477169
O O13 0.238630 0.234301 0.712578
O O14 0.360521 0.524088 0.571430
O O15 0.876348 0.428878 0.925555
O O16 0.283968 0.014476 0.808433
#
# Coordination Sequence:
#
# PCOD9115746 Si02
#       8
#     2   2   2   2   2   2   2   2
#     4  10  20  44  73 101 136 196 238 306 375 450
#     4  11  23  46  75  98 150 189 250 302 382 441
#     4  10  24  46  74 104 148 189 249 306 390 450
#     4  11  25  46  73 105 145 194 244 315 379 456
#     4  10  23  45  72 104 142 195 243 312 375 455
#     4  12  29  44  74 110 149 201 256 310 389 456
#     4  12  29  43  73 106 149 193 254 312 378 460
#     4  12  27  46  72 108 149 195 250 319 374 458
#
# _framework density 23.680503999999999
#
# number of rings (size 3 to 8) (size 9 to 14) (size 15 to 20)
#    0.000    1.000    5.000    1.500   10.500    4.000 
#    0.000    0.000    0.000    0.000    0.000    0.000 
#    0.000    0.000    0.000    0.000    0.000    0.000 
#
# Total GULP energy -89129.998761 kJ/mol
# GULP energy per Si atom -5570.624923 kJ/mol
# Density = 2.362661 g / cm^3
# Si number density = 23.680504 Si / 1000 Ang^3
#
#
#
# Elastic Constant Matrix: (Units=GPa)
#
#
# Indices 1 2 3 4 5 6 
#
# 1 90.8588 43.3735 42.1350 0.0000 -10.1191 0.0000
# 2 43.3735 70.3083 50.3213 0.0000 -8.1113 0.0000
# 3 42.1350 50.3213 115.5231 0.0000 -6.5479 0.0000
# 4 0.0000 0.0000 0.0000 46.2671 0.0000 -7.3592
# 5 -10.1191 -8.1113 -6.5479 0.0000 32.0175 0.0000
# 6 0.0000 0.0000 0.0000 -7.3592 0.0000 65.1438
#
#
#
# Elastic Compliance Matrix: (Units=1/GPa)
#
#
# Indices 1 2 3 4 5 6 
#
# 1 0.016195 -0.008090 -0.002235 0.000000 0.002612 0.000000
# 2 -0.008090 0.025087 -0.007853 0.000000 0.002193 0.000000
# 3 -0.002235 -0.007853 0.012889 0.000000 -0.000060 0.000000
# 4 0.000000 0.000000 0.000000 0.022009 0.000000 0.002486
# 5 0.002612 0.002193 -0.000060 0.000000 0.032602 0.000000
# 6 0.000000 0.000000 0.000000 0.002486 0.000000 0.015632
#
#
# Mechanical properties :
#
#
# Convention : Reuss Voigt Hill
#
# Bulk Modulus (GPa) = 56.13057 60.92774 58.52916
# Shear Modulus (GPa) = 29.99250 38.07637 34.03443
#
# Velocity S-wave (km/s) = 3.56272 4.01424 3.79520
# Velocity P-wave (km/s) = 6.37799 6.87535 6.63133
#
# Compressibility (1/GPa) = 0.01781560
#
# Stress axis : x y z
#
# Youngs Moduli (GPa) = 61.74592 39.86064 77.58709
#
# Poissons Ratio (x) = 0.32248 0.17340
# Poissons Ratio (y) = 0.49953 0.60929
# Poissons Ratio (z) = 0.13800 0.31302
#
# Static dielectric constant tensor:
#      x y z
#    x 1.761750 0.000000 -0.013460 
#    y 0.000000 2.053530 0.000000 
#    z -0.013460 0.000000 2.066730 
# 
# From -- ./inp_files/15228.got.cif
#   From: 2010.05.17/outbox.cif.g08.bks.cpg/sg4_8_cif.got.tgz:15228.got - 2010.06.03 18:43:04.
