data_PCOD9115686
_publ_section_title
;
Structure prediction by ZEFSAII (Michael W. Deem and Ramdas Pophale) SiO2 
 PCOD9115686
Probable space group: P 21
;
_chemical_formula_sum "Si O2"
_cell_formula_units_Z 10
_cell_length_a 11.839692
_cell_length_b 7.453653
_cell_length_c 11.503673
_cell_angle_alpha 90.000000
_cell_angle_beta 156.351330
_cell_angle_gamma 90.000000
_cell_volume 407.219266
_symmetry_space_group_name_H-M "P 21"
_symmetry_group_IT_number 4
_symmetry_cell_setting 'monoclinic'
loop_
_space_group_symop_operation_xyz
x,y,z
-x,1/2+y,-z
loop_
_atom_site_type_symbol
_atom_site_label
_atom_site_fract_x
_atom_site_fract_y
_atom_site_fract_z
Si Si1 0.986684 0.616350 0.320187
Si Si2 0.170306 0.012956 0.572831
Si Si3 0.750031 0.096853 0.000042
Si Si4 0.670243 0.512963 0.572748
Si Si5 0.513397 0.616349 0.679889
O O1 0.880962 0.531344 0.339550
O O2 0.067944 0.818766 0.433199
O O3 0.250069 0.533084 0.500085
O O4 0.750087 0.622336 0.000062
O O5 0.971907 0.152125 0.312778
O O6 0.498263 0.026521 0.848229
O O7 0.001802 0.026532 0.151855
O O8 0.528157 0.152129 0.687307
O O9 0.618990 0.531348 0.660383
O O10 0.567885 0.318771 0.433123
#
# Coordination Sequence:
#
# PCOD9115686 Si02
#       5
#     2   2   2   2   2
#     4  12  24  44  68  97 132 171 217 271 322 385
#     4  11  22  43  70  92 134 173 213 269 328 379
#     4  10  20  42  68  92 128 180 200 266 336 372
#     4  11  22  43  70  92 134 173 213 269 328 379
#     4  12  24  44  68  97 132 171 217 271 322 385
#
# _framework density 24.556795000000001
#
# number of rings (size 3 to 8) (size 9 to 14) (size 15 to 20)
#    0.000    0.800    6.000    2.400    0.000    0.000 
#   10.800    0.000    0.000    0.000    0.000    0.000 
#    0.000    0.000    0.000    0.000    0.000    0.000 
#
# Total GULP energy -55703.115541 kJ/mol
# GULP energy per Si atom -5570.311554 kJ/mol
# Density = 2.450090 g / cm^3
# Si number density = 24.556795 Si / 1000 Ang^3
#
#
#
# Elastic Constant Matrix: (Units=GPa)
#
#
# Indices 1 2 3 4 5 6 
#
# 1 346.2803 65.4310 122.9242 0.0000 11.1598 0.0000
# 2 65.4310 48.2749 40.0072 0.0000 1.3949 0.0000
# 3 122.9242 40.0072 231.5292 0.0000 35.5193 0.0000
# 4 0.0000 0.0000 0.0000 -38.9571 0.0000 49.9231
# 5 11.1598 1.3949 35.5193 0.0000 50.3079 0.0000
# 6 0.0000 0.0000 0.0000 49.9231 0.0000 -15.7892
#
#
#
# Elastic Compliance Matrix: (Units=1/GPa)
#
#
# Indices 1 2 3 4 5 6 
#
# 1 0.004280 -0.004543 -0.001526 0.000000 0.000254 0.000000
# 2 -0.004543 0.029297 -0.003006 0.000000 0.002318 0.000000
# 3 -0.001526 -0.003006 0.006262 0.000000 -0.004000 0.000000
# 4 0.000000 0.000000 0.000000 0.008411 0.000000 0.026594
# 5 0.000254 0.002318 -0.004000 0.000000 0.022581 0.000000
# 6 0.000000 0.000000 0.000000 0.026594 0.000000 0.020753
#
#
# Mechanical properties :
#
#
# Convention : Reuss Voigt Hill
#
# Bulk Modulus (GPa) = 46.10769 120.31215 83.20992
# Shear Modulus (GPa) = 42.74835 25.62713 34.18774
#
# Velocity S-wave (km/s) = 4.17681 3.23396 3.73526
# Velocity P-wave (km/s) = 6.48673 7.94006 7.24990
#
# Compressibility (1/GPa) = 0.02168836
#
# Stress axis : x y z
#
# Youngs Moduli (GPa) = 233.64869 34.13347 159.68431
#
# Poissons Ratio (x) = 0.15508 0.24371
# Poissons Ratio (y) = 1.06157 0.47996
# Poissons Ratio (z) = 0.35660 0.10259
#
# Static dielectric constant tensor:
#      x y z
#    x 1.880250 0.000000 -0.001670 
#    y 0.000000 2.139750 0.000000 
#    z -0.001670 0.000000 2.054050 
# 
# From -- ./inp_files/10197.got.cif
#   From: 2010.05.17/outbox.cif.g08.bks.cpg/sg4_6_cif.got.tgz:10197.got - 2010.06.03 18:43:04.
