data_PCOD9115258
_publ_section_title
;
Structure prediction by ZEFSAII (Michael W. Deem and Ramdas Pophale) SiO2 
 PCOD9115258
Probable space group: P 21
;
_chemical_formula_sum "Si O2"
_cell_formula_units_Z 14
_cell_length_a 9.391479
_cell_length_b 8.969589
_cell_length_c 11.164324
_cell_angle_alpha 90.000000
_cell_angle_beta 38.513710
_cell_angle_gamma 90.000000
_cell_volume 585.624378
_symmetry_space_group_name_H-M "P 21"
_symmetry_group_IT_number 4
_symmetry_cell_setting 'monoclinic'
loop_
_space_group_symop_operation_xyz
x,y,z
-x,1/2+y,-z
loop_
_atom_site_type_symbol
_atom_site_label
_atom_site_fract_x
_atom_site_fract_y
_atom_site_fract_z
Si Si1 0.790123 0.630010 0.426319
Si Si2 0.702014 0.134509 0.001158
Si Si3 0.354963 0.783508 0.707439
Si Si4 0.242282 0.800662 0.531868
Si Si5 0.470977 0.053094 0.784536
Si Si6 0.341964 0.943714 0.105601
Si Si7 0.911029 0.851326 0.542784
O O1 0.613038 0.749865 0.491210
O O2 0.673958 0.470152 0.508731
O O3 0.846054 0.697790 0.519857
O O4 0.030868 0.613160 0.202336
O O5 0.680225 0.179460 0.154062
O O6 0.624528 0.279679 0.974725
O O7 0.544068 0.000938 0.058263
O O8 0.201289 0.748644 0.694583
O O9 0.348902 0.950719 0.764493
O O10 0.425326 0.701144 0.340523
O O11 0.015145 0.815282 0.602316
O O12 0.325385 0.054137 0.001960
O O13 0.696067 0.960116 0.679486
O O14 0.110342 0.925948 0.332516
#
# Coordination Sequence:
#
# PCOD9115258 Si02
#       7
#     2   2   2   2   2   2   2
#     4  10  22  41  62  86 122 162 208 259 308 370
#     4  10  21  39  61  91 126 162 206 261 315 371
#     4  10  23  41  59  86 128 166 200 255 321 380
#     4  12  21  38  65  91 120 164 209 257 319 375
#     4  10  22  39  59  88 122 156 205 260 308 366
#     4  10  20  36  61  89 120 158 204 255 304 361
#     4  10  21  38  61  89 120 158 204 257 309 365
#
# _framework density 23.906106999999999
#
# number of rings (size 3 to 8) (size 9 to 14) (size 15 to 20)
#    0.000    1.714    0.000    5.143    0.000    3.429 
#    0.000   11.429    0.000    0.000    0.000    0.000 
#    0.000    0.000    0.000    0.000    0.000    0.000 
#
# Total GULP energy -78343.707874 kJ/mol
# GULP energy per Si atom -5595.979134 kJ/mol
# Density = 2.385170 g / cm^3
# Si number density = 23.906107 Si / 1000 Ang^3
#
#
#
# Elastic Constant Matrix: (Units=GPa)
#
#
# Indices 1 2 3 4 5 6 
#
# 1 146.2819 20.8926 51.7987 0.0000 32.5560 0.0000
# 2 20.8926 93.4145 46.1078 0.0000 14.7767 0.0000
# 3 51.7987 46.1078 99.9332 0.0000 9.0189 0.0000
# 4 0.0000 0.0000 0.0000 31.7559 0.0000 -0.7656
# 5 32.5560 14.7767 9.0189 0.0000 22.5814 0.0000
# 6 0.0000 0.0000 0.0000 -0.7656 0.0000 21.3139
#
#
#
# Elastic Compliance Matrix: (Units=1/GPa)
#
#
# Indices 1 2 3 4 5 6 
#
# 1 0.012562 0.003115 -0.006359 0.000000 -0.017609 0.000000
# 2 0.003115 0.015706 -0.007810 0.000000 -0.011649 0.000000
# 3 -0.006359 -0.007810 0.016201 0.000000 0.007808 0.000000
# 4 0.000000 0.000000 0.000000 0.031518 0.000000 0.001132
# 5 -0.017609 -0.011649 0.007808 0.000000 0.074176 0.000000
# 6 0.000000 0.000000 0.000000 0.001132 0.000000 0.046958
#
#
# Mechanical properties :
#
#
# Convention : Reuss Voigt Hill
#
# Bulk Modulus (GPa) = 44.72025 64.13643 54.42834
# Shear Modulus (GPa) = 22.05719 29.85228 25.95474
#
# Velocity S-wave (km/s) = 3.04083 3.53757 3.29856
# Velocity P-wave (km/s) = 5.57459 6.60095 6.10936
#
# Compressibility (1/GPa) = 0.02236123
#
# Stress axis : x y z
#
# Youngs Moduli (GPa) = 79.60399 63.67119 61.72277
#
# Poissons Ratio (x) = -0.19832 0.39251
# Poissons Ratio (y) = -0.24795 0.48203
# Poissons Ratio (z) = 0.50622 0.49724
#
# Static dielectric constant tensor:
#      x y z
#    x 1.936680 0.000000 0.022460 
#    y 0.000000 1.939500 0.000000 
#    z 0.022460 0.000000 1.946490 
# 
# From -- ./inp_files/10992.got.cif
#   From: 2010.05.17/outbox.cif.g08.bks.cpg/sg4_6_cif.got.tgz:10992.got - 2010.06.03 18:43:04.
