data_PCOD9115411
_publ_section_title
;
Structure prediction by ZEFSAII (Michael W. Deem and Ramdas Pophale) SiO2 
 PCOD9115411
Probable space group: P 21
;
_chemical_formula_sum "Si O2"
_cell_formula_units_Z 16
_cell_length_a 8.132609
_cell_length_b 12.928103
_cell_length_c 8.406510
_cell_angle_alpha 90.000000
_cell_angle_beta 128.825744
_cell_angle_gamma 90.000000
_cell_volume 688.571903
_symmetry_space_group_name_H-M "P 21"
_symmetry_group_IT_number 4
_symmetry_cell_setting 'monoclinic'
loop_
_space_group_symop_operation_xyz
x,y,z
-x,1/2+y,-z
loop_
_atom_site_type_symbol
_atom_site_label
_atom_site_fract_x
_atom_site_fract_y
_atom_site_fract_z
Si Si1 0.735368 0.934740 0.704116
Si Si2 0.945948 0.380236 0.550570
Si Si3 0.422543 0.984313 0.270155
Si Si4 0.843029 0.495941 0.166901
Si Si5 0.659328 0.122781 0.846642
Si Si6 0.775534 0.693355 0.310746
Si Si7 0.602284 0.284421 0.549867
Si Si8 0.086775 0.091127 0.277903
O O1 0.655727 0.982719 0.486015
O O2 0.982160 0.955759 0.852728
O O3 0.634049 0.820630 0.645202
O O4 0.629549 0.002337 0.779924
O O5 0.762842 0.305256 0.505790
O O6 0.870831 0.423573 0.335808
O O7 0.154496 0.310371 0.671357
O O8 0.968478 0.479199 0.678434
O O9 0.346528 0.872750 0.287494
O O10 0.279785 0.069017 0.274556
O O11 0.379830 0.992050 0.058976
O O12 0.875908 0.613200 0.246200
O O13 0.473049 0.169432 0.839357
O O14 0.640669 0.180598 0.666791
O O15 0.885141 0.134628 0.064259
O O16 0.849187 0.660274 0.532564
#
# Coordination Sequence:
#
# PCOD9115411 Si02
#       8
#     2   2   2   2   2   2   2   2
#     4  10  20  38  64  91 121 160 209 259 303 373
#     4  10  22  42  60  93 133 161 204 266 325 359
#     4   9  20  40  62  91 116 160 212 254 301 373
#     4  11  21  38  66  90 125 164 196 267 322 355
#     4  12  21  41  67  91 123 169 216 252 310 378
#     4  11  24  40  61  93 132 163 201 267 316 370
#     4   9  22  41  63  88 123 165 215 251 300 391
#     4  10  22  42  65  89 125 166 213 262 305 379
#
# _framework density 23.236498000000001
#
# number of rings (size 3 to 8) (size 9 to 14) (size 15 to 20)
#    0.750    1.000    2.500    2.250    1.750    2.000 
#    0.000    2.500    0.000    0.000    0.000    0.000 
#    0.000    0.000    0.000    0.000    0.000    0.000 
#
# Total GULP energy -89350.544289 kJ/mol
# GULP energy per Si atom -5584.409018 kJ/mol
# Density = 2.318361 g / cm^3
# Si number density = 23.236498 Si / 1000 Ang^3
#
#
#
# Elastic Constant Matrix: (Units=GPa)
#
#
# Indices 1 2 3 4 5 6 
#
# 1 55.2560 4.8232 -12.0478 0.0000 5.4585 0.0000
# 2 4.8232 48.4094 -12.0141 0.0000 -2.5067 0.0000
# 3 -12.0478 -12.0141 64.8304 0.0000 13.2005 0.0000
# 4 0.0000 0.0000 0.0000 9.0186 0.0000 4.4554
# 5 5.4585 -2.5067 13.2005 0.0000 30.1764 0.0000
# 6 0.0000 0.0000 0.0000 4.4554 0.0000 31.2019
#
#
#
# Elastic Compliance Matrix: (Units=1/GPa)
#
#
# Indices 1 2 3 4 5 6 
#
# 1 0.019766 -0.001116 0.004625 0.000000 -0.005691 0.000000
# 2 -0.001116 0.021716 0.003742 0.000000 0.000369 0.000000
# 3 0.004625 0.003742 0.018755 0.000000 -0.008730 0.000000
# 4 0.000000 0.000000 0.000000 0.119297 0.000000 -0.017035
# 5 -0.005691 0.000369 -0.008730 0.000000 0.038018 0.000000
# 6 0.000000 0.000000 0.000000 -0.017035 0.000000 0.034482
#
#
# Mechanical properties :
#
#
# Convention : Reuss Voigt Hill
#
# Bulk Modulus (GPa) = 13.37995 14.44649 13.91322
# Shear Modulus (GPa) = 19.05161 26.59503 22.82332
#
# Velocity S-wave (km/s) = 2.86650 3.38677 3.13744
# Velocity P-wave (km/s) = 4.08979 4.63943 4.37325
#
# Compressibility (1/GPa) = 0.07473869
#
# Stress axis : x y z
#
# Youngs Moduli (GPa) = 50.59271 46.04888 53.31797
#
# Poissons Ratio (x) = 0.05140 -0.24661
# Poissons Ratio (y) = 0.05647 -0.19950
# Poissons Ratio (z) = -0.23400 -0.17230
#
# Static dielectric constant tensor:
#      x y z
#    x 1.896900 0.000000 0.008600 
#    y 0.000000 1.874860 0.000000 
#    z 0.008600 0.000000 1.832170 
# 
# From -- ./inp_files/6469.got.cif
#   From: 2010.05.17/outbox.cif.g08.bks.cpg/sg4_4_cif.got.tgz:6469.got - 2010.06.03 18:43:04.
