data_PCOD9115097
_publ_section_title
;
Structure prediction by ZEFSAII (Michael W. Deem and Ramdas Pophale) SiO2 
 PCOD9115097
Probable space group: P 21
;
_chemical_formula_sum "Si O2"
_cell_formula_units_Z 16
_cell_length_a 14.470958
_cell_length_b 7.105150
_cell_length_c 11.700540
_cell_angle_alpha 90.000000
_cell_angle_beta 29.163422
_cell_angle_gamma 90.000000
_cell_volume 586.239239
_symmetry_space_group_name_H-M "P 21"
_symmetry_group_IT_number 4
_symmetry_cell_setting 'monoclinic'
loop_
_space_group_symop_operation_xyz
x,y,z
-x,1/2+y,-z
loop_
_atom_site_type_symbol
_atom_site_label
_atom_site_fract_x
_atom_site_fract_y
_atom_site_fract_z
Si Si1 0.755478 0.026610 0.285558
Si Si2 0.314931 0.546676 0.303607
Si Si3 0.111963 0.907322 0.772981
Si Si4 0.913821 0.413310 0.723159
Si Si5 0.937318 0.419070 0.435503
Si Si6 0.319839 0.529478 0.050788
Si Si7 0.407637 0.065933 0.787083
Si Si8 0.512488 0.995271 0.357492
O O1 0.824008 0.188784 0.297079
O O2 0.560110 0.943999 0.548084
O O3 0.671034 0.103467 0.257060
O O4 0.936410 0.913680 0.048707
O O5 0.203773 0.743131 0.416061
O O6 0.402487 0.504967 0.085637
O O7 0.482212 0.560482 0.211392
O O8 0.137707 0.404677 0.511798
O O9 0.077361 0.985633 0.682506
O O10 0.295572 0.009446 0.628389
O O11 0.903843 0.497677 0.602655
O O12 0.814524 0.211501 0.815908
O O13 0.800872 0.501511 0.952739
O O14 0.162515 0.369572 0.198552
O O15 0.477118 0.546817 0.786254
O O16 0.420405 0.274396 0.718210
#
# Coordination Sequence:
#
# PCOD9115097 Si02
#       8
#     2   2   2   2   2   2   2   2
#     4  11  26  45  69 101 128 182 231 277 336 394
#     4  10  21  42  68  99 135 178 222 269 343 397
#     4  11  25  46  72  92 134 181 225 281 332 401
#     4  10  24  39  68 105 139 168 220 280 329 409
#     4  10  19  46  67  97 135 180 219 267 344 389
#     4  10  22  39  68 104 138 171 218 280 331 405
#     4  11  25  43  69  98 132 184 218 277 337 405
#     4  11  24  44  67  98 137 180 223 277 340 392
#
# _framework density 27.29261
#
# number of rings (size 3 to 8) (size 9 to 14) (size 15 to 20)
#    0.000    1.500    3.750    0.750    1.750    8.000 
#    2.250    0.000    0.000    0.000    0.000    0.000 
#    0.000    0.000    0.000    0.000    0.000    0.000 
#
# Total GULP energy -89363.886920 kJ/mol
# GULP energy per Si atom -5585.242932 kJ/mol
# Density = 2.723049 g / cm^3
# Si number density = 27.292610 Si / 1000 Ang^3
#
#
#
# Elastic Constant Matrix: (Units=GPa)
#
#
# Indices 1 2 3 4 5 6 
#
# 1 115.9114 2.3238 17.7389 0.0000 -2.2680 0.0000
# 2 2.3238 52.8867 18.3147 0.0000 5.3126 0.0000
# 3 17.7389 18.3147 157.7103 0.0000 22.3364 0.0000
# 4 0.0000 0.0000 0.0000 36.2247 0.0000 5.4143
# 5 -2.2680 5.3126 22.3364 0.0000 37.6411 0.0000
# 6 0.0000 0.0000 0.0000 5.4143 0.0000 30.9629
#
#
#
# Elastic Compliance Matrix: (Units=1/GPa)
#
#
# Indices 1 2 3 4 5 6 
#
# 1 0.008830 -0.000112 -0.001155 0.000000 0.001233 0.000000
# 2 -0.000112 0.019786 -0.002062 0.000000 -0.001576 0.000000
# 3 -0.001155 -0.002062 0.007292 0.000000 -0.004105 0.000000
# 4 0.000000 0.000000 0.000000 0.028346 0.000000 -0.004957
# 5 0.001233 -0.001576 -0.004105 0.000000 0.029300 0.000000
# 6 0.000000 0.000000 0.000000 -0.004957 0.000000 0.033163
#
#
# Mechanical properties :
#
#
# Convention : Reuss Voigt Hill
#
# Bulk Modulus (GPa) = 34.18798 44.80702 39.49750
# Shear Modulus (GPa) = 34.93466 40.17448 37.55457
#
# Velocity S-wave (km/s) = 3.58160 3.84082 3.71347
# Velocity P-wave (km/s) = 5.44586 6.01016 5.73496
#
# Compressibility (1/GPa) = 0.02925005
#
# Stress axis : x y z
#
# Youngs Moduli (GPa) = 113.24521 50.54182 137.14548
#
# Poissons Ratio (x) = 0.00566 0.15839
# Poissons Ratio (y) = 0.01268 0.28278
# Poissons Ratio (z) = 0.13078 0.10421
#
# Static dielectric constant tensor:
#      x y z
#    x 2.117210 0.000000 0.059250 
#    y 0.000000 2.302160 0.000000 
#    z 0.059250 0.000000 2.148940 
# 
# From -- ./inp_files/12640.got.cif
#   From: 2010.05.17/outbox.cif.g08.bks.cpg/sg4_7_cif.got.tgz:12640.got - 2010.06.03 18:43:04.
