data_PCOD9115782
_publ_section_title
;
Structure prediction by ZEFSAII (Michael W. Deem and Ramdas Pophale) SiO2 
 PCOD9115782
Probable space group: P 21
;
_chemical_formula_sum "Si O2"
_cell_formula_units_Z 16
_cell_length_a 13.597583
_cell_length_b 5.026266
_cell_length_c 12.090524
_cell_angle_alpha 90.000000
_cell_angle_beta 111.740237
_cell_angle_gamma 90.000000
_cell_volume 767.553225
_symmetry_space_group_name_H-M "P 21"
_symmetry_group_IT_number 4
_symmetry_cell_setting 'monoclinic'
loop_
_space_group_symop_operation_xyz
x,y,z
-x,1/2+y,-z
loop_
_atom_site_type_symbol
_atom_site_label
_atom_site_fract_x
_atom_site_fract_y
_atom_site_fract_z
Si Si1 0.585447 0.251560 0.920788
Si Si2 0.087013 0.962730 0.261551
Si Si3 0.057855 0.763967 0.485199
Si Si4 0.054997 0.387366 0.982702
Si Si5 0.560937 0.252171 0.157380
Si Si6 0.730779 0.817968 0.592912
Si Si7 0.249050 0.609282 0.185011
Si Si8 0.708076 0.330604 0.429160
O O1 0.492000 0.462248 0.860583
O O2 0.674230 0.268106 0.864283
O O3 0.535123 0.960134 0.888804
O O4 0.620368 0.283228 0.063605
O O5 0.062499 0.784349 0.355821
O O6 0.148780 0.223151 0.329418
O O7 0.978791 0.000187 0.150281
O O8 0.172328 0.811253 0.219695
O O9 0.969556 0.970354 0.488228
O O10 0.173373 0.868067 0.569700
O O11 0.172079 0.431037 0.076128
O O12 0.019553 0.081062 0.973455
O O13 0.628939 0.311014 0.294178
O O14 0.693663 0.928894 0.697236
O O15 0.716357 0.057037 0.501253
O O16 0.683888 0.560577 0.509786
#
# Coordination Sequence:
#
# PCOD9115782 Si02
#       8
#     2   2   2   2   2   2   2   2
#     4  10  24  42  73  92 127 161 217 269 338 373
#     4  10  22  40  60  88 133 167 206 262 313 373
#     4  11  23  37  60  90 123 169 207 247 303 373
#     4  10  21  34  58  89 124 164 201 249 308 369
#     4  10  23  48  65  96 124 169 208 274 322 396
#     4  11  20  38  65  90 125 173 200 262 321 375
#     4  11  22  40  66  96 126 170 212 271 321 387
#     4  11  23  41  69  87 130 171 211 258 324 380
#
# _framework density 20.845458000000001
#
# number of rings (size 3 to 8) (size 9 to 14) (size 15 to 20)
#    0.000    1.500    3.750    2.250    1.750    1.000 
#    0.000    7.500    0.000    0.000    0.000    0.000 
#    0.000    0.000    0.000    0.000    0.000    0.000 
#
# Total GULP energy -89261.010483 kJ/mol
# GULP energy per Si atom -5578.813155 kJ/mol
# Density = 2.079801 g / cm^3
# Si number density = 20.845458 Si / 1000 Ang^3
#
#
#
# Elastic Constant Matrix: (Units=GPa)
#
#
# Indices 1 2 3 4 5 6 
#
# 1 60.8745 3.9935 39.0594 0.0000 -25.5081 0.0000
# 2 3.9935 86.5860 21.4903 0.0000 -12.6921 0.0000
# 3 39.0594 21.4903 175.2804 0.0000 0.4681 0.0000
# 4 0.0000 0.0000 0.0000 33.4123 0.0000 -5.0595
# 5 -25.5081 -12.6921 0.4681 0.0000 26.1647 0.0000
# 6 0.0000 0.0000 0.0000 -5.0595 0.0000 19.7374
#
#
#
# Elastic Compliance Matrix: (Units=1/GPa)
#
#
# Indices 1 2 3 4 5 6 
#
# 1 0.040274 0.006878 -0.009932 0.000000 0.042777 0.000000
# 2 0.006878 0.014038 -0.003290 0.000000 0.013574 0.000000
# 3 -0.009932 -0.003290 0.008352 0.000000 -0.011428 0.000000
# 4 0.000000 0.000000 0.000000 0.031138 0.000000 0.007982
# 5 0.042777 0.013574 -0.011428 0.000000 0.086712 0.000000
# 6 0.000000 0.000000 0.000000 0.007982 0.000000 0.052711
#
#
# Mechanical properties :
#
#
# Convention : Reuss Voigt Hill
#
# Bulk Modulus (GPa) = 20.00964 50.20304 35.10634
# Shear Modulus (GPa) = 19.04237 33.07605 26.05921
#
# Velocity S-wave (km/s) = 3.02570 3.98770 3.53953
# Velocity P-wave (km/s) = 4.67187 6.73335 5.79501
#
# Compressibility (1/GPa) = 0.04997591
#
# Stress axis : x y z
#
# Youngs Moduli (GPa) = 24.83018 71.23359 119.72746
#
# Poissons Ratio (x) = -0.48995 1.18914
# Poissons Ratio (y) = -0.17078 0.39392
# Poissons Ratio (z) = 0.24661 0.23437
#
# Static dielectric constant tensor:
#      x y z
#    x 1.758720 0.000000 -0.002470 
#    y 0.000000 1.778400 0.000000 
#    z -0.002470 0.000000 1.781980 
# 
# From -- ./inp_files/11634.got.cif
#   From: 2010.05.17/outbox.cif.g08.bks.cpg/sg4_6_cif.got.tgz:11634.got - 2010.06.03 18:43:04.
