data_PCOD9115188
_publ_section_title
;
Structure prediction by ZEFSAII (Michael W. Deem and Ramdas Pophale) SiO2 
 PCOD9115188
Probable space group: P 21
;
_chemical_formula_sum "Si O2"
_cell_formula_units_Z 10
_cell_length_a 9.453993
_cell_length_b 4.988429
_cell_length_c 14.029363
_cell_angle_alpha 90.000000
_cell_angle_beta 143.863725
_cell_angle_gamma 90.000000
_cell_volume 390.170015
_symmetry_space_group_name_H-M "P 21"
_symmetry_group_IT_number 4
_symmetry_cell_setting 'monoclinic'
loop_
_space_group_symop_operation_xyz
x,y,z
-x,1/2+y,-z
loop_
_atom_site_type_symbol
_atom_site_label
_atom_site_fract_x
_atom_site_fract_y
_atom_site_fract_z
Si Si1 0.273319 0.475530 0.782039
Si Si2 0.269680 0.331351 0.280194
Si Si3 0.562539 0.823395 0.411934
Si Si4 0.705827 0.488452 0.315429
Si Si5 0.249662 0.688529 0.976115
O O1 0.221227 0.690064 0.671147
O O2 0.197088 0.562553 0.844554
O O3 0.174140 0.186381 0.697920
O O4 0.563281 0.431339 0.942531
O O5 0.326235 0.638660 0.289831
O O6 0.311719 0.307922 0.417261
O O7 0.997865 0.260459 0.109851
O O8 0.465532 0.124508 0.341814
O O9 0.715216 0.658520 0.417522
O O10 0.421942 0.502763 0.132890
#
# Coordination Sequence:
#
# PCOD9115188 Si02
#       5
#     2   2   2   2   2
#     4  10  20  35  57  85 110 143 177 237 270 332
#     4  10  23  37  61  77 115 153 184 228 281 333
#     4  10  22  41  53  85 113 148 190 229 274 331
#     4  10  20  35  59  78 119 137 184 233 275 318
#     4  10  21  36  60  81 113 145 187 221 288 324
#
# _framework density 25.629850999999999
#
# number of rings (size 3 to 8) (size 9 to 14) (size 15 to 20)
#    1.200    0.800    2.000    1.200    2.800    1.600 
#    0.000    2.000    0.000    0.000    0.000    0.000 
#    0.000    0.000    0.000    0.000    0.000    0.000 
#
# Total GULP energy -55861.361723 kJ/mol
# GULP energy per Si atom -5586.136172 kJ/mol
# Density = 2.557152 g / cm^3
# Si number density = 25.629851 Si / 1000 Ang^3
#
#
#
# Elastic Constant Matrix: (Units=GPa)
#
#
# Indices 1 2 3 4 5 6 
#
# 1 45.2313 -25.4217 9.7348 0.0000 -13.2673 0.0000
# 2 -25.4217 89.3523 -14.9077 0.0000 -8.3700 0.0000
# 3 9.7348 -14.9077 73.8592 0.0000 15.7211 0.0000
# 4 0.0000 0.0000 0.0000 8.5201 0.0000 -10.5014
# 5 -13.2673 -8.3700 15.7211 0.0000 52.8869 0.0000
# 6 0.0000 0.0000 0.0000 -10.5014 0.0000 24.3716
#
#
#
# Elastic Compliance Matrix: (Units=1/GPa)
#
#
# Indices 1 2 3 4 5 6 
#
# 1 0.031372 0.009165 -0.004557 0.000000 0.010675 0.000000
# 2 0.009165 0.014333 0.000761 0.000000 0.004341 0.000000
# 3 -0.004557 0.000761 0.015491 0.000000 -0.005628 0.000000
# 4 0.000000 0.000000 0.000000 0.250306 0.000000 0.107854
# 5 0.010675 0.004341 -0.005628 0.000000 0.023946 0.000000
# 6 0.000000 0.000000 0.000000 0.107854 0.000000 0.087505
#
#
# Mechanical properties :
#
#
# Convention : Reuss Voigt Hill
#
# Bulk Modulus (GPa) = 13.90161 16.36151 15.13156
# Shear Modulus (GPa) = 11.46281 33.09153 22.27717
#
# Velocity S-wave (km/s) = 2.11711 3.59713 2.95140
# Velocity P-wave (km/s) = 3.37816 4.86314 4.18701
#
# Compressibility (1/GPa) = 0.07193413
#
# Stress axis : x y z
#
# Youngs Moduli (GPa) = 31.87564 69.76956 64.55210
#
# Poissons Ratio (x) = -0.63946 0.29418
# Poissons Ratio (y) = -0.29215 -0.04912
# Poissons Ratio (z) = 0.14526 -0.05309
#
# Static dielectric constant tensor:
#      x y z
#    x 2.039980 0.000000 -0.005140 
#    y 0.000000 1.972720 0.000000 
#    z -0.005140 0.000000 2.041190 
# 
# From -- ./inp_files/5131.got.cif
#   From: 2010.05.17/outbox.cif.g08.bks.cpg/sg4_3_cif.got.tgz:5131.got - 2010.06.03 18:43:04.
