data_PCOD9115509
_publ_section_title
;
Structure prediction by ZEFSAII (Michael W. Deem and Ramdas Pophale) SiO2 
 PCOD9115509
Probable space group: P 21
;
_chemical_formula_sum "Si O2"
_cell_formula_units_Z 14
_cell_length_a 8.262831
_cell_length_b 10.042864
_cell_length_c 12.267559
_cell_angle_alpha 90.000000
_cell_angle_beta 145.913028
_cell_angle_gamma 90.000000
_cell_volume 570.534641
_symmetry_space_group_name_H-M "P 21"
_symmetry_group_IT_number 4
_symmetry_cell_setting 'monoclinic'
loop_
_space_group_symop_operation_xyz
x,y,z
-x,1/2+y,-z
loop_
_atom_site_type_symbol
_atom_site_label
_atom_site_fract_x
_atom_site_fract_y
_atom_site_fract_z
Si Si1 0.351299 0.194850 0.382129
Si Si2 0.335877 0.029555 0.186706
Si Si3 0.713276 0.690275 0.407287
Si Si4 0.090197 0.427774 0.606990
Si Si5 0.316138 0.688118 0.980792
Si Si6 0.806934 0.826701 0.907831
Si Si7 0.572435 0.913398 0.004370
O O1 0.413173 0.216056 0.542782
O O2 0.481763 0.074059 0.384213
O O3 0.354287 0.320814 0.300506
O O4 0.014587 0.150524 0.195946
O O5 0.603599 0.989678 0.261439
O O6 0.096170 0.914271 0.059550
O O7 0.180429 0.167210 0.062281
O O8 0.941586 0.801976 0.491457
O O9 0.460905 0.699548 0.178204
O O10 0.861357 0.545985 0.482076
O O11 0.151087 0.379209 0.764553
O O12 0.330112 0.821361 0.919621
O O13 0.483826 0.569443 0.015625
O O14 0.635750 0.885502 0.914282
#
# Coordination Sequence:
#
# PCOD9115509 Si02
#       7
#     2   2   2   2   2   2   2
#     4  10  23  44  67  94 141 171 224 284 330 412
#     4  10  22  43  67 100 137 176 224 282 336 406
#     4  11  25  44  66 102 134 180 224 282 340 395
#     4  11  24  45  67  98 142 175 232 287 325 410
#     4  11  23  41  72  98 132 179 223 280 338 403
#     4  10  20  39  68  98 129 179 216 273 348 389
#     4  11  21  40  69 100 129 174 225 280 325 409
#
# _framework density 24.538388999999999
#
# number of rings (size 3 to 8) (size 9 to 14) (size 15 to 20)
#    0.857    0.571    2.857    2.571    2.000    0.000 
#    5.143    5.714    0.000    0.000    0.000    0.000 
#    0.000    0.000    0.000    0.000    0.000    0.000 
#
# Total GULP energy -78175.914270 kJ/mol
# GULP energy per Si atom -5583.993876 kJ/mol
# Density = 2.448254 g / cm^3
# Si number density = 24.538389 Si / 1000 Ang^3
#
#
#
# Elastic Constant Matrix: (Units=GPa)
#
#
# Indices 1 2 3 4 5 6 
#
# 1 86.4575 6.6021 31.4017 0.0000 -33.1486 0.0000
# 2 6.6021 97.8874 8.2112 0.0000 -4.2743 0.0000
# 3 31.4017 8.2112 95.5153 0.0000 -41.5350 0.0000
# 4 0.0000 0.0000 0.0000 25.3212 0.0000 -5.7183
# 5 -33.1486 -4.2743 -41.5350 0.0000 47.1322 0.0000
# 6 0.0000 0.0000 0.0000 -5.7183 0.0000 41.5122
#
#
#
# Elastic Compliance Matrix: (Units=1/GPa)
#
#
# Indices 1 2 3 4 5 6 
#
# 1 0.015888 -0.000561 -0.000548 0.000000 0.010640 0.000000
# 2 -0.000561 0.010312 -0.000757 0.000000 -0.000127 0.000000
# 3 -0.000548 -0.000757 0.017052 0.000000 0.014573 0.000000
# 4 0.000000 0.000000 0.000000 0.040761 0.000000 0.005615
# 5 0.010640 -0.000127 0.014573 0.000000 0.041531 0.000000
# 6 0.000000 0.000000 0.000000 0.005615 0.000000 0.024863
#
#
# Mechanical properties :
#
#
# Convention : Reuss Voigt Hill
#
# Bulk Modulus (GPa) = 25.30447 41.36559 33.33503
# Shear Modulus (GPa) = 29.88450 38.36945 34.12697
#
# Velocity S-wave (km/s) = 3.49358 3.95859 3.73333
# Velocity P-wave (km/s) = 5.15830 6.14720 5.67433
#
# Compressibility (1/GPa) = 0.03951870
#
# Stress axis : x y z
#
# Youngs Moduli (GPa) = 62.94118 96.97780 58.64504
#
# Poissons Ratio (x) = 0.05440 0.03215
# Poissons Ratio (y) = 0.03531 0.04440
# Poissons Ratio (z) = 0.03450 0.07342
#
# Static dielectric constant tensor:
#      x y z
#    x 1.962180 0.000000 -0.049530 
#    y 0.000000 2.017940 0.000000 
#    z -0.049530 0.000000 2.009680 
# 
# From -- ./inp_files/11284.got.cif
#   From: 2010.05.17/outbox.cif.g08.bks.cpg/sg4_6_cif.got.tgz:11284.got - 2010.06.03 18:43:04.
