data_PCOD9115987
_publ_section_title
;
Structure prediction by ZEFSAII (Michael W. Deem and Ramdas Pophale) SiO2 
 PCOD9115987
Probable space group: P 21
;
_chemical_formula_sum "Si O2"
_cell_formula_units_Z 16
_cell_length_a 10.079924
_cell_length_b 4.980766
_cell_length_c 15.069432
_cell_angle_alpha 90.000000
_cell_angle_beta 126.016715
_cell_angle_gamma 90.000000
_cell_volume 611.949867
_symmetry_space_group_name_H-M "P 21"
_symmetry_group_IT_number 4
_symmetry_cell_setting 'monoclinic'
loop_
_space_group_symop_operation_xyz
x,y,z
-x,1/2+y,-z
loop_
_atom_site_type_symbol
_atom_site_label
_atom_site_fract_x
_atom_site_fract_y
_atom_site_fract_z
Si Si1 0.856710 0.413240 0.156130
Si Si2 0.116434 0.304414 0.663923
Si Si3 0.376022 0.079376 0.660089
Si Si4 0.792981 0.780654 0.678639
Si Si5 0.742654 0.293345 0.548273
Si Si6 0.234837 0.156041 0.056036
Si Si7 0.603190 0.203000 0.165625
Si Si8 0.724386 0.173832 0.816614
O O1 0.871334 0.606963 0.246776
O O2 0.678229 0.279334 0.099673
O O3 0.012811 0.221980 0.231233
O O4 0.871444 0.577981 0.071159
O O5 0.195777 0.199372 0.603606
O O6 0.247207 0.531776 0.737303
O O7 0.925289 0.359416 0.584410
O O8 0.376625 0.875334 0.578286
O O9 0.407566 0.939464 0.767082
O O10 0.536116 0.263291 0.720804
O O11 0.714118 0.497847 0.619601
O O12 0.757836 0.973266 0.748088
O O13 0.747468 0.984944 0.580066
O O14 0.192632 0.951908 0.120059
O O15 0.421188 0.089436 0.097141
O O16 0.237026 0.465245 0.087019
#
# Coordination Sequence:
#
# PCOD9115987 Si02
#       8
#     2   2   2   2   2   2   2   2
#     4  10  24  39  63  95 128 167 207 257 319 378
#     4  10  21  39  60  92 132 157 201 260 310 378
#     4  10  24  39  63  95 128 167 207 257 319 378
#     4  11  25  45  63  92 128 165 219 268 305 370
#     4  11  25  40  68  93 123 173 210 255 325 376
#     4  11  25  40  68  93 123 173 210 255 325 376
#     4  10  21  39  60  92 132 157 201 260 310 378
#     4  11  25  45  63  92 128 165 219 268 305 370
#
# _framework density 26.145934
#
# number of rings (size 3 to 8) (size 9 to 14) (size 15 to 20)
#    0.000    1.500    2.500    0.750    7.000    2.000 
#    0.000    0.000    0.000    0.000    0.000    0.000 
#    0.000    0.000    0.000    0.000    0.000    0.000 
#
# Total GULP energy -89316.263884 kJ/mol
# GULP energy per Si atom -5582.266493 kJ/mol
# Density = 2.608642 g / cm^3
# Si number density = 26.145934 Si / 1000 Ang^3
#
#
#
# Elastic Constant Matrix: (Units=GPa)
#
#
# Indices 1 2 3 4 5 6 
#
# 1 44.0728 3.7308 21.2691 0.0000 -10.1436 0.0000
# 2 3.7308 91.3347 6.5662 0.0000 -4.4862 0.0000
# 3 21.2691 6.5662 67.9011 0.0000 -6.6362 0.0000
# 4 0.0000 0.0000 0.0000 28.9239 0.0000 -6.3481
# 5 -10.1436 -4.4862 -6.6362 0.0000 30.3422 0.0000
# 6 0.0000 0.0000 0.0000 -6.3481 0.0000 35.0607
#
#
#
# Elastic Compliance Matrix: (Units=1/GPa)
#
#
# Indices 1 2 3 4 5 6 
#
# 1 0.028396 -0.000198 -0.008124 0.000000 0.007687 0.000000
# 2 -0.000198 0.011088 -0.000875 0.000000 0.001382 0.000000
# 3 -0.008124 -0.000875 0.017452 0.000000 0.000971 0.000000
# 4 0.000000 0.000000 0.000000 0.036004 0.000000 0.006519
# 5 0.007687 0.001382 0.000971 0.000000 0.035944 0.000000
# 6 0.000000 0.000000 0.000000 0.006519 0.000000 0.029702
#
#
# Mechanical properties :
#
#
# Convention : Reuss Voigt Hill
#
# Bulk Modulus (GPa) = 25.94679 29.60452 27.77565
# Shear Modulus (GPa) = 26.33957 30.31486 28.32721
#
# Velocity S-wave (km/s) = 3.17741 3.40876 3.29512
# Velocity P-wave (km/s) = 4.83804 5.18076 5.01233
#
# Compressibility (1/GPa) = 0.03854041
#
# Stress axis : x y z
#
# Youngs Moduli (GPa) = 35.21571 90.19067 57.30096
#
# Poissons Ratio (x) = 0.01788 0.46553
# Poissons Ratio (y) = 0.00698 0.05014
# Poissons Ratio (z) = 0.28610 0.07892
#
# Static dielectric constant tensor:
#      x y z
#    x 2.309890 0.000000 -0.005140 
#    y 0.000000 2.110740 0.000000 
#    z -0.005140 0.000000 2.044830 
# 
# From -- ./inp_files/12414.got.cif
#   From: 2010.05.17/outbox.cif.g08.bks.cpg/sg4_7_cif.got.tgz:12414.got - 2010.06.03 18:43:04.
