data_PCOD9115353
_publ_section_title
;
Structure prediction by ZEFSAII (Michael W. Deem and Ramdas Pophale) SiO2 
 PCOD9115353
Probable space group: P 21
;
_chemical_formula_sum "Si O2"
_cell_formula_units_Z 16
_cell_length_a 15.953868
_cell_length_b 8.021461
_cell_length_c 7.317597
_cell_angle_alpha 90.000000
_cell_angle_beta 120.493889
_cell_angle_gamma 90.000000
_cell_volume 806.929567
_symmetry_space_group_name_H-M "P 21"
_symmetry_group_IT_number 4
_symmetry_cell_setting 'monoclinic'
loop_
_space_group_symop_operation_xyz
x,y,z
-x,1/2+y,-z
loop_
_atom_site_type_symbol
_atom_site_label
_atom_site_fract_x
_atom_site_fract_y
_atom_site_fract_z
Si Si1 0.005059 0.278230 0.835546
Si Si2 0.339982 0.662788 0.839892
Si Si3 0.806740 0.587089 0.040244
Si Si4 0.566244 0.095243 0.450721
Si Si5 0.378800 0.893517 0.216566
Si Si6 0.869471 0.310178 0.351855
Si Si7 0.309375 0.428427 0.130991
Si Si8 0.883783 0.119632 0.998378
O O1 0.053150 0.452249 0.940661
O O2 0.958886 0.298946 0.586028
O O3 0.091416 0.141186 0.937050
O O4 0.916093 0.228795 0.865002
O O5 0.389719 0.629340 0.701135
O O6 0.225956 0.709096 0.686779
O O7 0.380350 0.811929 0.014731
O O8 0.349330 0.504242 0.985910
O O9 0.731634 0.454824 0.868444
O O10 0.743711 0.756029 0.973426
O O11 0.835745 0.497527 0.262723
O O12 0.587946 0.254425 0.602185
O O13 0.453547 0.046461 0.307303
O O14 0.615096 0.941286 0.618480
O O15 0.902709 0.224751 0.200808
O O16 0.226098 0.557033 0.107324
#
# Coordination Sequence:
#
# PCOD9115353 Si02
#       8
#     2   2   2   2   2   2   2   2
#     4  11  21  35  58  82 113 157 193 234 295 350
#     4   9  21  38  60  85 114 148 189 240 287 342
#     4  10  21  39  58  83 121 151 192 249 287 335
#     4  11  21  40  65  86 117 157 191 231 294 352
#     4  10  23  38  58  88 118 151 193 244 286 339
#     4  10  20  38  58  82 114 151 193 238 289 343
#     4   9  20  39  58  85 117 147 189 242 289 340
#     4  10  21  35  55  83 114 148 192 242 285 339
#
# _framework density 19.828251000000002
#
# number of rings (size 3 to 8) (size 9 to 14) (size 15 to 20)
#    0.000    2.000    0.000    3.750    0.000    4.000 
#    0.000   12.500    0.000    0.000    0.000    0.000 
#    0.000    0.000    0.000    0.000    0.000    0.000 
#
# Total GULP energy -89230.698957 kJ/mol
# GULP energy per Si atom -5576.918685 kJ/mol
# Density = 1.978312 g / cm^3
# Si number density = 19.828251 Si / 1000 Ang^3
#
#
#
# Elastic Constant Matrix: (Units=GPa)
#
#
# Indices 1 2 3 4 5 6 
#
# 1 65.6776 31.8017 38.9549 0.0000 -5.5119 0.0000
# 2 31.8017 82.0803 26.9011 0.0000 -2.3720 0.0000
# 3 38.9549 26.9011 69.8413 0.0000 -0.4423 0.0000
# 4 0.0000 0.0000 0.0000 10.9966 0.0000 1.0833
# 5 -5.5119 -2.3720 -0.4423 0.0000 27.2149 0.0000
# 6 0.0000 0.0000 0.0000 1.0833 0.0000 21.2772
#
#
#
# Elastic Compliance Matrix: (Units=1/GPa)
#
#
# Indices 1 2 3 4 5 6 
#
# 1 0.025520 -0.005840 -0.011956 0.000000 0.004465 0.000000
# 2 -0.005840 0.015315 -0.002641 0.000000 0.000109 0.000000
# 3 -0.011956 -0.002641 0.021990 0.000000 -0.002294 0.000000
# 4 0.000000 0.000000 0.000000 0.091395 0.000000 -0.004653
# 5 0.004465 0.000109 -0.002294 0.000000 0.037621 0.000000
# 6 0.000000 0.000000 0.000000 -0.004653 0.000000 0.047236
#
#
# Mechanical properties :
#
#
# Convention : Reuss Voigt Hill
#
# Bulk Modulus (GPa) = 45.55837 45.87940 45.71889
# Shear Modulus (GPa) = 17.40538 19.89383 18.64961
#
# Velocity S-wave (km/s) = 2.96600 3.17094 3.07018
# Velocity P-wave (km/s) = 5.89541 6.04939 5.97290
#
# Compressibility (1/GPa) = 0.02194986
#
# Stress axis : x y z
#
# Youngs Moduli (GPa) = 39.18479 65.29754 45.47586
#
# Poissons Ratio (x) = 0.38134 0.54373
# Poissons Ratio (y) = 0.22884 0.12009
# Poissons Ratio (z) = 0.46851 0.17243
#
# Static dielectric constant tensor:
#      x y z
#    x 1.688780 0.000000 0.030270 
#    y 0.000000 1.737910 0.000000 
#    z 0.030270 0.000000 1.683600 
# 
# From -- ./inp_files/3427.got.cif
#   From: 2010.05.17/outbox.cif.g08.bks.cpg/sg4_2_cif.got.tgz:3427.got - 2010.06.03 18:43:04.
