data_PCOD9115323
_publ_section_title
;
Structure prediction by ZEFSAII (Michael W. Deem and Ramdas Pophale) SiO2 
 PCOD9115323
Probable space group: P 21
;
_chemical_formula_sum "Si O2"
_cell_formula_units_Z 16
_cell_length_a 5.266806
_cell_length_b 10.298633
_cell_length_c 11.165614
_cell_angle_alpha 90.000000
_cell_angle_beta 97.685945
_cell_angle_gamma 90.000000
_cell_volume 600.191992
_symmetry_space_group_name_H-M "P 21"
_symmetry_group_IT_number 4
_symmetry_cell_setting 'monoclinic'
loop_
_space_group_symop_operation_xyz
x,y,z
-x,1/2+y,-z
loop_
_atom_site_type_symbol
_atom_site_label
_atom_site_fract_x
_atom_site_fract_y
_atom_site_fract_z
Si Si1 0.061322 0.976180 0.487967
Si Si2 0.883308 0.252355 0.712704
Si Si3 0.918531 0.222808 0.088698
Si Si4 0.701803 0.498001 0.858213
Si Si5 0.698630 0.169202 0.318919
Si Si6 0.627285 0.711608 0.295477
Si Si7 0.382534 0.323682 0.967658
Si Si8 0.429181 0.378684 0.466731
O O1 0.089437 0.853045 0.397077
O O2 0.860557 0.920916 0.570969
O O3 0.365130 0.997264 0.526946
O O4 0.902151 0.086897 0.408830
O O5 0.098879 0.148269 0.679168
O O6 0.807869 0.365228 0.806692
O O7 0.650570 0.154527 0.731784
O O8 0.859650 0.238370 0.224776
O O9 0.632858 0.238692 0.018017
O O10 0.056627 0.083094 0.088745
O O11 0.143474 0.309358 0.041681
O O12 0.514562 0.574281 0.755071
O O13 0.520448 0.461127 0.958104
O O14 0.542394 0.272841 0.384915
O O15 0.582224 0.811354 0.401854
O O16 0.703780 0.782884 0.173123
#
# Coordination Sequence:
#
# PCOD9115323 Si02
#       8
#     2   2   2   2   2   2   2   2
#     4  10  20  37  62  97 134 174 219 281 340 396
#     4   9  16  31  60  91 114 159 221 263 317 391
#     4  12  26  40  68 110 133 180 239 297 338 427
#     4  11  23  42  71 101 136 187 232 291 342 420
#     4  12  25  44  74 107 136 185 243 280 352 431
#     4   9  18  36  60  92 128 170 215 275 337 397
#     4  11  24  40  69 101 140 176 239 291 351 406
#     4  10  24  38  68 103 135 173 230 294 333 414
#
# _framework density 26.658137
#
# number of rings (size 3 to 8) (size 9 to 14) (size 15 to 20)
#    0.000    1.500    2.500    5.250    3.500    0.000 
#    0.000    0.000    8.250    0.000    0.000    0.000 
#    0.000    0.000    0.000    0.000    0.000    0.000 
#
# Total GULP energy -89179.281979 kJ/mol
# GULP energy per Si atom -5573.705124 kJ/mol
# Density = 2.659746 g / cm^3
# Si number density = 26.658137 Si / 1000 Ang^3
#
#
#
# Elastic Constant Matrix: (Units=GPa)
#
#
# Indices 1 2 3 4 5 6 
#
# 1 1595.9048 -249.9985 206.9468 0.0000 375.0851 0.0000
# 2 -249.9985 139.5762 30.9327 0.0000 -100.2232 0.0000
# 3 206.9468 30.9327 120.8738 0.0000 5.4209 0.0000
# 4 0.0000 0.0000 0.0000 39.6111 0.0000 -6.4110
# 5 375.0851 -100.2232 5.4209 0.0000 202.7813 0.0000
# 6 0.0000 0.0000 0.0000 -6.4110 0.0000 62.5106
#
#
#
# Elastic Compliance Matrix: (Units=1/GPa)
#
#
# Indices 1 2 3 4 5 6 
#
# 1 0.002475 0.003663 -0.005056 0.000000 -0.002632 0.000000
# 2 0.003663 0.017817 -0.010936 0.000000 0.002322 0.000000
# 3 -0.005056 -0.010936 0.019575 0.000000 0.003424 0.000000
# 4 0.000000 0.000000 0.000000 0.025672 0.000000 0.002633
# 5 -0.002632 0.002322 0.003424 0.000000 0.010855 0.000000
# 6 0.000000 0.000000 0.000000 0.002633 0.000000 0.016267
#
#
# Mechanical properties :
#
#
# Convention : Reuss Voigt Hill
#
# Bulk Modulus (GPa) = 65.74899 203.56851 134.65875
# Shear Modulus (GPa) = 40.85398 185.54552 113.19975
#
# Velocity S-wave (km/s) = 3.91898 8.35182 6.52347
# Velocity P-wave (km/s) = 6.72274 13.02046 10.36165
#
# Compressibility (1/GPa) = 0.01520936
#
# Stress axis : x y z
#
# Youngs Moduli (GPa) = 404.10392 56.12631 51.08640
#
# Poissons Ratio (x) = -0.20561 0.25830
# Poissons Ratio (y) = -1.48034 0.55866
# Poissons Ratio (z) = 2.04323 0.61377
#
# Static dielectric constant tensor:
#      x y z
#    x 1.275110 0.000000 -0.142620 
#    y 0.000000 2.090420 0.000000 
#    z -0.142620 0.000000 2.102830 
# 
# From -- ./inp_files/10452.got.cif
#   From: 2010.05.17/outbox.cif.g08.bks.cpg/sg4_6_cif.got.tgz:10452.got - 2010.06.03 18:43:04.
