data_PCOD9115799
_publ_section_title
;
Structure prediction by ZEFSAII (Michael W. Deem and Ramdas Pophale) SiO2 
 PCOD9115799
Probable space group: P 21
;
_chemical_formula_sum "Si O2"
_cell_formula_units_Z 16
_cell_length_a 21.335334
_cell_length_b 6.470297
_cell_length_c 4.941844
_cell_angle_alpha 90.000000
_cell_angle_beta 63.466467
_cell_angle_gamma 90.000000
_cell_volume 610.347341
_symmetry_space_group_name_H-M "P 21"
_symmetry_group_IT_number 4
_symmetry_cell_setting 'monoclinic'
loop_
_space_group_symop_operation_xyz
x,y,z
-x,1/2+y,-z
loop_
_atom_site_type_symbol
_atom_site_label
_atom_site_fract_x
_atom_site_fract_y
_atom_site_fract_z
Si Si1 0.666946 0.790950 0.500393
Si Si2 0.457439 0.544157 0.396250
Si Si3 0.034395 0.564403 0.604683
Si Si4 0.082966 0.324653 0.008093
Si Si5 0.286616 0.052534 0.091735
Si Si6 0.585778 0.293670 0.021527
Si Si7 0.834787 0.295963 0.522606
Si Si8 0.787559 0.054159 0.114851
O O1 0.687644 0.735971 0.763874
O O2 0.586277 0.842413 0.610608
O O3 0.708745 0.994813 0.327026
O O4 0.694189 0.610867 0.250120
O O5 0.538201 0.487928 0.202394
O O6 0.436666 0.608409 0.737262
O O7 0.433548 0.727055 0.242999
O O8 0.050113 0.500694 0.269322
O O9 0.082728 0.762288 0.590528
O O10 0.062191 0.382530 0.744438
O O11 0.954669 0.617342 0.825804
O O12 0.165006 0.355710 0.896627
O O13 0.205714 0.999548 0.305421
O O14 0.334129 0.858466 0.091511
O O15 0.814788 0.236527 0.256515
O O16 0.802543 0.118400 0.780905
#
# Coordination Sequence:
#
# PCOD9115799 Si02
#       8
#     2   2   2   2   2   2   2   2
#     4  12  24  39  60  89 117 149 192 237 282 336
#     4  12  24  42  64  88 119 154 190 234 282 336
#     4  10  21  36  57  82 113 148 189 234 285 340
#     4  10  21  36  57  82 113 148 189 234 285 340
#     4  12  24  39  60  89 117 149 192 237 282 336
#     4  12  24  42  64  88 119 154 190 234 282 336
#     4  10  21  39  58  81 113 153 190 231 285 340
#     4  10  21  39  58  81 113 153 190 231 285 340
#
# _framework density 26.214585
#
# number of rings (size 3 to 8) (size 9 to 14) (size 15 to 20)
#    0.000    1.000    0.000    7.500    0.000    2.000 
#    0.000    0.000    0.000    0.000    0.000    0.000 
#    0.000    0.000    0.000    0.000    0.000    0.000 
#
# Total GULP energy -89714.243189 kJ/mol
# GULP energy per Si atom -5607.140199 kJ/mol
# Density = 2.615492 g / cm^3
# Si number density = 26.214585 Si / 1000 Ang^3
#
#
#
# Elastic Constant Matrix: (Units=GPa)
#
#
# Indices 1 2 3 4 5 6 
#
# 1 61.2876 12.7425 11.5560 0.0000 -2.8460 0.0000
# 2 12.7425 41.2811 7.8114 0.0000 2.1222 0.0000
# 3 11.5560 7.8114 80.6531 0.0000 4.8864 0.0000
# 4 0.0000 0.0000 0.0000 61.8027 0.0000 -7.7946
# 5 -2.8460 2.1222 4.8864 0.0000 26.7781 0.0000
# 6 0.0000 0.0000 0.0000 -7.7946 0.0000 49.0198
#
#
#
# Elastic Compliance Matrix: (Units=1/GPa)
#
#
# Indices 1 2 3 4 5 6 
#
# 1 0.017958 -0.005262 -0.002229 0.000000 0.002732 0.000000
# 2 -0.005262 0.026281 -0.001650 0.000000 -0.002341 0.000000
# 3 -0.002229 -0.001650 0.013028 0.000000 -0.002484 0.000000
# 4 0.000000 0.000000 0.000000 0.016512 0.000000 0.002625
# 5 0.002732 -0.002341 -0.002484 0.000000 0.038273 0.000000
# 6 0.000000 0.000000 0.000000 0.002625 0.000000 0.020817
#
#
# Mechanical properties :
#
#
# Convention : Reuss Voigt Hill
#
# Bulk Modulus (GPa) = 25.65006 27.49350 26.57178
# Shear Modulus (GPa) = 30.46090 37.59427 34.02759
#
# Velocity S-wave (km/s) = 3.41249 3.79106 3.60674
# Velocity P-wave (km/s) = 5.03315 5.44733 5.24433
#
# Compressibility (1/GPa) = 0.03898627
#
# Stress axis : x y z
#
# Youngs Moduli (GPa) = 55.68658 38.05057 76.75558
#
# Poissons Ratio (x) = 0.20021 0.17108
# Poissons Ratio (y) = 0.29301 0.12662
# Poissons Ratio (z) = 0.12412 0.06277
#
# Static dielectric constant tensor:
#      x y z
#    x 1.965330 0.000000 -0.004460 
#    y 0.000000 2.070890 0.000000 
#    z -0.004460 0.000000 1.924990 
# 
# From -- ./inp_files/4393.got.cif
#   From: 2010.05.17/outbox.cif.g08.bks.cpg/sg4_3_cif.got.tgz:4393.got - 2010.06.03 18:43:04.
