data_PCOD9115554
_publ_section_title
;
Structure prediction by ZEFSAII (Michael W. Deem and Ramdas Pophale) SiO2 
 PCOD9115554
Probable space group: P 21
;
_chemical_formula_sum "Si O2"
_cell_formula_units_Z 16
_cell_length_a 13.066145
_cell_length_b 8.839859
_cell_length_c 19.127134
_cell_angle_alpha 90.000000
_cell_angle_beta 162.549834
_cell_angle_gamma 90.000000
_cell_volume 662.498155
_symmetry_space_group_name_H-M "P 21"
_symmetry_group_IT_number 4
_symmetry_cell_setting 'monoclinic'
loop_
_space_group_symop_operation_xyz
x,y,z
-x,1/2+y,-z
loop_
_atom_site_type_symbol
_atom_site_label
_atom_site_fract_x
_atom_site_fract_y
_atom_site_fract_z
Si Si1 0.188006 0.199610 0.562271
Si Si2 0.732659 0.370507 0.006349
Si Si3 0.874607 0.457217 0.260596
Si Si4 0.207375 0.100565 0.274563
Si Si5 0.316310 0.435255 0.155767
Si Si6 0.529458 0.678869 0.854637
Si Si7 0.338634 0.725083 0.531907
Si Si8 0.833464 0.918351 0.149713
O O1 0.395254 0.284607 0.758693
O O2 0.033937 0.316295 0.405863
O O3 0.851954 0.125687 0.376929
O O4 0.441802 0.081863 0.690862
O O5 0.739459 0.531502 0.971338
O O6 0.776385 0.408304 0.117232
O O7 0.026628 0.257208 0.175541
O O8 0.160971 0.585929 0.454305
O O9 0.510303 0.507106 0.056871
O O10 0.576439 0.152146 0.488550
O O11 0.095783 0.998581 0.267903
O O12 0.045200 0.003182 0.104715
O O13 0.459178 0.318517 0.190583
O O14 0.324248 0.318306 0.225249
O O15 0.696547 0.758509 0.030758
O O16 0.065901 0.860379 0.363300
#
# Coordination Sequence:
#
# PCOD9115554 Si02
#       8
#     2   2   2   2   2   2   2   2
#     4  10  23  41  65 104 145 186 228 298 367 411
#     4  11  23  42  70  98 146 183 235 295 357 423
#     4  11  26  43  72 111 135 185 246 296 356 436
#     4  10  27  47  65 102 143 191 235 296 366 430
#     4  10  24  42  67  99 139 188 239 293 346 438
#     4  10  20  40  65  99 138 181 230 289 359 421
#     4  12  26  44  73 102 138 191 239 296 367 422
#     4  10  25  43  67 103 142 177 238 297 352 427
#
# _framework density 24.151009999999999
#
# number of rings (size 3 to 8) (size 9 to 14) (size 15 to 20)
#    0.000    1.500    1.250    1.500    8.750    6.000 
#    0.000    2.500    0.000    0.000    0.000    0.000 
#    0.000    0.000    0.000    0.000    0.000    0.000 
#
# Total GULP energy -89247.521322 kJ/mol
# GULP energy per Si atom -5577.970083 kJ/mol
# Density = 2.409604 g / cm^3
# Si number density = 24.151010 Si / 1000 Ang^3
#
#
#
# Elastic Constant Matrix: (Units=GPa)
#
#
# Indices 1 2 3 4 5 6 
#
# 1 40.7558 20.6102 23.2776 0.0000 -16.1228 0.0000
# 2 20.6102 122.0601 25.3206 0.0000 -4.1587 0.0000
# 3 23.2776 25.3206 57.6618 0.0000 -2.4624 0.0000
# 4 0.0000 0.0000 0.0000 26.0206 0.0000 -0.7941
# 5 -16.1228 -4.1587 -2.4624 0.0000 29.9917 0.0000
# 6 0.0000 0.0000 0.0000 -0.7941 0.0000 33.6219
#
#
#
# Elastic Compliance Matrix: (Units=1/GPa)
#
#
# Indices 1 2 3 4 5 6 
#
# 1 0.043487 -0.003471 -0.015106 0.000000 0.021656 0.000000
# 2 -0.003471 0.009317 -0.002724 0.000000 -0.000798 0.000000
# 3 -0.015106 -0.002724 0.024359 0.000000 -0.006498 0.000000
# 4 0.000000 0.000000 0.000000 0.038459 0.000000 0.000908
# 5 0.021656 -0.000798 -0.006498 0.000000 0.044340 0.000000
# 6 0.000000 0.000000 0.000000 0.000908 0.000000 0.029764
#
#
# Mechanical properties :
#
#
# Convention : Reuss Voigt Hill
#
# Bulk Modulus (GPa) = 28.93519 39.87718 34.40619
# Shear Modulus (GPa) = 20.50460 28.01146 24.25803
#
# Velocity S-wave (km/s) = 2.91695 3.40935 3.17271
# Velocity P-wave (km/s) = 4.83236 5.66089 5.26295
#
# Compressibility (1/GPa) = 0.03455999
#
# Stress axis : x y z
#
# Youngs Moduli (GPa) = 22.99563 107.33410 41.05208
#
# Poissons Ratio (x) = 0.37259 0.62013
# Poissons Ratio (y) = 0.07983 0.11182
# Poissons Ratio (z) = 0.34737 0.29237
#
# Static dielectric constant tensor:
#      x y z
#    x 2.036680 0.000000 -0.139250 
#    y 0.000000 1.877190 0.000000 
#    z -0.139250 0.000000 2.088260 
# 
# From -- ./inp_files/15183.got.cif
#   From: 2010.05.17/outbox.cif.g08.bks.cpg/sg4_8_cif.got.tgz:15183.got - 2010.06.03 18:43:04.
