data_PCOD9115576
_publ_section_title
;
Structure prediction by ZEFSAII (Michael W. Deem and Ramdas Pophale) SiO2 
 PCOD9115576
Probable space group: P 21
;
_chemical_formula_sum "Si O2"
_cell_formula_units_Z 16
_cell_length_a 10.030751
_cell_length_b 11.120751
_cell_length_c 10.281841
_cell_angle_alpha 90.000000
_cell_angle_beta 41.456208
_cell_angle_gamma 90.000000
_cell_volume 759.324732
_symmetry_space_group_name_H-M "P 21"
_symmetry_group_IT_number 4
_symmetry_cell_setting 'monoclinic'
loop_
_space_group_symop_operation_xyz
x,y,z
-x,1/2+y,-z
loop_
_atom_site_type_symbol
_atom_site_label
_atom_site_fract_x
_atom_site_fract_y
_atom_site_fract_z
Si Si1 0.275054 0.460410 0.473168
Si Si2 0.944085 0.261165 0.730015
Si Si3 0.220591 0.254503 0.115649
Si Si4 0.402917 0.091853 0.193385
Si Si5 0.194202 0.695186 0.675228
Si Si6 0.628129 0.291692 0.187879
Si Si7 0.662976 0.325289 0.690379
Si Si8 0.817529 0.018163 0.749239
O O1 0.249541 0.556925 0.605548
O O2 0.502628 0.414771 0.288049
O O3 0.195786 0.518554 0.396590
O O4 0.140391 0.342221 0.592998
O O5 0.813912 0.290320 0.696337
O O6 0.966831 0.116966 0.701465
O O7 0.807770 0.296582 0.952697
O O8 0.247858 0.156380 0.209705
O O9 0.151398 0.381704 0.227678
O O10 0.047206 0.210330 0.146540
O O11 0.438999 0.279053 0.892813
O O12 0.479698 0.191044 0.237347
O O13 0.334784 0.969714 0.310483
O O14 0.597463 0.055184 0.964571
O O15 0.291595 0.748029 0.732916
O O16 0.273827 0.768111 0.491540
#
# Coordination Sequence:
#
# PCOD9115576 Si02
#       8
#     2   2   2   2   2   2   2   2
#     4  12  24  43  72  96 139 177 228 282 336 404
#     4  11  23  45  70 102 132 177 225 277 341 400
#     4  11  21  42  69  97 133 173 223 283 330 402
#     4  10  20  41  73  91 134 178 215 279 342 388
#     4  12  28  42  65 104 135 174 231 273 341 407
#     4  11  26  47  62  99 141 175 220 277 343 403
#     4  11  22  40  72  99 129 171 228 278 332 397
#     4  10  20  40  69 104 127 165 236 279 323 407
#
# _framework density 21.071352000000001
#
# number of rings (size 3 to 8) (size 9 to 14) (size 15 to 20)
#    0.000    1.000    5.000    2.250    1.750    4.000 
#    4.500    0.000    0.000    0.000    0.000    0.000 
#    0.000    0.000    0.000    0.000    0.000    0.000 
#
# Total GULP energy -89546.751954 kJ/mol
# GULP energy per Si atom -5596.671997 kJ/mol
# Density = 2.102339 g / cm^3
# Si number density = 21.071352 Si / 1000 Ang^3
#
#
#
# Elastic Constant Matrix: (Units=GPa)
#
#
# Indices 1 2 3 4 5 6 
#
# 1 55.0427 4.3085 31.0343 0.0000 4.0265 0.0000
# 2 4.3085 89.3826 28.0607 0.0000 -16.1655 0.0000
# 3 31.0343 28.0607 99.5197 0.0000 -1.2154 0.0000
# 4 0.0000 0.0000 0.0000 31.0011 0.0000 -8.5335
# 5 4.0265 -16.1655 -1.2154 0.0000 23.2433 0.0000
# 6 0.0000 0.0000 0.0000 -8.5335 0.0000 19.2700
#
#
#
# Elastic Compliance Matrix: (Units=1/GPa)
#
#
# Indices 1 2 3 4 5 6 
#
# 1 0.022472 0.000458 -0.007185 0.000000 -0.003950 0.000000
# 2 0.000458 0.014155 -0.004017 0.000000 0.009555 0.000000
# 3 -0.007185 -0.004017 0.013411 0.000000 -0.000848 0.000000
# 4 0.000000 0.000000 0.000000 0.036735 0.000000 0.016268
# 5 -0.003950 0.009555 -0.000848 0.000000 0.050309 0.000000
# 6 0.000000 0.000000 0.000000 0.016268 0.000000 0.059098
#
#
# Mechanical properties :
#
#
# Convention : Reuss Voigt Hill
#
# Bulk Modulus (GPa) = 35.02675 41.19467 38.11071
# Shear Modulus (GPa) = 22.00851 26.73900 24.37376
#
# Velocity S-wave (km/s) = 3.23534 3.56613 3.40476
# Velocity P-wave (km/s) = 5.53314 6.04557 5.79502
#
# Compressibility (1/GPa) = 0.02854961
#
# Stress axis : x y z
#
# Youngs Moduli (GPa) = 44.49998 70.64583 74.56436
#
# Poissons Ratio (x) = -0.03236 0.53575
# Poissons Ratio (y) = -0.02038 0.29955
# Poissons Ratio (z) = 0.31974 0.28381
#
# Static dielectric constant tensor:
#      x y z
#    x 1.699060 0.000000 -0.048300 
#    y 0.000000 1.796710 0.000000 
#    z -0.048300 0.000000 1.785480 
# 
# From -- ./inp_files/6408.got.cif
#   From: 2010.05.17/outbox.cif.g08.bks.cpg/sg4_4_cif.got.tgz:6408.got - 2010.06.03 18:43:04.
