data_PCOD9115510
_publ_section_title
;
Structure prediction by ZEFSAII (Michael W. Deem and Ramdas Pophale) SiO2 
 PCOD9115510
Probable space group: P 21
;
_chemical_formula_sum "Si O2"
_cell_formula_units_Z 14
_cell_length_a 5.363449
_cell_length_b 13.110077
_cell_length_c 7.281208
_cell_angle_alpha 90.000000
_cell_angle_beta 76.466316
_cell_angle_gamma 90.000000
_cell_volume 497.763417
_symmetry_space_group_name_H-M "P 21"
_symmetry_group_IT_number 4
_symmetry_cell_setting 'monoclinic'
loop_
_space_group_symop_operation_xyz
x,y,z
-x,1/2+y,-z
loop_
_atom_site_type_symbol
_atom_site_label
_atom_site_fract_x
_atom_site_fract_y
_atom_site_fract_z
Si Si1 0.757813 0.393800 0.215614
Si Si2 0.069384 0.814258 0.207330
Si Si3 0.717985 0.157352 0.586898
Si Si4 0.295679 0.110420 0.353645
Si Si5 0.670521 0.952002 0.186156
Si Si6 0.725304 0.813572 0.812344
Si Si7 0.053413 0.590641 0.118805
O O1 0.741169 0.270980 0.670394
O O2 0.976286 0.330689 0.282681
O O3 0.840564 0.510098 0.216065
O O4 0.798960 0.360986 0.995186
O O5 0.958728 0.705854 0.148966
O O6 0.395099 0.997895 0.283180
O O7 0.843121 0.890511 0.300760
O O8 0.712779 0.088999 0.774117
O O9 0.334505 0.193601 0.184239
O O10 0.000322 0.124589 0.462087
O O11 0.493558 0.142700 0.481483
O O12 0.469438 0.363024 0.299720
O O13 0.833111 0.051774 0.092086
O O14 0.688206 0.877864 0.005917
#
# Coordination Sequence:
#
# PCOD9115510 Si02
#       7
#     2   2   2   2   2   2   2
#     4  10  20  39  69 100 127 181 237 288 329 408
#     4   8  19  43  67 101 136 180 231 285 350 410
#     4  10  25  45  66  99 146 186 219 296 366 411
#     4  12  25  47  69 102 144 183 231 293 363 418
#     4  10  23  44  78 103 136 192 251 287 340 427
#     4  10  23  39  67 100 132 175 239 287 335 408
#     4   8  19  43  68  97 135 181 232 288 337 410
#
# _framework density 28.125809
#
# number of rings (size 3 to 8) (size 9 to 14) (size 15 to 20)
#    0.857    1.714    0.000    1.714    0.000   11.429 
#   10.286    0.000    0.000    0.000    0.000    0.000 
#    0.000    0.000    0.000    0.000    0.000    0.000 
#
# Total GULP energy -78310.451955 kJ/mol
# GULP energy per Si atom -5593.603711 kJ/mol
# Density = 2.806179 g / cm^3
# Si number density = 28.125809 Si / 1000 Ang^3
#
#
#
# Elastic Constant Matrix: (Units=GPa)
#
#
# Indices 1 2 3 4 5 6 
#
# 1 188.9919 27.2118 33.1317 0.0000 11.0786 0.0000
# 2 27.2118 133.9911 34.4155 0.0000 12.9359 0.0000
# 3 33.1317 34.4155 108.3789 0.0000 6.0655 0.0000
# 4 0.0000 0.0000 0.0000 37.6424 0.0000 19.6742
# 5 11.0786 12.9359 6.0655 0.0000 34.2780 0.0000
# 6 0.0000 0.0000 0.0000 19.6742 0.0000 44.9000
#
#
#
# Elastic Compliance Matrix: (Units=1/GPa)
#
#
# Indices 1 2 3 4 5 6 
#
# 1 0.005721 -0.000656 -0.001466 0.000000 -0.001342 0.000000
# 2 -0.000656 0.008444 -0.002338 0.000000 -0.002561 0.000000
# 3 -0.001466 -0.002338 0.010445 0.000000 -0.000492 0.000000
# 4 0.000000 0.000000 0.000000 0.034457 0.000000 -0.015098
# 5 -0.001342 -0.002561 -0.000492 0.000000 0.030661 0.000000
# 6 0.000000 0.000000 0.000000 -0.015098 0.000000 0.028887
#
#
# Mechanical properties :
#
#
# Convention : Reuss Voigt Hill
#
# Bulk Modulus (GPa) = 63.72680 68.98663 66.35672
# Shear Modulus (GPa) = 37.66080 45.80429 41.73255
#
# Velocity S-wave (km/s) = 3.66322 4.03991 3.85617
# Velocity P-wave (km/s) = 6.37175 6.80752 6.59323
#
# Compressibility (1/GPa) = 0.01569199
#
# Stress axis : x y z
#
# Youngs Moduli (GPa) = 174.78595 118.42687 95.74176
#
# Poissons Ratio (x) = 0.07767 0.14032
# Poissons Ratio (y) = 0.11464 0.22380
# Poissons Ratio (z) = 0.25617 0.27683
#
# Static dielectric constant tensor:
#      x y z
#    x 2.311090 0.000000 -0.018100 
#    y 0.000000 2.241150 0.000000 
#    z -0.018100 0.000000 2.200870 
# 
# From -- ./inp_files/6213.got.cif
#   From: 2010.05.17/outbox.cif.g08.bks.cpg/sg4_4_cif.got.tgz:6213.got - 2010.06.03 18:43:04.
