data_PCOD9115081
_publ_section_title
;
Structure prediction by ZEFSAII (Michael W. Deem and Ramdas Pophale) SiO2 
 PCOD9115081
Probable space group: P 21
;
_chemical_formula_sum "Si O2"
_cell_formula_units_Z 16
_cell_length_a 9.009367
_cell_length_b 12.515994
_cell_length_c 10.800135
_cell_angle_alpha 90.000000
_cell_angle_beta 139.399042
_cell_angle_gamma 90.000000
_cell_volume 792.551732
_symmetry_space_group_name_H-M "P 21"
_symmetry_group_IT_number 4
_symmetry_cell_setting 'monoclinic'
loop_
_space_group_symop_operation_xyz
x,y,z
-x,1/2+y,-z
loop_
_atom_site_type_symbol
_atom_site_label
_atom_site_fract_x
_atom_site_fract_y
_atom_site_fract_z
Si Si1 0.643487 0.206410 0.948533
Si Si2 0.967640 0.084954 0.702311
Si Si3 0.039248 0.130538 0.033484
Si Si4 0.728681 0.695427 0.485822
Si Si5 0.928413 0.309830 0.594645
Si Si6 0.478056 0.685889 0.580035
Si Si7 0.069905 0.525140 0.793242
Si Si8 0.884772 0.357295 0.279149
O O1 0.689276 0.299530 0.075546
O O2 0.848194 0.207743 0.974130
O O3 0.695651 0.092176 0.047762
O O4 0.411442 0.209464 0.727272
O O5 0.051515 0.197095 0.698491
O O6 0.697312 0.090320 0.497376
O O7 0.092608 0.981789 0.732045
O O8 0.983186 0.093803 0.860634
O O9 0.289572 0.182131 0.196093
O O10 0.033296 0.035551 0.132709
O O11 0.554187 0.676473 0.486858
O O12 0.905117 0.596739 0.601554
O O13 0.880897 0.798405 0.613793
O O14 0.681064 0.289536 0.501727
O O15 0.065792 0.406739 0.740933
O O16 0.875897 0.330980 0.418426
#
# Coordination Sequence:
#
# PCOD9115081 Si02
#       8
#     2   2   2   2   2   2   2   2
#     4   9  19  39  63  91 118 155 207 247 304 357
#     4  10  23  37  62  90 123 155 208 248 303 351
#     4   9  18  39  63  96 117 149 207 261 293 354
#     4  10  19  41  66  92 118 156 209 252 305 351
#     4  10  23  43  59  86 135 162 192 252 306 366
#     4   9  19  39  61  90 118 154 199 256 295 353
#     4   8  19  37  63  89 121 158 196 247 310 352
#     4  11  24  39  63  88 126 169 196 245 308 374
#
# _framework density 20.187956
#
# number of rings (size 3 to 8) (size 9 to 14) (size 15 to 20)
#    1.500    1.000    2.500    0.000    3.500    5.000 
#    4.500    0.000    0.000    0.000    0.000    0.000 
#    0.000    0.000    0.000    0.000    0.000    0.000 
#
# Total GULP energy -89085.934383 kJ/mol
# GULP energy per Si atom -5567.870899 kJ/mol
# Density = 2.014201 g / cm^3
# Si number density = 20.187956 Si / 1000 Ang^3
#
#
#
# Elastic Constant Matrix: (Units=GPa)
#
#
# Indices 1 2 3 4 5 6 
#
# 1 20.3427 7.3878 2.6483 0.0000 -12.8035 0.0000
# 2 7.3878 126.9084 34.5342 0.0000 -17.2912 0.0000
# 3 2.6483 34.5342 113.3524 0.0000 -12.6607 0.0000
# 4 0.0000 0.0000 0.0000 7.5303 0.0000 -20.3137
# 5 -12.8035 -17.2912 -12.6607 0.0000 25.7006 0.0000
# 6 0.0000 0.0000 0.0000 -20.3137 0.0000 0.2993
#
#
#
# Elastic Compliance Matrix: (Units=1/GPa)
#
#
# Indices 1 2 3 4 5 6 
#
# 1 0.072264 0.000224 0.002414 0.000000 0.037340 0.000000
# 2 0.000224 0.009179 -0.002222 0.000000 0.005192 0.000000
# 3 0.002414 -0.002222 0.009958 0.000000 0.004613 0.000000
# 4 0.000000 0.000000 0.000000 -0.000729 0.000000 -0.049498
# 5 0.037340 0.005192 0.004613 0.000000 0.063278 0.000000
# 6 0.000000 0.000000 0.000000 -0.049498 0.000000 -0.018349
#
#
# Mechanical properties :
#
#
# Convention : Reuss Voigt Hill
#
# Bulk Modulus (GPa) = 10.84213 38.86045 24.85129
# Shear Modulus (GPa) = 30.20946 21.10826 25.65886
#
# Velocity S-wave (km/s) = 3.87254 3.23706 3.56897
# Velocity P-wave (km/s) = 5.03763 5.76737 5.41481
#
# Compressibility (1/GPa) = 0.09223279
#
# Stress axis : x y z
#
# Youngs Moduli (GPa) = 13.83822 108.94795 100.42399
#
# Poissons Ratio (x) = -0.02440 -0.24243
# Poissons Ratio (y) = -0.00310 0.22311
# Poissons Ratio (z) = -0.03341 0.24205
#
# Static dielectric constant tensor:
#      x y z
#    x 1.754810 0.000000 0.018020 
#    y 0.000000 1.718480 0.000000 
#    z 0.018020 0.000000 1.718800 
# 
# From -- ./inp_files/12232.got.cif
#   From: 2010.05.17/outbox.cif.g08.bks.cpg/sg4_7_cif.got.tgz:12232.got - 2010.06.03 18:43:04.
