data_PCOD9115734
_publ_section_title
;
Structure prediction by ZEFSAII (Michael W. Deem and Ramdas Pophale) SiO2 
 PCOD9115734
Probable space group: P 21
;
_chemical_formula_sum "Si O2"
_cell_formula_units_Z 14
_cell_length_a 14.888644
_cell_length_b 5.541990
_cell_length_c 20.154737
_cell_angle_alpha 90.000000
_cell_angle_beta 18.944393
_cell_angle_gamma 90.000000
_cell_volume 539.900707
_symmetry_space_group_name_H-M "P 21"
_symmetry_group_IT_number 4
_symmetry_cell_setting 'monoclinic'
loop_
_space_group_symop_operation_xyz
x,y,z
-x,1/2+y,-z
loop_
_atom_site_type_symbol
_atom_site_label
_atom_site_fract_x
_atom_site_fract_y
_atom_site_fract_z
Si Si1 0.471196 0.682880 0.436842
Si Si2 0.556432 0.959107 0.922063
Si Si3 0.166518 0.879992 0.430338
Si Si4 0.876916 0.754982 0.055322
Si Si5 0.972105 0.359097 0.759537
Si Si6 0.062227 0.999883 0.799156
Si Si7 0.847984 0.868099 0.519909
O O1 0.561742 0.731303 0.298859
O O2 0.256042 0.464230 0.591510
O O3 0.301948 0.895127 0.585815
O O4 0.757567 0.655719 0.275277
O O5 0.863263 0.911419 0.678922
O O6 0.466806 0.693383 0.013634
O O7 0.304455 0.019565 0.047846
O O8 0.282933 0.625380 0.371880
O O9 0.100550 0.873815 0.397870
O O10 0.317235 0.126421 0.345338
O O11 0.014199 0.499175 0.982217
O O12 0.924981 0.806364 0.944143
O O13 0.062445 0.342955 0.618873
O O14 0.888828 0.139804 0.865586
#
# Coordination Sequence:
#
# PCOD9115734 Si02
#       7
#     2   2   2   2   2   2   2
#     4  11  24  46  72 104 151 195 243 309 362 439
#     4  12  24  44  68  98 135 181 238 300 355 424
#     4  10  20  44  65  93 134 169 235 291 361 408
#     4  10  24  46  76 104 142 199 248 298 370 435
#     4  12  26  42  72 106 142 196 243 293 378 442
#     4  11  24  46  72 106 149 196 243 306 367 435
#     4  10  22  40  69  95 127 184 224 295 353 429
#
# _framework density 25.930693000000002
#
# number of rings (size 3 to 8) (size 9 to 14) (size 15 to 20)
#    0.000    1.143    4.286    0.857    8.000    0.000 
#    5.143    0.000    0.000    0.000    0.000    0.000 
#    0.000    0.000    0.000    0.000    0.000    0.000 
#
# Total GULP energy -78095.423917 kJ/mol
# GULP energy per Si atom -5578.244566 kJ/mol
# Density = 2.587167 g / cm^3
# Si number density = 25.930693 Si / 1000 Ang^3
#
#
#
# Elastic Constant Matrix: (Units=GPa)
#
#
# Indices 1 2 3 4 5 6 
#
# 1 59.9118 0.1574 24.4606 0.0000 -88.8373 0.0000
# 2 0.1574 148.9364 19.7198 0.0000 -55.9653 0.0000
# 3 24.4606 19.7198 93.5012 0.0000 36.7828 0.0000
# 4 0.0000 0.0000 0.0000 24.0470 0.0000 11.8449
# 5 -88.8373 -55.9653 36.7828 0.0000 -128.6639 0.0000
# 6 0.0000 0.0000 0.0000 11.8449 0.0000 22.1214
#
#
#
# Elastic Compliance Matrix: (Units=1/GPa)
#
#
# Indices 1 2 3 4 5 6 
#
# 1 0.008886 -0.001993 0.000151 0.000000 -0.005225 0.000000
# 2 -0.001993 0.006222 -0.000240 0.000000 -0.001399 0.000000
# 3 0.000151 -0.000240 0.009624 0.000000 0.002751 0.000000
# 4 0.000000 0.000000 0.000000 0.056482 0.000000 -0.030244
# 5 -0.005225 -0.001399 0.002751 0.000000 -0.002769 0.000000
# 6 0.000000 0.000000 0.000000 -0.030244 0.000000 0.061399
#
#
# Mechanical properties :
#
#
# Convention : Reuss Voigt Hill
#
# Bulk Modulus (GPa) = 48.61890 43.44723 46.03307
# Shear Modulus (GPa) = 33.14210 0.70165 16.92188
#
# Velocity S-wave (km/s) = 3.57894 0.52074 2.55734
# Velocity P-wave (km/s) = 5.98904 4.14163 5.14887
#
# Compressibility (1/GPa) = 0.02056813
#
# Stress axis : x y z
#
# Youngs Moduli (GPa) = 112.53279 160.70890 103.90909
#
# Poissons Ratio (x) = 0.32029 -0.01572
# Poissons Ratio (y) = 0.22428 0.02499
# Poissons Ratio (z) = -0.01702 0.03865
#
# Static dielectric constant tensor:
#      x y z
#    x 2.297160 0.000000 -0.110170 
#    y 0.000000 2.428070 0.000000 
#    z -0.110170 0.000000 2.102530 
# 
# From -- ./inp_files/10730.got.cif
#   From: 2010.05.17/outbox.cif.g08.bks.cpg/sg4_6_cif.got.tgz:10730.got - 2010.06.03 18:43:04.
