data_PCOD9115704
_publ_section_title
;
Structure prediction by ZEFSAII (Michael W. Deem and Ramdas Pophale) SiO2 
 PCOD9115704
Probable space group: P 21
;
_chemical_formula_sum "Si O2"
_cell_formula_units_Z 8
_cell_length_a 7.643192
_cell_length_b 4.854551
_cell_length_c 7.951621
_cell_angle_alpha 90.000000
_cell_angle_beta 69.995799
_cell_angle_gamma 90.000000
_cell_volume 277.238624
_symmetry_space_group_name_H-M "P 21"
_symmetry_group_IT_number 4
_symmetry_cell_setting 'monoclinic'
loop_
_space_group_symop_operation_xyz
x,y,z
-x,1/2+y,-z
loop_
_atom_site_type_symbol
_atom_site_label
_atom_site_fract_x
_atom_site_fract_y
_atom_site_fract_z
Si Si1 0.311510 0.572130 0.424545
Si Si2 0.952919 0.729209 0.320927
Si Si3 0.174079 0.719611 0.806698
Si Si4 0.553339 0.878770 0.079553
O O1 0.233830 0.269470 0.503224
O O2 0.327534 0.704633 0.604666
O O3 0.474943 0.690163 0.256417
O O4 0.126668 0.661725 0.379172
O O5 0.902095 0.523034 0.186944
O O6 0.980928 0.020478 0.221764
O O7 0.269137 0.563098 0.928623
O O8 0.579146 0.634919 0.934106
#
# Coordination Sequence:
#
# PCOD9115704 Si02
#       4
#     2   2   2   2
#     4  10  23  44  78 107 138 182 253 299 350 419
#     4  10  20  42  78 108 129 176 260 309 333 399
#     4  10  22  43  71 105 139 186 251 287 353 415
#     4  12  29  45  67 110 160 190 222 295 378 435
#
# _framework density 28.856009
#
# number of rings (size 3 to 8) (size 9 to 14) (size 15 to 20)
#    1.500    0.000    2.500    1.500    3.500    4.000 
#    0.000    5.000    0.000    0.000    0.000    0.000 
#    0.000    0.000    0.000    0.000    0.000    0.000 
#
# Total GULP energy -44649.416841 kJ/mol
# GULP energy per Si atom -5581.177105 kJ/mol
# Density = 2.879033 g / cm^3
# Si number density = 28.856009 Si / 1000 Ang^3
#
#
#
# Elastic Constant Matrix: (Units=GPa)
#
#
# Indices 1 2 3 4 5 6 
#
# 1 134.4348 36.2960 37.7316 0.0000 -1.5972 0.0000
# 2 36.2960 173.5036 22.6686 0.0000 12.5906 0.0000
# 3 37.7316 22.6686 117.1571 0.0000 -4.6192 0.0000
# 4 0.0000 0.0000 0.0000 44.2601 0.0000 33.5635
# 5 -1.5972 12.5906 -4.6192 0.0000 40.5369 0.0000
# 6 0.0000 0.0000 0.0000 33.5635 0.0000 31.7993
#
#
#
# Elastic Compliance Matrix: (Units=1/GPa)
#
#
# Indices 1 2 3 4 5 6 
#
# 1 0.008535 -0.001505 -0.002437 0.000000 0.000526 0.000000
# 2 -0.001505 0.006340 -0.000826 0.000000 -0.002123 0.000000
# 3 -0.002437 -0.000826 0.009529 0.000000 0.001246 0.000000
# 4 0.000000 0.000000 0.000000 0.113194 0.000000 -0.119474
# 5 0.000526 -0.002123 0.001246 0.000000 0.025491 0.000000
# 6 0.000000 0.000000 0.000000 -0.119474 0.000000 0.157549
#
#
# Mechanical properties :
#
#
# Convention : Reuss Voigt Hill
#
# Bulk Modulus (GPa) = 67.25334 68.72086 67.98710
# Shear Modulus (GPa) = 14.91956 45.21254 30.06605
#
# Velocity S-wave (km/s) = 2.27631 3.96262 3.23140
# Velocity P-wave (km/s) = 5.50144 6.69352 6.12655
#
# Compressibility (1/GPa) = 0.01486915
#
# Stress axis : x y z
#
# Youngs Moduli (GPa) = 117.16247 157.71901 104.94005
#
# Poissons Ratio (x) = 0.23742 0.25572
# Poissons Ratio (y) = 0.17637 0.08665
# Poissons Ratio (z) = 0.28550 0.13023
#
# Static dielectric constant tensor:
#      x y z
#    x 2.259490 0.000000 -0.088580 
#    y 0.000000 2.233360 0.000000 
#    z -0.088580 0.000000 2.410260 
# 
# From -- ./inp_files/5144.got.cif
#   From: 2010.05.17/outbox.cif.g08.bks.cpg/sg4_3_cif.got.tgz:5144.got - 2010.06.03 18:43:04.
