data_PCOD9115253
_publ_section_title
;
Structure prediction by ZEFSAII (Michael W. Deem and Ramdas Pophale) SiO2 
 PCOD9115253
Probable space group: P 21
;
_chemical_formula_sum "Si O2"
_cell_formula_units_Z 14
_cell_length_a 8.555736
_cell_length_b 9.453118
_cell_length_c 11.663933
_cell_angle_alpha 90.000000
_cell_angle_beta 35.227974
_cell_angle_gamma 90.000000
_cell_volume 544.159506
_symmetry_space_group_name_H-M "P 21"
_symmetry_group_IT_number 4
_symmetry_cell_setting 'monoclinic'
loop_
_space_group_symop_operation_xyz
x,y,z
-x,1/2+y,-z
loop_
_atom_site_type_symbol
_atom_site_label
_atom_site_fract_x
_atom_site_fract_y
_atom_site_fract_z
Si Si1 0.954095 0.979030 0.855565
Si Si2 0.612673 0.596005 0.276549
Si Si3 0.235412 0.798872 0.384971
Si Si4 0.609070 0.836897 0.703979
Si Si5 0.417820 0.542145 0.732275
Si Si6 0.011764 0.656320 0.814322
Si Si7 0.514114 0.079528 0.941856
O O1 0.284616 0.575453 0.688430
O O2 0.193471 0.091353 0.730013
O O3 0.723174 0.043637 0.915366
O O4 0.047116 0.822259 0.770039
O O5 0.484044 0.440486 0.341885
O O6 0.817734 0.633115 0.045949
O O7 0.357824 0.696735 0.409998
O O8 0.320343 0.951357 0.386792
O O9 0.924098 0.805606 0.535871
O O10 0.379157 0.722065 0.187825
O O11 0.525749 0.935954 0.859885
O O12 0.455734 0.692951 0.770216
O O13 0.184884 0.456162 0.937689
O O14 0.803604 0.600791 0.841521
#
# Coordination Sequence:
#
# PCOD9115253 Si02
#       7
#     2   2   2   2   2   2   2
#     4  11  20  36  57  84 125 138 182 248 295 333
#     4   9  19  36  57  83 111 152 192 230 276 344
#     4  10  20  39  56  84 112 150 203 226 265 354
#     4  10  20  36  61  80 110 156 197 223 276 344
#     4  11  19  33  63  83 107 156 186 236 282 337
#     4   9  19  36  54  86 112 146 191 226 287 347
#     4  10  23  36  56  88 117 144 185 247 291 331
#
# _framework density 25.72775
#
# number of rings (size 3 to 8) (size 9 to 14) (size 15 to 20)
#    0.000    2.286    4.286    1.714    2.000    0.000 
#    0.000    1.429    0.000    0.000    0.000    0.000 
#    0.000    0.000    0.000    0.000    0.000    0.000 
#
# Total GULP energy -78106.575862 kJ/mol
# GULP energy per Si atom -5579.041133 kJ/mol
# Density = 2.566919 g / cm^3
# Si number density = 25.727750 Si / 1000 Ang^3
#
#
#
# Elastic Constant Matrix: (Units=GPa)
#
#
# Indices 1 2 3 4 5 6 
#
# 1 160.6161 40.5458 20.0245 0.0000 -42.8259 0.0000
# 2 40.5458 125.3479 5.2975 0.0000 0.1861 0.0000
# 3 20.0245 5.2975 83.3480 0.0000 -16.7203 0.0000
# 4 0.0000 0.0000 0.0000 37.4808 0.0000 -15.0765
# 5 -42.8259 0.1861 -16.7203 0.0000 35.0779 0.0000
# 6 0.0000 0.0000 0.0000 -15.0765 0.0000 27.1077
#
#
#
# Elastic Compliance Matrix: (Units=1/GPa)
#
#
# Indices 1 2 3 4 5 6 
#
# 1 0.010526 -0.003437 0.000300 0.000000 0.013012 0.000000
# 2 -0.003437 0.009125 -0.000670 0.000000 -0.004563 0.000000
# 3 0.000300 -0.000670 0.013316 0.000000 0.006717 0.000000
# 4 0.000000 0.000000 0.000000 0.034369 0.000000 0.019115
# 5 0.013012 -0.004563 0.006717 0.000000 0.047619 0.000000
# 6 0.000000 0.000000 0.000000 0.019115 0.000000 0.047521
#
#
# Mechanical properties :
#
#
# Convention : Reuss Voigt Hill
#
# Bulk Modulus (GPa) = 39.44318 55.67194 47.55756
# Shear Modulus (GPa) = 28.00493 40.16288 34.08390
#
# Velocity S-wave (km/s) = 3.30284 3.95533 3.64372
# Velocity P-wave (km/s) = 5.46894 6.52268 6.01891
#
# Compressibility (1/GPa) = 0.02535292
#
# Stress axis : x y z
#
# Youngs Moduli (GPa) = 95.00721 109.59488 75.09841
#
# Poissons Ratio (x) = 0.37664 -0.02252
# Poissons Ratio (y) = 0.32651 0.05030
# Poissons Ratio (z) = -0.02849 0.07340
#
# Static dielectric constant tensor:
#      x y z
#    x 2.158870 0.000000 0.103460 
#    y 0.000000 1.961940 0.000000 
#    z 0.103460 0.000000 2.179780 
# 
# From -- ./inp_files/14902.got.cif
#   From: 2010.05.17/outbox.cif.g08.bks.cpg/sg4_8_cif.got.tgz:14902.got - 2010.06.03 18:43:04.
