data_PCOD9115985
_publ_section_title
;
Structure prediction by ZEFSAII (Michael W. Deem and Ramdas Pophale) SiO2 
 PCOD9115985
Probable space group: P 21
;
_chemical_formula_sum "Si O2"
_cell_formula_units_Z 16
_cell_length_a 12.053557
_cell_length_b 6.964623
_cell_length_c 22.485628
_cell_angle_alpha 90.000000
_cell_angle_beta 19.637364
_cell_angle_gamma 90.000000
_cell_volume 634.369402
_symmetry_space_group_name_H-M "P 21"
_symmetry_group_IT_number 4
_symmetry_cell_setting 'monoclinic'
loop_
_space_group_symop_operation_xyz
x,y,z
-x,1/2+y,-z
loop_
_atom_site_type_symbol
_atom_site_label
_atom_site_fract_x
_atom_site_fract_y
_atom_site_fract_z
Si Si1 0.760162 0.550920 0.933991
Si Si2 0.802735 0.535228 0.290381
Si Si3 0.248808 0.167601 0.438784
Si Si4 0.556958 0.097317 0.404922
Si Si5 0.560919 0.661594 0.906145
Si Si6 0.519398 0.596244 0.178637
Si Si7 0.297072 0.050387 0.786349
Si Si8 0.468566 0.627816 0.826972
O O1 0.479833 0.389406 0.076790
O O2 0.123542 0.462267 0.754776
O O3 0.746437 0.626016 0.873596
O O4 0.697623 0.660847 0.027660
O O5 0.724579 0.308700 0.320808
O O6 0.648824 0.585048 0.431427
O O7 0.640900 0.623912 0.312017
O O8 0.191867 0.575940 0.097794
O O9 0.359563 0.069006 0.444091
O O10 0.459010 0.366142 0.332598
O O11 0.351805 0.072850 0.324290
O O12 0.855686 0.164467 0.637077
O O13 0.671842 0.587818 0.785263
O O14 0.645105 0.658502 0.180355
O O15 0.568467 0.362220 0.154324
O O16 0.896058 0.035332 0.987901
#
# Coordination Sequence:
#
# PCOD9115985 Si02
#       8
#     2   2   2   2   2   2   2   2
#     4  11  22  37  61  89 122 166 208 255 316 380
#     4  10  21  39  60  86 120 158 207 261 313 373
#     4  10  21  39  63  94 127 162 209 264 317 372
#     4  11  22  37  61  89 122 166 208 255 316 380
#     4  10  21  39  60  86 120 158 207 261 313 373
#     4  10  21  39  63  94 127 162 209 264 317 372
#     4   9  20  41  64  89 124 168 213 258 316 381
#     4   9  20  41  64  89 124 168 213 258 316 381
#
# _framework density 25.221899000000001
#
# number of rings (size 3 to 8) (size 9 to 14) (size 15 to 20)
#    0.000    2.000    0.000    3.000    0.000    3.000 
#    0.000   25.000    0.000    0.000    0.000    0.000 
#    0.000    0.000    0.000    0.000    0.000    0.000 
#
# Total GULP energy -89318.330937 kJ/mol
# GULP energy per Si atom -5582.395684 kJ/mol
# Density = 2.516449 g / cm^3
# Si number density = 25.221899 Si / 1000 Ang^3
#
#
#
# Elastic Constant Matrix: (Units=GPa)
#
#
# Indices 1 2 3 4 5 6 
#
# 1 312.4575 16.8658 88.1593 0.0000 44.8771 0.0000
# 2 16.8658 85.1301 0.1083 0.0000 3.9828 0.0000
# 3 88.1593 0.1083 130.6195 0.0000 40.6841 0.0000
# 4 0.0000 0.0000 0.0000 26.0091 0.0000 -4.6870
# 5 44.8771 3.9828 40.6841 0.0000 44.0525 0.0000
# 6 0.0000 0.0000 0.0000 -4.6870 0.0000 26.6013
#
#
#
# Elastic Compliance Matrix: (Units=1/GPa)
#
#
# Indices 1 2 3 4 5 6 
#
# 1 0.004153 -0.000717 -0.002113 0.000000 -0.002215 0.000000
# 2 -0.000717 0.011939 0.000818 0.000000 -0.001105 0.000000
# 3 -0.002113 0.000818 0.011839 0.000000 -0.008856 0.000000
# 4 0.000000 0.000000 0.000000 0.039709 0.000000 0.006996
# 5 -0.002215 -0.001105 -0.008856 0.000000 0.033235 0.000000
# 6 0.000000 0.000000 0.000000 0.006996 0.000000 0.038825
#
#
# Mechanical properties :
#
#
# Convention : Reuss Voigt Hill
#
# Bulk Modulus (GPa) = 41.82472 82.05264 61.93868
# Shear Modulus (GPa) = 32.96112 47.53749 40.24931
#
# Velocity S-wave (km/s) = 3.61895 4.34610 3.99909
# Velocity P-wave (km/s) = 5.83790 7.60183 6.77750
#
# Compressibility (1/GPa) = 0.02390931
#
# Stress axis : x y z
#
# Youngs Moduli (GPa) = 240.76901 83.75678 84.46376
#
# Poissons Ratio (x) = 0.06001 0.17844
# Poissons Ratio (y) = 0.17252 -0.06908
# Poissons Ratio (z) = 0.50867 -0.06850
#
# Static dielectric constant tensor:
#      x y z
#    x 1.977060 0.000000 0.037000 
#    y 0.000000 2.196680 0.000000 
#    z 0.037000 0.000000 1.934300 
# 
# From -- ./inp_files/15704.got.cif
#   From: 2010.05.17/outbox.cif.g08.bks.cpg/sg4_8_cif.got.tgz:15704.got - 2010.06.03 18:43:04.
