data_PCOD9115435
_publ_section_title
;
Structure prediction by ZEFSAII (Michael W. Deem and Ramdas Pophale) SiO2 
 PCOD9115435
Probable space group: P 21
;
_chemical_formula_sum "Si O2"
_cell_formula_units_Z 14
_cell_length_a 10.929427
_cell_length_b 13.010211
_cell_length_c 7.699731
_cell_angle_alpha 90.000000
_cell_angle_beta 40.647182
_cell_angle_gamma 90.000000
_cell_volume 713.188835
_symmetry_space_group_name_H-M "P 21"
_symmetry_group_IT_number 4
_symmetry_cell_setting 'monoclinic'
loop_
_space_group_symop_operation_xyz
x,y,z
-x,1/2+y,-z
loop_
_atom_site_type_symbol
_atom_site_label
_atom_site_fract_x
_atom_site_fract_y
_atom_site_fract_z
Si Si1 0.343655 0.326910 0.272290
Si Si2 0.174344 0.125879 0.340039
Si Si3 0.612560 0.301018 0.649158
Si Si4 0.038009 0.254854 0.183677
Si Si5 0.157437 0.470490 0.232119
Si Si6 0.642198 0.734661 0.396706
Si Si7 0.443087 0.033015 0.301088
O O1 0.190900 0.235064 0.420170
O O2 0.243000 0.431467 0.323910
O O3 0.417413 0.314136 0.386962
O O4 0.500945 0.303288 0.954161
O O5 0.133458 0.162224 0.189532
O O6 0.364185 0.069163 0.197269
O O7 0.007975 0.051274 0.575553
O O8 0.479678 0.254273 0.644227
O O9 0.642163 0.421219 0.571539
O O10 0.814038 0.247044 0.435145
O O11 0.092424 0.364887 0.210435
O O12 0.140924 0.252406 0.888485
O O13 0.334188 0.518542 0.942911
O O14 0.612568 0.621095 0.504738
#
# Coordination Sequence:
#
# PCOD9115435 Si02
#       7
#     2   2   2   2   2   2   2
#     4   9  22  43  65  92 131 173 215 266 325 383
#     4  10  20  38  67  93 122 170 218 259 317 388
#     4  11  22  48  64  90 138 176 206 272 333 376
#     4  11  23  42  65  97 133 162 216 275 317 385
#     4  10  20  42  68  92 128 172 215 263 323 390
#     4  11  23  44  63 100 130 165 221 272 316 390
#     4  10  22  41  68  92 128 174 215 267 323 384
#
# _framework density 19.630144999999999
#
# number of rings (size 3 to 8) (size 9 to 14) (size 15 to 20)
#    0.000    1.714    5.714    0.000    4.000    2.286 
#   12.857    0.000    0.000    0.000    0.000    0.000 
#    0.000    0.000    0.000    0.000    0.000    0.000 
#
# Total GULP energy -78014.964268 kJ/mol
# GULP energy per Si atom -5572.497448 kJ/mol
# Density = 1.958547 g / cm^3
# Si number density = 19.630145 Si / 1000 Ang^3
#
#
#
# Elastic Constant Matrix: (Units=GPa)
#
#
# Indices 1 2 3 4 5 6 
#
# 1 67.4380 7.1606 51.2701 0.0000 -3.3296 0.0000
# 2 7.1606 78.5221 24.2810 0.0000 -4.0541 0.0000
# 3 51.2701 24.2810 92.2958 0.0000 -4.7249 0.0000
# 4 0.0000 0.0000 0.0000 36.4904 0.0000 -2.5889
# 5 -3.3296 -4.0541 -4.7249 0.0000 31.6040 0.0000
# 6 0.0000 0.0000 0.0000 -2.5889 0.0000 21.2270
#
#
#
# Elastic Compliance Matrix: (Units=1/GPa)
#
#
# Indices 1 2 3 4 5 6 
#
# 1 0.026060 0.002317 -0.015045 0.000000 0.000793 0.000000
# 2 0.002317 0.014118 -0.004934 0.000000 0.001317 0.000000
# 3 -0.015045 -0.004934 0.020534 0.000000 0.000852 0.000000
# 4 0.000000 0.000000 0.000000 0.027644 0.000000 0.003371
# 5 0.000793 0.001317 0.000852 0.000000 0.032022 0.000000
# 6 0.000000 0.000000 0.000000 0.003371 0.000000 0.047521
#
#
# Mechanical properties :
#
#
# Convention : Reuss Voigt Hill
#
# Bulk Modulus (GPa) = 39.38945 44.85325 42.12135
# Shear Modulus (GPa) = 23.62022 28.23389 25.92705
#
# Velocity S-wave (km/s) = 3.47257 3.79660 3.63819
# Velocity P-wave (km/s) = 6.01562 6.48981 6.25721
#
# Compressibility (1/GPa) = 0.02538751
#
# Stress axis : x y z
#
# Youngs Moduli (GPa) = 38.37351 70.83355 48.70038
#
# Poissons Ratio (x) = -0.16411 0.73270
# Poissons Ratio (y) = -0.08890 0.24027
# Poissons Ratio (z) = 0.57733 0.34946
#
# Static dielectric constant tensor:
#      x y z
#    x 1.755840 0.000000 0.014840 
#    y 0.000000 1.699180 0.000000 
#    z 0.014840 0.000000 1.690140 
# 
# From -- ./inp_files/8421.got.cif
#   From: 2010.05.17/outbox.cif.g08.bks.cpg/sg4_5_cif.got.tgz:8421.got - 2010.06.03 18:43:04.
