data_PCOD9115964
_publ_section_title
;
Structure prediction by ZEFSAII (Michael W. Deem and Ramdas Pophale) SiO2 
 PCOD9115964
Probable space group: P 21
;
_chemical_formula_sum "Si O2"
_cell_formula_units_Z 16
_cell_length_a 10.702268
_cell_length_b 13.421756
_cell_length_c 11.074126
_cell_angle_alpha 90.000000
_cell_angle_beta 26.238097
_cell_angle_gamma 90.000000
_cell_volume 703.262490
_symmetry_space_group_name_H-M "P 21"
_symmetry_group_IT_number 4
_symmetry_cell_setting 'monoclinic'
loop_
_space_group_symop_operation_xyz
x,y,z
-x,1/2+y,-z
loop_
_atom_site_type_symbol
_atom_site_label
_atom_site_fract_x
_atom_site_fract_y
_atom_site_fract_z
Si Si1 0.827835 0.356210 0.311161
Si Si2 0.575488 0.079440 0.806931
Si Si3 0.797580 0.591769 0.361050
Si Si4 0.403107 0.270913 0.862146
Si Si5 0.491444 0.348117 0.171866
Si Si6 0.283649 0.718942 0.812439
Si Si7 0.895663 0.338864 0.608681
Si Si8 0.172991 0.069020 0.378526
O O1 0.828180 0.475304 0.300328
O O2 0.540864 0.320057 0.624562
O O3 0.851635 0.291295 0.169355
O O4 0.103093 0.320875 0.148008
O O5 0.400967 0.151373 0.869294
O O6 0.900068 0.111146 0.545636
O O7 0.564096 0.966259 0.769190
O O8 0.438984 0.081867 0.059653
O O9 0.505332 0.639057 0.567654
O O10 0.791871 0.598670 0.512899
O O11 0.052481 0.656633 0.086940
O O12 0.638756 0.292515 0.758077
O O13 0.537789 0.290913 0.254936
O O14 0.218973 0.304212 0.337022
O O15 0.777209 0.338044 0.847579
O O16 0.895290 0.451408 0.559728
#
# Coordination Sequence:
#
# PCOD9115964 Si02
#       8
#     2   2   2   2   2   2   2   2
#     4  12  28  49  70 101 139 184 236 283 333 410
#     4  10  23  39  66 104 144 181 214 280 347 414
#     4  12  26  47  71 103 132 183 231 292 334 410
#     4  12  24  43  71 103 138 185 227 275 350 408
#     4  10  23  42  62 102 142 173 226 282 342 396
#     4  12  28  46  72 102 133 188 236 280 344 399
#     4  10  21  38  67  97 140 176 216 286 339 404
#     4  10  21  40  63 102 140 176 224 274 345 403
#
# _framework density 22.751107000000001
#
# number of rings (size 3 to 8) (size 9 to 14) (size 15 to 20)
#    0.000    1.000    1.250    4.500    8.750    2.000 
#    0.000    0.000    0.000    0.000    0.000    0.000 
#    0.000    0.000    0.000    0.000    0.000    0.000 
#
# Total GULP energy -89488.755052 kJ/mol
# GULP energy per Si atom -5593.047191 kJ/mol
# Density = 2.269932 g / cm^3
# Si number density = 22.751107 Si / 1000 Ang^3
#
#
#
# Elastic Constant Matrix: (Units=GPa)
#
#
# Indices 1 2 3 4 5 6 
#
# 1 37.8347 47.8566 -4.2230 0.0000 -7.5628 0.0000
# 2 47.8566 143.2196 27.4751 0.0000 -6.4290 0.0000
# 3 -4.2230 27.4751 85.8850 0.0000 -21.8339 0.0000
# 4 0.0000 0.0000 0.0000 32.4047 0.0000 3.6950
# 5 -7.5628 -6.4290 -21.8339 0.0000 24.2073 0.0000
# 6 0.0000 0.0000 0.0000 3.6950 0.0000 30.2524
#
#
#
# Elastic Compliance Matrix: (Units=1/GPa)
#
#
# Indices 1 2 3 4 5 6 
#
# 1 0.064826 -0.023856 0.018629 0.000000 0.030720 0.000000
# 2 -0.023856 0.016219 -0.009292 0.000000 -0.011527 0.000000
# 3 0.018629 -0.009292 0.021259 0.000000 0.022527 0.000000
# 4 0.000000 0.000000 0.000000 0.031296 0.000000 -0.003822
# 5 0.030720 -0.011527 0.022527 0.000000 0.068164 0.000000
# 6 0.000000 0.000000 0.000000 -0.003822 0.000000 0.033522
#
#
# Mechanical properties :
#
#
# Convention : Reuss Voigt Hill
#
# Bulk Modulus (GPa) = 13.64902 45.46186 29.55544
# Shear Modulus (GPa) = 17.31626 30.42827 23.87227
#
# Velocity S-wave (km/s) = 2.76183 3.66107 3.24277
# Velocity P-wave (km/s) = 4.02276 6.15605 5.19997
#
# Compressibility (1/GPa) = 0.07326535
#
# Stress axis : x y z
#
# Youngs Moduli (GPa) = 15.42585 61.65617 47.03939
#
# Poissons Ratio (x) = 1.47089 -0.87629
# Poissons Ratio (y) = 0.36800 0.43708
# Poissons Ratio (z) = -0.28737 0.57290
#
# Static dielectric constant tensor:
#      x y z
#    x 1.882720 0.000000 0.007580 
#    y 0.000000 1.989630 0.000000 
#    z 0.007580 0.000000 1.815630 
# 
# From -- ./inp_files/12340.got.cif
#   From: 2010.05.17/outbox.cif.g08.bks.cpg/sg4_7_cif.got.tgz:12340.got - 2010.06.03 18:43:04.
