data_PCOD9115099
_publ_section_title
;
Structure prediction by ZEFSAII (Michael W. Deem and Ramdas Pophale) SiO2 
 PCOD9115099
Probable space group: P 21
;
_chemical_formula_sum "Si O2"
_cell_formula_units_Z 14
_cell_length_a 5.922992
_cell_length_b 12.320339
_cell_length_c 9.016494
_cell_angle_alpha 90.000000
_cell_angle_beta 123.910339
_cell_angle_gamma 90.000000
_cell_volume 546.051181
_symmetry_space_group_name_H-M "P 21"
_symmetry_group_IT_number 4
_symmetry_cell_setting 'monoclinic'
loop_
_space_group_symop_operation_xyz
x,y,z
-x,1/2+y,-z
loop_
_atom_site_type_symbol
_atom_site_label
_atom_site_fract_x
_atom_site_fract_y
_atom_site_fract_z
Si Si1 0.666361 0.713700 0.404412
Si Si2 0.435229 0.293590 0.933894
Si Si3 0.739768 0.637327 0.899588
Si Si4 0.416197 0.485264 0.409949
Si Si5 0.962237 0.817335 0.797820
Si Si6 0.822036 0.097715 0.419037
Si Si7 0.954968 0.463472 0.767912
O O1 0.524560 0.785795 0.228591
O O2 0.494598 0.605943 0.382190
O O3 0.796554 0.771377 0.594938
O O4 0.942955 0.670529 0.429679
O O5 0.182470 0.373287 0.869593
O O6 0.352550 0.175659 0.972022
O O7 0.717453 0.336034 0.109822
O O8 0.952461 0.724257 0.917787
O O9 0.462941 0.656337 0.705022
O O10 0.840525 0.521215 0.875120
O O11 0.230984 0.417929 0.230923
O O12 0.228844 0.501108 0.486271
O O13 0.694509 0.430872 0.570826
O O14 0.908464 0.054746 0.289080
#
# Coordination Sequence:
#
# PCOD9115099 Si02
#       7
#     2   2   2   2   2   2   2
#     4  11  24  49  76 112 152 199 258 314 390 458
#     4  12  28  46  81 115 153 203 259 325 384 464
#     4  11  23  48  75 108 156 196 249 328 372 457
#     4  10  24  45  82 109 148 204 256 315 388 468
#     4  12  25  50  76 112 154 198 257 321 395 457
#     4  10  19  47  75 103 148 197 244 320 375 450
#     4  10  23  47  77 109 151 207 253 311 394 452
#
# _framework density 25.638621000000001
#
# number of rings (size 3 to 8) (size 9 to 14) (size 15 to 20)
#    0.000    1.143    5.714    0.857    2.000    6.857 
#   15.429    0.000    0.000    0.000    0.000    0.000 
#    0.000    0.000    0.000    0.000    0.000    0.000 
#
# Total GULP energy -78243.412919 kJ/mol
# GULP energy per Si atom -5588.815209 kJ/mol
# Density = 2.558027 g / cm^3
# Si number density = 25.638621 Si / 1000 Ang^3
#
#
#
# Elastic Constant Matrix: (Units=GPa)
#
#
# Indices 1 2 3 4 5 6 
#
# 1 88.4880 28.9831 45.9909 0.0000 24.5279 0.0000
# 2 28.9831 73.0199 56.6032 0.0000 17.0340 0.0000
# 3 45.9909 56.6032 142.2772 0.0000 14.7893 0.0000
# 4 0.0000 0.0000 0.0000 32.8183 0.0000 1.9038
# 5 24.5279 17.0340 14.7893 0.0000 43.3997 0.0000
# 6 0.0000 0.0000 0.0000 1.9038 0.0000 46.8498
#
#
#
# Elastic Compliance Matrix: (Units=1/GPa)
#
#
# Indices 1 2 3 4 5 6 
#
# 1 0.015702 -0.001793 -0.003642 0.000000 -0.006929 0.000000
# 2 -0.001793 0.021244 -0.007372 0.000000 -0.004813 0.000000
# 3 -0.003642 -0.007372 0.011014 0.000000 0.001198 0.000000
# 4 0.000000 0.000000 0.000000 0.030543 0.000000 -0.001241
# 5 -0.006929 -0.004813 0.001198 0.000000 0.028438 0.000000
# 6 0.000000 0.000000 0.000000 -0.001241 0.000000 0.021395
#
#
# Mechanical properties :
#
#
# Convention : Reuss Voigt Hill
#
# Bulk Modulus (GPa) = 44.75000 62.99330 53.87165
# Shear Modulus (GPa) = 30.97940 36.09409 33.53675
#
# Velocity S-wave (km/s) = 3.47985 3.75614 3.62063
# Velocity P-wave (km/s) = 5.79981 6.59048 6.20775
#
# Compressibility (1/GPa) = 0.02234637
#
# Stress axis : x y z
#
# Youngs Moduli (GPa) = 63.68688 47.07321 90.79331
#
# Poissons Ratio (x) = 0.08438 0.33068
# Poissons Ratio (y) = 0.11417 0.66930
# Poissons Ratio (z) = 0.23196 0.34701
#
# Static dielectric constant tensor:
#      x y z
#    x 2.004500 0.000000 -0.025010 
#    y 0.000000 2.160080 0.000000 
#    z -0.025010 0.000000 2.005470 
# 
# From -- ./inp_files/4855.got.cif
#   From: 2010.05.17/outbox.cif.g08.bks.cpg/sg4_3_cif.got.tgz:4855.got - 2010.06.03 18:43:04.
