data_PCOD9115325
_publ_section_title
;
Structure prediction by ZEFSAII (Michael W. Deem and Ramdas Pophale) SiO2 
 PCOD9115325
Probable space group: P 21
;
_chemical_formula_sum "Si O2"
_cell_formula_units_Z 14
_cell_length_a 8.686057
_cell_length_b 11.290929
_cell_length_c 14.131849
_cell_angle_alpha 90.000000
_cell_angle_beta 28.573829
_cell_angle_gamma 90.000000
_cell_volume 662.892860
_symmetry_space_group_name_H-M "P 21"
_symmetry_group_IT_number 4
_symmetry_cell_setting 'monoclinic'
loop_
_space_group_symop_operation_xyz
x,y,z
-x,1/2+y,-z
loop_
_atom_site_type_symbol
_atom_site_label
_atom_site_fract_x
_atom_site_fract_y
_atom_site_fract_z
Si Si1 0.859709 0.282850 0.937010
Si Si2 0.935659 0.353088 0.283462
Si Si3 0.410628 0.991407 0.014488
Si Si4 0.834465 0.676782 0.699166
Si Si5 0.189393 0.048700 0.766962
Si Si6 0.826437 0.837959 0.032495
Si Si7 0.386109 0.630644 0.283944
O O1 0.057224 0.169531 0.794654
O O2 0.008837 0.313896 0.957175
O O3 0.851838 0.393333 0.871739
O O4 0.487534 0.247294 0.152170
O O5 0.273990 0.421197 0.119720
O O6 0.911715 0.264643 0.383640
O O7 0.699173 0.457919 0.375962
O O8 0.984687 0.280846 0.159279
O O9 0.515085 0.060652 0.863172
O O10 0.275214 0.079237 0.166101
O O11 0.013518 0.624830 0.512103
O O12 0.427924 0.076615 0.724603
O O13 0.887981 0.976507 0.977701
O O14 0.492562 0.768064 0.213113
#
# Coordination Sequence:
#
# PCOD9115325 Si02
#       7
#     2   2   2   2   2   2   2
#     4  10  20  37  63  85 121 163 197 239 314 354
#     4   9  19  37  63  82 120 154 202 240 299 357
#     4  11  19  40  62  85 122 161 188 255 302 349
#     4  11  22  39  60  94 114 156 210 248 291 362
#     4   9  18  40  60  87 117 161 197 240 301 371
#     4   9  18  39  65  81 120 165 187 244 308 351
#     4  11  22  38  63  88 122 154 203 250 297 352
#
# _framework density 21.119551999999999
#
# number of rings (size 3 to 8) (size 9 to 14) (size 15 to 20)
#    0.857    1.143    4.286    0.000    0.000    0.000 
#   15.429    1.429    0.000    0.000    0.000    0.000 
#    0.000    0.000    0.000    0.000    0.000    0.000 
#
# Total GULP energy -77935.101619 kJ/mol
# GULP energy per Si atom -5566.792973 kJ/mol
# Density = 2.107148 g / cm^3
# Si number density = 21.119552 Si / 1000 Ang^3
#
#
#
# Elastic Constant Matrix: (Units=GPa)
#
#
# Indices 1 2 3 4 5 6 
#
# 1 43.1476 8.6933 -7.0521 0.0000 -3.3377 0.0000
# 2 8.6933 74.1849 12.7047 0.0000 8.2891 0.0000
# 3 -7.0521 12.7047 41.7981 0.0000 6.1747 0.0000
# 4 0.0000 0.0000 0.0000 4.1916 0.0000 -1.6514
# 5 -3.3377 8.2891 6.1747 0.0000 13.3615 0.0000
# 6 0.0000 0.0000 0.0000 -1.6514 0.0000 9.9280
#
#
#
# Elastic Compliance Matrix: (Units=1/GPa)
#
#
# Indices 1 2 3 4 5 6 
#
# 1 0.025394 -0.004554 0.004630 0.000000 0.007029 0.000000
# 2 -0.004554 0.015738 -0.004230 0.000000 -0.008946 0.000000
# 3 0.004630 -0.004230 0.027297 0.000000 -0.008833 0.000000
# 4 0.000000 0.000000 0.000000 0.255307 0.000000 0.042468
# 5 0.007029 -0.008946 -0.008833 0.000000 0.086230 0.000000
# 6 0.000000 0.000000 0.000000 0.042468 0.000000 0.107789
#
#
# Mechanical properties :
#
#
# Convention : Reuss Voigt Hill
#
# Bulk Modulus (GPa) = 16.63338 20.86918 18.75128
# Shear Modulus (GPa) = 9.15579 15.14853 12.15216
#
# Velocity S-wave (km/s) = 2.08438 2.68111 2.40135
# Velocity P-wave (km/s) = 3.69943 4.41445 4.07266
#
# Compressibility (1/GPa) = 0.06012009
#
# Stress axis : x y z
#
# Youngs Moduli (GPa) = 39.37886 63.54226 36.63473
#
# Poissons Ratio (x) = 0.28938 -0.16963
# Poissons Ratio (y) = 0.17934 0.15498
# Poissons Ratio (z) = -0.18234 0.26881
#
# Static dielectric constant tensor:
#      x y z
#    x 1.777340 0.000000 -0.014210 
#    y 0.000000 1.827130 0.000000 
#    z -0.014210 0.000000 1.739650 
# 
# From -- ./inp_files/13752.got.cif
#   From: 2010.05.17/outbox.cif.g08.bks.cpg/sg4_7_cif.got.tgz:13752.got - 2010.06.03 18:43:04.
