data_PCOD9115564
_publ_section_title
;
Structure prediction by ZEFSAII (Michael W. Deem and Ramdas Pophale) SiO2 
 PCOD9115564
Probable space group: P 21
;
_chemical_formula_sum "Si O2"
_cell_formula_units_Z 14
_cell_length_a 8.215598
_cell_length_b 14.086484
_cell_length_c 5.614726
_cell_angle_alpha 90.000000
_cell_angle_beta 58.855235
_cell_angle_gamma 90.000000
_cell_volume 556.127968
_symmetry_space_group_name_H-M "P 21"
_symmetry_group_IT_number 4
_symmetry_cell_setting 'monoclinic'
loop_
_space_group_symop_operation_xyz
x,y,z
-x,1/2+y,-z
loop_
_atom_site_type_symbol
_atom_site_label
_atom_site_fract_x
_atom_site_fract_y
_atom_site_fract_z
Si Si1 0.087674 0.878880 0.599702
Si Si2 0.964756 0.248778 0.957516
Si Si3 0.225855 0.247155 0.368667
Si Si4 0.143882 0.538000 0.849188
Si Si5 0.646791 0.035826 0.799416
Si Si6 0.792806 0.537638 0.821779
Si Si7 0.371684 0.762679 0.145652
O O1 0.001426 0.839761 0.908069
O O2 0.926347 0.828956 0.560143
O O3 0.124695 0.982429 0.469963
O O4 0.293779 0.825934 0.420926
O O5 0.876584 0.153059 0.135805
O O6 0.792604 0.279277 0.919631
O O7 0.166465 0.221022 0.682871
O O8 0.192691 0.149790 0.247576
O O9 0.428629 0.282734 0.129208
O O10 0.242231 0.513798 0.032031
O O11 0.925199 0.513165 0.945904
O O12 0.263057 0.506871 0.523925
O O13 0.425633 0.007616 0.982676
O O14 0.639303 0.150949 0.791416
#
# Coordination Sequence:
#
# PCOD9115564 Si02
#       7
#     2   2   2   2   2   2   2
#     4  11  22  43  65  99 135 179 233 301 343 421
#     4  10  20  40  67  92 136 179 232 288 356 410
#     4  10  22  44  65  99 134 189 227 288 364 428
#     4  11  21  44  70  97 140 181 230 293 352 417
#     4  10  23  42  70  98 132 187 234 283 357 420
#     4  11  24  43  71 102 140 184 245 287 360 430
#     4   9  20  40  64  91 133 175 231 286 350 418
#
# _framework density 25.174059
#
# number of rings (size 3 to 8) (size 9 to 14) (size 15 to 20)
#    0.000    1.714    2.857    1.714    0.000    6.857 
#   18.000    0.000    0.000    0.000    0.000    0.000 
#    0.000    0.000    0.000    0.000    0.000    0.000 
#
# Total GULP energy -78098.107883 kJ/mol
# GULP energy per Si atom -5578.436277 kJ/mol
# Density = 2.511676 g / cm^3
# Si number density = 25.174059 Si / 1000 Ang^3
#
#
#
# Elastic Constant Matrix: (Units=GPa)
#
#
# Indices 1 2 3 4 5 6 
#
# 1 130.0285 16.5576 86.5260 0.0000 -24.4396 0.0000
# 2 16.5576 62.3044 10.4957 0.0000 0.7422 0.0000
# 3 86.5260 10.4957 170.6355 0.0000 -20.1668 0.0000
# 4 0.0000 0.0000 0.0000 33.0282 0.0000 2.0777
# 5 -24.4396 0.7422 -20.1668 0.0000 43.2540 0.0000
# 6 0.0000 0.0000 0.0000 2.0777 0.0000 24.6293
#
#
#
# Elastic Compliance Matrix: (Units=1/GPa)
#
#
# Indices 1 2 3 4 5 6 
#
# 1 0.012674 -0.002455 -0.005741 0.000000 0.004527 0.000000
# 2 -0.002455 0.016719 0.000020 0.000000 -0.001665 0.000000
# 3 -0.005741 0.000020 0.008876 0.000000 0.000894 0.000000
# 4 0.000000 0.000000 0.000000 0.030439 0.000000 -0.002568
# 5 0.004527 -0.001665 0.000894 0.000000 0.026122 0.000000
# 6 0.000000 0.000000 0.000000 -0.002568 0.000000 0.040819
#
#
# Mechanical properties :
#
#
# Convention : Reuss Voigt Hill
#
# Bulk Modulus (GPa) = 45.62642 65.56967 55.59804
# Shear Modulus (GPa) = 31.38587 36.80825 34.09706
#
# Velocity S-wave (km/s) = 3.53477 3.82796 3.68428
# Velocity P-wave (km/s) = 5.90112 6.75579 6.34287
#
# Compressibility (1/GPa) = 0.02191713
#
# Stress axis : x y z
#
# Youngs Moduli (GPa) = 78.89987 59.81152 112.66326
#
# Poissons Ratio (x) = 0.14684 0.64679
# Poissons Ratio (y) = 0.19371 -0.00223
# Poissons Ratio (z) = 0.45295 -0.00118
#
# Static dielectric constant tensor:
#      x y z
#    x 2.008590 0.000000 0.134880 
#    y 0.000000 2.048260 0.000000 
#    z 0.134880 0.000000 2.349670 
# 
# From -- ./inp_files/1905.got.cif
#   From: 2010.05.17/outbox.cif.g08.bks.cpg/sg4_1_cif.got.tgz:1905.got - 2010.06.03 18:43:04.
