data_PCOD9115860
_publ_section_title
;
Structure prediction by ZEFSAII (Michael W. Deem and Ramdas Pophale) SiO2 
 PCOD9115860
Probable space group: P 21
;
_chemical_formula_sum "Si O2"
_cell_formula_units_Z 14
_cell_length_a 5.640861
_cell_length_b 8.198167
_cell_length_c 14.353289
_cell_angle_alpha 90.000000
_cell_angle_beta 117.212562
_cell_angle_gamma 90.000000
_cell_volume 590.295890
_symmetry_space_group_name_H-M "P 21"
_symmetry_group_IT_number 4
_symmetry_cell_setting 'monoclinic'
loop_
_space_group_symop_operation_xyz
x,y,z
-x,1/2+y,-z
loop_
_atom_site_type_symbol
_atom_site_label
_atom_site_fract_x
_atom_site_fract_y
_atom_site_fract_z
Si Si1 0.912059 0.082430 0.976250
Si Si2 0.396365 0.276924 0.073584
Si Si3 0.541933 0.604475 0.399558
Si Si4 0.434383 0.279968 0.867728
Si Si5 0.126179 0.593303 0.806277
Si Si6 0.941723 0.590968 0.307567
Si Si7 0.273407 0.277590 0.379896
O O1 0.732797 0.223255 0.895209
O O2 0.795029 0.913409 0.917998
O O3 0.880099 0.084202 0.082719
O O4 0.220031 0.116899 0.023856
O O5 0.653592 0.230616 0.176270
O O6 0.466077 0.324348 0.981311
O O7 0.233824 0.667772 0.337095
O O8 0.504844 0.406455 0.393019
O O9 0.648124 0.675534 0.515599
O O10 0.748964 0.652314 0.356018
O O11 0.260372 0.426421 0.793664
O O12 0.247776 0.121386 0.815478
O O13 0.843880 0.650938 0.716338
O O14 0.038259 0.410458 0.353675
#
# Coordination Sequence:
#
# PCOD9115860 Si02
#       7
#     2   2   2   2   2   2   2
#     4  10  21  37  62  89 132 167 220 264 323 386
#     4  10  21  38  58  94 127 173 213 269 318 391
#     4  10  26  45  68  98 128 172 217 274 329 386
#     4  10  22  38  63  89 133 167 220 263 327 383
#     4  10  22  41  60  94 124 172 215 269 325 388
#     4  10  25  43  69  99 129 173 216 270 330 387
#     4  10  25  42  70  91 135 164 223 271 330 393
#
# _framework density 23.716919000000001
#
# number of rings (size 3 to 8) (size 9 to 14) (size 15 to 20)
#    0.857    1.143    0.000    1.714    6.000    5.714 
#    0.000    0.000    0.000    0.000    0.000    0.000 
#    0.000    0.000    0.000    0.000    0.000    0.000 
#
# Total GULP energy -77987.980167 kJ/mol
# GULP energy per Si atom -5570.570012 kJ/mol
# Density = 2.366294 g / cm^3
# Si number density = 23.716919 Si / 1000 Ang^3
#
#
#
# Elastic Constant Matrix: (Units=GPa)
#
#
# Indices 1 2 3 4 5 6 
#
# 1 89.1134 22.8416 21.1414 0.0000 5.9975 0.0000
# 2 22.8416 83.6478 19.8380 0.0000 3.2792 0.0000
# 3 21.1414 19.8380 80.1066 0.0000 15.6707 0.0000
# 4 0.0000 0.0000 0.0000 37.9936 0.0000 11.5941
# 5 5.9975 3.2792 15.6707 0.0000 27.0694 0.0000
# 6 0.0000 0.0000 0.0000 11.5941 0.0000 28.9840
#
#
#
# Elastic Compliance Matrix: (Units=1/GPa)
#
#
# Indices 1 2 3 4 5 6 
#
# 1 0.012590 -0.002823 -0.002419 0.000000 -0.001047 0.000000
# 2 -0.002823 0.013336 -0.002666 0.000000 0.000553 0.000000
# 3 -0.002419 -0.002666 0.015352 0.000000 -0.008029 0.000000
# 4 0.000000 0.000000 0.000000 0.029980 0.000000 -0.011992
# 5 -0.001047 0.000553 -0.008029 0.000000 0.041755 0.000000
# 6 0.000000 0.000000 0.000000 -0.011992 0.000000 0.039299
#
#
# Mechanical properties :
#
#
# Convention : Reuss Voigt Hill
#
# Bulk Modulus (GPa) = 39.27229 42.27888 40.77558
# Shear Modulus (GPa) = 28.31015 31.41252 29.86134
#
# Velocity S-wave (km/s) = 3.45870 3.64329 3.55219
# Velocity P-wave (km/s) = 5.70481 5.96349 5.83558
#
# Compressibility (1/GPa) = 0.02546325
#
# Stress axis : x y z
#
# Youngs Moduli (GPa) = 79.43085 74.98306 65.13606
#
# Poissons Ratio (x) = 0.21169 0.15754
# Poissons Ratio (y) = 0.22425 0.17364
# Poissons Ratio (z) = 0.19211 0.19989
#
# Static dielectric constant tensor:
#      x y z
#    x 1.937220 0.000000 -0.011890 
#    y 0.000000 2.025170 0.000000 
#    z -0.011890 0.000000 1.869280 
# 
# From -- ./inp_files/12071.got.cif
#   From: 2010.05.17/outbox.cif.g08.bks.cpg/sg4_7_cif.got.tgz:12071.got - 2010.06.03 18:43:04.
