data_PCOD9115238
_publ_section_title
;
Structure prediction by ZEFSAII (Michael W. Deem and Ramdas Pophale) SiO2 
 PCOD9115238
Probable space group: P 21
;
_chemical_formula_sum "Si O2"
_cell_formula_units_Z 16
_cell_length_a 22.329239
_cell_length_b 7.012885
_cell_length_c 5.251100
_cell_angle_alpha 90.000000
_cell_angle_beta 126.813622
_cell_angle_gamma 90.000000
_cell_volume 658.310087
_symmetry_space_group_name_H-M "P 21"
_symmetry_group_IT_number 4
_symmetry_cell_setting 'monoclinic'
loop_
_space_group_symop_operation_xyz
x,y,z
-x,1/2+y,-z
loop_
_atom_site_type_symbol
_atom_site_label
_atom_site_fract_x
_atom_site_fract_y
_atom_site_fract_z
Si Si1 0.037870 0.816080 0.811739
Si Si2 0.535750 0.192754 0.775835
Si Si3 0.406954 0.039548 0.799715
Si Si4 0.330173 0.425784 0.658779
Si Si5 0.637449 0.213078 0.648242
Si Si6 0.215239 0.835629 0.870086
Si Si7 0.085117 0.045155 0.431182
Si Si8 0.824187 0.118398 0.714854
O O1 0.053641 0.909466 0.578462
O O2 0.953213 0.748993 0.632713
O O3 0.063645 0.962483 0.098746
O O4 0.088795 0.623043 0.979339
O O5 0.546631 0.410593 0.888765
O O6 0.606248 0.055373 0.035503
O O7 0.462050 0.119806 0.721692
O O8 0.551866 0.207698 0.518202
O O9 0.357189 0.212283 0.769432
O O10 0.357251 0.874864 0.550590
O O11 0.241643 0.461064 0.474049
O O12 0.340894 0.505848 0.397802
O O13 0.699306 0.300799 0.993586
O O14 0.174419 0.035031 0.713394
O O15 0.172729 0.700261 0.562406
O O16 0.205615 0.761387 0.134893
#
# Coordination Sequence:
#
# PCOD9115238 Si02
#       8
#     2   2   2   2   2   2   2   2
#     4  10  20  36  59  89 120 160 199 243 298 357
#     4  11  22  39  58  81 118 150 194 246 304 360
#     4  11  24  37  57  89 113 151 200 250 300 364
#     4  10  21  41  59  81 115 156 195 246 301 357
#     4  10  23  38  60  83 113 155 200 244 302 362
#     4   9  18  37  61  84 116 163 198 240 301 360
#     4  10  20  36  60  87 123 158 199 245 296 357
#     4   9  18  36  62  84 116 161 201 238 300 363
#
# _framework density 24.304655
#
# number of rings (size 3 to 8) (size 9 to 14) (size 15 to 20)
#    0.000    2.000    2.500    0.750    1.750    1.000 
#    2.250    1.250    0.000    0.000    0.000    0.000 
#    0.000    0.000    0.000    0.000    0.000    0.000 
#
# Total GULP energy -89090.980074 kJ/mol
# GULP energy per Si atom -5568.186255 kJ/mol
# Density = 2.424934 g / cm^3
# Si number density = 24.304655 Si / 1000 Ang^3
#
#
#
# Elastic Constant Matrix: (Units=GPa)
#
#
# Indices 1 2 3 4 5 6 
#
# 1 49.5068 -12.1379 8.2660 0.0000 -18.2902 0.0000
# 2 -12.1379 64.2412 17.9875 0.0000 -9.2807 0.0000
# 3 8.2660 17.9875 59.8420 0.0000 -4.6025 0.0000
# 4 0.0000 0.0000 0.0000 19.1962 0.0000 6.8832
# 5 -18.2902 -9.2807 -4.6025 0.0000 30.6901 0.0000
# 6 0.0000 0.0000 0.0000 6.8832 0.0000 29.2351
#
#
#
# Elastic Compliance Matrix: (Units=1/GPa)
#
#
# Indices 1 2 3 4 5 6 
#
# 1 0.031660 0.010716 -0.005963 0.000000 0.021214 0.000000
# 2 0.010716 0.021239 -0.006960 0.000000 0.011766 0.000000
# 3 -0.005963 -0.006960 0.019415 0.000000 -0.002746 0.000000
# 4 0.000000 0.000000 0.000000 0.056897 0.000000 -0.013396
# 5 0.021214 0.011766 -0.002746 0.000000 0.048373 0.000000
# 6 0.000000 0.000000 0.000000 -0.013396 0.000000 0.037359
#
#
# Mechanical properties :
#
#
# Convention : Reuss Voigt Hill
#
# Bulk Modulus (GPa) = 14.72707 22.42460 18.57583
# Shear Modulus (GPa) = 20.66204 26.45592 23.55898
#
# Velocity S-wave (km/s) = 2.91886 3.30284 3.11677
# Velocity P-wave (km/s) = 4.17518 4.87765 4.54002
#
# Compressibility (1/GPa) = 0.06790218
#
# Stress axis : x y z
#
# Youngs Moduli (GPa) = 31.58578 47.08215 51.50660
#
# Poissons Ratio (x) = -0.50454 0.30712
# Poissons Ratio (y) = -0.33848 0.35846
# Poissons Ratio (z) = 0.18834 0.32767
#
# Static dielectric constant tensor:
#      x y z
#    x 2.044660 0.000000 0.002590 
#    y 0.000000 1.912220 0.000000 
#    z 0.002590 0.000000 2.148220 
# 
# From -- ./inp_files/4219.got.cif
#   From: 2010.05.17/outbox.cif.g08.bks.cpg/sg4_3_cif.got.tgz:4219.got - 2010.06.03 18:43:04.
