data_PCOD9115149
_publ_section_title
;
Structure prediction by ZEFSAII (Michael W. Deem and Ramdas Pophale) SiO2 
 PCOD9115149
Probable space group: P 21
;
_chemical_formula_sum "Si O2"
_cell_formula_units_Z 16
_cell_length_a 5.508228
_cell_length_b 7.162307
_cell_length_c 19.904281
_cell_angle_alpha 90.000000
_cell_angle_beta 122.727585
_cell_angle_gamma 90.000000
_cell_volume 660.597179
_symmetry_space_group_name_H-M "P 21"
_symmetry_group_IT_number 4
_symmetry_cell_setting 'monoclinic'
loop_
_space_group_symop_operation_xyz
x,y,z
-x,1/2+y,-z
loop_
_atom_site_type_symbol
_atom_site_label
_atom_site_fract_x
_atom_site_fract_y
_atom_site_fract_z
Si Si1 0.770126 0.515760 0.150014
Si Si2 0.944987 0.091782 0.673270
Si Si3 0.839827 0.401584 0.413195
Si Si4 0.655321 0.680034 0.643004
Si Si5 0.859657 0.067135 0.192164
Si Si6 0.401839 0.172807 0.517199
Si Si7 0.884746 0.962742 0.929541
Si Si8 0.206532 0.028922 0.113700
O O1 0.809714 0.291076 0.169885
O O2 0.426744 0.552181 0.100155
O O3 0.918405 0.625330 0.234113
O O4 0.930198 0.552562 0.103347
O O5 0.690097 0.212775 0.602538
O O6 0.807945 0.883532 0.660450
O O7 0.171138 0.056459 0.646926
O O8 0.636766 0.229146 0.360477
O O9 0.730757 0.495400 0.464655
O O10 0.153579 0.326081 0.476772
O O11 0.554169 0.625730 0.553997
O O12 0.892023 0.556114 0.714435
O O13 0.548645 0.989292 0.167771
O O14 0.003784 0.982094 0.146657
O O15 0.816580 0.753337 0.895820
O O16 0.072829 0.952631 0.024911
#
# Coordination Sequence:
#
# PCOD9115149 Si02
#       8
#     2   2   2   2   2   2   2   2
#     4   9  19  32  56  84 107 140 187 232 269 323
#     4   9  19  32  53  81 110 143 192 237 273 327
#     4  10  20  34  58  78 114 150 192 236 288 334
#     4   9  19  32  53  81 110 143 192 237 273 327
#     4   9  19  32  56  84 107 140 187 232 269 323
#     4  10  20  34  54  84 112 152 184 242 282 340
#     4  10  20  35  57  81 109 141 178 226 280 336
#     4  10  20  35  57  81 109 141 178 226 280 336
#
# _framework density 24.220507999999999
#
# number of rings (size 3 to 8) (size 9 to 14) (size 15 to 20)
#    0.000    2.500    0.000    1.500   12.250    0.000 
#    0.000    0.000    2.750    3.000    0.000    0.000 
#    0.000    0.000    0.000    0.000    0.000    0.000 
#
# Total GULP energy -89387.678865 kJ/mol
# GULP energy per Si atom -5586.729929 kJ/mol
# Density = 2.416538 g / cm^3
# Si number density = 24.220508 Si / 1000 Ang^3
#
#
#
# Elastic Constant Matrix: (Units=GPa)
#
#
# Indices 1 2 3 4 5 6 
#
# 1 144.9733 13.8046 65.7078 0.0000 13.4816 0.0000
# 2 13.8046 54.9118 15.3597 0.0000 5.1712 0.0000
# 3 65.7078 15.3597 146.5685 0.0000 11.4208 0.0000
# 4 0.0000 0.0000 0.0000 28.3932 0.0000 1.4484
# 5 13.4816 5.1712 11.4208 0.0000 34.5506 0.0000
# 6 0.0000 0.0000 0.0000 1.4484 0.0000 11.4757
#
#
#
# Elastic Compliance Matrix: (Units=1/GPa)
#
#
# Indices 1 2 3 4 5 6 
#
# 1 0.008867 -0.000996 -0.003709 0.000000 -0.002085 0.000000
# 2 -0.000996 0.019039 -0.001393 0.000000 -0.002001 0.000000
# 3 -0.003709 -0.001393 0.008727 0.000000 -0.001229 0.000000
# 4 0.000000 0.000000 0.000000 0.035448 0.000000 -0.004474
# 5 -0.002085 -0.002001 -0.001229 0.000000 0.030462 0.000000
# 6 0.000000 0.000000 0.000000 -0.004474 0.000000 0.087705
#
#
# Mechanical properties :
#
#
# Convention : Reuss Voigt Hill
#
# Bulk Modulus (GPa) = 40.91714 59.57755 50.24734
# Shear Modulus (GPa) = 23.74281 31.65600 27.69940
#
# Velocity S-wave (km/s) = 3.13433 3.61916 3.38544
# Velocity P-wave (km/s) = 5.47987 6.48967 6.00603
#
# Compressibility (1/GPa) = 0.02443964
#
# Stress axis : x y z
#
# Youngs Moduli (GPa) = 112.77296 52.52282 114.58601
#
# Poissons Ratio (x) = 0.05229 0.42494
# Poissons Ratio (y) = 0.11227 0.15962
# Poissons Ratio (z) = 0.41822 0.07317
#
# Static dielectric constant tensor:
#      x y z
#    x 2.029640 0.000000 -0.007040 
#    y 0.000000 2.049160 0.000000 
#    z -0.007040 0.000000 1.896150 
# 
# From -- ./inp_files/2977.got.cif
#   From: 2010.05.17/outbox.cif.g08.bks.cpg/sg4_2_cif.got.tgz:2977.got - 2010.06.03 18:43:04.
