data_PCOD9115829
_publ_section_title
;
Structure prediction by ZEFSAII (Michael W. Deem and Ramdas Pophale) SiO2 
 PCOD9115829
Probable space group: P 21
;
_chemical_formula_sum "Si O2"
_cell_formula_units_Z 16
_cell_length_a 5.318631
_cell_length_b 13.463529
_cell_length_c 12.504944
_cell_angle_alpha 90.000000
_cell_angle_beta 129.702321
_cell_angle_gamma 90.000000
_cell_volume 688.934361
_symmetry_space_group_name_H-M "P 21"
_symmetry_group_IT_number 4
_symmetry_cell_setting 'monoclinic'
loop_
_space_group_symop_operation_xyz
x,y,z
-x,1/2+y,-z
loop_
_atom_site_type_symbol
_atom_site_label
_atom_site_fract_x
_atom_site_fract_y
_atom_site_fract_z
Si Si1 0.779054 0.139060 0.650861
Si Si2 0.263465 0.141034 0.345948
Si Si3 0.034256 0.041863 0.928449
Si Si4 0.778192 0.321114 0.958215
Si Si5 0.716187 0.772021 0.345455
Si Si6 0.262297 0.542467 0.936483
Si Si7 0.580571 0.822814 0.947733
Si Si8 0.768448 0.274194 0.350170
O O1 0.535655 0.092429 0.496905
O O2 0.553197 0.219122 0.652499
O O3 0.907182 0.065638 0.776183
O O4 0.073742 0.193096 0.667829
O O5 0.471672 0.219957 0.331793
O O6 0.996152 0.195183 0.348693
O O7 0.063251 0.067537 0.216431
O O8 0.066129 0.923661 0.957472
O O9 0.410744 0.076721 0.034561
O O10 0.793409 0.077338 0.956535
O O11 0.645528 0.268562 0.027673
O O12 0.082663 0.268111 0.985327
O O13 0.491489 0.335858 0.794798
O O14 0.987931 0.821753 0.496109
O O15 0.315842 0.423919 0.964589
O O16 0.383105 0.840248 0.785171
#
# Coordination Sequence:
#
# PCOD9115829 Si02
#       8
#     2   2   2   2   2   2   2   2
#     4  10  21  37  58  84 113 146 185 231 281 331
#     4  10  21  37  58  84 113 146 185 231 281 331
#     4  10  21  37  55  82 115 148 187 226 276 335
#     4  10  21  37  55  82 115 148 187 226 276 335
#     4  10  21  37  58  84 113 146 185 231 281 331
#     4  10  21  37  55  82 115 148 187 226 276 335
#     4  10  21  37  55  82 115 148 187 226 276 335
#     4  10  21  37  58  84 113 146 185 231 281 331
#
# _framework density 23.224271000000002
#
# number of rings (size 3 to 8) (size 9 to 14) (size 15 to 20)
#    0.000    2.000    0.000    3.000    0.000    6.000 
#    0.000   10.000    0.000    0.000    0.000    0.000 
#    0.000    0.000    0.000    0.000    0.000    0.000 
#
# Total GULP energy -89378.059708 kJ/mol
# GULP energy per Si atom -5586.128732 kJ/mol
# Density = 2.317141 g / cm^3
# Si number density = 23.224271 Si / 1000 Ang^3
#
#
#
# Elastic Constant Matrix: (Units=GPa)
#
#
# Indices 1 2 3 4 5 6 
#
# 1 152.8061 -9.2610 -5.6793 0.0000 1.3178 0.0000
# 2 -9.2610 38.5124 12.2269 0.0000 4.3695 0.0000
# 3 -5.6793 12.2269 183.0447 0.0000 -3.0023 0.0000
# 4 0.0000 0.0000 0.0000 27.7998 0.0000 -2.7914
# 5 1.3178 4.3695 -3.0023 0.0000 36.9967 0.0000
# 6 0.0000 0.0000 0.0000 -2.7914 0.0000 23.4496
#
#
#
# Elastic Compliance Matrix: (Units=1/GPa)
#
#
# Indices 1 2 3 4 5 6 
#
# 1 0.006649 0.001618 0.000091 0.000000 -0.000420 0.000000
# 2 0.001618 0.027326 -0.001831 0.000000 -0.003434 0.000000
# 3 0.000091 -0.001831 0.005599 0.000000 0.000667 0.000000
# 4 0.000000 0.000000 0.000000 0.036407 0.000000 0.004334
# 5 -0.000420 -0.003434 0.000667 0.000000 0.027504 0.000000
# 6 0.000000 0.000000 0.000000 0.004334 0.000000 0.043161
#
#
# Mechanical properties :
#
#
# Convention : Reuss Voigt Hill
#
# Bulk Modulus (GPa) = 25.42627 40.99294 33.20960
# Shear Modulus (GPa) = 31.24998 42.78767 37.01883
#
# Velocity S-wave (km/s) = 3.67219 4.29694 3.99679
# Velocity P-wave (km/s) = 5.38069 6.50442 5.96906
#
# Compressibility (1/GPa) = 0.03932941
#
# Stress axis : x y z
#
# Youngs Moduli (GPa) = 150.39176 36.59564 178.59498
#
# Poissons Ratio (x) = -0.05920 -0.01632
# Poissons Ratio (y) = -0.24328 0.32708
# Poissons Ratio (z) = -0.01374 0.06702
#
# Static dielectric constant tensor:
#      x y z
#    x 1.988880 0.000000 -0.002660 
#    y 0.000000 1.967830 0.000000 
#    z -0.002660 0.000000 1.869490 
# 
# From -- ./inp_files/3193.got.cif
#   From: 2010.05.17/outbox.cif.g08.bks.cpg/sg4_2_cif.got.tgz:3193.got - 2010.06.03 18:43:04.
