data_PCOD9115016
_publ_section_title
;
Structure prediction by ZEFSAII (Michael W. Deem and Ramdas Pophale) SiO2 
 PCOD9115016
Probable space group: P 21
;
_chemical_formula_sum "Si O2"
_cell_formula_units_Z 16
_cell_length_a 12.108312
_cell_length_b 13.117954
_cell_length_c 7.293263
_cell_angle_alpha 90.000000
_cell_angle_beta 131.809178
_cell_angle_gamma 90.000000
_cell_volume 863.461616
_symmetry_space_group_name_H-M "P 21"
_symmetry_group_IT_number 4
_symmetry_cell_setting 'monoclinic'
loop_
_space_group_symop_operation_xyz
x,y,z
-x,1/2+y,-z
loop_
_atom_site_type_symbol
_atom_site_label
_atom_site_fract_x
_atom_site_fract_y
_atom_site_fract_z
Si Si1 0.545406 0.320320 0.577784
Si Si2 0.860252 0.225951 0.027334
Si Si3 0.407623 0.985946 0.065356
Si Si4 0.628768 0.628001 0.646213
Si Si5 0.971112 0.575312 0.012879
Si Si6 0.063357 0.933911 0.693160
Si Si7 0.528248 0.975493 0.793482
Si Si8 0.129500 0.501866 0.850643
O O1 0.406529 0.245906 0.410791
O O2 0.555418 0.382265 0.399011
O O3 0.695773 0.258540 0.785192
O O4 0.530434 0.400139 0.727502
O O5 0.934450 0.324171 0.203886
O O6 0.860397 0.126320 0.160933
O O7 0.945515 0.180290 0.944597
O O8 0.235172 0.959033 0.838859
O O9 0.490916 0.988191 0.965286
O O10 0.411939 0.087461 0.195255
O O11 0.796905 0.594945 0.795336
O O12 0.527725 0.572122 0.384059
O O13 0.038410 0.496769 0.939065
O O14 0.990562 0.522700 0.229010
O O15 0.961210 0.943542 0.403919
O O16 0.703140 0.963515 0.955732
#
# Coordination Sequence:
#
# PCOD9115016 Si02
#       8
#     2   2   2   2   2   2   2   2
#     4  10  21  40  59  88 122 159 201 251 308 362
#     4   9  21  42  58  89 124 159 206 244 308 365
#     4   9  22  38  59  89 116 160 203 244 308 357
#     4  10  19  39  61  82 123 155 201 251 300 359
#     4   9  21  39  61  90 116 162 202 249 298 365
#     4  10  20  42  61  83 127 160 199 254 304 359
#     4  11  22  38  62  87 122 158 198 260 299 360
#     4  10  22  40  59  92 120 157 208 245 301 365
#
# _framework density 18.530063999999999
#
# number of rings (size 3 to 8) (size 9 to 14) (size 15 to 20)
#    0.750    1.500    1.250    1.500    0.000    6.000 
#   11.250    0.000    0.000    0.000    0.000    0.000 
#    0.000    0.000    0.000    0.000    0.000    0.000 
#
# Total GULP energy -89125.459871 kJ/mol
# GULP energy per Si atom -5570.341242 kJ/mol
# Density = 1.848789 g / cm^3
# Si number density = 18.530064 Si / 1000 Ang^3
#
#
#
# Elastic Constant Matrix: (Units=GPa)
#
#
# Indices 1 2 3 4 5 6 
#
# 1 82.3458 3.6661 28.6335 0.0000 -18.0655 0.0000
# 2 3.6661 44.6141 0.5574 0.0000 2.9490 0.0000
# 3 28.6335 0.5574 47.3365 0.0000 -9.5153 0.0000
# 4 0.0000 0.0000 0.0000 19.7717 0.0000 7.5381
# 5 -18.0655 2.9490 -9.5153 0.0000 15.0677 0.0000
# 6 0.0000 0.0000 0.0000 7.5381 0.0000 23.0671
#
#
#
# Elastic Compliance Matrix: (Units=1/GPa)
#
#
# Indices 1 2 3 4 5 6 
#
# 1 0.019000 -0.002681 -0.007762 0.000000 0.018403 0.000000
# 2 -0.002681 0.023160 -0.000239 0.000000 -0.007898 0.000000
# 3 -0.007762 -0.000239 0.027446 0.000000 0.008073 0.000000
# 4 0.000000 0.000000 0.000000 0.057776 0.000000 -0.018881
# 5 0.018403 -0.007898 0.008073 0.000000 0.095074 0.000000
# 6 0.000000 0.000000 0.000000 -0.018881 0.000000 0.049522
#
#
# Mechanical properties :
#
#
# Convention : Reuss Voigt Hill
#
# Bulk Modulus (GPa) = 20.72859 26.66785 23.69822
# Shear Modulus (GPa) = 16.15922 21.01060 18.58491
#
# Velocity S-wave (km/s) = 2.95626 3.37095 3.17039
# Velocity P-wave (km/s) = 4.78157 5.43819 5.12042
#
# Compressibility (1/GPa) = 0.04824256
#
# Stress axis : x y z
#
# Youngs Moduli (GPa) = 52.63295 43.17839 36.43516
#
# Poissons Ratio (x) = 0.11575 0.28281
# Poissons Ratio (y) = 0.14109 0.00870
# Poissons Ratio (z) = 0.40853 0.01031
#
# Static dielectric constant tensor:
#      x y z
#    x 1.633290 0.000000 0.007270 
#    y 0.000000 1.663980 0.000000 
#    z 0.007270 0.000000 1.600240 
# 
# From -- ./inp_files/3186.got.cif
#   From: 2010.05.17/outbox.cif.g08.bks.cpg/sg4_2_cif.got.tgz:3186.got - 2010.06.03 18:43:04.
