data_PCOD9115093
_publ_section_title
;
Structure prediction by ZEFSAII (Michael W. Deem and Ramdas Pophale) SiO2 
 PCOD9115093
Probable space group: P 21
;
_chemical_formula_sum "Si O2"
_cell_formula_units_Z 14
_cell_length_a 12.093853
_cell_length_b 9.336979
_cell_length_c 6.503953
_cell_angle_alpha 90.000000
_cell_angle_beta 102.820954
_cell_angle_gamma 90.000000
_cell_volume 716.116176
_symmetry_space_group_name_H-M "P 21"
_symmetry_group_IT_number 4
_symmetry_cell_setting 'monoclinic'
loop_
_space_group_symop_operation_xyz
x,y,z
-x,1/2+y,-z
loop_
_atom_site_type_symbol
_atom_site_label
_atom_site_fract_x
_atom_site_fract_y
_atom_site_fract_z
Si Si1 0.092284 0.899510 0.590382
Si Si2 0.424358 0.760573 0.813906
Si Si3 0.622726 0.540800 0.943347
Si Si4 0.797265 0.176306 0.049649
Si Si5 0.113508 0.103396 0.937546
Si Si6 0.296746 0.841761 0.376667
Si Si7 0.957648 0.912453 0.143410
O O1 0.124640 0.780324 0.775144
O O2 0.205591 0.907469 0.497763
O O3 0.990273 0.875869 0.391063
O O4 0.065177 0.043125 0.703730
O O5 0.539737 0.675151 0.896785
O O6 0.324499 0.676968 0.891709
O O7 0.387089 0.763889 0.560690
O O8 0.418863 0.921020 0.909034
O O9 0.636455 0.456053 0.733815
O O10 0.751918 0.589759 0.035275
O O11 0.855104 0.022771 0.073856
O O12 0.772215 0.240957 0.812766
O O13 0.072957 0.261884 0.970641
O O14 0.063372 0.996147 0.086585
#
# Coordination Sequence:
#
# PCOD9115093 Si02
#       7
#     2   2   2   2   2   2   2
#     4  11  19  42  65  90 125 171 207 263 311 372
#     4  10  24  42  71  89 130 165 212 264 316 372
#     4  11  23  45  66  96 125 168 211 265 313 375
#     4  10  22  42  65  93 129 169 208 262 315 377
#     4  12  24  41  65  93 130 167 208 263 317 375
#     4  10  19  43  67  88 132 163 207 256 327 362
#     4  12  25  39  65  95 131 165 215 259 315 379
#
# _framework density 19.549901999999999
#
# number of rings (size 3 to 8) (size 9 to 14) (size 15 to 20)
#    0.000    1.143    5.714    2.571    2.000    3.429 
#    0.000    0.000    0.000    0.000    0.000    0.000 
#    0.000    0.000    0.000    0.000    0.000    0.000 
#
# Total GULP energy -78119.123119 kJ/mol
# GULP energy per Si atom -5579.937366 kJ/mol
# Density = 1.950541 g / cm^3
# Si number density = 19.549902 Si / 1000 Ang^3
#
#
#
# Elastic Constant Matrix: (Units=GPa)
#
#
# Indices 1 2 3 4 5 6 
#
# 1 53.8912 48.0720 17.7064 0.0000 12.5347 0.0000
# 2 48.0720 137.0637 44.9433 0.0000 7.1856 0.0000
# 3 17.7064 44.9433 108.3346 0.0000 3.1308 0.0000
# 4 0.0000 0.0000 0.0000 14.7617 0.0000 4.8011
# 5 12.5347 7.1856 3.1308 0.0000 21.6689 0.0000
# 6 0.0000 0.0000 0.0000 4.8011 0.0000 44.6244
#
#
#
# Elastic Compliance Matrix: (Units=1/GPa)
#
#
# Indices 1 2 3 4 5 6 
#
# 1 0.030965 -0.009926 -0.000523 0.000000 -0.014545 0.000000
# 2 -0.009926 0.011743 -0.003316 0.000000 0.002327 0.000000
# 3 -0.000523 -0.003316 0.010696 0.000000 -0.000143 0.000000
# 4 0.000000 0.000000 0.000000 0.070199 0.000000 -0.007553
# 5 -0.014545 0.002327 -0.000143 0.000000 0.053812 0.000000
# 6 0.000000 0.000000 0.000000 -0.007553 0.000000 0.023222
#
#
# Mechanical properties :
#
#
# Convention : Reuss Voigt Hill
#
# Bulk Modulus (GPa) = 38.65012 57.85920 48.25466
# Shear Modulus (GPa) = 21.11552 28.78220 24.94886
#
# Velocity S-wave (km/s) = 3.29003 3.84114 3.57622
# Velocity P-wave (km/s) = 5.85195 7.02370 6.46443
#
# Compressibility (1/GPa) = 0.02587314
#
# Stress axis : x y z
#
# Youngs Moduli (GPa) = 32.29420 85.15840 93.49231
#
# Poissons Ratio (x) = 0.84532 0.04886
# Poissons Ratio (y) = 0.32057 0.31006
# Poissons Ratio (z) = 0.01688 0.28242
#
# Static dielectric constant tensor:
#      x y z
#    x 1.689130 0.000000 0.000260 
#    y 0.000000 1.685830 0.000000 
#    z 0.000260 0.000000 1.710030 
# 
# From -- ./inp_files/2441.got.cif
#   From: 2010.05.17/outbox.cif.g08.bks.cpg/sg4_2_cif.got.tgz:2441.got - 2010.06.03 18:43:04.
