data_PCOD9115374
_publ_section_title
;
Structure prediction by ZEFSAII (Michael W. Deem and Ramdas Pophale) SiO2 
 PCOD9115374
Probable space group: P 21
;
_chemical_formula_sum "Si O2"
_cell_formula_units_Z 16
_cell_length_a 8.695206
_cell_length_b 14.961397
_cell_length_c 9.020014
_cell_angle_alpha 90.000000
_cell_angle_beta 29.395274
_cell_angle_gamma 90.000000
_cell_volume 575.959580
_symmetry_space_group_name_H-M "P 21"
_symmetry_group_IT_number 4
_symmetry_cell_setting 'monoclinic'
loop_
_space_group_symop_operation_xyz
x,y,z
-x,1/2+y,-z
loop_
_atom_site_type_symbol
_atom_site_label
_atom_site_fract_x
_atom_site_fract_y
_atom_site_fract_z
Si Si1 0.002759 0.556160 0.129803
Si Si2 0.723246 0.803196 0.369945
Si Si3 0.525430 0.432489 0.641558
Si Si4 0.634325 0.335124 0.045899
Si Si5 0.031983 0.403559 0.456169
Si Si6 0.600370 0.666973 0.053245
Si Si7 0.976510 0.107635 0.566417
Si Si8 0.233294 0.663780 0.654251
O O1 0.315945 0.501592 0.907461
O O2 0.093832 0.599877 0.897984
O O3 0.915079 0.608866 0.354157
O O4 0.718055 0.487359 0.357204
O O5 0.713175 0.866378 0.236152
O O6 0.548771 0.855655 0.648557
O O7 0.492815 0.723659 0.516489
O O8 0.072813 0.779812 0.128680
O O9 0.782309 0.389555 0.533512
O O10 0.310234 0.329634 0.219564
O O11 0.833516 0.399255 0.774034
O O12 0.151347 0.506053 0.347084
O O13 0.760995 0.616430 0.779612
O O14 0.913780 0.710303 0.860864
O O15 0.271460 0.689658 0.245939
O O16 0.421602 0.627545 0.351355
#
# Coordination Sequence:
#
# PCOD9115374 Si02
#       8
#     2   2   2   2   2   2   2   2
#     4  11  23  40  66  98 131 174 223 279 341 404
#     4  11  24  43  64  94 137 178 222 275 333 400
#     4  11  23  40  66  98 131 174 223 279 341 404
#     4  10  22  37  61  91 121 169 216 265 326 389
#     4  10  20  38  61  91 129 165 213 277 337 393
#     4  10  22  37  61  91 121 169 216 265 326 389
#     4  10  20  38  61  91 129 165 213 277 337 393
#     4  11  24  43  64  94 137 178 222 275 333 400
#
# _framework density 27.779729
#
# number of rings (size 3 to 8) (size 9 to 14) (size 15 to 20)
#    0.000    1.500    0.000    6.000    0.000   10.000 
#    0.000    5.000    0.000    0.000    0.000    0.000 
#    0.000    0.000    0.000    0.000    0.000    0.000 
#
# Total GULP energy -89142.959562 kJ/mol
# GULP energy per Si atom -5571.434973 kJ/mol
# Density = 2.771650 g / cm^3
# Si number density = 27.779729 Si / 1000 Ang^3
#
#
#
# Elastic Constant Matrix: (Units=GPa)
#
#
# Indices 1 2 3 4 5 6 
#
# 1 175.2835 38.7170 52.6635 0.0000 -27.8353 0.0000
# 2 38.7170 42.0404 37.6963 0.0000 10.5634 0.0000
# 3 52.6635 37.6963 210.1937 0.0000 13.0205 0.0000
# 4 0.0000 0.0000 0.0000 38.1326 0.0000 -3.9745
# 5 -27.8353 10.5634 13.0205 0.0000 48.8606 0.0000
# 6 0.0000 0.0000 0.0000 -3.9745 0.0000 28.9206
#
#
#
# Elastic Compliance Matrix: (Units=1/GPa)
#
#
# Indices 1 2 3 4 5 6 
#
# 1 0.009379 -0.009580 -0.001109 0.000000 0.007710 0.000000
# 2 -0.009580 0.039309 -0.003849 0.000000 -0.012930 0.000000
# 3 -0.001109 -0.003849 0.005809 0.000000 -0.001348 0.000000
# 4 0.000000 0.000000 0.000000 0.026605 0.000000 0.003656
# 5 0.007710 -0.012930 -0.001348 0.000000 0.028013 0.000000
# 6 0.000000 0.000000 0.000000 0.003656 0.000000 0.035080
#
#
# Mechanical properties :
#
#
# Convention : Reuss Voigt Hill
#
# Bulk Modulus (GPa) = 39.33677 76.18569 57.76123
# Shear Modulus (GPa) = 27.51124 43.07883 35.29503
#
# Velocity S-wave (km/s) = 3.15037 3.94220 3.56832
# Velocity P-wave (km/s) = 5.23680 6.94303 6.14938
#
# Compressibility (1/GPa) = 0.02542151
#
# Stress axis : x y z
#
# Youngs Moduli (GPa) = 106.62561 25.43955 172.14193
#
# Poissons Ratio (x) = 0.24370 0.19096
# Poissons Ratio (y) = 1.02144 0.66250
# Poissons Ratio (z) = 0.11828 0.09791
#
# Static dielectric constant tensor:
#      x y z
#    x 2.218490 0.000000 -0.017550 
#    y 0.000000 2.316460 0.000000 
#    z -0.017550 0.000000 2.078790 
# 
# From -- ./inp_files/6974.got.cif
#   From: 2010.05.17/outbox.cif.g08.bks.cpg/sg4_4_cif.got.tgz:6974.got - 2010.06.03 18:43:04.
