data_PCOD9115212
_publ_section_title
;
Structure prediction by ZEFSAII (Michael W. Deem and Ramdas Pophale) SiO2 
 PCOD9115212
Probable space group: P 21
;
_chemical_formula_sum "Si O2"
_cell_formula_units_Z 14
_cell_length_a 14.845968
_cell_length_b 10.174936
_cell_length_c 9.299237
_cell_angle_alpha 90.000000
_cell_angle_beta 156.686374
_cell_angle_gamma 90.000000
_cell_volume 555.934615
_symmetry_space_group_name_H-M "P 21"
_symmetry_group_IT_number 4
_symmetry_cell_setting 'monoclinic'
loop_
_space_group_symop_operation_xyz
x,y,z
-x,1/2+y,-z
loop_
_atom_site_type_symbol
_atom_site_label
_atom_site_fract_x
_atom_site_fract_y
_atom_site_fract_z
Si Si1 0.010875 0.985520 0.847420
Si Si2 0.184263 0.868248 0.636922
Si Si3 0.480268 0.160425 0.720747
Si Si4 0.923085 0.266229 0.833302
Si Si5 0.288197 0.755034 0.192237
Si Si6 0.740123 0.911983 0.174690
Si Si7 0.211180 0.154080 0.609890
O O1 0.834178 0.984737 0.456709
O O2 0.229907 0.910747 0.100373
O O3 0.035140 0.130044 0.944442
O O4 0.951646 0.882312 0.889745
O O5 0.337694 0.760333 0.938785
O O6 0.153422 0.833629 0.425311
O O7 0.942440 0.879036 0.361782
O O8 0.277218 0.016466 0.775435
O O9 0.493758 0.213344 0.577351
O O10 0.565852 0.010119 0.846231
O O11 0.282889 0.158284 0.549274
O O12 0.728719 0.224712 0.663708
O O13 0.061632 0.683368 0.792267
O O14 0.667198 0.772500 0.130372
#
# Coordination Sequence:
#
# PCOD9115212 Si02
#       7
#     2   2   2   2   2   2   2
#     4   9  19  34  59  89 117 157 200 241 300 359
#     4  12  20  37  66  90 120 161 205 251 303 365
#     4  12  22  39  64  87 122 160 202 259 299 358
#     4  10  20  35  65  89 117 164 199 247 307 365
#     4   9  21  38  62  83 121 157 199 244 305 358
#     4  11  21  39  60  93 121 157 206 247 301 361
#     4  11  23  38  62  89 124 158 203 251 307 354
#
# _framework density 25.182818000000001
#
# number of rings (size 3 to 8) (size 9 to 14) (size 15 to 20)
#    0.857    0.571    5.714    1.714    0.000    0.000 
#    0.000    0.000   12.571    0.000    0.000    0.000 
#    0.000    0.000    0.000    0.000    0.000    0.000 
#
# Total GULP energy -78225.623760 kJ/mol
# GULP energy per Si atom -5587.544554 kJ/mol
# Density = 2.512550 g / cm^3
# Si number density = 25.182818 Si / 1000 Ang^3
#
#
#
# Elastic Constant Matrix: (Units=GPa)
#
#
# Indices 1 2 3 4 5 6 
#
# 1 152.1857 29.1010 12.5835 0.0000 4.5860 0.0000
# 2 29.1010 161.1392 9.7537 0.0000 4.5909 0.0000
# 3 12.5835 9.7537 34.7688 0.0000 -3.5108 0.0000
# 4 0.0000 0.0000 0.0000 0.0756 0.0000 18.0099
# 5 4.5860 4.5909 -3.5108 0.0000 35.4956 0.0000
# 6 0.0000 0.0000 0.0000 18.0099 0.0000 16.1936
#
#
#
# Elastic Compliance Matrix: (Units=1/GPa)
#
#
# Indices 1 2 3 4 5 6 
#
# 1 0.007003 -0.001095 -0.002327 0.000000 -0.000993 0.000000
# 2 -0.001095 0.006520 -0.001519 0.000000 -0.000852 0.000000
# 3 -0.002327 -0.001519 0.030383 0.000000 0.003502 0.000000
# 4 0.000000 0.000000 0.000000 -0.050115 0.000000 0.055735
# 5 -0.000993 -0.000852 0.003502 0.000000 0.028757 0.000000
# 6 0.000000 0.000000 0.000000 0.055735 0.000000 -0.000234
#
#
# Mechanical properties :
#
#
# Convention : Reuss Voigt Hill
#
# Bulk Modulus (GPa) = 29.39183 50.10779 39.74981
# Shear Modulus (GPa) = 114.83969 30.12998 72.48484
#
# Velocity S-wave (km/s) = 6.76028 3.46273 5.37084
# Velocity P-wave (km/s) = 8.52244 5.99401 7.36750
#
# Compressibility (1/GPa) = 0.03402306
#
# Stress axis : x y z
#
# Youngs Moduli (GPa) = 142.80059 153.37787 32.91277
#
# Poissons Ratio (x) = 0.16802 0.07660
# Poissons Ratio (y) = 0.15644 0.04998
# Poissons Ratio (z) = 0.33235 0.23291
#
# Static dielectric constant tensor:
#      x y z
#    x 1.962150 0.000000 0.016840 
#    y 0.000000 1.956700 0.000000 
#    z 0.016840 0.000000 2.402380 
# 
# From -- ./inp_files/8385.got.cif
#   From: 2010.05.17/outbox.cif.g08.bks.cpg/sg4_5_cif.got.tgz:8385.got - 2010.06.03 18:43:04.
