data_PCOD9115568
_publ_section_title
;
Structure prediction by ZEFSAII (Michael W. Deem and Ramdas Pophale) SiO2 
 PCOD9115568
Probable space group: P 21
;
_chemical_formula_sum "Si O2"
_cell_formula_units_Z 16
_cell_length_a 7.560749
_cell_length_b 16.302630
_cell_length_c 5.689359
_cell_angle_alpha 90.000000
_cell_angle_beta 66.912782
_cell_angle_gamma 90.000000
_cell_volume 645.105433
_symmetry_space_group_name_H-M "P 21"
_symmetry_group_IT_number 4
_symmetry_cell_setting 'monoclinic'
loop_
_space_group_symop_operation_xyz
x,y,z
-x,1/2+y,-z
loop_
_atom_site_type_symbol
_atom_site_label
_atom_site_fract_x
_atom_site_fract_y
_atom_site_fract_z
Si Si1 0.490043 0.188000 0.101906
Si Si2 0.056554 0.595812 0.610092
Si Si3 0.653467 0.750915 0.416043
Si Si4 0.446916 0.538989 0.570404
Si Si5 0.223312 0.097341 0.855588
Si Si6 0.239199 0.759517 0.395603
Si Si7 0.815969 0.905766 0.119169
Si Si8 0.030630 0.931059 0.512205
O O1 0.371685 0.260882 0.292547
O O2 0.536438 0.115632 0.261955
O O3 0.355617 0.142585 0.984046
O O4 0.681659 0.227647 0.896252
O O5 0.276344 0.563987 0.479770
O O6 0.078540 0.692977 0.556414
O O7 0.932267 0.530226 0.523674
O O8 0.976697 0.581330 0.916191
O O9 0.781044 0.669389 0.330143
O O10 0.430764 0.748148 0.452077
O O11 0.750469 0.813530 0.191745
O O12 0.641081 0.526605 0.320019
O O13 0.372725 0.462119 0.753785
O O14 0.177043 0.854155 0.437595
O O15 0.932620 0.919175 0.304598
O O16 0.916239 0.920755 0.817775
#
# Coordination Sequence:
#
# PCOD9115568 Si02
#       8
#     2   2   2   2   2   2   2   2
#     4  10  20  40  67  98 134 178 238 285 353 412
#     4  11  22  46  69  99 144 181 232 293 350 422
#     4  10  23  41  66 101 135 189 235 289 355 416
#     4  10  22  45  65  98 137 183 228 294 347 421
#     4  10  22  41  68 101 132 179 242 276 361 417
#     4  11  23  42  70  97 144 182 236 294 349 419
#     4  11  26  45  69  95 149 178 233 294 351 413
#     4  11  28  46  68 109 139 186 238 289 360 418
#
# _framework density 24.802147999999999
#
# number of rings (size 3 to 8) (size 9 to 14) (size 15 to 20)
#    0.000    1.500    3.750    1.500    8.750    3.000 
#   13.500    0.000    0.000    0.000    0.000    0.000 
#    0.000    0.000    0.000    0.000    0.000    0.000 
#
# Total GULP energy -89224.118074 kJ/mol
# GULP energy per Si atom -5576.507380 kJ/mol
# Density = 2.474570 g / cm^3
# Si number density = 24.802148 Si / 1000 Ang^3
#
#
#
# Elastic Constant Matrix: (Units=GPa)
#
#
# Indices 1 2 3 4 5 6 
#
# 1 81.9505 17.2464 13.0738 0.0000 8.2891 0.0000
# 2 17.2464 116.1307 23.6766 0.0000 -2.6829 0.0000
# 3 13.0738 23.6766 153.6801 0.0000 -15.5238 0.0000
# 4 0.0000 0.0000 0.0000 43.4151 0.0000 -6.0781
# 5 8.2891 -2.6829 -15.5238 0.0000 30.8841 0.0000
# 6 0.0000 0.0000 0.0000 -6.0781 0.0000 26.0368
#
#
#
# Elastic Compliance Matrix: (Units=1/GPa)
#
#
# Indices 1 2 3 4 5 6 
#
# 1 0.013228 -0.001803 -0.001287 0.000000 -0.004354 0.000000
# 2 -0.001803 0.009136 -0.001185 0.000000 0.000682 0.000000
# 3 -0.001287 -0.001185 0.007189 0.000000 0.003856 0.000000
# 4 0.000000 0.000000 0.000000 0.023812 0.000000 0.005559
# 5 -0.004354 0.000682 0.003856 0.000000 0.035545 0.000000
# 6 0.000000 0.000000 0.000000 0.005559 0.000000 0.039705
#
#
# Mechanical properties :
#
#
# Convention : Reuss Voigt Hill
#
# Bulk Modulus (GPa) = 47.61489 51.08387 49.34938
# Shear Modulus (GPa) = 34.68246 39.91816 37.30031
#
# Velocity S-wave (km/s) = 3.74353 4.01616 3.88224
# Velocity P-wave (km/s) = 6.15832 6.49210 6.32741
#
# Compressibility (1/GPa) = 0.02100183
#
# Stress axis : x y z
#
# Youngs Moduli (GPa) = 75.59949 109.45604 139.10786
#
# Poissons Ratio (x) = 0.19730 0.17909
# Poissons Ratio (y) = 0.13627 0.16489
# Poissons Ratio (z) = 0.09733 0.12974
#
# Static dielectric constant tensor:
#      x y z
#    x 2.036530 0.000000 0.044540 
#    y 0.000000 2.062910 0.000000 
#    z 0.044540 0.000000 2.011450 
# 
# From -- ./inp_files/2024.got.cif
#   From: 2010.05.17/outbox.cif.g08.bks.cpg/sg4_2_cif.got.tgz:2024.got - 2010.06.03 18:43:04.
