data_PCOD9115256
_publ_section_title
;
Structure prediction by ZEFSAII (Michael W. Deem and Ramdas Pophale) SiO2 
 PCOD9115256
Probable space group: P 21
;
_chemical_formula_sum "Si O2"
_cell_formula_units_Z 16
_cell_length_a 24.357817
_cell_length_b 5.294286
_cell_length_c 6.723170
_cell_angle_alpha 90.000000
_cell_angle_beta 136.914567
_cell_angle_gamma 90.000000
_cell_volume 592.238427
_symmetry_space_group_name_H-M "P 21"
_symmetry_group_IT_number 4
_symmetry_cell_setting 'monoclinic'
loop_
_space_group_symop_operation_xyz
x,y,z
-x,1/2+y,-z
loop_
_atom_site_type_symbol
_atom_site_label
_atom_site_fract_x
_atom_site_fract_y
_atom_site_fract_z
Si Si1 0.975175 0.849880 0.695032
Si Si2 0.221587 0.818474 0.746214
Si Si3 0.586345 0.654220 0.995974
Si Si4 0.093962 0.848496 0.702818
Si Si5 0.844227 0.822412 0.643261
Si Si6 0.353096 0.129256 0.234769
Si Si7 0.415718 0.796925 0.725622
Si Si8 0.277909 0.393098 0.364654
O O1 0.937046 0.607857 0.481105
O O2 0.938241 0.844666 0.820755
O O3 0.067931 0.842244 0.865587
O O4 0.945344 0.109310 0.514984
O O5 0.184666 0.820672 0.871763
O O6 0.199686 0.556412 0.584657
O O7 0.184181 0.051332 0.518278
O O8 0.313148 0.893938 0.016616
O O9 0.592981 0.751961 0.790680
O O10 0.501455 0.714170 0.872913
O O11 0.583751 0.356801 0.040231
O O12 0.667326 0.750688 0.321344
O O13 0.811696 0.865363 0.781583
O O14 0.282138 0.282013 0.153400
O O15 0.402599 0.039762 0.552187
O O16 0.334818 0.636080 0.488111
#
# Coordination Sequence:
#
# PCOD9115256 Si02
#       8
#     2   2   2   2   2   2   2   2
#     4   8  14  26  48  84 112 150 197 247 282 351
#     4  10  20  37  59  88 121 164 195 253 302 358
#     4  11  23  44  60  84 120 151 202 248 310 360
#     4   8  14  26  49  81 117 146 199 242 291 344
#     4  10  20  36  61  85 123 161 202 247 305 351
#     4  11  26  38  60  91 117 156 204 248 308 366
#     4  11  25  40  62  85 114 158 197 256 303 365
#     4  11  24  41  61  86 116 158 200 249 303 367
#
# _framework density 27.016147
#
# number of rings (size 3 to 8) (size 9 to 14) (size 15 to 20)
#    0.000    2.000    2.500    0.750    5.250    1.000 
#    0.000    0.000    0.000    0.000    3.250    0.000 
#    0.000    0.000    0.000    0.000    0.000    0.000 
#
# Total GULP energy -89262.329283 kJ/mol
# GULP energy per Si atom -5578.895580 kJ/mol
# Density = 2.695466 g / cm^3
# Si number density = 27.016147 Si / 1000 Ang^3
#
#
#
# Elastic Constant Matrix: (Units=GPa)
#
#
# Indices 1 2 3 4 5 6 
#
# 1 267.3724 29.4279 54.9483 0.0000 -55.4253 0.0000
# 2 29.4279 104.0588 23.4968 0.0000 -7.0122 0.0000
# 3 54.9483 23.4968 49.4012 0.0000 -13.6245 0.0000
# 4 0.0000 0.0000 0.0000 26.7515 0.0000 9.8098
# 5 -55.4253 -7.0122 -13.6245 0.0000 46.6377 0.0000
# 6 0.0000 0.0000 0.0000 9.8098 0.0000 33.2803
#
#
#
# Elastic Compliance Matrix: (Units=1/GPa)
#
#
# Indices 1 2 3 4 5 6 
#
# 1 0.005940 -0.000179 -0.004984 0.000000 0.005576 0.000000
# 2 -0.000179 0.010772 -0.004934 0.000000 -0.000034 0.000000
# 3 -0.004984 -0.004934 0.028599 0.000000 0.001690 0.000000
# 4 0.000000 0.000000 0.000000 0.041911 0.000000 -0.012354
# 5 0.005576 -0.000034 0.001690 0.000000 0.028557 0.000000
# 6 0.000000 0.000000 0.000000 -0.012354 0.000000 0.033689
#
#
# Mechanical properties :
#
#
# Convention : Reuss Voigt Hill
#
# Bulk Modulus (GPa) = 39.81327 70.73092 55.27210
# Shear Modulus (GPa) = 28.08418 42.19786 35.14102
#
# Velocity S-wave (km/s) = 3.22768 3.95644 3.61049
# Velocity P-wave (km/s) = 5.35344 6.86360 6.15501
#
# Compressibility (1/GPa) = 0.02511725
#
# Stress axis : x y z
#
# Youngs Moduli (GPa) = 168.34951 92.83002 34.96603
#
# Poissons Ratio (x) = 0.01658 0.17427
# Poissons Ratio (y) = 0.03007 0.17254
# Poissons Ratio (z) = 0.83907 0.45806
#
# Static dielectric constant tensor:
#      x y z
#    x 2.213870 0.000000 -0.029330 
#    y 0.000000 2.296710 0.000000 
#    z -0.029330 0.000000 2.053430 
# 
# From -- ./inp_files/4172.got.cif
#   From: 2010.05.17/outbox.cif.g08.bks.cpg/sg4_3_cif.got.tgz:4172.got - 2010.06.03 18:43:04.
