data_PCOD9115697
_publ_section_title
;
Structure prediction by ZEFSAII (Michael W. Deem and Ramdas Pophale) SiO2 
 PCOD9115697
Probable space group: P 21
;
_chemical_formula_sum "Si O2"
_cell_formula_units_Z 16
_cell_length_a 14.134947
_cell_length_b 10.205707
_cell_length_c 6.898248
_cell_angle_alpha 90.000000
_cell_angle_beta 141.222048
_cell_angle_gamma 90.000000
_cell_volume 623.248408
_symmetry_space_group_name_H-M "P 21"
_symmetry_group_IT_number 4
_symmetry_cell_setting 'monoclinic'
loop_
_space_group_symop_operation_xyz
x,y,z
-x,1/2+y,-z
loop_
_atom_site_type_symbol
_atom_site_label
_atom_site_fract_x
_atom_site_fract_y
_atom_site_fract_z
Si Si1 0.953083 0.760460 0.228719
Si Si2 0.158803 0.276219 0.391869
Si Si3 0.091270 0.013972 0.329755
Si Si4 0.550556 0.932262 0.246466
Si Si5 0.585761 0.235598 0.246279
Si Si6 0.360840 0.388795 0.170348
Si Si7 0.828838 0.131768 0.147377
Si Si8 0.161769 0.835286 0.104386
O O1 0.068305 0.883611 0.415087
O O2 0.044249 0.648695 0.485191
O O3 0.909144 0.745643 0.931735
O O4 0.790976 0.800643 0.058387
O O5 0.291722 0.376128 0.586209
O O6 0.197068 0.136562 0.546348
O O7 0.010024 0.331900 0.251293
O O8 0.148580 0.968601 0.208329
O O9 0.922424 0.073695 0.107310
O O10 0.570421 0.918629 0.508475
O O11 0.537145 0.083996 0.164087
O O12 0.432939 0.826996 0.972276
O O13 0.755232 0.246723 0.598205
O O14 0.516789 0.816044 0.763389
O O15 0.299270 0.529538 0.000274
O O16 0.761685 0.268789 0.961375
#
# Coordination Sequence:
#
# PCOD9115697 Si02
#       8
#     2   2   2   2   2   2   2   2
#     4   9  20  39  69 111 138 188 245 307 377 441
#     4   9  21  43  73  98 150 189 245 319 361 441
#     4   9  20  37  65 103 142 181 243 300 369 429
#     4  11  27  52  76 109 152 204 258 311 378 455
#     4  12  28  47  77 109 153 206 251 311 387 454
#     4  10  24  49  72 107 158 200 243 315 379 458
#     4  10  20  42  70 106 151 187 251 307 373 436
#     4  10  22  41  70 105 142 189 248 308 366 446
#
# _framework density 25.671945999999998
#
# number of rings (size 3 to 8) (size 9 to 14) (size 15 to 20)
#    0.000    2.000    1.250    0.750    8.750    5.000 
#    6.750    0.000    0.000    0.000    0.000    0.000 
#    0.000    0.000    0.000    0.000    0.000    0.000 
#
# Total GULP energy -89153.027828 kJ/mol
# GULP energy per Si atom -5572.064239 kJ/mol
# Density = 2.561352 g / cm^3
# Si number density = 25.671946 Si / 1000 Ang^3
#
#
#
# Elastic Constant Matrix: (Units=GPa)
#
#
# Indices 1 2 3 4 5 6 
#
# 1 105.6941 47.5897 14.9108 0.0000 2.7209 0.0000
# 2 47.5897 145.3365 33.6959 0.0000 -1.0474 0.0000
# 3 14.9108 33.6959 139.9080 0.0000 -4.2111 0.0000
# 4 0.0000 0.0000 0.0000 38.3967 0.0000 1.3646
# 5 2.7209 -1.0474 -4.2111 0.0000 35.0773 0.0000
# 6 0.0000 0.0000 0.0000 1.3646 0.0000 41.7369
#
#
#
# Elastic Compliance Matrix: (Units=1/GPa)
#
#
# Indices 1 2 3 4 5 6 
#
# 1 0.011147 -0.003575 -0.000358 0.000000 -0.001014 0.000000
# 2 -0.003575 0.008434 -0.001640 0.000000 0.000332 0.000000
# 3 -0.000358 -0.001640 0.007608 0.000000 0.000892 0.000000
# 4 0.000000 0.000000 0.000000 0.026074 0.000000 -0.000852
# 5 -0.001014 0.000332 0.000892 0.000000 0.028704 0.000000
# 6 0.000000 0.000000 0.000000 -0.000852 0.000000 0.023988
#
#
# Mechanical properties :
#
#
# Convention : Reuss Voigt Hill
#
# Bulk Modulus (GPa) = 62.32967 64.81460 63.57213
# Shear Modulus (GPa) = 40.83393 42.69166 41.76279
#
# Velocity S-wave (km/s) = 3.99257 4.08238 4.03772
# Velocity P-wave (km/s) = 6.75175 6.89370 6.82309
#
# Compressibility (1/GPa) = 0.01604372
#
# Stress axis : x y z
#
# Youngs Moduli (GPa) = 89.70795 118.57169 131.44808
#
# Poissons Ratio (x) = 0.42383 0.04702
# Poissons Ratio (y) = 0.32066 0.21561
# Poissons Ratio (z) = 0.03209 0.19449
#
# Static dielectric constant tensor:
#      x y z
#    x 2.143030 0.000000 -0.013830 
#    y 0.000000 2.090010 0.000000 
#    z -0.013830 0.000000 2.076060 
# 
# From -- ./inp_files/9948.got.cif
#   From: 2010.05.17/outbox.cif.g08.bks.cpg/sg4_5_cif.got.tgz:9948.got - 2010.06.03 18:43:04.
