data_PCOD9115467
_publ_section_title
;
Structure prediction by ZEFSAII (Michael W. Deem and Ramdas Pophale) SiO2 
 PCOD9115467
Probable space group: P 21
;
_chemical_formula_sum "Si O2"
_cell_formula_units_Z 14
_cell_length_a 8.824327
_cell_length_b 10.382370
_cell_length_c 14.704050
_cell_angle_alpha 90.000000
_cell_angle_beta 157.310070
_cell_angle_gamma 90.000000
_cell_volume 519.653825
_symmetry_space_group_name_H-M "P 21"
_symmetry_group_IT_number 4
_symmetry_cell_setting 'monoclinic'
loop_
_space_group_symop_operation_xyz
x,y,z
-x,1/2+y,-z
loop_
_atom_site_type_symbol
_atom_site_label
_atom_site_fract_x
_atom_site_fract_y
_atom_site_fract_z
Si Si1 0.830028 0.721000 0.990666
Si Si2 0.233574 0.507378 0.702610
Si Si3 0.033060 0.492984 0.978418
Si Si4 0.903440 0.364086 0.162356
Si Si5 0.097503 0.531743 0.439556
Si Si6 0.300249 0.741606 0.430709
Si Si7 0.004894 0.582876 0.766150
O O1 0.012719 0.765035 0.187959
O O2 0.815732 0.848880 0.922268
O O3 0.083162 0.611165 0.076901
O O4 0.428128 0.647461 0.791051
O O5 0.955296 0.493373 0.461720
O O6 0.044946 0.501656 0.697533
O O7 0.605888 0.413141 0.921524
O O8 0.167187 0.535428 0.951848
O O9 0.553962 0.485387 0.701740
O O10 0.898238 0.459205 0.245320
O O11 0.348091 0.344577 0.372011
O O12 0.796546 0.222237 0.138138
O O13 0.116095 0.682702 0.420316
O O14 0.553598 0.618991 0.534117
#
# Coordination Sequence:
#
# PCOD9115467 Si02
#       7
#     2   2   2   2   2   2   2
#     4  11  22  38  66  97 126 171 219 265 319 383
#     4  11  24  39  64  93 131 166 214 264 323 385
#     4  10  22  37  65  95 127 166 222 262 315 384
#     4  10  21  40  67  84 132 168 205 271 325 369
#     4  10  20  39  62  95 117 165 217 256 319 382
#     4   9  20  40  63  89 125 164 213 266 316 383
#     4   9  23  41  57  89 132 162 216 258 323 380
#
# _framework density 26.941009999999999
#
# number of rings (size 3 to 8) (size 9 to 14) (size 15 to 20)
#    0.857    1.143    2.857    0.000    6.000    0.000 
#    2.571    1.429    0.000    0.000    0.000    0.000 
#    0.000    0.000    0.000    0.000    0.000    0.000 
#
# Total GULP energy -78244.206104 kJ/mol
# GULP energy per Si atom -5588.871865 kJ/mol
# Density = 2.687969 g / cm^3
# Si number density = 26.941010 Si / 1000 Ang^3
#
#
#
# Elastic Constant Matrix: (Units=GPa)
#
#
# Indices 1 2 3 4 5 6 
#
# 1 138.8105 14.0564 35.3876 0.0000 -36.6201 0.0000
# 2 14.0564 104.6754 2.2129 0.0000 -1.5451 0.0000
# 3 35.3876 2.2129 99.4228 0.0000 -23.9681 0.0000
# 4 0.0000 0.0000 0.0000 31.2069 0.0000 -9.9969
# 5 -36.6201 -1.5451 -23.9681 0.0000 47.8194 0.0000
# 6 0.0000 0.0000 0.0000 -9.9969 0.0000 27.7321
#
#
#
# Elastic Compliance Matrix: (Units=1/GPa)
#
#
# Indices 1 2 3 4 5 6 
#
# 1 0.009440 -0.001136 -0.001821 0.000000 0.006280 0.000000
# 2 -0.001136 0.009697 0.000062 0.000000 -0.000526 0.000000
# 3 -0.001821 0.000062 0.011794 0.000000 0.004519 0.000000
# 4 0.000000 0.000000 0.000000 0.036228 0.000000 0.013059
# 5 0.006280 -0.000526 0.004519 0.000000 0.027969 0.000000
# 6 0.000000 0.000000 0.000000 0.013059 0.000000 0.040767
#
#
# Mechanical properties :
#
#
# Convention : Reuss Voigt Hill
#
# Bulk Modulus (GPa) = 39.77674 49.58029 44.67851
# Shear Modulus (GPa) = 33.31870 40.76845 37.04358
#
# Velocity S-wave (km/s) = 3.52053 3.89427 3.71211
# Velocity P-wave (km/s) = 5.59660 6.21801 5.91547
#
# Compressibility (1/GPa) = 0.02514032
#
# Stress axis : x y z
#
# Youngs Moduli (GPa) = 105.93177 103.12589 84.78740
#
# Poissons Ratio (x) = 0.11720 0.15438
# Poissons Ratio (y) = 0.12039 -0.00525
# Poissons Ratio (z) = 0.19288 -0.00638
#
# Static dielectric constant tensor:
#      x y z
#    x 2.217430 0.000000 0.056460 
#    y 0.000000 2.148630 0.000000 
#    z 0.056460 0.000000 2.080520 
# 
# From -- ./inp_files/13763.got.cif
#   From: 2010.05.17/outbox.cif.g08.bks.cpg/sg4_7_cif.got.tgz:13763.got - 2010.06.03 18:43:04.
