data_PCOD9115075
_publ_section_title
;
Structure prediction by ZEFSAII (Michael W. Deem and Ramdas Pophale) SiO2 
 PCOD9115075
Probable space group: P 21
;
_chemical_formula_sum "Si O2"
_cell_formula_units_Z 16
_cell_length_a 9.837997
_cell_length_b 9.207806
_cell_length_c 12.282976
_cell_angle_alpha 90.000000
_cell_angle_beta 35.506567
_cell_angle_gamma 90.000000
_cell_volume 646.234683
_symmetry_space_group_name_H-M "P 21"
_symmetry_group_IT_number 4
_symmetry_cell_setting 'monoclinic'
loop_
_space_group_symop_operation_xyz
x,y,z
-x,1/2+y,-z
loop_
_atom_site_type_symbol
_atom_site_label
_atom_site_fract_x
_atom_site_fract_y
_atom_site_fract_z
Si Si1 0.121050 0.553930 0.764388
Si Si2 0.042512 0.969798 0.547801
Si Si3 0.509436 0.829888 0.263514
Si Si4 0.132679 0.576002 0.002843
Si Si5 0.614882 0.556077 0.346246
Si Si6 0.590488 0.110061 0.865948
Si Si7 0.317472 0.870547 0.911901
Si Si8 0.872521 0.658329 0.713294
O O1 0.086944 0.621331 0.905737
O O2 0.393048 0.524114 0.566634
O O3 0.020352 0.644517 0.728665
O O4 0.947810 0.416686 0.883159
O O5 0.933120 0.810338 0.620652
O O6 0.302051 0.943596 0.424087
O O7 0.854092 0.074805 0.728810
O O8 0.060014 0.032429 0.414471
O O9 0.559577 0.710043 0.322765
O O10 0.424233 0.736515 0.214689
O O11 0.738200 0.921786 0.084370
O O12 0.310336 0.699183 0.925381
O O13 0.876621 0.565460 0.222321
O O14 0.628380 0.432164 0.243849
O O15 0.487460 0.964178 0.876813
O O16 0.396890 0.146890 0.080081
#
# Coordination Sequence:
#
# PCOD9115075 Si02
#       8
#     2   2   2   2   2   2   2   2
#     4  10  21  44  68  98 138 185 232 283 355 422
#     4  12  24  47  74 103 145 182 241 307 351 418
#     4  11  24  46  69 105 148 185 234 295 353 418
#     4  11  24  40  68 106 142 184 237 288 347 421
#     4  10  19  41  64  93 139 186 227 285 349 400
#     4  10  24  46  70 101 147 192 228 288 368 425
#     4   9  21  39  64  98 139 179 229 290 341 416
#     4  11  25  45  75 102 138 191 240 298 362 418
#
# _framework density 24.758807000000001
#
# number of rings (size 3 to 8) (size 9 to 14) (size 15 to 20)
#    0.000    1.500    2.500    3.000    3.500    2.000 
#    2.250    2.500    0.000    0.000    0.000    0.000 
#    0.000    0.000    0.000    0.000    0.000    0.000 
#
# Total GULP energy -89586.622778 kJ/mol
# GULP energy per Si atom -5599.163924 kJ/mol
# Density = 2.470246 g / cm^3
# Si number density = 24.758807 Si / 1000 Ang^3
#
#
#
# Elastic Constant Matrix: (Units=GPa)
#
#
# Indices 1 2 3 4 5 6 
#
# 1 109.9098 32.8369 38.9634 0.0000 -20.9748 0.0000
# 2 32.8369 76.9374 23.0505 0.0000 -2.7351 0.0000
# 3 38.9634 23.0505 179.1617 0.0000 -24.4567 0.0000
# 4 0.0000 0.0000 0.0000 32.4407 0.0000 -19.7893
# 5 -20.9748 -2.7351 -24.4567 0.0000 36.4124 0.0000
# 6 0.0000 0.0000 0.0000 -19.7893 0.0000 17.1581
#
#
#
# Elastic Compliance Matrix: (Units=1/GPa)
#
#
# Indices 1 2 3 4 5 6 
#
# 1 0.011989 -0.004541 -0.001241 0.000000 0.005732 0.000000
# 2 -0.004541 0.015240 -0.001292 0.000000 -0.002339 0.000000
# 3 -0.001241 -0.001292 0.006503 0.000000 0.003556 0.000000
# 4 0.000000 0.000000 0.000000 0.103986 0.000000 0.119933
# 5 0.005732 -0.002339 0.003556 0.000000 0.032978 0.000000
# 6 0.000000 0.000000 0.000000 0.119933 0.000000 0.196607
#
#
# Mechanical properties :
#
#
# Convention : Reuss Voigt Hill
#
# Bulk Modulus (GPa) = 51.06485 61.74561 56.40523
# Shear Modulus (GPa) = 12.88731 35.27945 24.08338
#
# Velocity S-wave (km/s) = 2.28395 3.77891 3.12223
# Velocity P-wave (km/s) = 5.25594 6.63575 5.98574
#
# Compressibility (1/GPa) = 0.01958294
#
# Stress axis : x y z
#
# Youngs Moduli (GPa) = 83.41160 65.61735 153.77372
#
# Poissons Ratio (x) = 0.29799 0.19077
# Poissons Ratio (y) = 0.37880 0.19874
# Poissons Ratio (z) = 0.10348 0.08481
#
# Static dielectric constant tensor:
#      x y z
#    x 2.000480 0.000000 -0.009750 
#    y 0.000000 1.908320 0.000000 
#    z -0.009750 0.000000 1.953360 
# 
# From -- ./inp_files/13931.got.cif
#   From: 2010.05.17/outbox.cif.g08.bks.cpg/sg4_7_cif.got.tgz:13931.got - 2010.06.03 18:43:04.
