data_PCOD9115157
_publ_section_title
;
Structure prediction by ZEFSAII (Michael W. Deem and Ramdas Pophale) SiO2 
 PCOD9115157
Probable space group: P 21
;
_chemical_formula_sum "Si O2"
_cell_formula_units_Z 12
_cell_length_a 12.534756
_cell_length_b 5.055809
_cell_length_c 13.218516
_cell_angle_alpha 90.000000
_cell_angle_beta 134.076615
_cell_angle_gamma 90.000000
_cell_volume 601.813294
_symmetry_space_group_name_H-M "P 21"
_symmetry_group_IT_number 4
_symmetry_cell_setting 'monoclinic'
loop_
_space_group_symop_operation_xyz
x,y,z
-x,1/2+y,-z
loop_
_atom_site_type_symbol
_atom_site_label
_atom_site_fract_x
_atom_site_fract_y
_atom_site_fract_z
Si Si1 0.554381 0.951990 0.752884
Si Si2 0.682204 0.712930 0.533706
Si Si3 0.576599 0.027632 0.006021
Si Si4 0.113147 0.533339 0.685945
Si Si5 0.918422 0.033071 0.568981
Si Si6 0.626204 0.433513 0.683119
O O1 0.599762 0.662312 0.747445
O O2 0.389944 0.030758 0.602274
O O3 0.659534 0.164351 0.764340
O O4 0.561110 0.987927 0.876358
O O5 0.800264 0.916852 0.568927
O O6 0.727973 0.535689 0.659399
O O7 0.537120 0.879101 0.473324
O O8 0.742843 0.975020 0.153880
O O9 0.469881 0.821508 0.992476
O O10 0.145072 0.505847 0.587027
O O11 0.056675 0.830780 0.664871
O O12 0.980413 0.328032 0.623463
#
# Coordination Sequence:
#
# PCOD9115157 Si02
#       6
#     2   2   2   2   2   2
#     4  10  21  34  55  88 121 147 186 262 289 340
#     4  10  20  35  61  90 116 154 193 246 311 332
#     4  12  24  39  62  84 119 161 202 244 296 359
#     4  10  23  40  52  92 115 160 198 235 294 358
#     4  10  22  36  62  78 127 154 193 245 290 361
#     4  10  20  34  56  94 118 142 204 250 296 344
#
# _framework density 19.939737999999998
#
# number of rings (size 3 to 8) (size 9 to 14) (size 15 to 20)
#    1.000    0.667    1.667    3.000    4.667    1.333 
#    0.000    0.000    0.000    4.000    0.000    0.000 
#    0.000    0.000    0.000    0.000    0.000    0.000 
#
# Total GULP energy -66982.484950 kJ/mol
# GULP energy per Si atom -5581.873746 kJ/mol
# Density = 1.989435 g / cm^3
# Si number density = 19.939738 Si / 1000 Ang^3
#
#
#
# Elastic Constant Matrix: (Units=GPa)
#
#
# Indices 1 2 3 4 5 6 
#
# 1 28.8004 -18.1508 12.0451 0.0000 -8.2039 0.0000
# 2 -18.1508 67.3320 -3.1073 0.0000 -4.1812 0.0000
# 3 12.0451 -3.1073 83.3605 0.0000 -17.9761 0.0000
# 4 0.0000 0.0000 0.0000 19.9412 0.0000 -10.5834
# 5 -8.2039 -4.1812 -17.9761 0.0000 23.2462 0.0000
# 6 0.0000 0.0000 0.0000 -10.5834 0.0000 26.5793
#
#
#
# Elastic Compliance Matrix: (Units=1/GPa)
#
#
# Indices 1 2 3 4 5 6 
#
# 1 0.050235 0.014542 -0.002796 0.000000 0.018182 0.000000
# 2 0.014542 0.019361 0.000574 0.000000 0.009058 0.000000
# 3 -0.002796 0.000574 0.014679 0.000000 0.010467 0.000000
# 4 0.000000 0.000000 0.000000 0.063585 0.000000 0.025318
# 5 0.018182 0.009058 0.010467 0.000000 0.059158 0.000000
# 6 0.000000 0.000000 0.000000 0.025318 0.000000 0.047705
#
#
# Mechanical properties :
#
#
# Convention : Reuss Voigt Hill
#
# Bulk Modulus (GPa) = 9.18150 17.89633 13.53891
# Shear Modulus (GPa) = 18.76968 26.53373 22.65171
#
# Velocity S-wave (km/s) = 3.07142 3.65183 3.37413
# Velocity P-wave (km/s) = 4.14642 5.17454 4.68874
#
# Compressibility (1/GPa) = 0.10891472
#
# Stress axis : x y z
#
# Youngs Moduli (GPa) = 19.90642 51.65061 68.12615
#
# Poissons Ratio (x) = -0.75110 0.19046
# Poissons Ratio (y) = -0.28948 -0.03909
# Poissons Ratio (z) = 0.05565 -0.02963
#
# Static dielectric constant tensor:
#      x y z
#    x 1.724140 0.000000 -0.003290 
#    y 0.000000 1.731080 0.000000 
#    z -0.003290 0.000000 1.679720 
# 
# From -- ./inp_files/11653.got.cif
#   From: 2010.05.17/outbox.cif.g08.bks.cpg/sg4_6_cif.got.tgz:11653.got - 2010.06.03 18:43:04.
