data_PCOD9115825
_publ_section_title
;
Structure prediction by ZEFSAII (Michael W. Deem and Ramdas Pophale) SiO2 
 PCOD9115825
Probable space group: P 21
;
_chemical_formula_sum "Si O2"
_cell_formula_units_Z 14
_cell_length_a 8.051142
_cell_length_b 4.914484
_cell_length_c 16.190305
_cell_angle_alpha 90.000000
_cell_angle_beta 109.422350
_cell_angle_gamma 90.000000
_cell_volume 604.150266
_symmetry_space_group_name_H-M "P 21"
_symmetry_group_IT_number 4
_symmetry_cell_setting 'monoclinic'
loop_
_space_group_symop_operation_xyz
x,y,z
-x,1/2+y,-z
loop_
_atom_site_type_symbol
_atom_site_label
_atom_site_fract_x
_atom_site_fract_y
_atom_site_fract_z
Si Si1 0.090802 0.914430 0.825163
Si Si2 0.266110 0.144583 0.441816
Si Si3 0.359395 0.640567 0.745486
Si Si4 0.120392 0.728596 0.005865
Si Si5 0.593093 0.156348 0.806076
Si Si6 0.328595 0.647364 0.551864
Si Si7 0.120969 0.937166 0.253484
O O1 0.210175 0.779670 0.775348
O O2 0.176719 0.866556 0.928904
O O3 0.917838 0.720420 0.799251
O O4 0.029323 0.215683 0.791818
O O5 0.236503 0.445081 0.471511
O O6 0.462390 0.133345 0.434357
O O7 0.268208 0.949866 0.521160
O O8 0.139762 0.024799 0.351438
O O9 0.433200 0.363700 0.796296
O O10 0.300718 0.581324 0.642405
O O11 0.515664 0.864510 0.770470
O O12 0.277466 0.660117 0.094175
O O13 0.010245 0.451840 0.975673
O O14 0.702241 0.291420 0.749088
#
# Coordination Sequence:
#
# PCOD9115825 Si02
#       7
#     2   2   2   2   2   2   2
#     4  12  26  44  67  99 143 179 218 290 350 402
#     4  10  21  36  66  97 123 166 227 275 320 393
#     4  12  26  43  66 102 139 177 222 283 357 398
#     4  12  23  43  68 101 136 178 236 284 334 394
#     4  12  24  41  72  98 132 181 234 279 325 418
#     4  10  21  38  61  98 130 163 213 289 329 384
#     4  12  23  43  70 101 127 182 234 274 333 415
#
# _framework density 23.173043
#
# number of rings (size 3 to 8) (size 9 to 14) (size 15 to 20)
#    0.000    0.571    4.286    4.286    4.000    1.143 
#    0.000    2.857    0.000    0.000    0.000    0.000 
#    0.000    0.000    0.000    0.000    0.000    0.000 
#
# Total GULP energy -78373.162112 kJ/mol
# GULP energy per Si atom -5598.083008 kJ/mol
# Density = 2.312030 g / cm^3
# Si number density = 23.173043 Si / 1000 Ang^3
#
#
#
# Elastic Constant Matrix: (Units=GPa)
#
#
# Indices 1 2 3 4 5 6 
#
# 1 58.6001 4.4602 8.6199 0.0000 -12.6554 0.0000
# 2 4.4602 103.5012 10.9910 0.0000 3.6620 0.0000
# 3 8.6199 10.9910 124.4801 0.0000 -11.9551 0.0000
# 4 0.0000 0.0000 0.0000 40.1861 0.0000 6.6275
# 5 -12.6554 3.6620 -11.9551 0.0000 20.4259 0.0000
# 6 0.0000 0.0000 0.0000 6.6275 0.0000 27.2052
#
#
#
# Elastic Compliance Matrix: (Units=1/GPa)
#
#
# Indices 1 2 3 4 5 6 
#
# 1 0.019874 -0.001293 -0.000061 0.000000 0.012510 0.000000
# 2 -0.001293 0.009948 -0.001099 0.000000 -0.003228 0.000000
# 3 -0.000061 -0.001099 0.008635 0.000000 0.005214 0.000000
# 4 0.000000 0.000000 0.000000 0.025926 0.000000 -0.006316
# 5 0.012510 -0.003228 0.005214 0.000000 0.060338 0.000000
# 6 0.000000 0.000000 0.000000 -0.006316 0.000000 0.038296
#
#
# Mechanical properties :
#
#
# Convention : Reuss Voigt Hill
#
# Bulk Modulus (GPa) = 29.80343 37.19152 33.49747
# Shear Modulus (GPa) = 27.91636 35.06410 31.49023
#
# Velocity S-wave (km/s) = 3.47463 3.89413 3.69035
# Velocity P-wave (km/s) = 5.38392 6.02523 5.71358
#
# Compressibility (1/GPa) = 0.03355318
#
# Stress axis : x y z
#
# Youngs Moduli (GPa) = 50.31767 100.51956 115.80303
#
# Poissons Ratio (x) = 0.12993 0.00702
# Poissons Ratio (y) = 0.06504 0.12725
# Poissons Ratio (z) = 0.00305 0.11046
#
# Static dielectric constant tensor:
#      x y z
#    x 1.916920 0.000000 0.013470 
#    y 0.000000 1.820580 0.000000 
#    z 0.013470 0.000000 1.850290 
# 
# From -- ./inp_files/13559.got.cif
#   From: 2010.05.17/outbox.cif.g08.bks.cpg/sg4_7_cif.got.tgz:13559.got - 2010.06.03 18:43:04.
