data_PCOD9115396
_publ_section_title
;
Structure prediction by ZEFSAII (Michael W. Deem and Ramdas Pophale) SiO2 
 PCOD9115396
Probable space group: P 21
;
_chemical_formula_sum "Si O2"
_cell_formula_units_Z 12
_cell_length_a 28.667054
_cell_length_b 5.057542
_cell_length_c 22.646927
_cell_angle_alpha 90.000000
_cell_angle_beta 169.102771
_cell_angle_gamma 90.000000
_cell_volume 620.731550
_symmetry_space_group_name_H-M "P 21"
_symmetry_group_IT_number 4
_symmetry_cell_setting 'monoclinic'
loop_
_space_group_symop_operation_xyz
x,y,z
-x,1/2+y,-z
loop_
_atom_site_type_symbol
_atom_site_label
_atom_site_fract_x
_atom_site_fract_y
_atom_site_fract_z
Si Si1 0.638802 0.110870 0.669415
Si Si2 0.128826 0.907731 0.323085
Si Si3 0.645569 0.909801 0.337302
Si Si4 0.339508 0.352721 0.784381
Si Si5 0.932306 0.468094 0.376591
Si Si6 0.013877 0.345249 0.982111
O O1 0.595321 0.421391 0.612395
O O2 0.849527 0.023084 0.977629
O O3 0.740547 0.994020 0.734774
O O4 0.178414 0.638722 0.418889
O O5 0.159958 0.852120 0.291665
O O6 0.300006 0.135431 0.562025
O O7 0.692849 0.878615 0.326164
O O8 0.361693 0.987835 0.997452
O O9 0.097469 0.407761 0.523767
O O10 0.547628 0.565948 0.061465
O O11 0.025220 0.733746 0.523504
O O12 0.929194 0.552398 0.925974
#
# Coordination Sequence:
#
# PCOD9115396 Si02
#       6
#     2   2   2   2   2   2
#     4  10  20  38  63  90 119 162 214 243 308 388
#     4  10  24  38  64  90 130 170 192 264 346 342
#     4  12  22  42  64  92 140 160 208 278 314 374
#     4  12  23  41  66  96 122 173 220 255 313 389
#     4  12  23  41  66  96 122 173 220 255 313 389
#     4  10  20  38  63  90 119 162 214 243 308 388
#
# _framework density 19.332028000000001
#
# number of rings (size 3 to 8) (size 9 to 14) (size 15 to 20)
#    1.000    0.000    3.333    5.000    0.000    0.000 
#    0.000   10.000    0.000    0.000    0.000    0.000 
#    0.000    0.000    0.000    0.000    0.000    0.000 
#
# Total GULP energy -66893.923319 kJ/mol
# GULP energy per Si atom -5574.493610 kJ/mol
# Density = 1.928803 g / cm^3
# Si number density = 19.332028 Si / 1000 Ang^3
#
#
#
# Elastic Constant Matrix: (Units=GPa)
#
#
# Indices 1 2 3 4 5 6 
#
# 1 111.2692 9.0997 40.4002 0.0000 -6.9203 0.0000
# 2 9.0997 72.9371 -10.3830 0.0000 -20.4032 0.0000
# 3 40.4002 -10.3830 39.7626 0.0000 -3.4222 0.0000
# 4 0.0000 0.0000 0.0000 45.6987 0.0000 -10.4048
# 5 -6.9203 -20.4032 -3.4222 0.0000 39.1401 0.0000
# 6 0.0000 0.0000 0.0000 -10.4048 0.0000 41.4362
#
#
#
# Elastic Compliance Matrix: (Units=1/GPa)
#
#
# Indices 1 2 3 4 5 6 
#
# 1 0.015497 -0.004701 -0.017077 0.000000 -0.001204 0.000000
# 2 -0.004701 0.018506 0.010446 0.000000 0.009729 0.000000
# 3 -0.017077 0.010446 0.045781 0.000000 0.006429 0.000000
# 4 0.000000 0.000000 0.000000 0.023209 0.000000 0.005828
# 5 -0.001204 0.009729 0.006429 0.000000 0.030970 0.000000
# 6 0.000000 0.000000 0.000000 0.005828 0.000000 0.025597
#
#
# Mechanical properties :
#
#
# Convention : Reuss Voigt Hill
#
# Bulk Modulus (GPa) = 17.50699 33.57806 25.54252
# Shear Modulus (GPa) = 24.84298 37.57847 31.21072
#
# Velocity S-wave (km/s) = 3.58867 4.41369 4.02239
# Velocity P-wave (km/s) = 5.12319 6.58643 5.90034
#
# Compressibility (1/GPa) = 0.05712006
#
# Stress axis : x y z
#
# Youngs Moduli (GPa) = 64.52779 54.03782 21.84305
#
# Poissons Ratio (x) = 0.25404 0.37301
# Poissons Ratio (y) = 0.30336 -0.22818
# Poissons Ratio (z) = 1.10194 -0.56449
#
# Static dielectric constant tensor:
#      x y z
#    x 1.713730 0.000000 0.043110 
#    y 0.000000 1.679540 0.000000 
#    z 0.043110 0.000000 1.699700 
# 
# From -- ./inp_files/15792.got.cif
#   From: 2010.05.17/outbox.cif.g08.bks.cpg/sg4_8_cif.got.tgz:15792.got - 2010.06.03 18:43:04.
