data_PCOD9115291
_publ_section_title
;
Structure prediction by ZEFSAII (Michael W. Deem and Ramdas Pophale) SiO2 
 PCOD9115291
Probable space group: P 21
;
_chemical_formula_sum "Si O2"
_cell_formula_units_Z 16
_cell_length_a 11.873389
_cell_length_b 8.325644
_cell_length_c 7.040800
_cell_angle_alpha 90.000000
_cell_angle_beta 54.854278
_cell_angle_gamma 90.000000
_cell_volume 569.119607
_symmetry_space_group_name_H-M "P 21"
_symmetry_group_IT_number 4
_symmetry_cell_setting 'monoclinic'
loop_
_space_group_symop_operation_xyz
x,y,z
-x,1/2+y,-z
loop_
_atom_site_type_symbol
_atom_site_label
_atom_site_fract_x
_atom_site_fract_y
_atom_site_fract_z
Si Si1 0.799822 0.831940 0.191439
Si Si2 0.466413 0.503280 0.507584
Si Si3 0.708572 0.197167 0.781794
Si Si4 0.061668 0.997619 0.853836
Si Si5 0.301287 0.785526 0.632103
Si Si6 0.201309 0.224293 0.232857
Si Si7 0.044283 0.903967 0.424192
Si Si8 0.454949 0.022680 0.996746
O O1 0.652738 0.874213 0.418869
O O2 0.872718 0.671434 0.193291
O O3 0.772654 0.804277 0.994374
O O4 0.912543 0.974040 0.089520
O O5 0.384127 0.654682 0.672642
O O6 0.587043 0.426336 0.513174
O O7 0.534753 0.551572 0.241179
O O8 0.732256 0.198328 0.532041
O O9 0.854834 0.253557 0.722408
O O10 0.609669 0.047963 0.921618
O O11 0.608754 0.348720 0.915104
O O12 0.168108 0.870693 0.842834
O O13 0.056192 0.942436 0.639083
O O14 0.112372 0.346474 0.447535
O O15 0.101841 0.069347 0.283521
O O16 0.339638 0.147702 0.181641
#
# Coordination Sequence:
#
# PCOD9115291 Si02
#       8
#     2   2   2   2   2   2   2   2
#     4  11  22  38  59  85 117 153 194 242 292 347
#     4  11  22  37  59  86 116 157 196 239 293 345
#     4   9  20  37  55  81 113 148 190 238 286 341
#     4  10  21  38  58  84 116 152 194 242 291 348
#     4  10  20  37  57  82 115 149 193 242 290 347
#     4  10  21  40  60  85 116 149 191 239 289 346
#     4   9  21  38  59  83 114 149 191 240 291 341
#     4  10  21  37  57  84 115 151 193 236 286 343
#
# _framework density 28.113598
#
# number of rings (size 3 to 8) (size 9 to 14) (size 15 to 20)
#    0.000    2.000    0.000    3.750    0.000    7.000 
#    0.000    5.000    0.000    0.000    0.000    0.000 
#    0.000    0.000    0.000    0.000    0.000    0.000 
#
# Total GULP energy -89717.432505 kJ/mol
# GULP energy per Si atom -5607.339532 kJ/mol
# Density = 2.804961 g / cm^3
# Si number density = 28.113598 Si / 1000 Ang^3
#
#
#
# Elastic Constant Matrix: (Units=GPa)
#
#
# Indices 1 2 3 4 5 6 
#
# 1 88.7526 31.5904 47.3986 0.0000 -16.8557 0.0000
# 2 31.5904 83.5385 26.4534 0.0000 -12.1193 0.0000
# 3 47.3986 26.4534 105.9140 0.0000 -27.3488 0.0000
# 4 0.0000 0.0000 0.0000 60.5455 0.0000 -19.9299
# 5 -16.8557 -12.1193 -27.3488 0.0000 54.4189 0.0000
# 6 0.0000 0.0000 0.0000 -19.9299 0.0000 53.4454
#
#
#
# Elastic Compliance Matrix: (Units=1/GPa)
#
#
# Indices 1 2 3 4 5 6 
#
# 1 0.016066 -0.004048 -0.005891 0.000000 0.001114 0.000000
# 2 -0.004048 0.014119 -0.001410 0.000000 0.001182 0.000000
# 3 -0.005891 -0.001410 0.013649 0.000000 0.004721 0.000000
# 4 0.000000 0.000000 0.000000 0.018828 0.000000 0.007021
# 5 0.001114 0.001182 0.004721 0.000000 0.021357 0.000000
# 6 0.000000 0.000000 0.000000 0.007021 0.000000 0.021329
#
#
# Mechanical properties :
#
#
# Convention : Reuss Voigt Hill
#
# Bulk Modulus (GPa) = 47.31158 54.34334 50.82746
# Shear Modulus (GPa) = 37.01220 45.19947 41.10583
#
# Velocity S-wave (km/s) = 3.63233 4.01402 3.82793
# Velocity P-wave (km/s) = 5.87001 6.39179 6.13645
#
# Compressibility (1/GPa) = 0.02113647
#
# Stress axis : x y z
#
# Youngs Moduli (GPa) = 62.24355 70.82534 73.26524
#
# Poissons Ratio (x) = 0.28672 0.43161
# Poissons Ratio (y) = 0.25198 0.10327
# Poissons Ratio (z) = 0.36668 0.09983
#
# Static dielectric constant tensor:
#      x y z
#    x 2.144640 0.000000 0.019050 
#    y 0.000000 2.203640 0.000000 
#    z 0.019050 0.000000 2.107690 
# 
# From -- ./inp_files/7992.got.cif
#   From: 2010.05.17/outbox.cif.g08.bks.cpg/sg4_4_cif.got.tgz:7992.got - 2010.06.03 18:43:04.
