data_PCOD9115155
_publ_section_title
;
Structure prediction by ZEFSAII (Michael W. Deem and Ramdas Pophale) SiO2 
 PCOD9115155
Probable space group: P 21
;
_chemical_formula_sum "Si O2"
_cell_formula_units_Z 16
_cell_length_a 10.444639
_cell_length_b 8.885020
_cell_length_c 12.466885
_cell_angle_alpha 90.000000
_cell_angle_beta 128.314179
_cell_angle_gamma 90.000000
_cell_volume 907.759526
_symmetry_space_group_name_H-M "P 21"
_symmetry_group_IT_number 4
_symmetry_cell_setting 'monoclinic'
loop_
_space_group_symop_operation_xyz
x,y,z
-x,1/2+y,-z
loop_
_atom_site_type_symbol
_atom_site_label
_atom_site_fract_x
_atom_site_fract_y
_atom_site_fract_z
Si Si1 0.752525 0.723180 0.155273
Si Si2 0.764665 0.081397 0.151967
Si Si3 0.060301 0.214570 0.414335
Si Si4 0.524127 0.082620 0.837386
Si Si5 0.570530 0.082297 0.423077
Si Si6 0.511189 0.723986 0.840173
Si Si7 0.440915 0.222649 0.574763
Si Si8 0.048371 0.573625 0.415913
O O1 0.626073 0.661974 0.178803
O O2 0.924096 0.643522 0.265162
O O3 0.768140 0.902772 0.174826
O O4 0.667498 0.692128 0.996738
O O5 0.643416 0.157641 0.175456
O O6 0.942054 0.150012 0.261553
O O7 0.682762 0.108557 0.993861
O O8 0.249536 0.183941 0.489930
O O9 0.035888 0.393436 0.410885
O O10 0.005771 0.138389 0.497249
O O11 0.533409 0.149553 0.723845
O O12 0.493797 0.903640 0.819848
O O13 0.483201 0.148692 0.272700
O O14 0.506132 0.158423 0.497346
O O15 0.763894 0.112836 0.509626
O O16 0.545803 0.902984 0.415068
#
# Coordination Sequence:
#
# PCOD9115155 Si02
#       8
#     2   2   2   2   2   2   2   2
#     4  10  20  34  56  87 117 148 190 237 286 338
#     4  10  20  34  56  87 117 148 190 237 286 338
#     4  11  22  36  58  87 116 149 192 239 285 340
#     4  10  20  35  57  84 116 152 190 235 286 339
#     4  11  24  40  59  84 116 153 194 236 287 348
#     4  10  20  35  57  84 116 152 190 235 286 339
#     4  11  24  40  59  84 116 153 194 236 287 348
#     4  11  22  36  58  87 116 149 192 239 285 340
#
# _framework density 17.625812
#
# number of rings (size 3 to 8) (size 9 to 14) (size 15 to 20)
#    0.000    1.500    2.500    3.000    0.000    6.000 
#    0.000    1.250    0.000    0.000    0.000    0.000 
#    0.000    0.000    0.000    0.000    0.000    0.000 
#
# Total GULP energy -89399.732115 kJ/mol
# GULP energy per Si atom -5587.483257 kJ/mol
# Density = 1.758569 g / cm^3
# Si number density = 17.625812 Si / 1000 Ang^3
#
#
#
# Elastic Constant Matrix: (Units=GPa)
#
#
# Indices 1 2 3 4 5 6 
#
# 1 42.6119 -4.5353 14.1365 0.0000 -7.6011 0.0000
# 2 -4.5353 4.7998 9.6054 0.0000 8.7547 0.0000
# 3 14.1365 9.6054 90.9848 0.0000 -4.5042 0.0000
# 4 0.0000 0.0000 0.0000 37.2834 0.0000 -0.7910
# 5 -7.6011 8.7547 -4.5042 0.0000 28.5348 0.0000
# 6 0.0000 0.0000 0.0000 -0.7910 0.0000 28.2433
#
#
#
# Elastic Compliance Matrix: (Units=1/GPa)
#
#
# Indices 1 2 3 4 5 6 
#
# 1 0.049128 0.238998 -0.036129 0.000000 -0.065943 0.000000
# 2 0.238998 2.450425 -0.332493 0.000000 -0.740627 0.000000
# 3 -0.036129 -0.332493 0.056723 0.000000 0.101341 0.000000
# 4 0.000000 0.000000 0.000000 0.026838 0.000000 0.000752
# 5 -0.065943 -0.740627 0.101341 0.000000 0.260705 0.000000
# 6 0.000000 0.000000 0.000000 0.000752 0.000000 0.035428
#
#
# Mechanical properties :
#
#
# Convention : Reuss Voigt Hill
#
# Bulk Modulus (GPa) = 0.43534 19.64551 10.04043
# Shear Modulus (GPa) = 1.28068 26.75829 14.01949
#
# Velocity S-wave (km/s) = 0.85333 3.90055 2.82333
# Velocity P-wave (km/s) = 1.10382 5.60854 4.04192
#
# Compressibility (1/GPa) = 2.29702895
#
# Stress axis : x y z
#
# Youngs Moduli (GPa) = 20.35500 0.40809 17.62958
#
# Poissons Ratio (x) = -0.09753 0.63694
# Poissons Ratio (y) = -4.86481 5.86171
# Poissons Ratio (z) = 0.73541 0.13569
#
# Static dielectric constant tensor:
#      x y z
#    x 1.561950 0.000000 0.006350 
#    y 0.000000 1.586280 0.000000 
#    z 0.006350 0.000000 1.619280 
# 
# From -- ./inp_files/7824.got.cif
#   From: 2010.05.17/outbox.cif.g08.bks.cpg/sg4_4_cif.got.tgz:7824.got - 2010.06.03 18:43:04.
