data_PCOD9115551
_publ_section_title
;
Structure prediction by ZEFSAII (Michael W. Deem and Ramdas Pophale) SiO2 
 PCOD9115551
Probable space group: P 21
;
_chemical_formula_sum "Si O2"
_cell_formula_units_Z 16
_cell_length_a 7.561971
_cell_length_b 7.617814
_cell_length_c 16.975193
_cell_angle_alpha 90.000000
_cell_angle_beta 42.541952
_cell_angle_gamma 90.000000
_cell_volume 661.165540
_symmetry_space_group_name_H-M "P 21"
_symmetry_group_IT_number 4
_symmetry_cell_setting 'monoclinic'
loop_
_space_group_symop_operation_xyz
x,y,z
-x,1/2+y,-z
loop_
_atom_site_type_symbol
_atom_site_label
_atom_site_fract_x
_atom_site_fract_y
_atom_site_fract_z
Si Si1 0.463164 0.307390 0.704305
Si Si2 0.524573 0.986120 0.587750
Si Si3 0.762932 0.439240 0.876060
Si Si4 0.778030 0.805572 0.370054
Si Si5 0.556302 0.917458 0.870150
Si Si6 0.118139 0.085963 0.921099
Si Si7 0.033006 0.817369 0.811629
Si Si8 0.548315 0.073842 0.162768
O O1 0.598575 0.122482 0.634088
O O2 0.400414 0.392481 0.640691
O O3 0.560399 0.451085 0.732891
O O4 0.194319 0.240033 0.835096
O O5 0.345860 0.112288 0.590528
O O6 0.750244 0.904097 0.461090
O O7 0.326090 0.836682 0.681988
O O8 0.916612 0.620812 0.846418
O O9 0.526300 0.491646 0.896582
O O10 0.940744 0.320255 0.761761
O O11 0.637941 0.358248 0.995010
O O12 0.384116 0.067153 0.885104
O O13 0.833221 0.929778 0.822102
O O14 0.580280 0.765040 0.797536
O O15 0.058218 0.918093 0.886015
O O16 0.860666 0.100147 0.058475
#
# Coordination Sequence:
#
# PCOD9115551 Si02
#       8
#     2   2   2   2   2   2   2   2
#     4   9  23  38  62  91 122 169 215 266 320 391
#     4   9  21  40  69  88 124 166 222 279 319 386
#     4  11  23  37  64  94 134 173 215 265 327 395
#     4  10  20  40  65  92 118 165 225 264 332 375
#     4  11  25  37  62  99 133 176 212 257 332 394
#     4  11  21  38  61  90 134 171 209 262 326 383
#     4  10  23  41  59  96 129 171 223 264 322 393
#     4  11  22  39  58  92 138 171 211 269 320 389
#
# _framework density 24.19969
#
# number of rings (size 3 to 8) (size 9 to 14) (size 15 to 20)
#    0.750    1.000    1.250    3.000    5.250    1.000 
#    0.000    0.000    8.250    0.000    0.000    0.000 
#    0.000    0.000    0.000    0.000    0.000    0.000 
#
# Total GULP energy -89232.317290 kJ/mol
# GULP energy per Si atom -5577.019831 kJ/mol
# Density = 2.414461 g / cm^3
# Si number density = 24.199690 Si / 1000 Ang^3
#
#
#
# Elastic Constant Matrix: (Units=GPa)
#
#
# Indices 1 2 3 4 5 6 
#
# 1 73.5105 7.3160 1.6732 0.0000 8.6813 0.0000
# 2 7.3160 86.6209 19.9785 0.0000 3.7043 0.0000
# 3 1.6732 19.9785 79.6778 0.0000 10.6893 0.0000
# 4 0.0000 0.0000 0.0000 31.6522 0.0000 12.4468
# 5 8.6813 3.7043 10.6893 0.0000 22.4001 0.0000
# 6 0.0000 0.0000 0.0000 12.4468 0.0000 26.9350
#
#
#
# Elastic Compliance Matrix: (Units=1/GPa)
#
#
# Indices 1 2 3 4 5 6 
#
# 1 0.014378 -0.001143 0.000755 0.000000 -0.005744 0.000000
# 2 -0.001143 0.012352 -0.003054 0.000000 -0.000142 0.000000
# 3 0.000755 -0.003054 0.014180 0.000000 -0.006554 0.000000
# 4 0.000000 0.000000 0.000000 0.038609 0.000000 -0.017842
# 5 -0.005744 -0.000142 -0.006554 0.000000 0.050020 0.000000
# 6 0.000000 0.000000 0.000000 -0.017842 0.000000 0.045371
#
#
# Mechanical properties :
#
#
# Convention : Reuss Voigt Hill
#
# Bulk Modulus (GPa) = 29.38904 33.08273 31.23588
# Shear Modulus (GPa) = 25.88859 30.25357 28.07108
#
# Velocity S-wave (km/s) = 3.27431 3.53960 3.40954
# Velocity P-wave (km/s) = 5.14447 5.51411 5.33250
#
# Compressibility (1/GPa) = 0.03402629
#
# Stress axis : x y z
#
# Youngs Moduli (GPa) = 69.54884 80.96151 70.52320
#
# Poissons Ratio (x) = 0.09254 -0.05326
# Poissons Ratio (y) = 0.07949 0.21537
# Poissons Ratio (z) = -0.05252 0.24725
#
# Static dielectric constant tensor:
#      x y z
#    x 2.000940 0.000000 0.013020 
#    y 0.000000 1.994150 0.000000 
#    z 0.013020 0.000000 1.893010 
# 
# From -- ./inp_files/14878.got.cif
#   From: 2010.05.17/outbox.cif.g08.bks.cpg/sg4_8_cif.got.tgz:14878.got - 2010.06.03 18:43:04.
