data_PCOD9115393
_publ_section_title
;
Structure prediction by ZEFSAII (Michael W. Deem and Ramdas Pophale) SiO2 
 PCOD9115393
Probable space group: P 21
;
_chemical_formula_sum "Si O2"
_cell_formula_units_Z 16
_cell_length_a 14.530501
_cell_length_b 4.921312
_cell_length_c 12.217812
_cell_angle_alpha 90.000000
_cell_angle_beta 50.558120
_cell_angle_gamma 90.000000
_cell_volume 674.720276
_symmetry_space_group_name_H-M "P 21"
_symmetry_group_IT_number 4
_symmetry_cell_setting 'monoclinic'
loop_
_space_group_symop_operation_xyz
x,y,z
-x,1/2+y,-z
loop_
_atom_site_type_symbol
_atom_site_label
_atom_site_fract_x
_atom_site_fract_y
_atom_site_fract_z
Si Si1 0.178140 0.542730 0.480367
Si Si2 0.561771 0.957688 0.410030
Si Si3 0.985347 0.819744 0.076061
Si Si4 0.229371 0.188681 0.630189
Si Si5 0.825207 0.159619 0.764041
Si Si6 0.595852 0.358705 0.650637
Si Si7 0.570802 0.410007 0.912972
Si Si8 0.049010 0.164963 0.240087
O O1 0.165195 0.290621 0.569076
O O2 0.153700 0.530066 0.371514
O O3 0.319597 0.605770 0.384581
O O4 0.082224 0.737110 0.613356
O O5 0.477140 0.769343 0.551266
O O6 0.690891 0.907901 0.363098
O O7 0.532245 0.845782 0.310794
O O8 0.876140 0.638799 0.206184
O O9 0.042771 0.001200 0.130154
O O10 0.058781 0.570647 0.967402
O O11 0.324930 0.988467 0.505972
O O12 0.688913 0.264608 0.870601
O O13 0.899878 0.435358 0.717383
O O14 0.868504 0.931336 0.816624
O O15 0.589955 0.502281 0.772549
O O16 0.528972 0.673969 0.010183
#
# Coordination Sequence:
#
# PCOD9115393 Si02
#       8
#     2   2   2   2   2   2   2   2
#     4  10  22  36  70  96 138 168 228 278 364 390
#     4  10  20  38  62  98 128 158 228 288 334 390
#     4  11  26  46  69  98 142 187 227 282 354 416
#     4  10  23  40  71  97 131 179 230 286 342 409
#     4  11  24  42  68 100 137 175 229 284 337 417
#     4  10  23  40  71  97 131 179 230 286 342 409
#     4  11  26  46  69  98 142 187 227 282 354 416
#     4  11  24  42  68 100 137 175 229 284 337 417
#
# _framework density 23.713532000000001
#
# number of rings (size 3 to 8) (size 9 to 14) (size 15 to 20)
#    0.000    1.500    1.250    2.250   14.000    0.000 
#    6.750    0.000    0.000    0.000    0.000    0.000 
#    0.000    0.000    0.000    0.000    0.000    0.000 
#
# Total GULP energy -89136.836963 kJ/mol
# GULP energy per Si atom -5571.052310 kJ/mol
# Density = 2.365956 g / cm^3
# Si number density = 23.713532 Si / 1000 Ang^3
#
#
#
# Elastic Constant Matrix: (Units=GPa)
#
#
# Indices 1 2 3 4 5 6 
#
# 1 78.5397 36.2156 24.1327 0.0000 10.4782 0.0000
# 2 36.2156 97.6854 29.5114 0.0000 -1.1059 0.0000
# 3 24.1327 29.5114 67.9070 0.0000 3.6541 0.0000
# 4 0.0000 0.0000 0.0000 29.4805 0.0000 -6.6944
# 5 10.4782 -1.1059 3.6541 0.0000 21.7459 0.0000
# 6 0.0000 0.0000 0.0000 -6.6944 0.0000 28.3044
#
#
#
# Elastic Compliance Matrix: (Units=1/GPa)
#
#
# Indices 1 2 3 4 5 6 
#
# 1 0.017389 -0.005529 -0.003341 0.000000 -0.008099 0.000000
# 2 -0.005529 0.013589 -0.004159 0.000000 0.004054 0.000000
# 3 -0.003341 -0.004159 0.017806 0.000000 -0.001594 0.000000
# 4 0.000000 0.000000 0.000000 0.035846 0.000000 0.008478
# 5 -0.008099 0.004054 -0.001594 0.000000 0.050362 0.000000
# 6 0.000000 0.000000 0.000000 0.008478 0.000000 0.037335
#
#
# Mechanical properties :
#
#
# Convention : Reuss Voigt Hill
#
# Bulk Modulus (GPa) = 44.00124 47.09463 45.54793
# Shear Modulus (GPa) = 24.27640 26.19098 25.23369
#
# Velocity S-wave (km/s) = 3.20306 3.32697 3.26560
# Velocity P-wave (km/s) = 5.68111 5.88738 5.78517
#
# Compressibility (1/GPa) = 0.02272663
#
# Stress axis : x y z
#
# Youngs Moduli (GPa) = 57.50762 73.58844 56.15930
#
# Poissons Ratio (x) = 0.40688 0.18763
# Poissons Ratio (y) = 0.31796 0.23356
# Poissons Ratio (z) = 0.19214 0.30604
#
# Static dielectric constant tensor:
#      x y z
#    x 2.057850 0.000000 -0.070120 
#    y 0.000000 1.974040 0.000000 
#    z -0.070120 0.000000 1.995510 
# 
# From -- ./inp_files/11490.got.cif
#   From: 2010.05.17/outbox.cif.g08.bks.cpg/sg4_6_cif.got.tgz:11490.got - 2010.06.03 18:43:04.
