data_PCOD9115450
_publ_section_title
;
Structure prediction by ZEFSAII (Michael W. Deem and Ramdas Pophale) SiO2 
 PCOD9115450
Probable space group: P 21
;
_chemical_formula_sum "Si O2"
_cell_formula_units_Z 14
_cell_length_a 6.602428
_cell_length_b 7.461721
_cell_length_c 16.839120
_cell_angle_alpha 90.000000
_cell_angle_beta 47.691477
_cell_angle_gamma 90.000000
_cell_volume 613.505471
_symmetry_space_group_name_H-M "P 21"
_symmetry_group_IT_number 4
_symmetry_cell_setting 'monoclinic'
loop_
_space_group_symop_operation_xyz
x,y,z
-x,1/2+y,-z
loop_
_atom_site_type_symbol
_atom_site_label
_atom_site_fract_x
_atom_site_fract_y
_atom_site_fract_z
Si Si1 0.570737 0.901430 0.065582
Si Si2 0.644934 0.113538 0.340654
Si Si3 0.988067 0.300935 0.725842
Si Si4 0.008288 0.138206 0.554659
Si Si5 0.582444 0.188103 0.184491
Si Si6 0.411697 0.516995 0.119538
Si Si7 0.994100 0.241262 0.392570
O O1 0.611457 0.690806 0.070192
O O2 0.245664 0.918619 0.169468
O O3 0.700980 0.035885 0.094848
O O4 0.615083 0.947797 0.962872
O O5 0.327349 0.133006 0.446680
O O6 0.724517 0.191155 0.233016
O O7 0.799971 0.217676 0.369423
O O8 0.736956 0.904250 0.322953
O O9 0.970419 0.280672 0.635058
O O10 0.886917 0.103279 0.780422
O O11 0.862846 0.172560 0.509282
O O12 0.927961 0.944975 0.608390
O O13 0.533669 0.366401 0.145253
O O14 0.273758 0.142883 0.294997
#
# Coordination Sequence:
#
# PCOD9115450 Si02
#       7
#     2   2   2   2   2   2   2
#     4  10  20  38  74  91 127 179 228 274 342 407
#     4  11  24  39  63  99 135 172 225 277 339 412
#     4  10  21  41  64  96 136 175 220 284 336 407
#     4  11  23  37  65  93 131 180 223 268 343 411
#     4  11  21  42  66  93 134 180 218 284 345 404
#     4  10  20  39  73  98 125 179 230 270 348 403
#     4  11  21  40  59  88 130 173 216 277 329 408
#
# _framework density 22.819683000000001
#
# number of rings (size 3 to 8) (size 9 to 14) (size 15 to 20)
#    0.857    0.571    4.286    1.714    2.000    1.143 
#    2.571    0.000   12.571    0.000    0.000    0.000 
#    0.000    0.000    0.000    0.000    0.000    0.000 
#
# Total GULP energy -78031.249044 kJ/mol
# GULP energy per Si atom -5573.660646 kJ/mol
# Density = 2.276774 g / cm^3
# Si number density = 22.819683 Si / 1000 Ang^3
#
#
#
# Elastic Constant Matrix: (Units=GPa)
#
#
# Indices 1 2 3 4 5 6 
#
# 1 67.9124 27.1991 50.0981 0.0000 41.3954 0.0000
# 2 27.1991 118.9931 62.5945 0.0000 26.7739 0.0000
# 3 50.0981 62.5945 143.9236 0.0000 56.0159 0.0000
# 4 0.0000 0.0000 0.0000 31.2472 0.0000 -6.4444
# 5 41.3954 26.7739 56.0159 0.0000 46.4228 0.0000
# 6 0.0000 0.0000 0.0000 -6.4444 0.0000 10.6138
#
#
#
# Elastic Compliance Matrix: (Units=1/GPa)
#
#
# Indices 1 2 3 4 5 6 
#
# 1 0.032380 -0.001155 0.000395 0.000000 -0.028684 0.000000
# 2 -0.001155 0.010966 -0.004349 0.000000 -0.000047 0.000000
# 3 0.000395 -0.004349 0.014825 0.000000 -0.015733 0.000000
# 4 0.000000 0.000000 0.000000 0.036584 0.000000 0.022213
# 5 -0.028684 -0.000047 -0.015733 0.000000 0.066131 0.000000
# 6 0.000000 0.000000 0.000000 0.022213 0.000000 0.107704
#
#
# Mechanical properties :
#
#
# Convention : Reuss Voigt Hill
#
# Bulk Modulus (GPa) = 20.85329 67.84584 44.34956
# Shear Modulus (GPa) = 16.96102 30.38590 23.67346
#
# Velocity S-wave (km/s) = 2.72924 3.65302 3.22439
# Velocity P-wave (km/s) = 4.36919 6.89845 5.77401
#
# Compressibility (1/GPa) = 0.04795406
#
# Stress axis : x y z
#
# Youngs Moduli (GPa) = 30.88313 91.18955 67.45137
#
# Poissons Ratio (x) = 0.10535 -0.02667
# Poissons Ratio (y) = 0.03568 0.29335
# Poissons Ratio (z) = -0.01221 0.39658
#
# Static dielectric constant tensor:
#      x y z
#    x 1.907310 0.000000 0.001110 
#    y 0.000000 1.923990 0.000000 
#    z 0.001110 0.000000 1.861490 
# 
# From -- ./inp_files/3494.got.cif
#   From: 2010.05.17/outbox.cif.g08.bks.cpg/sg4_2_cif.got.tgz:3494.got - 2010.06.03 18:43:04.
