data_PCOD9115660
_publ_section_title
;
Structure prediction by ZEFSAII (Michael W. Deem and Ramdas Pophale) SiO2 
 PCOD9115660
Probable space group: P 21
;
_chemical_formula_sum "Si O2"
_cell_formula_units_Z 14
_cell_length_a 4.830804
_cell_length_b 6.720862
_cell_length_c 18.903187
_cell_angle_alpha 90.000000
_cell_angle_beta 66.642464
_cell_angle_gamma 90.000000
_cell_volume 563.436727
_symmetry_space_group_name_H-M "P 21"
_symmetry_group_IT_number 4
_symmetry_cell_setting 'monoclinic'
loop_
_space_group_symop_operation_xyz
x,y,z
-x,1/2+y,-z
loop_
_atom_site_type_symbol
_atom_site_label
_atom_site_fract_x
_atom_site_fract_y
_atom_site_fract_z
Si Si1 0.795970 0.032640 0.554894
Si Si2 0.468598 0.653029 0.920581
Si Si3 0.649304 0.582048 0.602491
Si Si4 0.211298 0.248160 0.622369
Si Si5 0.830089 0.484509 0.236845
Si Si6 0.309270 0.195048 0.248636
Si Si7 0.949273 0.915334 0.931965
O O1 0.505393 0.146509 0.555604
O O2 0.067987 0.006563 0.472545
O O3 0.933131 0.156162 0.606968
O O4 0.668688 0.817942 0.588490
O O5 0.265409 0.514854 0.989330
O O6 0.545806 0.584361 0.833397
O O7 0.781596 0.712683 0.925179
O O8 0.271407 0.854685 0.930793
O O9 0.660209 0.972110 0.385801
O O10 0.700227 0.559173 0.681451
O O11 0.191618 0.157959 0.703602
O O12 0.516220 0.387756 0.244649
O O13 0.999630 0.296739 0.256017
O O14 0.001979 0.535346 0.146210
#
# Coordination Sequence:
#
# PCOD9115660 Si02
#       7
#     2   2   2   2   2   2   2
#     4  12  28  45  68 103 142 177 245 301 351 436
#     4  10  21  39  62  97 129 180 217 279 336 405
#     4  12  26  47  72 101 142 190 237 302 361 429
#     4  12  26  44  71 100 136 189 237 291 368 424
#     4  10  20  42  63  94 131 180 223 292 344 416
#     4  10  22  40  67  91 134 176 229 287 352 410
#     4  10  21  37  65  92 136 172 222 274 340 398
#
# _framework density 24.847511000000001
#
# number of rings (size 3 to 8) (size 9 to 14) (size 15 to 20)
#    0.000    1.143    4.286    0.857    2.000    4.571 
#    0.000    1.429    0.000    0.000    0.000    0.000 
#    0.000    0.000    0.000    0.000    0.000    0.000 
#
# Total GULP energy -78349.915495 kJ/mol
# GULP energy per Si atom -5596.422535 kJ/mol
# Density = 2.479096 g / cm^3
# Si number density = 24.847511 Si / 1000 Ang^3
#
#
#
# Elastic Constant Matrix: (Units=GPa)
#
#
# Indices 1 2 3 4 5 6 
#
# 1 99.4457 23.9537 8.2440 0.0000 0.2461 0.0000
# 2 23.9537 93.8054 44.1058 0.0000 6.6888 0.0000
# 3 8.2440 44.1058 175.5429 0.0000 4.0274 0.0000
# 4 0.0000 0.0000 0.0000 48.9793 0.0000 -9.7926
# 5 0.2461 6.6888 4.0274 0.0000 33.9104 0.0000
# 6 0.0000 0.0000 0.0000 -9.7926 0.0000 31.1542
#
#
#
# Elastic Compliance Matrix: (Units=1/GPa)
#
#
# Indices 1 2 3 4 5 6 
#
# 1 0.010729 -0.002870 0.000207 0.000000 0.000464 0.000000
# 2 -0.002870 0.012997 -0.003081 0.000000 -0.002177 0.000000
# 3 0.000207 -0.003081 0.006465 0.000000 -0.000162 0.000000
# 4 0.000000 0.000000 0.000000 0.021786 0.000000 0.006848
# 5 0.000464 -0.002177 -0.000162 0.000000 0.029935 0.000000
# 6 0.000000 0.000000 0.000000 0.006848 0.000000 0.034251
#
#
# Mechanical properties :
#
#
# Convention : Reuss Voigt Hill
#
# Bulk Modulus (GPa) = 53.46956 57.93344 55.70150
# Shear Modulus (GPa) = 37.34574 42.30815 39.82694
#
# Velocity S-wave (km/s) = 3.88106 4.13087 4.00791
# Velocity P-wave (km/s) = 6.45362 6.79105 6.62448
#
# Compressibility (1/GPa) = 0.01870223
#
# Stress axis : x y z
#
# Youngs Moduli (GPa) = 93.20765 76.94102 154.68649
#
# Poissons Ratio (x) = 0.22081 -0.03195
# Poissons Ratio (y) = 0.26749 0.47656
# Poissons Ratio (z) = -0.01925 0.23704
#
# Static dielectric constant tensor:
#      x y z
#    x 1.925100 0.000000 0.017820 
#    y 0.000000 1.990300 0.000000 
#    z 0.017820 0.000000 2.006000 
# 
# From -- ./inp_files/3434.got.cif
#   From: 2010.05.17/outbox.cif.g08.bks.cpg/sg4_2_cif.got.tgz:3434.got - 2010.06.03 18:43:04.
