data_PCOD9115449
_publ_section_title
;
Structure prediction by ZEFSAII (Michael W. Deem and Ramdas Pophale) SiO2 
 PCOD9115449
Probable space group: P 21
;
_chemical_formula_sum "Si O2"
_cell_formula_units_Z 16
_cell_length_a 7.054363
_cell_length_b 5.147441
_cell_length_c 19.204143
_cell_angle_alpha 90.000000
_cell_angle_beta 124.203963
_cell_angle_gamma 90.000000
_cell_volume 576.728637
_symmetry_space_group_name_H-M "P 21"
_symmetry_group_IT_number 4
_symmetry_cell_setting 'monoclinic'
loop_
_space_group_symop_operation_xyz
x,y,z
-x,1/2+y,-z
loop_
_atom_site_type_symbol
_atom_site_label
_atom_site_fract_x
_atom_site_fract_y
_atom_site_fract_z
Si Si1 0.287719 0.413590 0.939746
Si Si2 0.144160 0.113367 0.217017
Si Si3 0.928434 0.771160 0.584637
Si Si4 0.968384 0.064052 0.945093
Si Si5 0.615122 0.994901 0.333528
Si Si6 0.514192 0.613369 0.127112
Si Si7 0.029257 0.603589 0.277083
Si Si8 0.295255 0.976881 0.566912
O O1 0.149830 0.145386 0.924732
O O2 0.436848 0.391341 0.900511
O O3 0.070665 0.594381 0.878917
O O4 0.433279 0.466375 0.038750
O O5 0.394464 0.042312 0.240110
O O6 0.137836 0.396768 0.247114
O O7 0.094942 0.891478 0.265645
O O8 0.144525 0.585642 0.650679
O O9 0.886102 0.994530 0.631558
O O10 0.724739 0.592099 0.514289
O O11 0.034433 0.917288 0.538984
O O12 0.702505 0.063869 0.868779
O O13 0.976633 0.312368 0.998871
O O14 0.584361 0.205201 0.390387
O O15 0.620295 0.706666 0.364906
O O16 0.753613 0.561769 0.214462
#
# Coordination Sequence:
#
# PCOD9115449 Si02
#       8
#     2   2   2   2   2   2   2   2
#     4  10  21  41  68  88 139 179 228 279 327 406
#     4  11  25  44  60  98 135 181 218 274 347 397
#     4  10  22  41  70  99 126 171 221 280 322 413
#     4  10  22  39  63  98 123 163 230 283 324 393
#     4  10  21  40  66  95 126 168 218 265 332 402
#     4  10  21  42  64  97 128 187 223 275 345 384
#     4  11  26  41  65  96 139 168 227 281 333 400
#     4  10  20  38  72  95 124 167 225 259 336 409
#
# _framework density 27.742685999999999
#
# number of rings (size 3 to 8) (size 9 to 14) (size 15 to 20)
#    0.750    1.000    1.250    2.250    1.750    7.000 
#   13.500    2.500    0.000    0.000    0.000    0.000 
#    0.000    0.000    0.000    0.000    0.000    0.000 
#
# Total GULP energy -89499.262583 kJ/mol
# GULP energy per Si atom -5593.703911 kJ/mol
# Density = 2.767954 g / cm^3
# Si number density = 27.742686 Si / 1000 Ang^3
#
#
#
# Elastic Constant Matrix: (Units=GPa)
#
#
# Indices 1 2 3 4 5 6 
#
# 1 81.1111 5.2601 15.6730 0.0000 14.6574 0.0000
# 2 5.2601 131.4728 27.2338 0.0000 -1.8883 0.0000
# 3 15.6730 27.2338 77.6780 0.0000 -0.2458 0.0000
# 4 0.0000 0.0000 0.0000 57.6299 0.0000 -0.4065
# 5 14.6574 -1.8883 -0.2458 0.0000 47.0893 0.0000
# 6 0.0000 0.0000 0.0000 -0.4065 0.0000 29.9511
#
#
#
# Elastic Compliance Matrix: (Units=1/GPa)
#
#
# Indices 1 2 3 4 5 6 
#
# 1 0.013632 -0.000037 -0.002751 0.000000 -0.004259 0.000000
# 2 -0.000037 0.008207 -0.002869 0.000000 0.000326 0.000000
# 3 -0.002751 -0.002869 0.014437 0.000000 0.000817 0.000000
# 4 0.000000 0.000000 0.000000 0.017354 0.000000 0.000236
# 5 -0.004259 0.000326 0.000817 0.000000 0.022579 0.000000
# 6 0.000000 0.000000 0.000000 0.000236 0.000000 0.033391
#
#
# Mechanical properties :
#
#
# Convention : Reuss Voigt Hill
#
# Bulk Modulus (GPa) = 40.05971 42.95510 41.50741
# Shear Modulus (GPa) = 38.68940 43.07374 40.88157
#
# Velocity S-wave (km/s) = 3.73846 3.94460 3.84291
# Velocity P-wave (km/s) = 5.75377 6.02192 5.88937
#
# Compressibility (1/GPa) = 0.02496274
#
# Stress axis : x y z
#
# Youngs Moduli (GPa) = 73.35450 121.85420 69.26576
#
# Poissons Ratio (x) = 0.00447 0.19057
# Poissons Ratio (y) = 0.00269 0.19871
# Poissons Ratio (z) = 0.20181 0.34957
#
# Static dielectric constant tensor:
#      x y z
#    x 2.217550 0.000000 0.041660 
#    y 0.000000 2.186940 0.000000 
#    z 0.041660 0.000000 2.218380 
# 
# From -- ./inp_files/15594.got.cif
#   From: 2010.05.17/outbox.cif.g08.bks.cpg/sg4_8_cif.got.tgz:15594.got - 2010.06.03 18:43:04.
