data_PCOD9115315
_publ_section_title
;
Structure prediction by ZEFSAII (Michael W. Deem and Ramdas Pophale) SiO2 
 PCOD9115315
Probable space group: P 21
;
_chemical_formula_sum "Si O2"
_cell_formula_units_Z 16
_cell_length_a 12.666515
_cell_length_b 8.860688
_cell_length_c 11.003357
_cell_angle_alpha 90.000000
_cell_angle_beta 145.797459
_cell_angle_gamma 90.000000
_cell_volume 694.190829
_symmetry_space_group_name_H-M "P 21"
_symmetry_group_IT_number 4
_symmetry_cell_setting 'monoclinic'
loop_
_space_group_symop_operation_xyz
x,y,z
-x,1/2+y,-z
loop_
_atom_site_type_symbol
_atom_site_label
_atom_site_fract_x
_atom_site_fract_y
_atom_site_fract_z
Si Si1 0.842364 0.188670 0.349482
Si Si2 0.401107 0.169116 0.955489
Si Si3 0.765960 0.957877 0.076841
Si Si4 0.367799 0.063562 0.646332
Si Si5 0.109378 0.287602 0.256421
Si Si6 0.903697 0.479640 0.262010
Si Si7 0.115839 0.844611 0.262835
Si Si8 0.067278 0.548001 0.072184
O O1 0.895747 0.355710 0.361245
O O2 0.866540 0.084795 0.252976
O O3 0.624188 0.175682 0.174510
O O4 0.971170 0.119174 0.575038
O O5 0.321593 0.332786 0.915227
O O6 0.347251 0.114257 0.767927
O O7 0.304433 0.046657 0.951674
O O8 0.912291 0.879650 0.127296
O O9 0.588867 0.033566 0.841059
O O10 0.273825 0.197034 0.479419
O O11 0.263223 0.911370 0.500101
O O12 0.186496 0.400256 0.224790
O O13 0.997480 0.396960 0.239607
O O14 0.958339 0.166460 0.062777
O O15 0.113424 0.671286 0.220519
O O16 0.121936 0.950775 0.146386
#
# Coordination Sequence:
#
# PCOD9115315 Si02
#       8
#     2   2   2   2   2   2   2   2
#     4  11  23  38  58  91 128 160 200 245 290 359
#     4  11  24  39  58  92 132 163 197 242 290 362
#     4  11  22  38  61  88 123 164 200 242 300 361
#     4  10  22  39  59  89 125 160 198 246 299 360
#     4  10  20  37  62  88 118 157 203 252 304 357
#     4  12  23  38  63  90 122 168 204 238 302 365
#     4  10  20  41  64  87 121 159 204 254 307 358
#     4   9  20  38  63  89 115 153 204 263 306 344
#
# _framework density 23.048418000000002
#
# number of rings (size 3 to 8) (size 9 to 14) (size 15 to 20)
#    0.000    1.500    0.000    6.750    0.000    4.000 
#    0.000    3.750    0.000   10.500    0.000    0.000 
#    0.000    0.000    0.000    0.000    0.000    0.000 
#
# Total GULP energy -89260.614573 kJ/mol
# GULP energy per Si atom -5578.788411 kJ/mol
# Density = 2.299596 g / cm^3
# Si number density = 23.048418 Si / 1000 Ang^3
#
#
#
# Elastic Constant Matrix: (Units=GPa)
#
#
# Indices 1 2 3 4 5 6 
#
# 1 27.8242 18.9980 38.5472 0.0000 -1.4722 0.0000
# 2 18.9980 133.7424 32.3292 0.0000 -7.4224 0.0000
# 3 38.5472 32.3292 100.9111 0.0000 -3.1460 0.0000
# 4 0.0000 0.0000 0.0000 41.7683 0.0000 -9.5484
# 5 -1.4722 -7.4224 -3.1460 0.0000 20.3561 0.0000
# 6 0.0000 0.0000 0.0000 -9.5484 0.0000 37.9871
#
#
#
# Elastic Compliance Matrix: (Units=1/GPa)
#
#
# Indices 1 2 3 4 5 6 
#
# 1 0.078487 -0.004245 -0.028631 0.000000 -0.000296 0.000000
# 2 -0.004245 0.008470 -0.001010 0.000000 0.002625 0.000000
# 3 -0.028631 -0.001010 0.021196 0.000000 0.000837 0.000000
# 4 0.000000 0.000000 0.000000 0.025401 0.000000 0.006385
# 5 -0.000296 0.002625 0.000837 0.000000 0.050190 0.000000
# 6 0.000000 0.000000 0.000000 0.006385 0.000000 0.027930
#
#
# Mechanical properties :
#
#
# Convention : Reuss Voigt Hill
#
# Bulk Modulus (GPa) = 24.76361 49.13627 36.94994
# Shear Modulus (GPa) = 17.07029 31.52918 24.29974
#
# Velocity S-wave (km/s) = 2.72440 3.70260 3.25051
# Velocity P-wave (km/s) = 4.54576 6.29635 5.49126
#
# Compressibility (1/GPa) = 0.04038183
#
# Stress axis : x y z
#
# Youngs Moduli (GPa) = 12.74094 118.06492 47.17826
#
# Poissons Ratio (x) = 0.50114 1.35075
# Poissons Ratio (y) = 0.05408 0.04766
# Poissons Ratio (z) = 0.36478 0.11928
#
# Static dielectric constant tensor:
#      x y z
#    x 2.014780 0.000000 -0.084690 
#    y 0.000000 1.874130 0.000000 
#    z -0.084690 0.000000 1.874910 
# 
# From -- ./inp_files/12589.got.cif
#   From: 2010.05.17/outbox.cif.g08.bks.cpg/sg4_7_cif.got.tgz:12589.got - 2010.06.03 18:43:04.
