data_PCOD9115425
_publ_section_title
;
Structure prediction by ZEFSAII (Michael W. Deem and Ramdas Pophale) SiO2 
 PCOD9115425
Probable space group: P 21
;
_chemical_formula_sum "Si O2"
_cell_formula_units_Z 16
_cell_length_a 10.774677
_cell_length_b 12.404417
_cell_length_c 11.001041
_cell_angle_alpha 90.000000
_cell_angle_beta 26.167369
_cell_angle_gamma 90.000000
_cell_volume 648.407225
_symmetry_space_group_name_H-M "P 21"
_symmetry_group_IT_number 4
_symmetry_cell_setting 'monoclinic'
loop_
_space_group_symop_operation_xyz
x,y,z
-x,1/2+y,-z
loop_
_atom_site_type_symbol
_atom_site_label
_atom_site_fract_x
_atom_site_fract_y
_atom_site_fract_z
Si Si1 0.191556 0.904730 0.877093
Si Si2 0.303978 0.664555 0.767699
Si Si3 0.486246 0.738869 0.153905
Si Si4 0.865316 0.535496 0.300000
Si Si5 0.631924 0.782873 0.775487
Si Si6 0.247036 0.459029 0.531504
Si Si7 0.922293 0.185141 0.300899
Si Si8 0.161640 0.635901 0.247825
O O1 0.344922 0.790474 0.754741
O O2 0.434333 0.986185 0.707337
O O3 0.124633 0.930878 0.795241
O O4 0.926033 0.912653 0.200122
O O5 0.551497 0.583185 0.589119
O O6 0.240065 0.665683 0.680654
O O7 0.021044 0.623666 0.079329
O O8 0.238443 0.763366 0.464474
O O9 0.385117 0.634047 0.162373
O O10 0.566065 0.817609 0.972518
O O11 0.760253 0.720591 0.991918
O O12 0.036284 0.540189 0.276487
O O13 0.718105 0.877875 0.610871
O O14 0.891576 0.699613 0.537544
O O15 0.344148 0.716538 0.999920
O O16 0.080596 0.565428 0.639512
#
# Coordination Sequence:
#
# PCOD9115425 Si02
#       8
#     2   2   2   2   2   2   2   2
#     4  12  24  41  63 102 130 172 223 268 341 406
#     4  12  25  40  67  98 133 178 204 282 343 380
#     4  10  22  40  64  90 123 174 215 254 326 389
#     4  12  22  42  64  99 133 163 225 268 333 403
#     4  10  20  39  63  95 116 169 222 268 309 372
#     4  12  23  40  67  99 128 166 230 277 310 400
#     4  12  22  42  64  94 136 168 211 267 336 389
#     4  10  20  38  66  91 123 172 208 268 324 371
#
# _framework density 24.675851999999999
#
# number of rings (size 3 to 8) (size 9 to 14) (size 15 to 20)
#    0.750    0.000    3.750    6.000    0.000    0.000 
#    0.000    1.250    2.750    0.000    0.000    0.000 
#    0.000    0.000    0.000    0.000    0.000    0.000 
#
# Total GULP energy -89302.832136 kJ/mol
# GULP energy per Si atom -5581.427009 kJ/mol
# Density = 2.461969 g / cm^3
# Si number density = 24.675852 Si / 1000 Ang^3
#
#
#
# Elastic Constant Matrix: (Units=GPa)
#
#
# Indices 1 2 3 4 5 6 
#
# 1 61.2292 -7.2088 20.3675 0.0000 -6.1635 0.0000
# 2 -7.2088 25.6655 -6.9797 0.0000 -0.0179 0.0000
# 3 20.3675 -6.9797 113.0058 0.0000 -6.7106 0.0000
# 4 0.0000 0.0000 0.0000 25.3134 0.0000 5.8756
# 5 -6.1635 -0.0179 -6.7106 0.0000 36.6805 0.0000
# 6 0.0000 0.0000 0.0000 5.8756 0.0000 26.4304
#
#
#
# Elastic Compliance Matrix: (Units=1/GPa)
#
#
# Indices 1 2 3 4 5 6 
#
# 1 0.018034 0.004296 -0.002836 0.000000 0.002514 0.000000
# 2 0.004296 0.040660 0.001801 0.000000 0.001071 0.000000
# 3 -0.002836 0.001801 0.009547 0.000000 0.001271 0.000000
# 4 0.000000 0.000000 0.000000 0.041654 0.000000 -0.009260
# 5 0.002514 0.001071 0.001271 0.000000 0.027918 0.000000
# 6 0.000000 0.000000 0.000000 -0.009260 0.000000 0.039894
#
#
# Mechanical properties :
#
#
# Convention : Reuss Voigt Hill
#
# Bulk Modulus (GPa) = 13.37568 23.58427 18.47998
# Shear Modulus (GPa) = 25.49643 30.59963 28.04803
#
# Velocity S-wave (km/s) = 3.21791 3.52527 3.37509
# Velocity P-wave (km/s) = 4.38622 5.11356 4.76379
#
# Compressibility (1/GPa) = 0.07476254
#
# Stress axis : x y z
#
# Youngs Moduli (GPa) = 55.45030 24.59427 104.74607
#
# Poissons Ratio (x) = -0.10565 0.29704
# Poissons Ratio (y) = -0.23821 -0.18861
# Poissons Ratio (z) = 0.15724 -0.04429
#
# Static dielectric constant tensor:
#      x y z
#    x 2.076290 0.000000 0.038620 
#    y 0.000000 2.046030 0.000000 
#    z 0.038620 0.000000 1.902570 
# 
# From -- ./inp_files/12334.got.cif
#   From: 2010.05.17/outbox.cif.g08.bks.cpg/sg4_7_cif.got.tgz:12334.got - 2010.06.03 18:43:04.
