data_PCOD9115851
_publ_section_title
;
Structure prediction by ZEFSAII (Michael W. Deem and Ramdas Pophale) SiO2 
 PCOD9115851
Probable space group: P 21
;
_chemical_formula_sum "Si O2"
_cell_formula_units_Z 16
_cell_length_a 11.840926
_cell_length_b 5.103148
_cell_length_c 15.893899
_cell_angle_alpha 90.000000
_cell_angle_beta 141.147226
_cell_angle_gamma 90.000000
_cell_volume 602.482404
_symmetry_space_group_name_H-M "P 21"
_symmetry_group_IT_number 4
_symmetry_cell_setting 'monoclinic'
loop_
_space_group_symop_operation_xyz
x,y,z
-x,1/2+y,-z
loop_
_atom_site_type_symbol
_atom_site_label
_atom_site_fract_x
_atom_site_fract_y
_atom_site_fract_z
Si Si1 0.718779 0.594300 0.880686
Si Si2 0.988792 0.423193 0.890802
Si Si3 0.719121 0.043799 0.668117
Si Si4 0.062155 0.577692 0.760543
Si Si5 0.312426 0.987899 0.811462
Si Si6 0.372598 0.191836 0.010562
Si Si7 0.498261 0.544878 0.606187
Si Si8 0.959701 0.863296 0.423125
O O1 0.867491 0.492217 0.901078
O O2 0.530742 0.558492 0.723886
O O3 0.700453 0.482283 0.963979
O O4 0.807875 0.877894 0.957114
O O5 0.910001 0.144951 0.811829
O O6 0.961717 0.607767 0.792006
O O7 0.591625 0.281586 0.626874
O O8 0.692516 0.046472 0.551630
O O9 0.620978 0.790276 0.647979
O O10 0.155947 0.822575 0.768258
O O11 0.212547 0.374610 0.882554
O O12 0.960124 0.445129 0.621837
O O13 0.437292 0.064690 0.962426
O O14 0.228410 0.225334 0.711525
O O15 0.456424 0.819975 0.844430
O O16 0.945913 0.127967 0.470317
#
# Coordination Sequence:
#
# PCOD9115851 Si02
#       8
#     2   2   2   2   2   2   2   2
#     4  10  21  37  60  98 133 172 232 277 332 411
#     4  10  21  37  62  95 137 177 221 276 340 410
#     4   9  18  36  59  80 118 171 204 259 322 387
#     4  10  22  41  66 101 136 184 224 288 357 418
#     4  11  21  41  71  94 143 182 230 294 356 415
#     4  10  22  39  65 100 133 182 233 287 352 411
#     4   9  18  36  58  81 120 160 215 259 315 384
#     4  11  23  45  71 101 142 178 237 294 346 426
#
# _framework density 26.556791
#
# number of rings (size 3 to 8) (size 9 to 14) (size 15 to 20)
#    0.000    2.000    2.500    0.750    1.750    0.000 
#   11.250    0.000    5.500    0.000    0.000    0.000 
#    0.000    0.000    0.000    0.000    0.000    0.000 
#
# Total GULP energy -89194.082487 kJ/mol
# GULP energy per Si atom -5574.630155 kJ/mol
# Density = 2.649635 g / cm^3
# Si number density = 26.556791 Si / 1000 Ang^3
#
#
#
# Elastic Constant Matrix: (Units=GPa)
#
#
# Indices 1 2 3 4 5 6 
#
# 1 37.2316 -0.7825 6.4152 0.0000 -6.4782 0.0000
# 2 -0.7825 113.2102 -2.5787 0.0000 -3.6874 0.0000
# 3 6.4152 -2.5787 131.4431 0.0000 -29.2518 0.0000
# 4 0.0000 0.0000 0.0000 130.5612 0.0000 84.2338
# 5 -6.4782 -3.6874 -29.2518 0.0000 26.8046 0.0000
# 6 0.0000 0.0000 0.0000 84.2338 0.0000 114.2338
#
#
#
# Elastic Compliance Matrix: (Units=1/GPa)
#
#
# Indices 1 2 3 4 5 6 
#
# 1 0.028062 0.000429 0.000213 0.000000 0.007074 0.000000
# 2 0.000429 0.008914 0.000594 0.000000 0.001978 0.000000
# 3 0.000213 0.000594 0.010089 0.000000 0.011143 0.000000
# 4 0.000000 0.000000 0.000000 0.014609 0.000000 -0.010773
# 5 0.007074 0.001978 0.011143 0.000000 0.051449 0.000000
# 6 0.000000 0.000000 0.000000 -0.010773 0.000000 0.016698
#
#
# Mechanical properties :
#
#
# Convention : Reuss Voigt Hill
#
# Bulk Modulus (GPa) = 20.18658 31.99923 26.09291
# Shear Modulus (GPa) = 34.75569 72.90865 53.83217
#
# Velocity S-wave (km/s) = 3.62156 5.24533 4.50717
# Velocity P-wave (km/s) = 5.01053 6.98285 6.07723
#
# Compressibility (1/GPa) = 0.04953785
#
# Stress axis : x y z
#
# Youngs Moduli (GPa) = 35.63542 112.18223 99.11799
#
# Poissons Ratio (x) = -0.04815 -0.02111
# Poissons Ratio (y) = -0.01529 -0.05890
# Poissons Ratio (z) = -0.00759 -0.06666
#
# Static dielectric constant tensor:
#      x y z
#    x 2.175480 0.000000 0.021600 
#    y 0.000000 2.196310 0.000000 
#    z 0.021600 0.000000 2.047230 
# 
# From -- ./inp_files/13854.got.cif
#   From: 2010.05.17/outbox.cif.g08.bks.cpg/sg4_7_cif.got.tgz:13854.got - 2010.06.03 18:43:04.
