data_PCOD9115788
_publ_section_title
;
Structure prediction by ZEFSAII (Michael W. Deem and Ramdas Pophale) SiO2 
 PCOD9115788
Probable space group: P 21
;
_chemical_formula_sum "Si O2"
_cell_formula_units_Z 16
_cell_length_a 14.167812
_cell_length_b 5.358329
_cell_length_c 9.058954
_cell_angle_alpha 90.000000
_cell_angle_beta 82.688629
_cell_angle_gamma 90.000000
_cell_volume 682.126030
_symmetry_space_group_name_H-M "P 21"
_symmetry_group_IT_number 4
_symmetry_cell_setting 'monoclinic'
loop_
_space_group_symop_operation_xyz
x,y,z
-x,1/2+y,-z
loop_
_atom_site_type_symbol
_atom_site_label
_atom_site_fract_x
_atom_site_fract_y
_atom_site_fract_z
Si Si1 0.519109 0.296680 0.339860
Si Si2 0.099764 0.514003 0.875530
Si Si3 0.641266 0.445297 0.749003
Si Si4 0.653057 0.052189 0.514213
Si Si5 0.848505 0.544786 0.646648
Si Si6 0.118100 0.013204 0.010204
Si Si7 0.450892 0.047279 0.963088
Si Si8 0.128914 0.526317 0.531828
O O1 0.616436 0.253744 0.405462
O O2 0.437417 0.372808 0.471914
O O3 0.458763 0.073343 0.274613
O O4 0.546239 0.496011 0.209895
O O5 0.082510 0.524006 0.702761
O O6 0.997372 0.511186 0.976761
O O7 0.150911 0.261772 0.918833
O O8 0.151577 0.762221 0.922701
O O9 0.649653 0.169519 0.680119
O O10 0.733260 0.576730 0.660536
O O11 0.642225 0.469104 0.925362
O O12 0.759208 0.985095 0.455750
O O13 0.863746 0.518227 0.818459
O O14 0.897143 0.788644 0.565176
O O15 0.876614 0.290434 0.554166
O O16 0.524887 0.833153 0.006020
#
# Coordination Sequence:
#
# PCOD9115788 Si02
#       8
#     2   2   2   2   2   2   2   2
#     4  11  20  36  55  79 110 154 204 245 298 354
#     4  10  22  43  67  94 131 160 206 253 305 374
#     4  10  21  37  54  79 117 153 196 254 296 353
#     4  11  21  36  57  81 116 158 204 250 307 353
#     4  11  23  39  63  92 128 164 206 252 316 370
#     4  10  22  42  68  95 125 170 201 248 311 374
#     4  10  21  35  55  77 105 144 195 245 294 346
#     4  11  24  40  61  95 128 163 206 263 309 368
#
# _framework density 23.456074999999998
#
# number of rings (size 3 to 8) (size 9 to 14) (size 15 to 20)
#    0.000    1.500    3.750    1.500    0.000    2.000 
#    0.000    6.250    0.000    0.000    0.000    0.000 
#    0.000    0.000    0.000    0.000    0.000    0.000 
#
# Total GULP energy -89228.149507 kJ/mol
# GULP energy per Si atom -5576.759344 kJ/mol
# Density = 2.340269 g / cm^3
# Si number density = 23.456075 Si / 1000 Ang^3
#
#
#
# Elastic Constant Matrix: (Units=GPa)
#
#
# Indices 1 2 3 4 5 6 
#
# 1 41.4515 -0.8987 -13.1738 0.0000 -3.9872 0.0000
# 2 -0.8987 133.2809 50.4999 0.0000 11.6365 0.0000
# 3 -13.1738 50.4999 95.2719 0.0000 4.8986 0.0000
# 4 0.0000 0.0000 0.0000 29.9399 0.0000 11.4456
# 5 -3.9872 11.6365 4.8986 0.0000 37.7677 0.0000
# 6 0.0000 0.0000 0.0000 11.4456 0.0000 -3.8369
#
#
#
# Elastic Compliance Matrix: (Units=1/GPa)
#
#
# Indices 1 2 3 4 5 6 
#
# 1 0.025718 -0.001696 0.004318 0.000000 0.002678 0.000000
# 2 -0.001696 0.009696 -0.005246 0.000000 -0.002486 0.000000
# 3 0.004318 -0.005246 0.013860 0.000000 0.000275 0.000000
# 4 0.000000 0.000000 0.000000 0.015605 0.000000 0.046550
# 5 0.002678 -0.002486 0.000275 0.000000 0.027491 0.000000
# 6 0.000000 0.000000 0.000000 0.046550 0.000000 -0.121768
#
#
# Mechanical properties :
#
#
# Convention : Reuss Voigt Hill
#
# Bulk Modulus (GPa) = 22.71498 38.09546 30.40522
# Shear Modulus (GPa) = -527.81185 28.34593 -249.73296
#
# Velocity S-wave (km/s) = -15.01699 3.48007 -10.32954
# Velocity P-wave (km/s) = 17.05798 5.69424 11.36993
#
# Compressibility (1/GPa) = 0.04402381
#
# Stress axis : x y z
#
# Youngs Moduli (GPa) = 38.88395 103.13067 72.14951
#
# Poissons Ratio (x) = 0.17494 -0.31151
# Poissons Ratio (y) = 0.06596 0.37853
# Poissons Ratio (z) = -0.16788 0.54107
#
# Static dielectric constant tensor:
#      x y z
#    x 1.928160 0.000000 0.016170 
#    y 0.000000 2.035300 0.000000 
#    z 0.016170 0.000000 1.932680 
# 
# From -- ./inp_files/9031.got.cif
#   From: 2010.05.17/outbox.cif.g08.bks.cpg/sg4_5_cif.got.tgz:9031.got - 2010.06.03 18:43:04.
