data_PCOD9115689
_publ_section_title
;
Structure prediction by ZEFSAII (Michael W. Deem and Ramdas Pophale) SiO2 
 PCOD9115689
Probable space group: P 21
;
_chemical_formula_sum "Si O2"
_cell_formula_units_Z 14
_cell_length_a 9.353389
_cell_length_b 12.712519
_cell_length_c 5.474420
_cell_angle_alpha 90.000000
_cell_angle_beta 101.350806
_cell_angle_gamma 90.000000
_cell_volume 638.204670
_symmetry_space_group_name_H-M "P 21"
_symmetry_group_IT_number 4
_symmetry_cell_setting 'monoclinic'
loop_
_space_group_symop_operation_xyz
x,y,z
-x,1/2+y,-z
loop_
_atom_site_type_symbol
_atom_site_label
_atom_site_fract_x
_atom_site_fract_y
_atom_site_fract_z
Si Si1 0.290116 0.959030 0.036902
Si Si2 0.814759 0.361154 0.515693
Si Si3 0.345173 0.349237 0.159475
Si Si4 0.381757 0.492468 0.789612
Si Si5 0.854387 0.832271 0.522695
Si Si6 0.333863 0.169947 0.772949
Si Si7 0.426640 0.702316 0.518613
O O1 0.199452 0.938122 0.253455
O O2 0.456010 0.945359 0.184721
O O3 0.254611 0.894230 0.774137
O O4 0.285501 0.077400 0.933140
O O5 0.727467 0.257998 0.580351
O O6 0.983641 0.347194 0.510817
O O7 0.181897 0.335476 0.203187
O O8 0.466075 0.300689 0.378405
O O9 0.357211 0.467085 0.067348
O O10 0.371256 0.270715 0.946216
O O11 0.253742 0.426717 0.610235
O O12 0.394354 0.612620 0.709477
O O13 0.798164 0.716412 0.429057
O O14 0.473817 0.146182 0.653212
#
# Coordination Sequence:
#
# PCOD9115689 Si02
#       7
#     2   2   2   2   2   2   2
#     4  12  25  46  74 107 138 190 252 298 361 427
#     4  12  28  46  69 108 153 189 235 306 364 446
#     4  10  20  42  68  98 134 188 235 295 357 425
#     4  11  23  42  73 101 137 192 242 303 354 436
#     4  10  26  45  66 103 151 191 228 298 377 438
#     4  10  23  42  74  98 137 186 244 303 357 426
#     4  11  23  43  70 107 138 184 256 299 364 418
#
# _framework density 21.936537000000001
#
# number of rings (size 3 to 8) (size 9 to 14) (size 15 to 20)
#    0.000    1.143    2.857    3.429    8.000    1.143 
#    0.000    1.429    0.000    0.000    0.000    0.000 
#    0.000    0.000    0.000    0.000    0.000    0.000 
#
# Total GULP energy -77958.020753 kJ/mol
# GULP energy per Si atom -5568.430054 kJ/mol
# Density = 2.188661 g / cm^3
# Si number density = 21.936537 Si / 1000 Ang^3
#
#
#
# Elastic Constant Matrix: (Units=GPa)
#
#
# Indices 1 2 3 4 5 6 
#
# 1 145.8302 54.9819 24.2424 0.0000 -26.7513 0.0000
# 2 54.9819 111.8764 55.7362 0.0000 -16.0753 0.0000
# 3 24.2424 55.7362 75.1554 0.0000 -11.8779 0.0000
# 4 0.0000 0.0000 0.0000 52.4063 0.0000 -2.3061
# 5 -26.7513 -16.0753 -11.8779 0.0000 27.4061 0.0000
# 6 0.0000 0.0000 0.0000 -2.3061 0.0000 15.9479
#
#
#
# Elastic Compliance Matrix: (Units=1/GPa)
#
#
# Indices 1 2 3 4 5 6 
#
# 1 0.009628 -0.004286 0.001246 0.000000 0.007424 0.000000
# 2 -0.004286 0.016512 -0.010728 0.000000 0.000852 0.000000
# 3 0.001246 -0.010728 0.021533 0.000000 0.004256 0.000000
# 4 0.000000 0.000000 0.000000 0.019204 0.000000 0.002777
# 5 0.007424 0.000852 0.004256 0.000000 0.046079 0.000000
# 6 0.000000 0.000000 0.000000 0.002777 0.000000 0.063106
#
#
# Mechanical properties :
#
#
# Convention : Reuss Voigt Hill
#
# Bulk Modulus (GPa) = 49.66101 66.97588 58.31845
# Shear Modulus (GPa) = 23.77451 32.34549 28.06000
#
# Velocity S-wave (km/s) = 3.29566 3.84409 3.58039
# Velocity P-wave (km/s) = 6.09668 7.09230 6.61325
#
# Compressibility (1/GPa) = 0.02013652
#
# Stress axis : x y z
#
# Youngs Moduli (GPa) = 103.86565 60.56251 46.44098
#
# Poissons Ratio (x) = 0.25955 -0.05787
# Poissons Ratio (y) = 0.44513 0.49823
# Poissons Ratio (z) = -0.12942 0.64973
#
# Static dielectric constant tensor:
#      x y z
#    x 1.798110 0.000000 0.026880 
#    y 0.000000 1.847310 0.000000 
#    z 0.026880 0.000000 1.993400 
# 
# From -- ./inp_files/1321.got.cif
#   From: 2010.05.17/outbox.cif.g08.bks.cpg/sg4_1_cif.got.tgz:1321.got - 2010.06.03 18:43:04.
