data_PCOD9115896
_publ_section_title
;
Structure prediction by ZEFSAII (Michael W. Deem and Ramdas Pophale) SiO2 
 PCOD9115896
Probable space group: P 21
;
_chemical_formula_sum "Si O2"
_cell_formula_units_Z 16
_cell_length_a 26.788535
_cell_length_b 5.228632
_cell_length_c 9.091017
_cell_angle_alpha 90.000000
_cell_angle_beta 28.504187
_cell_angle_gamma 90.000000
_cell_volume 607.674285
_symmetry_space_group_name_H-M "P 21"
_symmetry_group_IT_number 4
_symmetry_cell_setting 'monoclinic'
loop_
_space_group_symop_operation_xyz
x,y,z
-x,1/2+y,-z
loop_
_atom_site_type_symbol
_atom_site_label
_atom_site_fract_x
_atom_site_fract_y
_atom_site_fract_z
Si Si1 0.134451 0.740400 0.149290
Si Si2 0.146394 0.077582 0.670149
Si Si3 0.228623 0.070783 0.156297
Si Si4 0.271368 0.564446 0.371715
Si Si5 0.520068 0.168633 0.000003
Si Si6 0.400396 0.739835 0.792959
Si Si7 0.392808 0.382890 0.579706
Si Si8 0.086656 0.230563 0.112868
O O1 0.194978 0.833823 0.139880
O O2 0.144142 0.489681 0.019984
O O3 0.017882 0.724028 0.518173
O O4 0.148931 0.980004 0.003140
O O5 0.232206 0.282069 0.509469
O O6 0.141477 0.133534 0.506283
O O7 0.180901 0.781415 0.596912
O O8 0.058159 0.170260 0.014794
O O9 0.328057 0.985044 0.996440
O O10 0.278844 0.277537 0.916143
O O11 0.365004 0.670128 0.228025
O O12 0.327960 0.539605 0.066791
O O13 0.523857 0.383120 0.863035
O O14 0.432233 0.345245 0.314364
O O15 0.405515 0.664523 0.611216
O O16 0.513057 0.746423 0.572871
#
# Coordination Sequence:
#
# PCOD9115896 Si02
#       8
#     2   2   2   2   2   2   2   2
#     4  10  24  45  70  98 132 175 225 270 334 422
#     4  11  22  41  67  96 129 168 219 279 338 396
#     4  11  24  39  67 103 127 168 234 282 317 400
#     4  10  22  39  62  88 127 168 215 268 330 392
#     4  11  26  41  56  88 130 174 224 271 320 391
#     4  10  21  38  60  89 123 172 215 264 330 382
#     4  11  22  38  65  84 130 178 214 268 338 385
#     4  10  23  47  69  94 136 181 210 270 359 410
#
# _framework density 26.329893999999999
#
# number of rings (size 3 to 8) (size 9 to 14) (size 15 to 20)
#    0.000    1.500    2.500    1.500    3.500    3.000 
#    0.000    6.250    0.000    0.000    0.000    0.000 
#    0.000    0.000    0.000    0.000    0.000    0.000 
#
# Total GULP energy -89113.337590 kJ/mol
# GULP energy per Si atom -5569.583599 kJ/mol
# Density = 2.626997 g / cm^3
# Si number density = 26.329894 Si / 1000 Ang^3
#
#
#
# Elastic Constant Matrix: (Units=GPa)
#
#
# Indices 1 2 3 4 5 6 
#
# 1 162.4378 85.5184 75.9451 0.0000 96.4548 0.0000
# 2 85.5184 197.5945 68.6933 0.0000 52.1128 0.0000
# 3 75.9451 68.6933 76.7598 0.0000 75.4393 0.0000
# 4 0.0000 0.0000 0.0000 29.5306 0.0000 5.3039
# 5 96.4548 52.1128 75.4393 0.0000 91.7749 0.0000
# 6 0.0000 0.0000 0.0000 5.3039 0.0000 30.5188
#
#
#
# Elastic Compliance Matrix: (Units=1/GPa)
#
#
# Indices 1 2 3 4 5 6 
#
# 1 0.020249 -0.006042 0.015181 0.000000 -0.030329 0.000000
# 2 -0.006042 0.009955 -0.018821 0.000000 0.016169 0.000000
# 3 0.015181 -0.018821 0.104239 0.000000 -0.090952 0.000000
# 4 0.000000 0.000000 0.000000 0.034954 0.000000 -0.006075
# 5 -0.030329 0.016169 -0.090952 0.000000 0.108354 0.000000
# 6 0.000000 0.000000 0.000000 -0.006075 0.000000 0.033822
#
#
# Mechanical properties :
#
#
# Convention : Reuss Voigt Hill
#
# Bulk Modulus (GPa) = 8.68982 99.67842 54.18412
# Shear Modulus (GPa) = 13.53915 44.14055 28.83985
#
# Velocity S-wave (km/s) = 2.27008 4.09888 3.31316
# Velocity P-wave (km/s) = 3.19039 7.76793 5.93799
#
# Compressibility (1/GPa) = 0.11507724
#
# Stress axis : x y z
#
# Youngs Moduli (GPa) = 49.38447 100.45378 9.59330
#
# Poissons Ratio (x) = 0.60698 -0.14563
# Poissons Ratio (y) = 0.29840 0.18056
# Poissons Ratio (z) = -0.74968 1.89066
#
# Static dielectric constant tensor:
#      x y z
#    x 2.261380 0.000000 0.145270 
#    y 0.000000 1.884160 0.000000 
#    z 0.145270 0.000000 2.228270 
# 
# From -- ./inp_files/10153.got.cif
#   From: 2010.05.17/outbox.cif.g08.bks.cpg/sg4_6_cif.got.tgz:10153.got - 2010.06.03 18:43:04.
