data_PCOD9115397
_publ_section_title
;
Structure prediction by ZEFSAII (Michael W. Deem and Ramdas Pophale) SiO2 
 PCOD9115397
Probable space group: P 21
;
_chemical_formula_sum "Si O2"
_cell_formula_units_Z 14
_cell_length_a 7.292618
_cell_length_b 5.175359
_cell_length_c 24.391180
_cell_angle_alpha 90.000000
_cell_angle_beta 38.018501
_cell_angle_gamma 90.000000
_cell_volume 566.993616
_symmetry_space_group_name_H-M "P 21"
_symmetry_group_IT_number 4
_symmetry_cell_setting 'monoclinic'
loop_
_space_group_symop_operation_xyz
x,y,z
-x,1/2+y,-z
loop_
_atom_site_type_symbol
_atom_site_label
_atom_site_fract_x
_atom_site_fract_y
_atom_site_fract_z
Si Si1 0.676878 0.885720 0.956016
Si Si2 0.701522 0.233165 0.309842
Si Si3 0.054789 0.246147 0.451590
Si Si4 0.214005 0.835426 0.920151
Si Si5 0.261538 0.329986 0.872223
Si Si6 0.455956 0.049917 0.483116
Si Si7 0.934209 0.740117 0.205577
O O1 0.945891 0.846845 0.936807
O O2 0.792816 0.059724 0.878306
O O3 0.564161 0.599410 0.966362
O O4 0.385653 0.188981 0.353036
O O5 0.768469 0.533693 0.283666
O O6 0.620755 0.154056 0.390390
O O7 0.932840 0.021122 0.233096
O O8 0.068399 0.481198 0.493111
O O9 0.834734 0.375096 0.460649
O O10 0.401926 0.590114 0.859752
O O11 0.051472 0.835984 0.017315
O O12 0.410935 0.082985 0.863019
O O13 0.217045 0.296120 0.818688
O O14 0.645900 0.814188 0.463737
#
# Coordination Sequence:
#
# PCOD9115397 Si02
#       7
#     2   2   2   2   2   2   2
#     4  11  21  35  56  81 113 160 210 246 293 371
#     4  11  22  38  63  89 125 158 207 258 303 365
#     4  10  20  38  63  94 120 156 211 250 289 370
#     4   9  17  31  52  77 100 139 190 252 285 340
#     4   9  17  31  53  78 103 133 192 246 295 339
#     4  11  22  39  66  95 124 168 205 245 307 381
#     4  11  21  36  59  86 115 158 203 257 312 352
#
# _framework density 24.691632999999999
#
# number of rings (size 3 to 8) (size 9 to 14) (size 15 to 20)
#    0.000    1.714    0.000    8.571    0.000    0.000 
#    0.000    0.000   18.857    0.000    0.000    0.000 
#    0.000    0.000    0.000    0.000    0.000    0.000 
#
# Total GULP energy -78029.761108 kJ/mol
# GULP energy per Si atom -5573.554365 kJ/mol
# Density = 2.463543 g / cm^3
# Si number density = 24.691633 Si / 1000 Ang^3
#
#
#
# Elastic Constant Matrix: (Units=GPa)
#
#
# Indices 1 2 3 4 5 6 
#
# 1 60.7636 20.2834 9.8334 0.0000 13.1624 0.0000
# 2 20.2834 219.4763 21.7435 0.0000 16.0901 0.0000
# 3 9.8334 21.7435 53.8520 0.0000 2.4220 0.0000
# 4 0.0000 0.0000 0.0000 43.4414 0.0000 16.9977
# 5 13.1624 16.0901 2.4220 0.0000 25.5505 0.0000
# 6 0.0000 0.0000 0.0000 16.9977 0.0000 34.5087
#
#
#
# Elastic Compliance Matrix: (Units=1/GPa)
#
#
# Indices 1 2 3 4 5 6 
#
# 1 0.019147 -0.000831 -0.002752 0.000000 -0.009079 0.000000
# 2 -0.000831 0.004993 -0.001750 0.000000 -0.002551 0.000000
# 3 -0.002752 -0.001750 0.019749 0.000000 0.000648 0.000000
# 4 0.000000 0.000000 0.000000 0.028515 0.000000 -0.014045
# 5 -0.009079 -0.002551 0.000648 0.000000 0.045360 0.000000
# 6 0.000000 0.000000 0.000000 -0.014045 0.000000 0.035896
#
#
# Mechanical properties :
#
#
# Convention : Reuss Voigt Hill
#
# Bulk Modulus (GPa) = 30.09946 48.64584 39.37265
# Shear Modulus (GPa) = 28.50595 39.51555 34.01075
#
# Velocity S-wave (km/s) = 3.40145 4.00479 3.71539
# Velocity P-wave (km/s) = 5.25767 6.41316 5.86394
#
# Compressibility (1/GPa) = 0.03322319
#
# Stress axis : x y z
#
# Youngs Moduli (GPa) = 52.22811 200.26262 50.63472
#
# Poissons Ratio (x) = 0.16646 0.13936
# Poissons Ratio (y) = 0.04341 0.08859
# Poissons Ratio (z) = 0.14375 0.35040
#
# Static dielectric constant tensor:
#      x y z
#    x 2.106460 0.000000 -0.027900 
#    y 0.000000 2.096680 0.000000 
#    z -0.027900 0.000000 2.038870 
# 
# From -- ./inp_files/16030.got.cif
#   From: 2010.05.17/outbox.cif.g08.bks.cpg/sg4_9_cif.got.tgz:16030.got - 2010.06.03 18:43:04.
