data_PCOD9115361
_publ_section_title
;
Structure prediction by ZEFSAII (Michael W. Deem and Ramdas Pophale) SiO2 
 PCOD9115361
Probable space group: P 21
;
_chemical_formula_sum "Si O2"
_cell_formula_units_Z 16
_cell_length_a 15.118719
_cell_length_b 8.921070
_cell_length_c 6.316351
_cell_angle_alpha 90.000000
_cell_angle_beta 115.833228
_cell_angle_gamma 90.000000
_cell_volume 766.783321
_symmetry_space_group_name_H-M "P 21"
_symmetry_group_IT_number 4
_symmetry_cell_setting 'monoclinic'
loop_
_space_group_symop_operation_xyz
x,y,z
-x,1/2+y,-z
loop_
_atom_site_type_symbol
_atom_site_label
_atom_site_fract_x
_atom_site_fract_y
_atom_site_fract_z
Si Si1 0.421915 0.027330 0.506352
Si Si2 0.732811 0.302259 0.606612
Si Si3 0.799675 0.535646 0.318650
Si Si4 0.914577 0.409296 0.060184
Si Si5 0.290626 0.241652 0.136901
Si Si6 0.583335 0.080912 0.329682
Si Si7 0.536618 0.863712 0.943325
Si Si8 0.109710 0.220062 0.212194
O O1 0.345425 0.158354 0.386797
O O2 0.515119 0.062222 0.461459
O O3 0.360750 0.879368 0.373947
O O4 0.462424 0.989409 0.777325
O O5 0.752280 0.410834 0.424173
O O6 0.691882 0.141787 0.493209
O O7 0.827488 0.314870 0.854022
O O8 0.881428 0.451070 0.262784
O O9 0.843426 0.663361 0.518255
O O10 0.732737 0.618504 0.071828
O O11 0.016208 0.322556 0.153652
O O12 0.919585 0.565879 0.938047
O O13 0.369911 0.349770 0.115009
O O14 0.189559 0.295192 0.136661
O O15 0.527885 0.213297 0.139800
O O16 0.577739 0.923768 0.204634
#
# Coordination Sequence:
#
# PCOD9115361 Si02
#       8
#     2   2   2   2   2   2   2   2
#     4  10  20  38  60  86 122 174 204 244 304 368
#     4  10  21  41  64  90 127 168 207 253 317 373
#     4  10  20  38  70  90 124 166 208 250 318 382
#     4  10  22  43  69  92 124 162 206 259 320 378
#     4  10  21  41  64  90 127 168 207 253 317 373
#     4  10  24  38  62  94 126 167 213 257 305 368
#     4  10  24  38  62  94 126 167 213 257 305 368
#     4  10  22  43  69  92 124 162 206 259 320 378
#
# _framework density 20.866389999999999
#
# number of rings (size 3 to 8) (size 9 to 14) (size 15 to 20)
#    0.000    2.000    3.750    0.000    7.000    9.000 
#    6.750    0.000    0.000    0.000    0.000    0.000 
#    0.000    0.000    0.000    0.000    0.000    0.000 
#
# Total GULP energy -89248.154041 kJ/mol
# GULP energy per Si atom -5578.009628 kJ/mol
# Density = 2.081890 g / cm^3
# Si number density = 20.866390 Si / 1000 Ang^3
#
#
#
# Elastic Constant Matrix: (Units=GPa)
#
#
# Indices 1 2 3 4 5 6 
#
# 1 101.7288 7.9518 23.4830 0.0000 8.8005 0.0000
# 2 7.9518 16.3453 16.4893 0.0000 0.4935 0.0000
# 3 23.4830 16.4893 58.2598 0.0000 2.6682 0.0000
# 4 0.0000 0.0000 0.0000 27.6658 0.0000 12.1289
# 5 8.8005 0.4935 2.6682 0.0000 19.4683 0.0000
# 6 0.0000 0.0000 0.0000 12.1289 0.0000 42.9373
#
#
#
# Elastic Compliance Matrix: (Units=1/GPa)
#
#
# Indices 1 2 3 4 5 6 
#
# 1 0.011235 -0.001357 -0.003938 0.000000 -0.004505 0.000000
# 2 -0.001357 0.085818 -0.023820 0.000000 0.001703 0.000000
# 3 -0.003938 -0.023820 0.025545 0.000000 -0.001117 0.000000
# 4 0.000000 0.000000 0.000000 0.041255 0.000000 -0.011654
# 5 -0.004505 0.001703 -0.001117 0.000000 0.053512 0.000000
# 6 0.000000 0.000000 0.000000 -0.011654 0.000000 0.026582
#
#
# Mechanical properties :
#
#
# Convention : Reuss Voigt Hill
#
# Bulk Modulus (GPa) = 15.53576 30.24247 22.88912
# Shear Modulus (GPa) = 15.44961 26.57494 21.01227
#
# Velocity S-wave (km/s) = 2.72399 3.57259 3.17676
# Velocity P-wave (km/s) = 4.16594 5.61629 4.94458
#
# Compressibility (1/GPa) = 0.06436763
#
# Stress axis : x y z
#
# Youngs Moduli (GPa) = 89.00849 11.65251 39.14677
#
# Poissons Ratio (x) = 0.01581 0.15417
# Poissons Ratio (y) = 0.12076 0.93249
# Poissons Ratio (z) = 0.35053 0.27757
#
# Static dielectric constant tensor:
#      x y z
#    x 1.749380 0.000000 0.007040 
#    y 0.000000 1.773690 0.000000 
#    z 0.007040 0.000000 1.763340 
# 
# From -- ./inp_files/3500.got.cif
#   From: 2010.05.17/outbox.cif.g08.bks.cpg/sg4_2_cif.got.tgz:3500.got - 2010.06.03 18:43:04.
