data_PCOD9115076
_publ_section_title
;
Structure prediction by ZEFSAII (Michael W. Deem and Ramdas Pophale) SiO2 
 PCOD9115076
Probable space group: P 21
;
_chemical_formula_sum "Si O2"
_cell_formula_units_Z 16
_cell_length_a 5.222584
_cell_length_b 18.897243
_cell_length_c 7.751160
_cell_angle_alpha 90.000000
_cell_angle_beta 64.628923
_cell_angle_gamma 90.000000
_cell_volume 691.199783
_symmetry_space_group_name_H-M "P 21"
_symmetry_group_IT_number 4
_symmetry_cell_setting 'monoclinic'
loop_
_space_group_symop_operation_xyz
x,y,z
-x,1/2+y,-z
loop_
_atom_site_type_symbol
_atom_site_label
_atom_site_fract_x
_atom_site_fract_y
_atom_site_fract_z
Si Si1 0.380989 0.313260 0.382458
Si Si2 0.081909 0.671278 0.250808
Si Si3 0.963498 0.531923 0.149630
Si Si4 0.627507 0.679183 0.835610
Si Si5 0.247995 0.795151 0.398068
Si Si6 0.758993 0.399898 0.058553
Si Si7 0.630180 0.533092 0.913281
Si Si8 0.199176 0.273694 0.924050
O O1 0.600484 0.320483 0.473958
O O2 0.467016 0.364220 0.200294
O O3 0.059865 0.328899 0.528331
O O4 0.416038 0.232376 0.308178
O O5 0.975188 0.591220 0.292952
O O6 0.342752 0.671925 0.036530
O O7 0.182631 0.710809 0.393703
O O8 0.854483 0.722607 0.224340
O O9 0.843328 0.453055 0.192345
O O10 0.292272 0.523620 0.000174
O O11 0.757687 0.563064 0.058992
O O12 0.835803 0.724282 0.899096
O O13 0.709310 0.598607 0.767792
O O14 0.483680 0.804838 0.181765
O O15 0.751265 0.453444 0.897202
O O16 0.981082 0.337278 0.980749
#
# Coordination Sequence:
#
# PCOD9115076 Si02
#       8
#     2   2   2   2   2   2   2   2
#     4  12  24  39  62 104 131 168 210 280 319 376
#     4  10  19  41  65  94 122 173 218 260 310 394
#     4   9  20  35  61  96 122 158 214 269 315 371
#     4  10  21  36  69  95 125 158 232 265 317 366
#     4  11  26  38  60  96 142 166 205 261 337 386
#     4  10  23  37  69  98 128 157 230 269 328 364
#     4   9  20  36  57 100 122 156 201 286 315 366
#     4  11  19  40  65  99 120 172 212 272 311 389
#
# _framework density 23.148157000000001
#
# number of rings (size 3 to 8) (size 9 to 14) (size 15 to 20)
#    0.750    1.000    3.750    0.750    3.500    0.000 
#    0.000    0.000    0.000   10.500    0.000    0.000 
#    0.000    0.000    0.000    0.000    0.000    0.000 
#
# Total GULP energy -89129.872348 kJ/mol
# GULP energy per Si atom -5570.617022 kJ/mol
# Density = 2.309547 g / cm^3
# Si number density = 23.148157 Si / 1000 Ang^3
#
#
#
# Elastic Constant Matrix: (Units=GPa)
#
#
# Indices 1 2 3 4 5 6 
#
# 1 114.1966 16.4803 20.2898 0.0000 -11.5245 0.0000
# 2 16.4803 134.8417 16.9399 0.0000 -14.6660 0.0000
# 3 20.2898 16.9399 50.7406 0.0000 -7.4560 0.0000
# 4 0.0000 0.0000 0.0000 12.3500 0.0000 10.1222
# 5 -11.5245 -14.6660 -7.4560 0.0000 36.0013 0.0000
# 6 0.0000 0.0000 0.0000 10.1222 0.0000 35.7709
#
#
#
# Elastic Compliance Matrix: (Units=1/GPa)
#
#
# Indices 1 2 3 4 5 6 
#
# 1 0.009650 -0.000520 -0.003365 0.000000 0.002180 0.000000
# 2 -0.000520 0.008032 -0.002081 0.000000 0.002675 0.000000
# 3 -0.003365 -0.002081 0.022139 0.000000 0.002660 0.000000
# 4 0.000000 0.000000 0.000000 0.105422 0.000000 -0.029831
# 5 0.002180 0.002675 0.002660 0.000000 0.030115 0.000000
# 6 0.000000 0.000000 0.000000 -0.029831 0.000000 0.036397
#
#
# Mechanical properties :
#
#
# Convention : Reuss Voigt Hill
#
# Bulk Modulus (GPa) = 35.85419 45.24433 40.54926
# Shear Modulus (GPa) = 21.46090 33.22904 27.34497
#
# Velocity S-wave (km/s) = 3.04815 3.79290 3.44074
# Velocity P-wave (km/s) = 5.28308 6.22651 5.77410
#
# Compressibility (1/GPa) = 0.02789074
#
# Stress axis : x y z
#
# Youngs Moduli (GPa) = 103.63027 124.50341 45.16881
#
# Poissons Ratio (x) = 0.06468 0.15198
# Poissons Ratio (y) = 0.05384 0.09398
# Poissons Ratio (z) = 0.34870 0.25905
#
# Static dielectric constant tensor:
#      x y z
#    x 1.909410 0.000000 0.000560 
#    y 0.000000 1.910960 0.000000 
#    z 0.000560 0.000000 1.892320 
# 
# From -- ./inp_files/5011.got.cif
#   From: 2010.05.17/outbox.cif.g08.bks.cpg/sg4_3_cif.got.tgz:5011.got - 2010.06.03 18:43:04.
