data_PCOD9115893
_publ_section_title
;
Structure prediction by ZEFSAII (Michael W. Deem and Ramdas Pophale) SiO2 
 PCOD9115893
Probable space group: P 21
;
_chemical_formula_sum "Si O2"
_cell_formula_units_Z 16
_cell_length_a 6.298852
_cell_length_b 8.199567
_cell_length_c 11.849442
_cell_angle_alpha 90.000000
_cell_angle_beta 75.736792
_cell_angle_gamma 90.000000
_cell_volume 593.132935
_symmetry_space_group_name_H-M "P 21"
_symmetry_group_IT_number 4
_symmetry_cell_setting 'monoclinic'
loop_
_space_group_symop_operation_xyz
x,y,z
-x,1/2+y,-z
loop_
_atom_site_type_symbol
_atom_site_label
_atom_site_fract_x
_atom_site_fract_y
_atom_site_fract_z
Si Si1 0.845641 0.127880 0.367233
Si Si2 0.895620 0.820188 0.517427
Si Si3 0.983100 0.418744 0.968157
Si Si4 0.249749 0.124744 0.656755
Si Si5 0.261829 0.120485 0.157617
Si Si6 0.414764 0.431075 0.752201
Si Si7 0.551567 0.916513 0.754583
Si Si8 0.839694 0.110340 0.863431
O O1 0.874931 0.265933 0.457491
O O2 0.039274 0.158535 0.253355
O O3 0.904979 0.959217 0.422953
O O4 0.628695 0.082789 0.327533
O O5 0.788724 0.662138 0.469507
O O6 0.741839 0.887262 0.637080
O O7 0.816644 0.564501 0.954656
O O8 0.855946 0.254006 0.952662
O O9 0.201376 0.424178 0.861662
O O10 0.069119 0.451486 0.081681
O O11 0.409943 0.267743 0.679824
O O12 0.013669 0.150484 0.743853
O O13 0.346545 0.963373 0.703207
O O14 0.435040 0.261877 0.162988
O O15 0.372630 0.963408 0.202274
O O16 0.616934 0.063332 0.830791
#
# Coordination Sequence:
#
# PCOD9115893 Si02
#       8
#     2   2   2   2   2   2   2   2
#     4   9  20  36  55  84 118 157 204 253 307 364
#     4  10  21  38  60  86 120 163 205 255 313 362
#     4  10  22  40  66  92 123 163 203 252 309 369
#     4  10  23  41  60  88 123 162 207 256 308 366
#     4  10  21  38  60  89 121 159 203 251 306 367
#     4   9  20  39  60  85 119 159 202 250 306 365
#     4  11  24  39  61  91 123 162 209 258 310 368
#     4  11  23  43  66  93 127 163 207 257 309 369
#
# _framework density 26.975404999999999
#
# number of rings (size 3 to 8) (size 9 to 14) (size 15 to 20)
#    0.000    2.000    0.000    3.000    0.000   11.000 
#    0.000    2.500    0.000    0.000    0.000    0.000 
#    0.000    0.000    0.000    0.000    0.000    0.000 
#
# Total GULP energy -89537.905137 kJ/mol
# GULP energy per Si atom -5596.119071 kJ/mol
# Density = 2.691401 g / cm^3
# Si number density = 26.975405 Si / 1000 Ang^3
#
#
#
# Elastic Constant Matrix: (Units=GPa)
#
#
# Indices 1 2 3 4 5 6 
#
# 1 82.5389 11.2084 45.0567 0.0000 36.1764 0.0000
# 2 11.2084 78.7040 15.2591 0.0000 9.7383 0.0000
# 3 45.0567 15.2591 94.8464 0.0000 10.4638 0.0000
# 4 0.0000 0.0000 0.0000 43.9048 0.0000 22.5345
# 5 36.1764 9.7383 10.4638 0.0000 62.0793 0.0000
# 6 0.0000 0.0000 0.0000 22.5345 0.0000 44.2586
#
#
#
# Elastic Compliance Matrix: (Units=1/GPa)
#
#
# Indices 1 2 3 4 5 6 
#
# 1 0.022148 0.000049 -0.009277 0.000000 -0.011351 0.000000
# 2 0.000049 0.013301 -0.001966 0.000000 -0.001784 0.000000
# 3 -0.009277 -0.001966 0.014914 0.000000 0.003201 0.000000
# 4 0.000000 0.000000 0.000000 0.030835 0.000000 -0.015700
# 5 -0.011351 -0.001784 0.003201 0.000000 0.022463 0.000000
# 6 0.000000 0.000000 0.000000 -0.015700 0.000000 0.030588
#
#
# Mechanical properties :
#
#
# Convention : Reuss Voigt Hill
#
# Bulk Modulus (GPa) = 35.74806 44.34863 40.04835
# Shear Modulus (GPa) = 30.12748 42.35287 36.24018
#
# Velocity S-wave (km/s) = 3.34556 3.96669 3.66929
# Velocity P-wave (km/s) = 5.31079 6.12010 5.72975
#
# Compressibility (1/GPa) = 0.02797354
#
# Stress axis : x y z
#
# Youngs Moduli (GPa) = 45.15093 75.18355 67.05281
#
# Poissons Ratio (x) = -0.00368 0.62205
# Poissons Ratio (y) = -0.00221 0.13185
# Poissons Ratio (z) = 0.41886 0.14784
#
# Static dielectric constant tensor:
#      x y z
#    x 2.020200 0.000000 0.033860 
#    y 0.000000 2.248620 0.000000 
#    z 0.033860 0.000000 2.002140 
# 
# From -- ./inp_files/2580.got.cif
#   From: 2010.05.17/outbox.cif.g08.bks.cpg/sg4_2_cif.got.tgz:2580.got - 2010.06.03 18:43:04.
