data_PCOD9115003
_publ_section_title
;
Structure prediction by ZEFSAII (Michael W. Deem and Ramdas Pophale) SiO2 
 PCOD9115003
Probable space group: P 21
;
_chemical_formula_sum "Si O2"
_cell_formula_units_Z 16
_cell_length_a 9.057345
_cell_length_b 5.700753
_cell_length_c 20.811433
_cell_angle_alpha 90.000000
_cell_angle_beta 140.795603
_cell_angle_gamma 90.000000
_cell_volume 679.224270
_symmetry_space_group_name_H-M "P 21"
_symmetry_group_IT_number 4
_symmetry_cell_setting 'monoclinic'
loop_
_space_group_symop_operation_xyz
x,y,z
-x,1/2+y,-z
loop_
_atom_site_type_symbol
_atom_site_label
_atom_site_fract_x
_atom_site_fract_y
_atom_site_fract_z
Si Si1 0.261078 0.323680 0.772889
Si Si2 0.807165 0.592226 0.585303
Si Si3 0.277355 0.194951 0.230318
Si Si4 0.065206 0.367804 0.945340
Si Si5 0.606774 0.982933 0.053105
Si Si6 0.955183 0.968821 0.737703
Si Si7 0.545113 0.341216 0.607891
Si Si8 0.339973 0.544679 0.153835
O O1 0.346099 0.508143 0.855121
O O2 0.470254 0.241348 0.798511
O O3 0.029826 0.418747 0.658957
O O4 0.185040 0.103926 0.792473
O O5 0.603554 0.476988 0.560883
O O6 0.687641 0.689558 0.480766
O O7 0.890808 0.813417 0.654634
O O8 0.087068 0.302996 0.215471
O O9 0.424754 0.386369 0.241362
O O10 0.128671 0.070535 0.124359
O O11 0.432789 0.019658 0.325464
O O12 0.175734 0.374886 0.912490
O O13 0.912281 0.142287 0.908856
O O14 0.271141 0.416019 0.064593
O O15 0.437653 0.750392 0.987856
O O16 0.762002 0.166266 0.686251
#
# Coordination Sequence:
#
# PCOD9115003 Si02
#       8
#     2   2   2   2   2   2   2   2
#     4  11  26  41  67 108 147 199 247 321 373 456
#     4  10  20  37  70 108 148 178 241 310 397 443
#     4  11  24  41  69 104 141 190 252 305 367 458
#     4  12  26  44  69  97 144 203 255 299 372 455
#     4  12  28  45  72 107 153 197 253 328 381 443
#     4  10  21  41  68 107 139 173 243 309 377 438
#     4  10  19  38  68 112 140 179 235 314 378 459
#     4  12  26  45  67 101 148 205 258 302 371 464
#
# _framework density 23.556286
#
# number of rings (size 3 to 8) (size 9 to 14) (size 15 to 20)
#    0.000    1.000    3.750    3.750    7.000    1.000 
#    0.000    0.000    0.000    0.000   32.500    0.000 
#    0.000    0.000    0.000    0.000    0.000    0.000 
#
# Total GULP energy -89372.027321 kJ/mol
# GULP energy per Si atom -5585.751708 kJ/mol
# Density = 2.350267 g / cm^3
# Si number density = 23.556286 Si / 1000 Ang^3
#
#
#
# Elastic Constant Matrix: (Units=GPa)
#
#
# Indices 1 2 3 4 5 6 
#
# 1 88.1907 24.5241 40.5803 0.0000 0.5939 0.0000
# 2 24.5241 72.5237 40.7086 0.0000 -5.2680 0.0000
# 3 40.5803 40.7086 110.3265 0.0000 1.5224 0.0000
# 4 0.0000 0.0000 0.0000 47.6976 0.0000 -4.2932
# 5 0.5939 -5.2680 1.5224 0.0000 18.6790 0.0000
# 6 0.0000 0.0000 0.0000 -4.2932 0.0000 41.1807
#
#
#
# Elastic Compliance Matrix: (Units=1/GPa)
#
#
# Indices 1 2 3 4 5 6 
#
# 1 0.013962 -0.002397 -0.004240 0.000000 -0.000774 0.000000
# 2 -0.002397 0.018371 -0.005976 0.000000 0.005744 0.000000
# 3 -0.004240 -0.005976 0.012865 0.000000 -0.002599 0.000000
# 4 0.000000 0.000000 0.000000 0.021164 0.000000 0.002206
# 5 -0.000774 0.005744 -0.002599 0.000000 0.055393 0.000000
# 6 0.000000 0.000000 0.000000 0.002206 0.000000 0.024513
#
#
# Mechanical properties :
#
#
# Convention : Reuss Voigt Hill
#
# Bulk Modulus (GPa) = 50.07457 53.62966 51.85211
# Shear Modulus (GPa) = 28.06598 32.52666 30.29632
#
# Velocity S-wave (km/s) = 3.45547 3.71995 3.59015
# Velocity P-wave (km/s) = 6.10114 6.42392 6.26461
#
# Compressibility (1/GPa) = 0.01997022
#
# Stress axis : x y z
#
# Youngs Moduli (GPa) = 71.62258 54.43359 77.73290
#
# Poissons Ratio (x) = 0.13050 0.32960
# Poissons Ratio (y) = 0.17171 0.46453
# Poissons Ratio (z) = 0.30370 0.32530
#
# Static dielectric constant tensor:
#      x y z
#    x 1.865940 0.000000 -0.000080 
#    y 0.000000 2.031400 0.000000 
#    z -0.000080 0.000000 1.925320 
# 
# From -- ./inp_files/8935.got.cif
#   From: 2010.05.17/outbox.cif.g08.bks.cpg/sg4_5_cif.got.tgz:8935.got - 2010.06.03 18:43:04.
