data_PCOD9115386
_publ_section_title
;
Structure prediction by ZEFSAII (Michael W. Deem and Ramdas Pophale) SiO2 
 PCOD9115386
Probable space group: P 21
;
_chemical_formula_sum "Si O2"
_cell_formula_units_Z 12
_cell_length_a 7.643044
_cell_length_b 4.967376
_cell_length_c 12.668433
_cell_angle_alpha 90.000000
_cell_angle_beta 89.999883
_cell_angle_gamma 90.000000
_cell_volume 480.968123
_symmetry_space_group_name_H-M "P 21"
_symmetry_group_IT_number 4
_symmetry_cell_setting 'monoclinic'
loop_
_space_group_symop_operation_xyz
x,y,z
-x,1/2+y,-z
loop_
_atom_site_type_symbol
_atom_site_label
_atom_site_fract_x
_atom_site_fract_y
_atom_site_fract_z
Si Si1 0.395141 0.888090 0.534547
Si Si2 0.494924 0.610667 0.245652
Si Si3 0.895150 0.080066 0.965450
Si Si4 0.005089 0.857387 0.745659
Si Si5 0.354775 0.637026 0.857209
Si Si6 0.145233 0.831022 0.357199
O O1 0.501679 0.608219 0.536750
O O2 0.211486 0.833657 0.477652
O O3 0.403252 0.017630 0.648935
O O4 0.494353 0.348199 0.171475
O O5 0.313973 0.724596 0.291716
O O6 0.592113 0.845054 0.182713
O O7 0.711482 0.134451 0.022338
O O8 0.903281 0.950500 0.851067
O O9 0.998341 0.859959 0.036752
O O10 0.907892 0.622976 0.682740
O O11 0.186042 0.743461 0.791722
O O12 0.005635 0.119831 0.671467
#
# Coordination Sequence:
#
# PCOD9115386 Si02
#       6
#     2   2   2   2   2   2
#     4  10  20  38  62  86 116 162 200 228 288 372
#     4  11  22  39  63  90 118 155 199 245 291 348
#     4  10  20  38  62  86 116 162 200 228 288 372
#     4  11  22  39  63  90 118 155 199 245 291 348
#     4  11  22  39  63  90 118 155 199 245 291 348
#     4  11  22  39  63  90 118 155 199 245 291 348
#
# _framework density 24.949681999999999
#
# number of rings (size 3 to 8) (size 9 to 14) (size 15 to 20)
#    0.000    1.333    0.000   10.000    0.000    0.000 
#    0.000    6.667    0.000    8.000    0.000    0.000 
#    0.000    0.000    0.000    0.000    0.000    0.000 
#
# Total GULP energy -67227.993444 kJ/mol
# GULP energy per Si atom -5602.332787 kJ/mol
# Density = 2.489290 g / cm^3
# Si number density = 24.949682 Si / 1000 Ang^3
#
#
#
# Elastic Constant Matrix: (Units=GPa)
#
#
# Indices 1 2 3 4 5 6 
#
# 1 44.5411 -17.3902 17.9711 0.0000 0.0045 0.0000
# 2 -17.3902 129.4587 23.6434 0.0000 0.0086 0.0000
# 3 17.9711 23.6434 33.8667 0.0000 0.0039 0.0000
# 4 0.0000 0.0000 0.0000 44.2873 0.0000 0.0065
# 5 0.0045 0.0086 0.0039 0.0000 45.9613 0.0000
# 6 0.0000 0.0000 0.0000 0.0065 0.0000 34.9793
#
#
#
# Elastic Compliance Matrix: (Units=1/GPa)
#
#
# Indices 1 2 3 4 5 6 
#
# 1 0.036940 0.009791 -0.026437 0.000000 -0.000003 0.000000
# 2 0.009791 0.011448 -0.013188 0.000000 -0.000002 0.000000
# 3 -0.026437 -0.013188 0.052763 0.000000 0.000001 0.000000
# 4 0.000000 0.000000 0.000000 0.022580 0.000000 -0.000004
# 5 -0.000003 -0.000002 0.000001 0.000000 0.021757 0.000000
# 6 0.000000 0.000000 0.000000 -0.000004 0.000000 0.028588
#
#
# Mechanical properties :
#
#
# Convention : Reuss Voigt Hill
#
# Bulk Modulus (GPa) = 24.10630 28.47943 26.29287
# Shear Modulus (GPa) = 20.19603 37.28839 28.74221
#
# Velocity S-wave (km/s) = 2.84821 3.87013 3.39781
# Velocity P-wave (km/s) = 4.52762 5.60447 5.09457
#
# Compressibility (1/GPa) = 0.04148293
#
# Stress axis : x y z
#
# Youngs Moduli (GPa) = 27.07061 87.35058 18.95268
#
# Poissons Ratio (x) = -0.85521 0.50106
# Poissons Ratio (y) = -0.26504 0.24994
# Poissons Ratio (z) = 0.71567 1.15194
#
# Static dielectric constant tensor:
#      x y z
#    x 2.005060 0.000000 0.000010 
#    y 0.000000 1.890730 0.000000 
#    z 0.000010 0.000000 1.963600 
# 
# From -- ./inp_files/2356.got.cif
#   From: 2010.05.17/outbox.cif.g08.bks.cpg/sg4_2_cif.got.tgz:2356.got - 2010.06.03 18:43:04.
