data_PCOD9115345
_publ_section_title
;
Structure prediction by ZEFSAII (Michael W. Deem and Ramdas Pophale) SiO2 
 PCOD9115345
Probable space group: P 21
;
_chemical_formula_sum "Si O2"
_cell_formula_units_Z 16
_cell_length_a 9.145189
_cell_length_b 9.007650
_cell_length_c 9.897780
_cell_angle_alpha 90.000000
_cell_angle_beta 76.720342
_cell_angle_gamma 90.000000
_cell_volume 793.544118
_symmetry_space_group_name_H-M "P 21"
_symmetry_group_IT_number 4
_symmetry_cell_setting 'monoclinic'
loop_
_space_group_symop_operation_xyz
x,y,z
-x,1/2+y,-z
loop_
_atom_site_type_symbol
_atom_site_label
_atom_site_fract_x
_atom_site_fract_y
_atom_site_fract_z
Si Si1 0.850585 0.396790 0.681510
Si Si2 0.255076 0.044945 0.553394
Si Si3 0.612616 0.538400 0.933171
Si Si4 0.627684 0.822935 0.090930
Si Si5 0.578275 0.112327 0.383265
Si Si6 0.410766 0.903884 0.772085
Si Si7 0.376608 0.661436 0.325400
Si Si8 0.180654 0.353321 0.709743
O O1 0.854947 0.465338 0.529137
O O2 0.733189 0.488877 0.797609
O O3 0.780294 0.229851 0.689656
O O4 0.011929 0.399998 0.715649
O O5 0.413162 0.047795 0.440151
O O6 0.212851 0.211503 0.607434
O O7 0.291732 0.964501 0.686863
O O8 0.445483 0.480486 0.930122
O O9 0.626270 0.711334 0.965451
O O10 0.640877 0.449592 0.067977
O O11 0.506644 0.750853 0.219869
O O12 0.782087 0.820064 0.140785
O O13 0.575507 0.231851 0.265179
O O14 0.612388 0.192633 0.518248
O O15 0.701254 0.984631 0.344302
O O16 0.568587 0.992160 0.710113
#
# Coordination Sequence:
#
# PCOD9115345 Si02
#       8
#     2   2   2   2   2   2   2   2
#     4  11  25  40  63  95 139 176 208 272 342 401
#     4  11  21  41  66  93 126 172 215 277 317 388
#     4  10  22  42  65  95 125 168 223 270 321 385
#     4  10  21  42  65  94 121 171 220 272 316 379
#     4  11  20  37  66  96 123 165 224 262 322 380
#     4  10  20  37  70  96 118 167 224 275 310 377
#     4   9  18  38  62  92 123 163 211 274 319 369
#     4  12  25  41  63  97 139 172 209 276 339 391
#
# _framework density 20.162710000000001
#
# number of rings (size 3 to 8) (size 9 to 14) (size 15 to 20)
#    0.000    1.500    5.000    3.000    5.250    0.000 
#    2.250    0.000    0.000    0.000    0.000    0.000 
#    0.000    0.000    0.000    0.000    0.000    0.000 
#
# Total GULP energy -89298.244451 kJ/mol
# GULP energy per Si atom -5581.140278 kJ/mol
# Density = 2.011682 g / cm^3
# Si number density = 20.162710 Si / 1000 Ang^3
#
#
#
# Elastic Constant Matrix: (Units=GPa)
#
#
# Indices 1 2 3 4 5 6 
#
# 1 102.3660 22.9772 22.7949 0.0000 34.2601 0.0000
# 2 22.9772 89.0236 24.6295 0.0000 12.9884 0.0000
# 3 22.7949 24.6295 94.7293 0.0000 19.3439 0.0000
# 4 0.0000 0.0000 0.0000 30.7125 0.0000 9.5565
# 5 34.2601 12.9884 19.3439 0.0000 27.8151 0.0000
# 6 0.0000 0.0000 0.0000 9.5565 0.0000 19.9098
#
#
#
# Elastic Compliance Matrix: (Units=1/GPa)
#
#
# Indices 1 2 3 4 5 6 
#
# 1 0.016804 -0.001508 0.000503 0.000000 -0.020343 0.000000
# 2 -0.001508 0.012641 -0.002445 0.000000 -0.002345 0.000000
# 3 0.000503 -0.002445 0.012779 0.000000 -0.008365 0.000000
# 4 0.000000 0.000000 0.000000 0.038277 0.000000 -0.018373
# 5 -0.020343 -0.002345 -0.008365 0.000000 0.067920 0.000000
# 6 0.000000 0.000000 0.000000 -0.018373 0.000000 0.059045
#
#
# Mechanical properties :
#
#
# Convention : Reuss Voigt Hill
#
# Bulk Modulus (GPa) = 28.31026 47.43579 37.87302
# Shear Modulus (GPa) = 22.11011 30.06863 26.08937
#
# Velocity S-wave (km/s) = 3.31506 3.86592 3.60104
# Velocity P-wave (km/s) = 5.35950 6.59581 6.00953
#
# Compressibility (1/GPa) = 0.03532288
#
# Stress axis : x y z
#
# Youngs Moduli (GPa) = 59.51028 79.10925 78.25221
#
# Poissons Ratio (x) = 0.11931 -0.03933
# Poissons Ratio (y) = 0.08975 0.19132
# Poissons Ratio (z) = -0.02991 0.19341
#
# Static dielectric constant tensor:
#      x y z
#    x 1.687470 0.000000 0.043710 
#    y 0.000000 1.799280 0.000000 
#    z 0.043710 0.000000 1.756880 
# 
# From -- ./inp_files/5815.got.cif
#   From: 2010.05.17/outbox.cif.g08.bks.cpg/sg4_3_cif.got.tgz:5815.got - 2010.06.03 18:43:04.
