data_PCOD9115204
_publ_section_title
;
Structure prediction by ZEFSAII (Michael W. Deem and Ramdas Pophale) SiO2 
 PCOD9115204
Probable space group: P 21
;
_chemical_formula_sum "Si O2"
_cell_formula_units_Z 14
_cell_length_a 6.922074
_cell_length_b 8.736056
_cell_length_c 13.954885
_cell_angle_alpha 90.000000
_cell_angle_beta 142.559514
_cell_angle_gamma 90.000000
_cell_volume 513.022613
_symmetry_space_group_name_H-M "P 21"
_symmetry_group_IT_number 4
_symmetry_cell_setting 'monoclinic'
loop_
_space_group_symop_operation_xyz
x,y,z
-x,1/2+y,-z
loop_
_atom_site_type_symbol
_atom_site_label
_atom_site_fract_x
_atom_site_fract_y
_atom_site_fract_z
Si Si1 0.529169 0.349200 0.325499
Si Si2 0.311551 0.863955 0.202998
Si Si3 0.111457 0.650813 0.399074
Si Si4 0.749599 0.816130 0.114002
Si Si5 0.203214 0.163483 0.046486
Si Si6 0.930037 0.346812 0.234071
Si Si7 0.289920 0.161601 0.512825
O O1 0.747883 0.207576 0.445995
O O2 0.393341 0.306713 0.168019
O O3 0.700484 0.507356 0.421042
O O4 0.217833 0.348891 0.271309
O O5 0.609913 0.803612 0.379561
O O6 0.319269 0.010509 0.140015
O O7 0.032851 0.907768 0.172003
O O8 0.163646 0.717207 0.088017
O O9 0.409224 0.654570 0.442097
O O10 0.964931 0.486552 0.322205
O O11 0.860383 0.777109 0.263043
O O12 0.771009 0.661092 0.057624
O O13 0.393258 0.857247 0.951600
O O14 0.995249 0.197796 0.327216
#
# Coordination Sequence:
#
# PCOD9115204 Si02
#       7
#     2   2   2   2   2   2   2
#     4  10  20  35  62  85 111 154 201 225 281 348
#     4   9  19  35  61  80 113 147 194 228 284 339
#     4   9  19  35  57  83 114 153 189 229 280 349
#     4   9  22  36  59  86 122 139 192 243 288 331
#     4  10  20  36  62  83 112 150 196 235 282 345
#     4  10  20  36  60  82 119 149 190 240 289 325
#     4   9  18  35  57  85 111 152 190 234 272 351
#
# _framework density 27.289248000000001
#
# number of rings (size 3 to 8) (size 9 to 14) (size 15 to 20)
#    0.857    1.714    0.000    1.714    2.000    5.714 
#    0.000    2.857    6.286    0.000    0.000    0.000 
#    0.000    0.000    0.000    0.000    0.000    0.000 
#
# Total GULP energy -78309.171271 kJ/mol
# GULP energy per Si atom -5593.512234 kJ/mol
# Density = 2.722714 g / cm^3
# Si number density = 27.289248 Si / 1000 Ang^3
#
#
#
# Elastic Constant Matrix: (Units=GPa)
#
#
# Indices 1 2 3 4 5 6 
#
# 1 73.3034 1.1877 19.2634 0.0000 8.7393 0.0000
# 2 1.1877 66.7104 -9.1174 0.0000 0.7193 0.0000
# 3 19.2634 -9.1174 115.8668 0.0000 -10.2964 0.0000
# 4 0.0000 0.0000 0.0000 28.5623 0.0000 -14.6442
# 5 8.7393 0.7193 -10.2964 0.0000 43.4239 0.0000
# 6 0.0000 0.0000 0.0000 -14.6442 0.0000 27.2028
#
#
#
# Elastic Compliance Matrix: (Units=1/GPa)
#
#
# Indices 1 2 3 4 5 6 
#
# 1 0.014833 -0.000613 -0.002838 0.000000 -0.003648 0.000000
# 2 -0.000613 0.015178 0.001313 0.000000 0.000183 0.000000
# 3 -0.002838 0.001313 0.009454 0.000000 0.002791 0.000000
# 4 0.000000 0.000000 0.000000 0.048359 0.000000 0.026033
# 5 -0.003648 0.000183 0.002791 0.000000 0.024422 0.000000
# 6 0.000000 0.000000 0.000000 0.026033 0.000000 0.050775
#
#
# Mechanical properties :
#
#
# Convention : Reuss Voigt Hill
#
# Bulk Modulus (GPa) = 28.41888 30.94976 29.68432
# Shear Modulus (GPa) = 27.92872 36.14093 32.03482
#
# Velocity S-wave (km/s) = 3.20258 3.64313 3.42994
# Velocity P-wave (km/s) = 4.91039 5.39097 5.15628
#
# Compressibility (1/GPa) = 0.03518788
#
# Stress axis : x y z
#
# Youngs Moduli (GPa) = 67.41869 65.88271 105.77754
#
# Poissons Ratio (x) = 0.04036 0.30024
# Poissons Ratio (y) = 0.04130 -0.13883
# Poissons Ratio (z) = 0.19136 -0.08647
#
# Static dielectric constant tensor:
#      x y z
#    x 2.230990 0.000000 0.100700 
#    y 0.000000 2.144890 0.000000 
#    z 0.100700 0.000000 2.051740 
# 
# From -- ./inp_files/14957.got.cif
#   From: 2010.05.17/outbox.cif.g08.bks.cpg/sg4_8_cif.got.tgz:14957.got - 2010.06.03 18:43:04.
