data_PCOD9115402
_publ_section_title
;
Structure prediction by ZEFSAII (Michael W. Deem and Ramdas Pophale) SiO2 
 PCOD9115402
Probable space group: P 21
;
_chemical_formula_sum "Si O2"
_cell_formula_units_Z 16
_cell_length_a 17.837304
_cell_length_b 4.928511
_cell_length_c 9.594543
_cell_angle_alpha 90.000000
_cell_angle_beta 122.348366
_cell_angle_gamma 90.000000
_cell_volume 712.571619
_symmetry_space_group_name_H-M "P 21"
_symmetry_group_IT_number 4
_symmetry_cell_setting 'monoclinic'
loop_
_space_group_symop_operation_xyz
x,y,z
-x,1/2+y,-z
loop_
_atom_site_type_symbol
_atom_site_label
_atom_site_fract_x
_atom_site_fract_y
_atom_site_fract_z
Si Si1 0.195755 0.211040 0.037066
Si Si2 0.664894 0.409499 0.664026
Si Si3 0.820845 0.077694 0.709272
Si Si4 0.270925 0.038470 0.828832
Si Si5 0.010288 0.981493 0.925472
Si Si6 0.283225 0.553433 0.661326
Si Si7 0.456492 0.814485 0.703723
Si Si8 0.424340 0.790717 0.169222
O O1 0.174735 0.442985 0.131529
O O2 0.292561 0.128290 0.192001
O O3 0.211952 0.194770 0.887386
O O4 0.108198 0.021682 0.963858
O O5 0.754676 0.326496 0.671980
O O6 0.588485 0.454657 0.476630
O O7 0.624234 0.199131 0.735663
O O8 0.922885 0.103398 0.764542
O O9 0.768975 0.947794 0.528030
O O10 0.303689 0.284805 0.767452
O O11 0.231348 0.791071 0.695756
O O12 0.350367 0.886837 0.987985
O O13 0.009819 0.168342 0.064479
O O14 0.373734 0.701002 0.706972
O O15 0.515613 0.550253 0.731404
O O16 0.517000 0.045916 0.830771
#
# Coordination Sequence:
#
# PCOD9115402 Si02
#       8
#     2   2   2   2   2   2   2   2
#     4  10  23  40  71  96 132 170 219 267 329 391
#     4  10  22  36  66  94 130 160 212 268 330 376
#     4  10  23  40  71  96 132 170 219 267 329 391
#     4  11  26  44  66  94 134 177 218 270 331 399
#     4  10  20  38  64 104 132 160 214 274 318 382
#     4  11  26  44  66  94 134 177 218 270 331 399
#     4  11  24  40  64  92 125 167 216 270 320 381
#     4  11  24  40  64  92 125 167 216 270 320 381
#
# _framework density 22.453883999999999
#
# number of rings (size 3 to 8) (size 9 to 14) (size 15 to 20)
#    0.000    1.500    1.250    2.250   14.000    2.000 
#    0.000    1.250    0.000    0.000    0.000    0.000 
#    0.000    0.000    0.000    0.000    0.000    0.000 
#
# Total GULP energy -89073.621593 kJ/mol
# GULP energy per Si atom -5567.101350 kJ/mol
# Density = 2.240278 g / cm^3
# Si number density = 22.453884 Si / 1000 Ang^3
#
#
#
# Elastic Constant Matrix: (Units=GPa)
#
#
# Indices 1 2 3 4 5 6 
#
# 1 87.3061 28.0816 45.2500 0.0000 8.9188 0.0000
# 2 28.0816 90.6268 19.1780 0.0000 2.9853 0.0000
# 3 45.2500 19.1780 61.8677 0.0000 0.0997 0.0000
# 4 0.0000 0.0000 0.0000 20.9384 0.0000 0.2219
# 5 8.9188 2.9853 0.0997 0.0000 25.6115 0.0000
# 6 0.0000 0.0000 0.0000 0.2219 0.0000 25.8500
#
#
#
# Elastic Compliance Matrix: (Units=1/GPa)
#
#
# Indices 1 2 3 4 5 6 
#
# 1 0.020350 -0.003145 -0.013898 0.000000 -0.006666 0.000000
# 2 -0.003145 0.012343 -0.001525 0.000000 -0.000338 0.000000
# 3 -0.013898 -0.001525 0.026794 0.000000 0.004913 0.000000
# 4 0.000000 0.000000 0.000000 0.047763 0.000000 -0.000410
# 5 -0.006666 -0.000338 0.004913 0.000000 0.041386 0.000000
# 6 0.000000 0.000000 0.000000 -0.000410 0.000000 0.038688
#
#
# Mechanical properties :
#
#
# Convention : Reuss Voigt Hill
#
# Bulk Modulus (GPa) = 44.74438 47.20217 45.97328
# Shear Modulus (GPa) = 21.56004 24.29940 22.92972
#
# Velocity S-wave (km/s) = 3.10206 3.29324 3.19908
# Velocity P-wave (km/s) = 5.72720 5.96054 5.84503
#
# Compressibility (1/GPa) = 0.02234917
#
# Stress axis : x y z
#
# Youngs Moduli (GPa) = 49.14062 81.01996 37.32241
#
# Poissons Ratio (x) = 0.25480 0.51871
# Poissons Ratio (y) = 0.15454 0.05693
# Poissons Ratio (z) = 0.68297 0.12358
#
# Static dielectric constant tensor:
#      x y z
#    x 1.919430 0.000000 -0.044480 
#    y 0.000000 1.926990 0.000000 
#    z -0.044480 0.000000 1.886710 
# 
# From -- ./inp_files/9404.got.cif
#   From: 2010.05.17/outbox.cif.g08.bks.cpg/sg4_5_cif.got.tgz:9404.got - 2010.06.03 18:43:04.
