data_PCOD9115699
_publ_section_title
;
Structure prediction by ZEFSAII (Michael W. Deem and Ramdas Pophale) SiO2 
 PCOD9115699
Probable space group: P 21
;
_chemical_formula_sum "Si O2"
_cell_formula_units_Z 12
_cell_length_a 6.666738
_cell_length_b 5.254930
_cell_length_c 23.774291
_cell_angle_alpha 90.000000
_cell_angle_beta 30.796308
_cell_angle_gamma 90.000000
_cell_volume 426.429526
_symmetry_space_group_name_H-M "P 21"
_symmetry_group_IT_number 4
_symmetry_cell_setting 'monoclinic'
loop_
_space_group_symop_operation_xyz
x,y,z
-x,1/2+y,-z
loop_
_atom_site_type_symbol
_atom_site_label
_atom_site_fract_x
_atom_site_fract_y
_atom_site_fract_z
Si Si1 0.021922 0.266740 0.300189
Si Si2 0.374258 0.183211 0.662696
Si Si3 0.474138 0.131164 0.870210
Si Si4 0.740714 0.694455 0.957064
Si Si5 0.687503 0.442342 0.476769
Si Si6 0.529961 0.888497 0.239609
O O1 0.389992 0.339335 0.171565
O O2 0.143422 0.016077 0.305700
O O3 0.674697 0.385976 0.343297
O O4 0.051746 0.464623 0.346315
O O5 0.630444 0.327854 0.552597
O O6 0.531917 0.262378 0.684833
O O7 0.911820 0.257878 0.775317
O O8 0.300606 0.226319 0.853265
O O9 0.224594 0.198622 0.983822
O O10 0.146366 0.612557 0.830491
O O11 0.437184 0.461345 0.019757
O O12 0.506160 0.719780 0.515470
#
# Coordination Sequence:
#
# PCOD9115699 Si02
#       6
#     2   2   2   2   2   2
#     4   9  23  43  70 106 145 190 247 299 375 441
#     4   9  22  47  68 108 148 190 244 302 372 440
#     4  10  25  46  70 107 145 183 252 300 365 449
#     4  12  29  47  77 105 143 195 245 298 382 444
#     4  10  20  42  72 103 143 194 238 299 368 436
#     4  12  25  47  75 105 148 196 242 314 372 440
#
# _framework density 28.140639
#
# number of rings (size 3 to 8) (size 9 to 14) (size 15 to 20)
#    1.000    0.667    1.667    1.000    7.000    1.333 
#   12.000    0.000    0.000    0.000    0.000    0.000 
#    0.000    0.000    0.000    0.000    0.000    0.000 
#
# Total GULP energy -66874.857804 kJ/mol
# GULP energy per Si atom -5572.904817 kJ/mol
# Density = 2.807659 g / cm^3
# Si number density = 28.140639 Si / 1000 Ang^3
#
#
#
# Elastic Constant Matrix: (Units=GPa)
#
#
# Indices 1 2 3 4 5 6 
#
# 1 121.7803 68.1243 40.4256 0.0000 49.9145 0.0000
# 2 68.1243 114.2628 1.4414 0.0000 18.8445 0.0000
# 3 40.4256 1.4414 98.3284 -0.0001 41.6086 0.0000
# 4 0.0000 0.0000 -0.0001 38.8608 0.0000 2.0003
# 5 49.9145 18.8445 41.6086 0.0000 57.3097 0.0000
# 6 0.0000 0.0000 0.0000 2.0003 0.0000 50.3791
#
#
#
# Elastic Compliance Matrix: (Units=1/GPa)
#
#
# Indices 1 2 3 4 5 6 
#
# 1 0.019212 -0.009521 -0.002891 0.000000 -0.011503 0.000000
# 2 -0.009521 0.014164 0.003130 0.000000 0.001362 0.000000
# 3 -0.002891 0.003130 0.015420 0.000000 -0.009707 0.000000
# 4 0.000000 0.000000 0.000000 0.025786 0.000000 -0.001024
# 5 -0.011503 0.001362 -0.009707 0.000000 0.034067 0.000000
# 6 0.000000 0.000000 0.000000 -0.001024 0.000000 0.019890
#
#
# Mechanical properties :
#
#
# Convention : Reuss Voigt Hill
#
# Bulk Modulus (GPa) = 33.07719 61.59492 47.33606
# Shear Modulus (GPa) = 31.81051 44.26859 38.03955
#
# Velocity S-wave (km/s) = 3.36581 3.97056 3.68063
# Velocity P-wave (km/s) = 5.18504 6.55410 5.90935
#
# Compressibility (1/GPa) = 0.03023231
#
# Stress axis : x y z
#
# Youngs Moduli (GPa) = 52.05052 70.60168 64.84960
#
# Poissons Ratio (x) = 0.67218 0.18751
# Poissons Ratio (y) = 0.49556 -0.20299
# Poissons Ratio (z) = 0.15050 -0.22100
#
# Static dielectric constant tensor:
#      x y z
#    x 2.186000 0.000000 -0.044310 
#    y 0.000000 2.324930 0.000000 
#    z -0.044310 0.000000 2.502580 
# 
# From -- ./inp_files/14670.got.cif
#   From: 2010.05.17/outbox.cif.g08.bks.cpg/sg4_8_cif.got.tgz:14670.got - 2010.06.03 18:43:04.
