data_PCOD9115671
_publ_section_title
;
Structure prediction by ZEFSAII (Michael W. Deem and Ramdas Pophale) SiO2 
 PCOD9115671
Probable space group: P 21
;
_chemical_formula_sum "Si O2"
_cell_formula_units_Z 14
_cell_length_a 13.104520
_cell_length_b 7.612380
_cell_length_c 12.494579
_cell_angle_alpha 90.000000
_cell_angle_beta 156.063802
_cell_angle_gamma 90.000000
_cell_volume 505.695008
_symmetry_space_group_name_H-M "P 21"
_symmetry_group_IT_number 4
_symmetry_cell_setting 'monoclinic'
loop_
_space_group_symop_operation_xyz
x,y,z
-x,1/2+y,-z
loop_
_atom_site_type_symbol
_atom_site_label
_atom_site_fract_x
_atom_site_fract_y
_atom_site_fract_z
Si Si1 0.204053 0.836410 0.203547
Si Si2 0.419808 0.236930 0.765438
Si Si3 0.094421 0.701436 0.465256
Si Si4 0.647651 0.635160 0.518106
Si Si5 0.261101 0.485863 0.805584
Si Si6 0.469053 0.758990 0.652015
Si Si7 0.850795 0.452238 0.061398
O O1 0.472736 0.778348 0.408022
O O2 0.237944 0.722256 0.345527
O O3 0.178306 0.028300 0.233279
O O4 0.035743 0.854793 0.935169
O O5 0.249437 0.194054 0.498923
O O6 0.339573 0.373216 0.778057
O O7 0.663790 0.317720 0.940986
O O8 0.501342 0.066071 0.908096
O O9 0.113795 0.645737 0.607328
O O10 0.359221 0.745131 0.665490
O O11 0.910365 0.866958 0.283701
O O12 0.998861 0.543991 0.299064
O O13 0.467631 0.461820 0.314331
O O14 0.680960 0.612579 0.849157
#
# Coordination Sequence:
#
# PCOD9115671 Si02
#       7
#     2   2   2   2   2   2   2
#     4   9  18  37  67  98 132 165 219 269 338 412
#     4  11  24  42  71  95 128 190 221 280 338 407
#     4  12  27  42  67 100 137 173 233 287 331 409
#     4   9  19  34  69  96 122 170 223 264 333 404
#     4  12  27  44  68 100 139 182 238 285 341 397
#     4  10  20  42  65  96 131 174 215 281 329 414
#     4  11  21  45  67  99 133 178 219 280 348 409
#
# _framework density 27.684671000000002
#
# number of rings (size 3 to 8) (size 9 to 14) (size 15 to 20)
#    0.857    0.571    2.857    2.571    4.000    0.000 
#    0.000    7.143    0.000    0.000    0.000    0.000 
#    0.000    0.000    0.000    0.000    0.000    0.000 
#
# Total GULP energy -78244.095958 kJ/mol
# GULP energy per Si atom -5588.863997 kJ/mol
# Density = 2.762166 g / cm^3
# Si number density = 27.684671 Si / 1000 Ang^3
#
#
#
# Elastic Constant Matrix: (Units=GPa)
#
#
# Indices 1 2 3 4 5 6 
#
# 1 88.4697 26.8842 12.9912 0.0000 -20.1176 0.0000
# 2 26.8842 71.3695 11.8333 0.0000 -4.4226 0.0000
# 3 12.9912 11.8333 106.7494 0.0000 -37.5556 0.0000
# 4 0.0000 0.0000 0.0000 48.9996 0.0000 -11.4919
# 5 -20.1176 -4.4226 -37.5556 0.0000 46.0223 0.0000
# 6 0.0000 0.0000 0.0000 -11.4919 0.0000 66.7462
#
#
#
# Elastic Compliance Matrix: (Units=1/GPa)
#
#
# Indices 1 2 3 4 5 6 
#
# 1 0.014211 -0.005136 0.001195 0.000000 0.006693 0.000000
# 2 -0.005136 0.016131 -0.001974 0.000000 -0.002306 0.000000
# 3 0.001195 -0.001974 0.013407 0.000000 0.011273 0.000000
# 4 0.000000 0.000000 0.000000 0.021267 0.000000 0.003662
# 5 0.006693 -0.002306 0.011273 0.000000 0.033632 0.000000
# 6 0.000000 0.000000 0.000000 0.003662 0.000000 0.015613
#
#
# Mechanical properties :
#
#
# Convention : Reuss Voigt Hill
#
# Bulk Modulus (GPa) = 31.33163 41.11178 36.22171
# Shear Modulus (GPa) = 36.56803 46.67896 41.62349
#
# Velocity S-wave (km/s) = 3.63833 4.11066 3.88169
# Velocity P-wave (km/s) = 5.38440 6.11656 5.76212
#
# Compressibility (1/GPa) = 0.03191662
#
# Stress axis : x y z
#
# Youngs Moduli (GPa) = 70.36950 61.99299 74.58659
#
# Poissons Ratio (x) = 0.31842 -0.08911
# Poissons Ratio (y) = 0.36144 0.14727
# Poissons Ratio (z) = -0.08407 0.12240
#
# Static dielectric constant tensor:
#      x y z
#    x 2.051640 0.000000 -0.015330 
#    y 0.000000 2.271890 0.000000 
#    z -0.015330 0.000000 2.214690 
# 
# From -- ./inp_files/12572.got.cif
#   From: 2010.05.17/outbox.cif.g08.bks.cpg/sg4_7_cif.got.tgz:12572.got - 2010.06.03 18:43:04.
