data_PCOD9115100
_publ_section_title
;
Structure prediction by ZEFSAII (Michael W. Deem and Ramdas Pophale) SiO2 
 PCOD9115100
Probable space group: P 21
;
_chemical_formula_sum "Si O2"
_cell_formula_units_Z 10
_cell_length_a 15.163106
_cell_length_b 5.434174
_cell_length_c 10.119772
_cell_angle_alpha 90.000000
_cell_angle_beta 153.328188
_cell_angle_gamma 90.000000
_cell_volume 374.301996
_symmetry_space_group_name_H-M "P 21"
_symmetry_group_IT_number 4
_symmetry_cell_setting 'monoclinic'
loop_
_space_group_symop_operation_xyz
x,y,z
-x,1/2+y,-z
loop_
_atom_site_type_symbol
_atom_site_label
_atom_site_fract_x
_atom_site_fract_y
_atom_site_fract_z
Si Si1 0.775067 0.247560 0.405482
Si Si2 0.861218 0.744800 0.467634
Si Si3 0.718623 0.599259 0.538242
Si Si4 0.308496 0.739251 0.056091
Si Si5 0.230650 0.232507 0.091785
O O1 0.741821 0.497278 0.277244
O O2 0.706153 0.321282 0.461481
O O3 0.734501 0.989071 0.282690
O O4 0.011140 0.233569 0.738920
O O5 0.874522 0.721502 0.645890
O O6 0.079431 0.738710 0.701819
O O7 0.502797 0.707830 0.230480
O O8 0.776746 0.666591 0.763766
O O9 0.316013 0.497715 0.163438
O O10 0.332919 0.999442 0.161327
#
# Coordination Sequence:
#
# PCOD9115100 Si02
#       5
#     2   2   2   2   2
#     4   8  18  26  35  41  50  59  64  74  83  88
#     4   8  18  28  34  43  51  57  66  75  82  89
#     4  10  20  25  40  38  53  58  70  69  88  87
#     4  10  20  28  33  45  50  59  66  77  79  94
#     4  10  20  27  34  43  54  55  68  75  84  88
#
# _framework density 26.716394000000001
#
# number of rings (size 3 to 8) (size 9 to 14) (size 15 to 20)
#    1.200    1.600    0.000    1.200   11.200    0.000 
#    0.000    0.000    0.000    0.000    0.000    0.000 
#    0.000    0.000    0.000    0.000    0.000    0.000 
#
# Total GULP energy -55790.886181 kJ/mol
# GULP energy per Si atom -5579.088618 kJ/mol
# Density = 2.665559 g / cm^3
# Si number density = 26.716394 Si / 1000 Ang^3
#
#
#
# Elastic Constant Matrix: (Units=GPa)
#
#
# Indices 1 2 3 4 5 6 
#
# 1 91.5898 40.3771 21.6439 0.0000 14.7550 0.0000
# 2 40.3771 230.9603 18.3775 0.0000 4.2563 0.0000
# 3 21.6439 18.3775 84.7750 0.0000 -5.6698 0.0000
# 4 0.0000 0.0000 0.0000 -7.0188 0.0000 8.4947
# 5 14.7550 4.2563 -5.6698 0.0000 44.3495 0.0000
# 6 0.0000 0.0000 0.0000 8.4947 0.0000 49.6801
#
#
#
# Elastic Compliance Matrix: (Units=1/GPa)
#
#
# Indices 1 2 3 4 5 6 
#
# 1 0.013318 -0.001981 -0.003282 0.000000 -0.004660 0.000000
# 2 -0.001981 0.004714 -0.000507 0.000000 0.000142 0.000000
# 3 -0.003282 -0.000507 0.012931 0.000000 0.002794 0.000000
# 4 0.000000 0.000000 0.000000 -0.118046 0.000000 0.020184
# 5 -0.004660 0.000142 0.002794 0.000000 0.024442 0.000000
# 6 0.000000 0.000000 0.000000 0.020184 0.000000 0.016677
#
#
# Mechanical properties :
#
#
# Convention : Reuss Voigt Hill
#
# Bulk Modulus (GPa) = 51.48769 63.12470 57.30619
# Shear Modulus (GPa) = -178.89626 39.19727 -69.84950
#
# Velocity S-wave (km/s) = -8.19186 3.83451 -5.11875
# Velocity P-wave (km/s) = 8.37626 6.57903 3.66593
#
# Compressibility (1/GPa) = 0.01942212
#
# Stress axis : x y z
#
# Youngs Moduli (GPa) = 75.08548 212.14292 77.33577
#
# Poissons Ratio (x) = 0.42031 0.25385
# Poissons Ratio (y) = 0.14876 0.03917
# Poissons Ratio (z) = 0.24646 0.10746
#
# Static dielectric constant tensor:
#      x y z
#    x 2.129830 0.000000 -0.097050 
#    y 0.000000 2.333390 0.000000 
#    z -0.097050 0.000000 2.035120 
# 
# From -- ./inp_files/14365.got.cif
#   From: 2010.05.17/outbox.cif.g08.bks.cpg/sg4_8_cif.got.tgz:14365.got - 2010.06.03 18:43:04.
