data_PCOD9115147
_publ_section_title
;
Structure prediction by ZEFSAII (Michael W. Deem and Ramdas Pophale) SiO2 
 PCOD9115147
Probable space group: P 21
;
_chemical_formula_sum "Si O2"
_cell_formula_units_Z 16
_cell_length_a 20.564437
_cell_length_b 5.157915
_cell_length_c 13.799692
_cell_angle_alpha 90.000000
_cell_angle_beta 147.576949
_cell_angle_gamma 90.000000
_cell_volume 784.801860
_symmetry_space_group_name_H-M "P 21"
_symmetry_group_IT_number 4
_symmetry_cell_setting 'monoclinic'
loop_
_space_group_symop_operation_xyz
x,y,z
-x,1/2+y,-z
loop_
_atom_site_type_symbol
_atom_site_label
_atom_site_fract_x
_atom_site_fract_y
_atom_site_fract_z
Si Si1 0.135546 0.591100 0.868890
Si Si2 0.703464 0.604296 0.395831
Si Si3 0.845027 0.688735 0.769772
Si Si4 0.132868 0.689163 0.092700
Si Si5 0.053920 0.036441 0.521234
Si Si6 0.453151 0.368083 0.082665
Si Si7 0.249101 0.089742 0.914939
Si Si8 0.343921 0.622267 0.778431
O O1 0.999242 0.604828 0.651283
O O2 0.141373 0.626652 0.990483
O O3 0.185469 0.313702 0.898141
O O4 0.216371 0.816870 0.921726
O O5 0.808896 0.965761 0.767725
O O6 0.701607 0.871456 0.335665
O O7 0.730176 0.367202 0.355356
O O8 0.566855 0.535964 0.261092
O O9 0.816177 0.465973 0.811235
O O10 0.787323 0.622701 0.594228
O O11 0.989730 0.693728 0.936783
O O12 0.975708 0.237296 0.490482
O O13 0.187091 0.090276 0.730059
O O14 0.518041 0.188110 0.082802
O O15 0.386270 0.181901 0.072932
O O16 0.357227 0.554615 0.907681
#
# Coordination Sequence:
#
# PCOD9115147 Si02
#       8
#     2   2   2   2   2   2   2   2
#     4  10  20  36  53  81 109 148 187 230 275 336
#     4  10  20  35  56  83 113 145 187 229 292 329
#     4  10  21  38  60  86 106 147 181 241 303 335
#     4  10  21  38  60  82 113 137 192 237 290 349
#     4   8  16  32  47  73 108 140 179 213 253 316
#     4  10  21  35  55  83 117 149 189 224 271 343
#     4  10  21  32  57  78 113 154 183 220 280 330
#     4  10  20  34  54  80 119 146 184 232 268 328
#
# _framework density 20.387311
#
# number of rings (size 3 to 8) (size 9 to 14) (size 15 to 20)
#    0.750    1.500    1.250    1.500    1.750    1.000 
#    0.000    6.250    0.000    3.000    0.000    0.000 
#    0.000    0.000    0.000    0.000    0.000    0.000 
#
# Total GULP energy -89254.908656 kJ/mol
# GULP energy per Si atom -5578.431791 kJ/mol
# Density = 2.034091 g / cm^3
# Si number density = 20.387311 Si / 1000 Ang^3
#
#
#
# Elastic Constant Matrix: (Units=GPa)
#
#
# Indices 1 2 3 4 5 6 
#
# 1 36.4620 0.3868 -17.0132 0.0000 -8.9850 0.0000
# 2 0.3868 82.6934 11.3300 0.0000 3.8058 0.0000
# 3 -17.0132 11.3300 36.5350 0.0000 -7.1764 0.0000
# 4 0.0000 0.0000 0.0000 26.4770 0.0000 -3.6932
# 5 -8.9850 3.8058 -7.1764 0.0000 19.0463 0.0000
# 6 0.0000 0.0000 0.0000 -3.6932 0.0000 26.9957
#
#
#
# Elastic Compliance Matrix: (Units=1/GPa)
#
#
# Indices 1 2 3 4 5 6 
#
# 1 0.053595 -0.006865 0.034905 0.000000 0.039807 0.000000
# 2 -0.006865 0.013847 -0.009364 0.000000 -0.009534 0.000000
# 3 0.034905 -0.009364 0.054138 0.000000 0.038736 0.000000
# 4 0.000000 0.000000 0.000000 0.038503 0.000000 0.005267
# 5 0.039807 -0.009534 0.038736 0.000000 0.087783 0.000000
# 6 0.000000 0.000000 0.000000 0.005267 0.000000 0.037764
#
#
# Mechanical properties :
#
#
# Convention : Reuss Voigt Hill
#
# Bulk Modulus (GPa) = 6.29197 16.12197 11.20697
# Shear Modulus (GPa) = 16.59733 25.23624 20.91679
#
# Velocity S-wave (km/s) = 2.85634 3.52211 3.20655
# Velocity P-wave (km/s) = 3.73780 4.94625 4.38387
#
# Compressibility (1/GPa) = 0.15893278
#
# Stress axis : x y z
#
# Youngs Moduli (GPa) = 18.65850 72.21962 18.47137
#
# Poissons Ratio (x) = 0.49580 -0.64475
# Poissons Ratio (y) = 0.12809 0.17296
# Poissons Ratio (z) = -0.65128 0.67623
#
# Static dielectric constant tensor:
#      x y z
#    x 1.739600 0.000000 0.037760 
#    y 0.000000 1.756540 0.000000 
#    z 0.037760 0.000000 1.706110 
# 
# From -- ./inp_files/12997.got.cif
#   From: 2010.05.17/outbox.cif.g08.bks.cpg/sg4_7_cif.got.tgz:12997.got - 2010.06.03 18:43:04.
