data_PCOD9115841
_publ_section_title
;
Structure prediction by ZEFSAII (Michael W. Deem and Ramdas Pophale) SiO2 
 PCOD9115841
Probable space group: P 21
;
_chemical_formula_sum "Si O2"
_cell_formula_units_Z 16
_cell_length_a 25.170656
_cell_length_b 5.292675
_cell_length_c 26.918493
_cell_angle_alpha 90.000000
_cell_angle_beta 169.523049
_cell_angle_gamma 90.000000
_cell_volume 652.093461
_symmetry_space_group_name_H-M "P 21"
_symmetry_group_IT_number 4
_symmetry_cell_setting 'monoclinic'
loop_
_space_group_symop_operation_xyz
x,y,z
-x,1/2+y,-z
loop_
_atom_site_type_symbol
_atom_site_label
_atom_site_fract_x
_atom_site_fract_y
_atom_site_fract_z
Si Si1 0.942941 0.065350 0.199415
Si Si2 0.434036 0.935128 0.003132
Si Si3 0.135671 0.433907 0.683600
Si Si4 0.392612 0.442121 0.207558
Si Si5 0.385658 0.928442 0.732147
Si Si6 0.256083 0.945580 0.142035
Si Si7 0.418658 0.503549 0.455230
Si Si8 0.508504 0.429339 0.825329
O O1 0.281417 0.021926 0.508088
O O2 0.811638 0.945525 0.028491
O O3 0.814946 0.354051 0.082285
O O4 0.740133 0.949665 0.057415
O O5 0.269795 0.182882 0.831891
O O6 0.451066 0.942786 0.077942
O O7 0.271004 0.684850 0.833219
O O8 0.755178 0.933648 0.272678
O O9 0.792828 0.425944 0.381218
O O10 0.696477 0.687135 0.370592
O O11 0.385765 0.168399 0.226794
O O12 0.283600 0.668703 0.143041
O O13 0.338327 0.680500 0.656365
O O14 0.416174 0.948891 0.341806
O O15 0.921423 0.012447 0.844630
O O16 0.480569 0.269604 0.475284
#
# Coordination Sequence:
#
# PCOD9115841 Si02
#       8
#     2   2   2   2   2   2   2   2
#     4  10  28  43  68  98 128 185 228 292 338 396
#     4  10  21  37  59  87 121 162 205 268 345 421
#     4  10  21  37  59  87 121 162 205 268 345 421
#     4  12  26  45  70  96 146 181 242 280 338 386
#     4  10  23  38  59  89 121 160 221 270 341 406
#     4  12  26  45  72 108 144 193 232 282 330 394
#     4  12  24  45  76 110 152 187 232 278 334 390
#     4  10  23  38  59  89 121 160 221 270 341 406
#
# _framework density 24.536359999999998
#
# number of rings (size 3 to 8) (size 9 to 14) (size 15 to 20)
#    0.750    0.500    0.000    5.250    5.250    1.000 
#    0.000    0.000    0.000    0.000    0.000    0.000 
#    0.000    0.000    0.000    0.000    0.000    0.000 
#
# Total GULP energy -89552.298490 kJ/mol
# GULP energy per Si atom -5597.018656 kJ/mol
# Density = 2.448051 g / cm^3
# Si number density = 24.536360 Si / 1000 Ang^3
#
#
#
# Elastic Constant Matrix: (Units=GPa)
#
#
# Indices 1 2 3 4 5 6 
#
# 1 84.9233 -5.9739 15.2216 0.0000 -11.8796 0.0000
# 2 -5.9739 153.1665 -7.5538 0.0000 -0.5447 0.0000
# 3 15.2216 -7.5538 117.1277 0.0000 23.0331 0.0000
# 4 0.0000 0.0000 0.0000 27.5587 0.0000 13.2252
# 5 -11.8796 -0.5447 23.0331 0.0000 37.6111 0.0000
# 6 0.0000 0.0000 0.0000 13.2252 0.0000 54.4523
#
#
#
# Elastic Compliance Matrix: (Units=1/GPa)
#
#
# Indices 1 2 3 4 5 6 
#
# 1 0.013137 0.000393 -0.002841 0.000000 0.005895 0.000000
# 2 0.000393 0.006563 0.000374 0.000000 -0.000010 0.000000
# 3 -0.002841 0.000374 0.010353 0.000000 -0.007232 0.000000
# 4 0.000000 0.000000 0.000000 0.041073 0.000000 -0.009976
# 5 0.005895 -0.000010 -0.007232 0.000000 0.032879 0.000000
# 6 0.000000 0.000000 0.000000 -0.009976 0.000000 0.020788
#
#
# Mechanical properties :
#
#
# Convention : Reuss Voigt Hill
#
# Bulk Modulus (GPa) = 38.60248 39.84504 39.22376
# Shear Modulus (GPa) = 36.34376 47.49267 41.91821
#
# Velocity S-wave (km/s) = 3.85284 4.40432 4.13778
# Velocity P-wave (km/s) = 5.96317 6.49142 6.23289
#
# Compressibility (1/GPa) = 0.02590507
#
# Stress axis : x y z
#
# Youngs Moduli (GPa) = 76.12173 152.37884 96.58789
#
# Poissons Ratio (x) = -0.05992 0.27442
# Poissons Ratio (y) = -0.02993 -0.03613
# Poissons Ratio (z) = 0.21627 -0.05700
#
# Static dielectric constant tensor:
#      x y z
#    x 1.920050 0.000000 0.014520 
#    y 0.000000 2.107740 0.000000 
#    z 0.014520 0.000000 1.904990 
# 
# From -- ./inp_files/15455.got.cif
#   From: 2010.05.17/outbox.cif.g08.bks.cpg/sg4_8_cif.got.tgz:15455.got - 2010.06.03 18:43:04.
