data_PCOD9115569
_publ_section_title
;
Structure prediction by ZEFSAII (Michael W. Deem and Ramdas Pophale) SiO2 
 PCOD9115569
Probable space group: P 21
;
_chemical_formula_sum "Si O2"
_cell_formula_units_Z 16
_cell_length_a 11.036145
_cell_length_b 8.766064
_cell_length_c 11.749209
_cell_angle_alpha 90.000000
_cell_angle_beta 30.958001
_cell_angle_gamma 90.000000
_cell_volume 584.708950
_symmetry_space_group_name_H-M "P 21"
_symmetry_group_IT_number 4
_symmetry_cell_setting 'monoclinic'
loop_
_space_group_symop_operation_xyz
x,y,z
-x,1/2+y,-z
loop_
_atom_site_type_symbol
_atom_site_label
_atom_site_fract_x
_atom_site_fract_y
_atom_site_fract_z
Si Si1 0.821074 0.469660 0.583163
Si Si2 0.621774 0.631955 0.394582
Si Si3 0.556552 0.030267 0.696111
Si Si4 0.049205 0.023779 0.183724
Si Si5 0.340594 0.402686 0.955298
Si Si6 0.261204 0.286467 0.273157
Si Si7 0.057449 0.669895 0.196273
Si Si8 0.253408 0.447452 0.791519
O O1 0.606328 0.375450 0.704627
O O2 0.742019 0.603763 0.731128
O O3 0.995105 0.349375 0.496431
O O4 0.938168 0.573320 0.392470
O O5 0.555875 0.527637 0.339598
O O6 0.441998 0.585274 0.638846
O O7 0.594361 0.805477 0.378161
O O8 0.888095 0.637444 0.225557
O O9 0.829020 0.085103 0.440075
O O10 0.610546 0.878655 0.727786
O O11 0.315975 0.094474 0.956682
O O12 0.938923 0.002187 0.145078
O O13 0.079244 0.847864 0.195997
O O14 0.175367 0.379291 0.977567
O O15 0.327566 0.347461 0.094564
O O16 0.304671 0.586848 0.989219
#
# Coordination Sequence:
#
# PCOD9115569 Si02
#       8
#     2   2   2   2   2   2   2   2
#     4  11  24  46  68  98 142 188 251 304 365 441
#     4  10  22  41  72 104 146 180 236 297 367 438
#     4  11  23  43  67 107 140 190 238 301 356 436
#     4  10  22  40  73 100 142 181 243 289 365 435
#     4  11  24  41  71 100 144 187 246 302 367 435
#     4  11  27  44  72 101 141 201 244 308 366 442
#     4  10  20  40  68 102 130 193 230 294 365 436
#     4  10  22  43  69 108 141 188 234 301 365 441
#
# _framework density 27.364039999999999
#
# number of rings (size 3 to 8) (size 9 to 14) (size 15 to 20)
#    0.000    1.500    2.500    1.500    1.750    5.000 
#    0.000    3.750    0.000    0.000    0.000    0.000 
#    0.000    0.000    0.000    0.000    0.000    0.000 
#
# Total GULP energy -89147.257012 kJ/mol
# GULP energy per Si atom -5571.703563 kJ/mol
# Density = 2.730176 g / cm^3
# Si number density = 27.364040 Si / 1000 Ang^3
#
#
#
# Elastic Constant Matrix: (Units=GPa)
#
#
# Indices 1 2 3 4 5 6 
#
# 1 104.6019 31.5580 46.6058 0.0000 3.4433 0.0000
# 2 31.5580 45.6588 7.4843 0.0000 9.8093 0.0000
# 3 46.6058 7.4843 138.4352 0.0000 -0.0894 0.0000
# 4 0.0000 0.0000 0.0000 41.3060 0.0000 -1.4431
# 5 3.4433 9.8093 -0.0894 0.0000 59.2211 0.0000
# 6 0.0000 0.0000 0.0000 -1.4431 0.0000 38.7725
#
#
#
# Elastic Compliance Matrix: (Units=1/GPa)
#
#
# Indices 1 2 3 4 5 6 
#
# 1 0.014257 -0.009302 -0.004297 0.000000 0.000705 0.000000
# 2 -0.009302 0.028989 0.001561 0.000000 -0.004259 0.000000
# 3 -0.004297 0.001561 0.008586 0.000000 0.000004 0.000000
# 4 0.000000 0.000000 0.000000 0.024241 0.000000 0.000902
# 5 0.000705 -0.004259 0.000004 0.000000 0.017550 0.000000
# 6 0.000000 0.000000 0.000000 0.000902 0.000000 0.025825
#
#
# Mechanical properties :
#
#
# Convention : Reuss Voigt Hill
#
# Bulk Modulus (GPa) = 36.02404 51.11020 43.56712
# Shear Modulus (GPa) = 32.72776 41.39644 37.06210
#
# Velocity S-wave (km/s) = 3.46209 3.89370 3.68422
# Velocity P-wave (km/s) = 5.40137 6.23963 5.83557
#
# Compressibility (1/GPa) = 0.02775924
#
# Stress axis : x y z
#
# Youngs Moduli (GPa) = 70.13877 34.49526 116.47296
#
# Poissons Ratio (x) = 0.32086 0.50044
# Poissons Ratio (y) = 0.65240 -0.18187
# Poissons Ratio (z) = 0.30136 -0.05386
#
# Static dielectric constant tensor:
#      x y z
#    x 2.121440 0.000000 0.046990 
#    y 0.000000 2.184010 0.000000 
#    z 0.046990 0.000000 2.324530 
# 
# From -- ./inp_files/10377.got.cif
#   From: 2010.05.17/outbox.cif.g08.bks.cpg/sg4_6_cif.got.tgz:10377.got - 2010.06.03 18:43:04.
