data_PCOD9115787
_publ_section_title
;
Structure prediction by ZEFSAII (Michael W. Deem and Ramdas Pophale) SiO2 
 PCOD9115787
Probable space group: P 21
;
_chemical_formula_sum "Si O2"
_cell_formula_units_Z 16
_cell_length_a 13.365249
_cell_length_b 5.232833
_cell_length_c 18.179353
_cell_angle_alpha 90.000000
_cell_angle_beta 144.861429
_cell_angle_gamma 90.000000
_cell_volume 731.778856
_symmetry_space_group_name_H-M "P 21"
_symmetry_group_IT_number 4
_symmetry_cell_setting 'monoclinic'
loop_
_space_group_symop_operation_xyz
x,y,z
-x,1/2+y,-z
loop_
_atom_site_type_symbol
_atom_site_label
_atom_site_fract_x
_atom_site_fract_y
_atom_site_fract_z
Si Si1 0.922474 0.974560 0.487915
Si Si2 0.478488 0.349048 0.746643
Si Si3 0.668463 0.857229 0.882457
Si Si4 0.076193 0.443387 0.079425
Si Si5 0.741995 0.278589 0.621482
Si Si6 0.061429 0.432617 0.330452
Si Si7 0.985050 0.120805 0.157103
Si Si8 0.438016 0.217538 0.554544
O O1 0.717041 0.934658 0.355027
O O2 0.020651 0.757681 0.500494
O O3 0.960180 0.925181 0.596764
O O4 0.606747 0.567791 0.854175
O O5 0.495406 0.317651 0.668356
O O6 0.520232 0.069693 0.803672
O O7 0.733245 0.882158 0.836395
O O8 0.829446 0.959647 0.028002
O O9 0.026255 0.372424 0.131472
O O10 0.036108 0.733013 0.033634
O O11 0.936736 0.205437 0.705533
O O12 0.584727 0.193498 0.581285
O O13 0.654213 0.440533 0.501553
O O14 0.828787 0.484724 0.731371
O O15 0.272311 0.406131 0.435307
O O16 0.952339 0.236197 0.218104
#
# Coordination Sequence:
#
# PCOD9115787 Si02
#       8
#     2   2   2   2   2   2   2   2
#     4  11  26  49  76 100 127 160 225 297 359 417
#     4  11  25  40  70  95 130 173 223 270 350 396
#     4  11  23  40  61  95 137 184 224 268 313 403
#     4  10  21  35  54  84 134 189 234 255 295 366
#     4  11  21  35  59  90 139 179 225 270 335 391
#     4  10  24  39  66  95 129 175 224 273 352 393
#     4  10  24  36  60  93 136 186 230 271 318 402
#     4  10  22  36  56  94 134 180 221 278 322 402
#
# _framework density 21.864528
#
# number of rings (size 3 to 8) (size 9 to 14) (size 15 to 20)
#    0.000    1.500    1.250    3.000   15.750    1.000 
#    0.000    0.000    0.000    3.000    0.000    0.000 
#    0.000    0.000    0.000    0.000    0.000    0.000 
#
# Total GULP energy -89167.571721 kJ/mol
# GULP energy per Si atom -5572.973233 kJ/mol
# Density = 2.181476 g / cm^3
# Si number density = 21.864528 Si / 1000 Ang^3
#
#
#
# Elastic Constant Matrix: (Units=GPa)
#
#
# Indices 1 2 3 4 5 6 
#
# 1 54.9281 5.0882 15.3467 0.0000 -12.0720 0.0000
# 2 5.0882 229.0180 51.0799 0.0000 -57.1677 0.0000
# 3 15.3467 51.0799 77.7648 0.0000 -25.7053 0.0000
# 4 0.0000 0.0000 0.0000 28.5274 0.0000 -1.7319
# 5 -12.0720 -57.1677 -25.7053 0.0000 44.8928 0.0000
# 6 0.0000 0.0000 0.0000 -1.7319 0.0000 21.9797
#
#
#
# Elastic Compliance Matrix: (Units=1/GPa)
#
#
# Indices 1 2 3 4 5 6 
#
# 1 0.020211 0.001706 -0.003200 0.000000 0.005775 0.000000
# 2 0.001706 0.006772 -0.002199 0.000000 0.007823 0.000000
# 3 -0.003200 -0.002199 0.016929 0.000000 0.006033 0.000000
# 4 0.000000 0.000000 0.000000 0.035223 0.000000 0.002775
# 5 0.005775 0.007823 0.006033 0.000000 0.037245 0.000000
# 6 0.000000 0.000000 0.000000 0.002775 0.000000 0.045715
#
#
# Mechanical properties :
#
#
# Convention : Reuss Voigt Hill
#
# Bulk Modulus (GPa) = 27.37731 56.08227 41.72979
# Shear Modulus (GPa) = 27.52451 38.42639 32.97545
#
# Velocity S-wave (km/s) = 3.55190 4.19677 3.88773
# Velocity P-wave (km/s) = 5.41939 7.01352 6.26735
#
# Compressibility (1/GPa) = 0.03652660
#
# Stress axis : x y z
#
# Youngs Moduli (GPa) = 49.47797 147.67048 59.06885
#
# Poissons Ratio (x) = -0.25199 0.18904
# Poissons Ratio (y) = -0.08443 0.12988
# Poissons Ratio (z) = 0.15835 0.32471
#
# Static dielectric constant tensor:
#      x y z
#    x 1.861740 0.000000 -0.058890 
#    y 0.000000 -0.753200 0.000000 
#    z -0.058890 0.000000 1.889540 
# 
# From -- ./inp_files/15046.got.cif
#   From: 2010.05.17/outbox.cif.g08.bks.cpg/sg4_8_cif.got.tgz:15046.got - 2010.06.03 18:43:04.
