data_PCOD9115061
_publ_section_title
;
Structure prediction by ZEFSAII (Michael W. Deem and Ramdas Pophale) SiO2 
 PCOD9115061
Probable space group: P 21
;
_chemical_formula_sum "Si O2"
_cell_formula_units_Z 14
_cell_length_a 7.978344
_cell_length_b 12.416104
_cell_length_c 9.459057
_cell_angle_alpha 90.000000
_cell_angle_beta 145.492188
_cell_angle_gamma 90.000000
_cell_volume 530.835688
_symmetry_space_group_name_H-M "P 21"
_symmetry_group_IT_number 4
_symmetry_cell_setting 'monoclinic'
loop_
_space_group_symop_operation_xyz
x,y,z
-x,1/2+y,-z
loop_
_atom_site_type_symbol
_atom_site_label
_atom_site_fract_x
_atom_site_fract_y
_atom_site_fract_z
Si Si1 0.061572 0.154870 0.033955
Si Si2 0.201740 0.099583 0.831503
Si Si3 0.232724 0.512357 0.820046
Si Si4 0.065246 0.726042 0.573280
Si Si5 0.737011 0.917076 0.455081
Si Si6 0.375534 0.355888 0.146075
Si Si7 0.543621 0.532320 0.479372
O O1 0.157883 0.280679 0.089123
O O2 0.192829 0.104046 0.268599
O O3 0.251583 0.111154 0.032545
O O4 0.731960 0.111999 0.760762
O O5 0.027644 0.203142 0.653631
O O6 0.495667 0.088265 0.945503
O O7 0.017934 0.992370 0.681376
O O8 0.037614 0.605525 0.615893
O O9 0.349796 0.445275 0.766068
O O10 0.177588 0.427292 0.902823
O O11 0.379314 0.787467 0.772584
O O12 0.850569 0.796781 0.519200
O O13 0.530134 0.954251 0.437414
O O14 0.557910 0.443900 0.364468
#
# Coordination Sequence:
#
# PCOD9115061 Si02
#       7
#     2   2   2   2   2   2   2
#     4  11  23  48  72  97 145 196 232 294 363 431
#     4  10  19  40  66  96 134 177 240 289 353 425
#     4  11  22  41  68 103 131 180 249 296 350 442
#     4  11  23  39  70 107 140 182 243 312 362 426
#     4  10  21  40  66  94 141 190 228 297 365 421
#     4  12  25  46  75 106 142 196 238 302 373 426
#     4  11  27  46  71 103 147 193 246 288 362 451
#
# _framework density 26.373512000000002
#
# number of rings (size 3 to 8) (size 9 to 14) (size 15 to 20)
#    0.000    1.143    4.286    2.571    0.000    4.571 
#    2.571    0.000    0.000    0.000    0.000    0.000 
#    0.000    0.000    0.000    0.000    0.000    0.000 
#
# Total GULP energy -78123.284346 kJ/mol
# GULP energy per Si atom -5580.234596 kJ/mol
# Density = 2.631348 g / cm^3
# Si number density = 26.373512 Si / 1000 Ang^3
#
#
#
# Elastic Constant Matrix: (Units=GPa)
#
#
# Indices 1 2 3 4 5 6 
#
# 1 63.8453 32.3678 32.7394 0.0000 -20.8599 0.0000
# 2 32.3678 147.4869 55.3982 0.0000 -17.6506 0.0000
# 3 32.7394 55.3982 126.7079 0.0000 -18.9458 0.0000
# 4 0.0000 0.0000 0.0000 33.6260 0.0000 -12.9988
# 5 -20.8599 -17.6506 -18.9458 0.0000 41.0789 0.0000
# 6 0.0000 0.0000 0.0000 -12.9988 0.0000 39.1480
#
#
#
# Elastic Compliance Matrix: (Units=1/GPa)
#
#
# Indices 1 2 3 4 5 6 
#
# 1 0.021246 -0.002484 -0.003168 0.000000 0.008260 0.000000
# 2 -0.002484 0.008557 -0.002941 0.000000 0.001059 0.000000
# 3 -0.003168 -0.002941 0.010276 0.000000 0.001867 0.000000
# 4 0.000000 0.000000 0.000000 0.034118 0.000000 0.011329
# 5 0.008260 0.001059 0.001867 0.000000 0.029854 0.000000
# 6 0.000000 0.000000 0.000000 0.011329 0.000000 0.029306
#
#
# Mechanical properties :
#
#
# Convention : Reuss Voigt Hill
#
# Bulk Modulus (GPa) = 43.68460 64.33899 54.01179
# Shear Modulus (GPa) = 31.61092 37.27289 34.44191
#
# Velocity S-wave (km/s) = 3.46582 3.76343 3.61768
# Velocity P-wave (km/s) = 5.71101 6.58276 6.16232
#
# Compressibility (1/GPa) = 0.02289136
#
# Stress axis : x y z
#
# Youngs Moduli (GPa) = 47.06846 116.86618 97.31611
#
# Poissons Ratio (x) = 0.29029 0.30834
# Poissons Ratio (y) = 0.11692 0.28620
# Poissons Ratio (z) = 0.14914 0.34370
#
# Static dielectric constant tensor:
#      x y z
#    x 2.136290 0.000000 0.055600 
#    y 0.000000 2.076640 0.000000 
#    z 0.055600 0.000000 2.117130 
# 
# From -- ./inp_files/1199.got.cif
#   From: 2010.05.17/outbox.cif.g08.bks.cpg/sg4_1_cif.got.tgz:1199.got - 2010.06.03 18:43:04.
