data_PCOD9115055
_publ_section_title
;
Structure prediction by ZEFSAII (Michael W. Deem and Ramdas Pophale) SiO2 
 PCOD9115055
Probable space group: P 21
;
_chemical_formula_sum "Si O2"
_cell_formula_units_Z 12
_cell_length_a 6.873351
_cell_length_b 10.035334
_cell_length_c 9.149024
_cell_angle_alpha 90.000000
_cell_angle_beta 133.453485
_cell_angle_gamma 90.000000
_cell_volume 458.111970
_symmetry_space_group_name_H-M "P 21"
_symmetry_group_IT_number 4
_symmetry_cell_setting 'monoclinic'
loop_
_space_group_symop_operation_xyz
x,y,z
-x,1/2+y,-z
loop_
_atom_site_type_symbol
_atom_site_label
_atom_site_fract_x
_atom_site_fract_y
_atom_site_fract_z
Si Si1 0.604155 0.756580 0.744133
Si Si2 0.779968 0.501607 0.974526
Si Si3 0.830616 0.956667 0.075562
Si Si4 0.162166 0.753180 0.849892
Si Si5 0.890971 0.822853 0.417940
Si Si6 0.878229 0.087097 0.581115
O O1 0.350592 0.701064 0.523549
O O2 0.867309 0.756983 0.775832
O O3 0.633760 0.639656 0.878706
O O4 0.630762 0.888653 0.855782
O O5 0.660029 0.366307 0.979853
O O6 0.019224 0.539113 0.209815
O O7 0.896697 0.465651 0.877353
O O8 0.742444 0.104795 0.072272
O O9 0.905383 0.880349 0.261906
O O10 0.118702 0.795395 0.660935
O O11 0.870885 0.662105 0.370385
O O12 0.771113 0.955283 0.440430
#
# Coordination Sequence:
#
# PCOD9115055 Si02
#       6
#     2   2   2   2   2   2
#     4  10  21  42  66  93 121 173 227 253 314 400
#     4   9  20  41  65  88 127 169 212 268 313 382
#     4  10  19  40  65  92 130 170 209 265 325 373
#     4   9  20  40  63  91 131 170 213 264 327 373
#     4  11  21  42  63  93 134 168 206 274 334 362
#     4  11  23  43  64  93 131 170 215 268 323 384
#
# _framework density 26.194469999999999
#
# number of rings (size 3 to 8) (size 9 to 14) (size 15 to 20)
#    0.000    2.000    3.333    0.000    0.000    0.000 
#   24.000    3.333    0.000    0.000    0.000    0.000 
#    0.000    0.000    0.000    0.000    0.000    0.000 
#
# Total GULP energy -66847.217830 kJ/mol
# GULP energy per Si atom -5570.601486 kJ/mol
# Density = 2.613485 g / cm^3
# Si number density = 26.194470 Si / 1000 Ang^3
#
#
#
# Elastic Constant Matrix: (Units=GPa)
#
#
# Indices 1 2 3 4 5 6 
#
# 1 95.5353 13.2360 30.6067 0.0000 -5.5518 0.0000
# 2 13.2360 170.4826 43.6681 0.0000 16.1714 0.0000
# 3 30.6067 43.6681 84.7876 0.0000 -15.9125 0.0000
# 4 0.0000 0.0000 0.0000 68.4518 0.0000 -8.0707
# 5 -5.5518 16.1714 -15.9125 0.0000 33.6438 0.0000
# 6 0.0000 0.0000 0.0000 -8.0707 0.0000 38.2938
#
#
#
# Elastic Compliance Matrix: (Units=1/GPa)
#
#
# Indices 1 2 3 4 5 6 
#
# 1 0.011844 0.000247 -0.004453 0.000000 -0.000270 0.000000
# 2 0.000247 0.007780 -0.005257 0.000000 -0.006185 0.000000
# 3 -0.004453 -0.005257 0.018047 0.000000 0.010328 0.000000
# 4 0.000000 0.000000 0.000000 0.014981 0.000000 0.003157
# 5 -0.000270 -0.006185 0.010328 0.000000 0.037536 0.000000
# 6 0.000000 0.000000 0.000000 0.003157 0.000000 0.026779
#
#
# Mechanical properties :
#
#
# Convention : Reuss Voigt Hill
#
# Bulk Modulus (GPa) = 53.34821 58.42523 55.88672
# Shear Modulus (GPa) = 35.17603 45.63086 40.40344
#
# Velocity S-wave (km/s) = 3.66851 4.17826 3.93165
# Velocity P-wave (km/s) = 6.19309 6.75500 6.48014
#
# Compressibility (1/GPa) = 0.01874477
#
# Stress axis : x y z
#
# Youngs Moduli (GPa) = 84.42981 128.54021 55.40994
#
# Poissons Ratio (x) = -0.03172 0.24676
# Poissons Ratio (y) = -0.02084 0.29127
# Poissons Ratio (z) = 0.37600 0.67568
#
# Static dielectric constant tensor:
#      x y z
#    x 2.238150 0.000000 0.142270 
#    y 0.000000 2.089840 0.000000 
#    z 0.142270 0.000000 2.040260 
# 
# From -- ./inp_files/5879.got.cif
#   From: 2010.05.17/outbox.cif.g08.bks.cpg/sg4_3_cif.got.tgz:5879.got - 2010.06.03 18:43:04.
