data_PCOD9115868
_publ_section_title
;
Structure prediction by ZEFSAII (Michael W. Deem and Ramdas Pophale) SiO2 
 PCOD9115868
Probable space group: P 21
;
_chemical_formula_sum "Si O2"
_cell_formula_units_Z 16
_cell_length_a 12.040475
_cell_length_b 11.459505
_cell_length_c 10.238047
_cell_angle_alpha 90.000000
_cell_angle_beta 31.279147
_cell_angle_gamma 90.000000
_cell_volume 733.445844
_symmetry_space_group_name_H-M "P 21"
_symmetry_group_IT_number 4
_symmetry_cell_setting 'monoclinic'
loop_
_space_group_symop_operation_xyz
x,y,z
-x,1/2+y,-z
loop_
_atom_site_type_symbol
_atom_site_label
_atom_site_fract_x
_atom_site_fract_y
_atom_site_fract_z
Si Si1 0.273747 0.745670 0.414852
Si Si2 0.622340 0.630251 0.195645
Si Si3 0.959125 0.778051 0.961717
Si Si4 0.284112 0.016557 0.154984
Si Si5 0.655543 0.907975 0.921561
Si Si6 0.902229 0.523765 0.110138
Si Si7 0.960503 0.283111 0.608265
Si Si8 0.985495 0.562338 0.314650
O O1 0.383039 0.642856 0.387387
O O2 0.098550 0.795035 0.690323
O O3 0.159384 0.720803 0.393102
O O4 0.469075 0.832963 0.179638
O O5 0.691903 0.533624 0.230737
O O6 0.742437 0.603099 0.938844
O O7 0.715149 0.749406 0.164829
O O8 0.988061 0.896568 0.014981
O O9 0.018978 0.648197 0.957848
O O10 0.178242 0.895758 0.219024
O O11 0.163989 0.048131 0.408616
O O12 0.527629 0.993807 0.952716
O O13 0.812232 0.826970 0.676972
O O14 0.806596 0.982197 0.866900
O O15 0.867061 0.536513 0.299759
O O16 0.960539 0.198280 0.730304
#
# Coordination Sequence:
#
# PCOD9115868 Si02
#       8
#     2   2   2   2   2   2   2   2
#     4  11  19  40  66  92 125 177 215 266 332 393
#     4  10  23  40  67  92 133 170 222 265 323 400
#     4  10  23  44  63  93 129 180 221 269 327 389
#     4  10  21  38  62  94 125 167 216 270 326 390
#     4  10  21  37  63  93 127 162 219 269 330 394
#     4  10  24  43  65  90 135 171 223 270 325 395
#     4  10  22  35  65  93 128 162 216 272 330 386
#     4  11  21  39  61  91 126 167 212 269 329 387
#
# _framework density 21.814833
#
# number of rings (size 3 to 8) (size 9 to 14) (size 15 to 20)
#    0.750    1.000    0.000    6.000    1.750    2.000 
#    6.750    1.250    0.000    0.000    0.000    0.000 
#    0.000    0.000    0.000    0.000    0.000    0.000 
#
# Total GULP energy -89127.013848 kJ/mol
# GULP energy per Si atom -5570.438365 kJ/mol
# Density = 2.176518 g / cm^3
# Si number density = 21.814833 Si / 1000 Ang^3
#
#
#
# Elastic Constant Matrix: (Units=GPa)
#
#
# Indices 1 2 3 4 5 6 
#
# 1 76.4880 18.1478 1.9911 0.0000 -6.5504 0.0000
# 2 18.1478 95.8537 -1.2095 0.0000 -2.3739 0.0000
# 3 1.9911 -1.2095 37.8267 0.0000 -7.4985 0.0000
# 4 0.0000 0.0000 0.0000 21.5041 0.0000 -1.3973
# 5 -6.5504 -2.3739 -7.4985 0.0000 24.5043 0.0000
# 6 0.0000 0.0000 0.0000 -1.3973 0.0000 38.5881
#
#
#
# Elastic Compliance Matrix: (Units=1/GPa)
#
#
# Indices 1 2 3 4 5 6 
#
# 1 0.013981 -0.002563 -0.000134 0.000000 0.003448 0.000000
# 2 -0.002563 0.010939 0.000595 0.000000 0.000557 0.000000
# 3 -0.000134 0.000595 0.028176 0.000000 0.008644 0.000000
# 4 0.000000 0.000000 0.000000 0.046612 0.000000 0.001688
# 5 0.003448 0.000557 0.008644 0.000000 0.044430 0.000000
# 6 0.000000 0.000000 0.000000 0.001688 0.000000 0.025976
#
#
# Mechanical properties :
#
#
# Convention : Reuss Voigt Hill
#
# Bulk Modulus (GPa) = 20.45377 27.55857 24.00617
# Shear Modulus (GPa) = 26.23071 29.66857 27.94964
#
# Velocity S-wave (km/s) = 3.47136 3.69184 3.58330
# Velocity P-wave (km/s) = 5.04615 5.55278 5.30551
#
# Compressibility (1/GPa) = 0.04889075
#
# Stress axis : x y z
#
# Youngs Moduli (GPa) = 71.52620 91.41464 35.49128
#
# Poissons Ratio (x) = 0.23432 0.00477
# Poissons Ratio (y) = 0.18334 -0.02112
# Poissons Ratio (z) = 0.00961 -0.05440
#
# Static dielectric constant tensor:
#      x y z
#    x 1.792320 0.000000 -0.024280 
#    y 0.000000 1.939180 0.000000 
#    z -0.024280 0.000000 1.806620 
# 
# From -- ./inp_files/12298.got.cif
#   From: 2010.05.17/outbox.cif.g08.bks.cpg/sg4_7_cif.got.tgz:12298.got - 2010.06.03 18:43:04.
