data_PCOD9115178
_publ_section_title
;
Structure prediction by ZEFSAII (Michael W. Deem and Ramdas Pophale) SiO2 
 PCOD9115178
Probable space group: P 21
;
_chemical_formula_sum "Si O2"
_cell_formula_units_Z 14
_cell_length_a 7.542509
_cell_length_b 5.294055
_cell_length_c 18.660121
_cell_angle_alpha 90.000000
_cell_angle_beta 126.233912
_cell_angle_gamma 90.000000
_cell_volume 601.011344
_symmetry_space_group_name_H-M "P 21"
_symmetry_group_IT_number 4
_symmetry_cell_setting 'monoclinic'
loop_
_space_group_symop_operation_xyz
x,y,z
-x,1/2+y,-z
loop_
_atom_site_type_symbol
_atom_site_label
_atom_site_fract_x
_atom_site_fract_y
_atom_site_fract_z
Si Si1 0.540195 0.228430 0.106004
Si Si2 0.023206 0.191075 0.254471
Si Si3 0.705643 0.012415 0.783105
Si Si4 0.148613 0.012162 0.137369
Si Si5 0.766016 0.644910 0.387835
Si Si6 0.299843 0.723885 0.022287
Si Si7 0.961526 0.643732 0.585352
O O1 0.444158 0.505342 0.091544
O O2 0.762058 0.195006 0.203769
O O3 0.363379 0.999976 0.067791
O O4 0.624189 0.227734 0.043196
O O5 0.121888 0.439440 0.238981
O O6 0.066690 0.993307 0.201510
O O7 0.131419 0.138788 0.356485
O O8 0.799948 0.219187 0.860899
O O9 0.481447 0.120480 0.698455
O O10 0.671993 0.734990 0.810689
O O11 0.951318 0.133874 0.045203
O O12 0.903470 0.403942 0.392482
O O13 0.786114 0.637512 0.478969
O O14 0.880561 0.902378 0.388870
#
# Coordination Sequence:
#
# PCOD9115178 Si02
#       7
#     2   2   2   2   2   2   2
#     4   9  17  25  46  72 113 136 176 215 274 319
#     4   9  22  33  56  85 116 135 186 236 286 307
#     4  10  20  35  54  83 113 140 184 233 273 337
#     4   9  19  31  53  81 119 138 179 226 285 321
#     4  10  22  41  58  80 109 151 194 215 286 342
#     4   9  16  27  43  74 112 144 168 212 275 326
#     4  10  22  40  60  79 110 150 187 235 265 350
#
# _framework density 23.294070000000001
#
# number of rings (size 3 to 8) (size 9 to 14) (size 15 to 20)
#    0.857    1.714    0.000    1.714    8.000    0.000 
#    2.571    0.000    0.000    0.000    0.000   20.000 
#    0.000    0.000    0.000    0.000    0.000    0.000 
#
# Total GULP energy -78195.708331 kJ/mol
# GULP energy per Si atom -5585.407738 kJ/mol
# Density = 2.324105 g / cm^3
# Si number density = 23.294070 Si / 1000 Ang^3
#
#
#
# Elastic Constant Matrix: (Units=GPa)
#
#
# Indices 1 2 3 4 5 6 
#
# 1 51.8040 32.3584 11.7264 0.0000 -4.7512 0.0000
# 2 32.3584 158.0569 35.7661 0.0000 0.6514 0.0000
# 3 11.7264 35.7661 82.7145 0.0000 -13.1737 0.0000
# 4 0.0000 0.0000 0.0000 27.8951 0.0000 -6.9008
# 5 -4.7512 0.6514 -13.1737 0.0000 42.0489 0.0000
# 6 0.0000 0.0000 0.0000 -6.9008 0.0000 32.8826
#
#
#
# Elastic Compliance Matrix: (Units=1/GPa)
#
#
# Indices 1 2 3 4 5 6 
#
# 1 0.022474 -0.004404 -0.000912 0.000000 0.002322 0.000000
# 2 -0.004404 0.007926 -0.003054 0.000000 -0.001577 0.000000
# 3 -0.000912 -0.003054 0.014241 0.000000 0.004406 0.000000
# 4 0.000000 0.000000 0.000000 0.037812 0.000000 0.007935
# 5 0.002322 -0.001577 0.004406 0.000000 0.025449 0.000000
# 6 0.000000 0.000000 0.000000 0.007935 0.000000 0.032077
#
#
# Mechanical properties :
#
#
# Convention : Reuss Voigt Hill
#
# Bulk Modulus (GPa) = 35.84110 50.25305 43.04707
# Shear Modulus (GPa) = 30.11696 34.74694 32.43195
#
# Velocity S-wave (km/s) = 3.59960 3.86640 3.73538
# Velocity P-wave (km/s) = 5.71803 6.44610 6.09295
#
# Compressibility (1/GPa) = 0.02790093
#
# Stress axis : x y z
#
# Youngs Moduli (GPa) = 44.49604 126.16548 70.21781
#
# Poissons Ratio (x) = 0.55566 0.06403
# Poissons Ratio (y) = 0.19597 0.21445
# Poissons Ratio (z) = 0.04058 0.38532
#
# Static dielectric constant tensor:
#      x y z
#    x 2.078970 0.000000 -0.077530 
#    y 0.000000 1.870420 0.000000 
#    z -0.077530 0.000000 1.841000 
# 
# From -- ./inp_files/10171.got.cif
#   From: 2010.05.17/outbox.cif.g08.bks.cpg/sg4_6_cif.got.tgz:10171.got - 2010.06.03 18:43:04.
