data_PCOD9115720
_publ_section_title
;
Structure prediction by ZEFSAII (Michael W. Deem and Ramdas Pophale) SiO2 
 PCOD9115720
Probable space group: P 21
;
_chemical_formula_sum "Si O2"
_cell_formula_units_Z 16
_cell_length_a 11.009389
_cell_length_b 8.229326
_cell_length_c 14.498529
_cell_angle_alpha 90.000000
_cell_angle_beta 148.948493
_cell_angle_gamma 90.000000
_cell_volume 677.547680
_symmetry_space_group_name_H-M "P 21"
_symmetry_group_IT_number 4
_symmetry_cell_setting 'monoclinic'
loop_
_space_group_symop_operation_xyz
x,y,z
-x,1/2+y,-z
loop_
_atom_site_type_symbol
_atom_site_label
_atom_site_fract_x
_atom_site_fract_y
_atom_site_fract_z
Si Si1 0.398799 0.813570 0.335097
Si Si2 0.437477 0.805122 0.725121
Si Si3 0.057142 0.880807 0.343517
Si Si4 0.379968 0.191371 0.709685
Si Si5 0.758861 0.627281 0.682745
Si Si6 0.908590 0.678939 0.075218
Si Si7 0.806366 0.320999 0.080042
Si Si8 0.132783 0.681958 0.682493
O O1 0.521205 0.773169 0.319015
O O2 0.577278 0.765632 0.533960
O O3 0.163556 0.707100 0.196092
O O4 0.327451 0.001748 0.297010
O O5 0.240370 0.772292 0.519570
O O6 0.355504 0.713045 0.763960
O O7 0.421890 0.998051 0.732402
O O8 0.702796 0.753144 0.878441
O O9 0.917775 0.782768 0.176024
O O10 0.216110 0.010614 0.390751
O O11 0.895309 0.997287 0.300361
O O12 0.101441 0.218814 0.529259
O O13 0.538906 0.264955 0.893081
O O14 0.018558 0.700588 0.862274
O O15 0.855375 0.496464 0.070369
O O16 0.868392 0.296243 0.227824
#
# Coordination Sequence:
#
# PCOD9115720 Si02
#       8
#     2   2   2   2   2   2   2   2
#     4  11  21  42  70 100 138 182 224 282 348 414
#     4  11  23  44  70  98 135 179 235 285 343 407
#     4   9  21  45  67  95 136 175 232 284 337 413
#     4  11  24  45  70 102 137 178 233 285 344 413
#     4  10  20  43  69  97 140 181 219 283 346 409
#     4  11  26  39  65 104 136 184 224 274 355 405
#     4  11  24  43  63 102 143 175 231 284 338 419
#     4  10  23  43  70  94 133 184 226 291 345 392
#
# _framework density 23.614571999999999
#
# number of rings (size 3 to 8) (size 9 to 14) (size 15 to 20)
#    0.000    1.500    3.750    3.000    0.000   10.000 
#    6.750    0.000    0.000    0.000    0.000    0.000 
#    0.000    0.000    0.000    0.000    0.000    0.000 
#
# Total GULP energy -89577.244440 kJ/mol
# GULP energy per Si atom -5598.577777 kJ/mol
# Density = 2.356082 g / cm^3
# Si number density = 23.614572 Si / 1000 Ang^3
#
#
#
# Elastic Constant Matrix: (Units=GPa)
#
#
# Indices 1 2 3 4 5 6 
#
# 1 42.4110 2.0437 1.3341 0.0000 10.3460 0.0000
# 2 2.0437 52.7285 17.6161 0.0000 -9.3128 0.0000
# 3 1.3341 17.6161 102.2140 0.0000 8.7429 0.0000
# 4 0.0000 0.0000 0.0000 33.9746 0.0000 -2.6656
# 5 10.3460 -9.3128 8.7429 0.0000 28.6835 0.0000
# 6 0.0000 0.0000 0.0000 -2.6656 0.0000 38.3012
#
#
#
# Elastic Compliance Matrix: (Units=1/GPa)
#
#
# Indices 1 2 3 4 5 6 
#
# 1 0.026376 -0.003349 0.001170 0.000000 -0.010958 0.000000
# 2 -0.003349 0.022402 -0.004664 0.000000 0.009903 0.000000
# 3 0.001170 -0.004664 0.011025 0.000000 -0.005297 0.000000
# 4 0.000000 0.000000 0.000000 0.029595 0.000000 0.002060
# 5 -0.010958 0.009903 -0.005297 0.000000 0.043645 0.000000
# 6 0.000000 0.000000 0.000000 0.002060 0.000000 0.026252
#
#
# Mechanical properties :
#
#
# Convention : Reuss Voigt Hill
#
# Bulk Modulus (GPa) = 21.68341 26.59349 24.13845
# Shear Modulus (GPa) = 26.54566 31.94919 29.24742
#
# Velocity S-wave (km/s) = 3.35643 3.68223 3.52310
# Velocity P-wave (km/s) = 4.92168 5.41889 5.17626
#
# Compressibility (1/GPa) = 0.04611822
#
# Stress axis : x y z
#
# Youngs Moduli (GPa) = 37.91266 44.63849 90.70245
#
# Poissons Ratio (x) = 0.14948 -0.10613
# Poissons Ratio (y) = 0.12695 0.42306
# Poissons Ratio (z) = -0.04436 0.20821
#
# Static dielectric constant tensor:
#      x y z
#    x 1.891320 0.000000 -0.033320 
#    y 0.000000 1.866060 0.000000 
#    z -0.033320 0.000000 1.903220 
# 
# From -- ./inp_files/13969.got.cif
#   From: 2010.05.17/outbox.cif.g08.bks.cpg/sg4_7_cif.got.tgz:13969.got - 2010.06.03 18:43:04.
