data_PCOD9115262
_publ_section_title
;
Structure prediction by ZEFSAII (Michael W. Deem and Ramdas Pophale) SiO2 
 PCOD9115262
Probable space group: P 21
;
_chemical_formula_sum "Si O2"
_cell_formula_units_Z 16
_cell_length_a 13.280008
_cell_length_b 9.527076
_cell_length_c 6.573251
_cell_angle_alpha 90.000000
_cell_angle_beta 114.901510
_cell_angle_gamma 90.000000
_cell_volume 754.329741
_symmetry_space_group_name_H-M "P 21"
_symmetry_group_IT_number 4
_symmetry_cell_setting 'monoclinic'
loop_
_space_group_symop_operation_xyz
x,y,z
-x,1/2+y,-z
loop_
_atom_site_type_symbol
_atom_site_label
_atom_site_fract_x
_atom_site_fract_y
_atom_site_fract_z
Si Si1 0.879908 0.276380 0.924142
Si Si2 0.112200 0.357274 0.188667
Si Si3 0.192624 0.533898 0.898687
Si Si4 0.672514 0.715272 0.671328
Si Si5 0.613931 0.577427 0.225479
Si Si6 0.058371 0.633476 0.401155
Si Si7 0.415385 0.367514 0.042230
Si Si8 0.815835 0.551022 0.126365
O O1 0.891871 0.261416 0.690379
O O2 0.794031 0.158843 0.926316
O O3 0.849312 0.417787 0.016083
O O4 0.009252 0.249947 0.101747
O O5 0.230136 0.299312 0.362064
O O6 0.082498 0.492036 0.294796
O O7 0.127670 0.415715 0.972260
O O8 0.121106 0.607116 0.663405
O O9 0.305092 0.462364 0.918686
O O10 0.618305 0.608776 0.469241
O O11 0.590691 0.815914 0.726814
O O12 0.743672 0.642021 0.908619
O O13 0.521291 0.463632 0.094033
O O14 0.732234 0.524015 0.240992
O O15 0.587311 0.728006 0.097885
O O16 0.924955 0.631297 0.300406
#
# Coordination Sequence:
#
# PCOD9115262 Si02
#       8
#     2   2   2   2   2   2   2   2
#     4  10  21  36  58  92 138 165 209 266 312 406
#     4   9  19  36  57  87 127 162 210 262 311 390
#     4  10  22  38  62  90 128 169 214 267 329 385
#     4  10  21  43  67  91 126 175 213 268 336 385
#     4  11  25  44  74  92 132 172 220 285 334 384
#     4  10  20  36  61  93 126 173 203 259 327 391
#     4  10  25  47  66  99 126 169 230 277 323 404
#     4  10  23  38  59 102 131 163 225 264 322 399
#
# _framework density 21.210882000000002
#
# number of rings (size 3 to 8) (size 9 to 14) (size 15 to 20)
#    0.000    2.000    1.250    0.750    3.500    5.000 
#    0.000    0.000    0.000    0.000    0.000    0.000 
#    0.000    0.000    0.000    0.000    0.000    0.000 
#
# Total GULP energy -89237.293231 kJ/mol
# GULP energy per Si atom -5577.330827 kJ/mol
# Density = 2.116260 g / cm^3
# Si number density = 21.210882 Si / 1000 Ang^3
#
#
#
# Elastic Constant Matrix: (Units=GPa)
#
#
# Indices 1 2 3 4 5 6 
#
# 1 89.7175 21.6146 25.7804 0.0000 -6.4081 0.0000
# 2 21.6146 50.1900 2.1315 0.0000 0.1455 0.0000
# 3 25.7804 2.1315 75.6495 0.0000 -3.6043 0.0000
# 4 0.0000 0.0000 0.0000 31.3970 0.0000 -3.2635
# 5 -6.4081 0.1455 -3.6043 0.0000 11.5230 0.0000
# 6 0.0000 0.0000 0.0000 -3.2635 0.0000 41.3754
#
#
#
# Elastic Compliance Matrix: (Units=1/GPa)
#
#
# Indices 1 2 3 4 5 6 
#
# 1 0.014333 -0.006005 -0.004397 0.000000 0.006671 0.000000
# 2 -0.006005 0.022466 0.001260 0.000000 -0.003229 0.000000
# 3 -0.004397 0.001260 0.014785 0.000000 0.002163 0.000000
# 4 0.000000 0.000000 0.000000 0.032113 0.000000 0.002533
# 5 0.006671 -0.003229 0.002163 0.000000 0.091210 0.000000
# 6 0.000000 0.000000 0.000000 0.002533 0.000000 0.024369
#
#
# Mechanical properties :
#
#
# Convention : Reuss Voigt Hill
#
# Bulk Modulus (GPa) = 30.03155 34.95668 32.49411
# Shear Modulus (GPa) = 21.86632 27.92779 24.89706
#
# Velocity S-wave (km/s) = 3.21425 3.63254 3.42977
# Velocity P-wave (km/s) = 5.28815 5.84038 5.57111
#
# Compressibility (1/GPa) = 0.03329831
#
# Stress axis : x y z
#
# Youngs Moduli (GPa) = 69.76936 44.51107 67.63604
#
# Poissons Ratio (x) = 0.26730 0.29743
# Poissons Ratio (y) = 0.41898 -0.08520
# Poissons Ratio (z) = 0.30681 -0.05607
#
# Static dielectric constant tensor:
#      x y z
#    x 1.804490 0.000000 -0.033890 
#    y 0.000000 1.795490 0.000000 
#    z -0.033890 0.000000 1.801800 
# 
# From -- ./inp_files/2868.got.cif
#   From: 2010.05.17/outbox.cif.g08.bks.cpg/sg4_2_cif.got.tgz:2868.got - 2010.06.03 18:43:04.
