data_PCOD9115884
_publ_section_title
;
Structure prediction by ZEFSAII (Michael W. Deem and Ramdas Pophale) SiO2 
 PCOD9115884
Probable space group: P 21
;
_chemical_formula_sum "Si O2"
_cell_formula_units_Z 16
_cell_length_a 16.015839
_cell_length_b 8.176363
_cell_length_c 14.401460
_cell_angle_alpha 90.000000
_cell_angle_beta 154.053606
_cell_angle_gamma 90.000000
_cell_volume 825.133576
_symmetry_space_group_name_H-M "P 21"
_symmetry_group_IT_number 4
_symmetry_cell_setting 'monoclinic'
loop_
_space_group_symop_operation_xyz
x,y,z
-x,1/2+y,-z
loop_
_atom_site_type_symbol
_atom_site_label
_atom_site_fract_x
_atom_site_fract_y
_atom_site_fract_z
Si Si1 0.573835 0.956540 0.633694
Si Si2 0.447315 0.662958 0.205203
Si Si3 0.877590 0.733374 0.040774
Si Si4 0.702117 0.180985 0.598447
Si Si5 0.122405 0.473179 0.785593
Si Si6 0.297886 0.025568 0.694216
Si Si7 0.552677 0.543596 0.810565
Si Si8 0.573843 0.750014 0.013984
O O1 0.380623 0.850684 0.443823
O O2 0.625800 0.037672 0.588690
O O3 0.739249 0.832760 0.833223
O O4 0.562451 0.098002 0.699916
O O5 0.248622 0.619099 0.954951
O O6 0.605659 0.556944 0.309232
O O7 0.489643 0.853277 0.239643
O O8 0.921942 0.853276 0.171940
O O9 0.071772 0.681740 0.186241
O O10 0.751370 0.587457 0.957698
O O11 0.605667 0.149608 0.402093
O O12 0.260746 0.373795 0.854722
O O13 0.619371 0.355870 0.182569
O O14 0.374197 0.168884 0.837087
O O15 0.071777 0.024810 0.457303
O O16 0.562451 0.608553 0.924986
#
# Coordination Sequence:
#
# PCOD9115884 Si02
#       8
#     2   2   2   2   2   2   2   2
#     4  10  22  36  56  84 112 144 186 233 271 326
#     4  10  21  38  57  84 116 143 184 233 273 327
#     4   9  20  38  57  79 111 148 185 228 275 326
#     4  11  21  38  60  81 112 151 184 224 283 331
#     4   9  20  38  57  79 111 148 185 228 275 326
#     4  11  21  38  60  81 112 151 184 224 283 331
#     4  10  21  38  57  84 116 143 184 233 273 327
#     4  10  22  36  56  84 112 144 186 233 271 326
#
# _framework density 19.390799000000001
#
# number of rings (size 3 to 8) (size 9 to 14) (size 15 to 20)
#    0.000    2.000    0.000    5.250    0.000    7.000 
#    0.000    5.000    0.000    0.000    0.000    0.000 
#    0.000    0.000    0.000    0.000    0.000    0.000 
#
# Total GULP energy -89387.114074 kJ/mol
# GULP energy per Si atom -5586.694630 kJ/mol
# Density = 1.934666 g / cm^3
# Si number density = 19.390799 Si / 1000 Ang^3
#
#
#
# Elastic Constant Matrix: (Units=GPa)
#
#
# Indices 1 2 3 4 5 6 
#
# 1 35.2613 -12.9851 7.7854 0.0000 -2.1145 0.0000
# 2 -12.9851 51.3815 -8.8198 0.0000 5.2848 0.0000
# 3 7.7854 -8.8198 39.4742 0.0000 7.4590 0.0000
# 4 0.0000 0.0000 0.0000 11.9626 0.0000 -5.8003
# 5 -2.1145 5.2848 7.4590 0.0000 25.0519 0.0000
# 6 0.0000 0.0000 0.0000 -5.8003 0.0000 16.5345
#
#
#
# Elastic Compliance Matrix: (Units=1/GPa)
#
#
# Indices 1 2 3 4 5 6 
#
# 1 0.032269 0.006943 -0.005352 0.000000 0.002853 0.000000
# 2 0.006943 0.022606 0.004738 0.000000 -0.005593 0.000000
# 3 -0.005352 0.004738 0.029374 0.000000 -0.010197 0.000000
# 4 0.000000 0.000000 0.000000 0.100726 0.000000 0.035335
# 5 0.002853 -0.005593 -0.010197 0.000000 0.044374 0.000000
# 6 0.000000 0.000000 0.000000 0.035335 0.000000 0.072875
#
#
# Mechanical properties :
#
#
# Convention : Reuss Voigt Hill
#
# Bulk Modulus (GPa) = 10.31913 10.89756 10.60835
# Shear Modulus (GPa) = 15.53432 20.05224 17.79328
#
# Velocity S-wave (km/s) = 2.83347 3.21925 3.03250
# Velocity P-wave (km/s) = 4.00474 4.41024 4.21238
#
# Compressibility (1/GPa) = 0.09690735
#
# Stress axis : x y z
#
# Youngs Moduli (GPa) = 30.98926 44.23699 34.04351
#
# Poissons Ratio (x) = -0.30713 0.18220
# Poissons Ratio (y) = -0.21516 -0.16131
# Poissons Ratio (z) = 0.16586 -0.20961
#
# Static dielectric constant tensor:
#      x y z
#    x 1.664020 0.000000 -0.006180 
#    y 0.000000 1.661880 0.000000 
#    z -0.006180 0.000000 1.659120 
# 
# From -- ./inp_files/12692.got.cif
#   From: 2010.05.17/outbox.cif.g08.bks.cpg/sg4_7_cif.got.tgz:12692.got - 2010.06.03 18:43:04.
