data_PCOD9115346
_publ_section_title
;
Structure prediction by ZEFSAII (Michael W. Deem and Ramdas Pophale) SiO2 
 PCOD9115346
Probable space group: P 21
;
_chemical_formula_sum "Si O2"
_cell_formula_units_Z 16
_cell_length_a 8.118483
_cell_length_b 5.756517
_cell_length_c 15.562366
_cell_angle_alpha 90.000000
_cell_angle_beta 119.887582
_cell_angle_gamma 90.000000
_cell_volume 630.567798
_symmetry_space_group_name_H-M "P 21"
_symmetry_group_IT_number 4
_symmetry_cell_setting 'monoclinic'
loop_
_space_group_symop_operation_xyz
x,y,z
-x,1/2+y,-z
loop_
_atom_site_type_symbol
_atom_site_label
_atom_site_fract_x
_atom_site_fract_y
_atom_site_fract_z
Si Si1 0.858801 0.793020 0.757419
Si Si2 0.535956 0.858927 0.137329
Si Si3 0.976815 0.811798 0.041570
Si Si4 0.231343 0.892925 0.386463
Si Si5 0.885814 0.423031 0.466139
Si Si6 0.742388 0.132821 0.066221
Si Si7 0.665432 0.198134 0.753371
Si Si8 0.127418 0.107577 0.717162
O O1 0.044678 0.712214 0.857498
O O2 0.754363 0.619157 0.667468
O O3 0.966343 0.958048 0.718775
O O4 0.704298 0.923972 0.775991
O O5 0.476431 0.833653 0.221364
O O6 0.701933 0.666742 0.176490
O O7 0.628239 0.091269 0.124079
O O8 0.365340 0.787469 0.030881
O O9 0.131231 0.794201 0.158680
O O10 0.774217 0.882440 0.028520
O O11 0.977984 0.551583 0.001012
O O12 0.351442 0.728718 0.353578
O O13 0.001595 0.837858 0.331945
O O14 0.267447 0.904435 0.496813
O O15 0.804117 0.483652 0.351307
O O16 0.990929 0.167450 0.487365
#
# Coordination Sequence:
#
# PCOD9115346 Si02
#       8
#     2   2   2   2   2   2   2   2
#     4  11  20  44  65  92 125 182 228 280 321 414
#     4  12  26  41  60 100 138 183 221 295 353 419
#     4  12  25  44  69  94 125 182 237 277 327 410
#     4  10  20  40  69  96 121 174 225 281 330 417
#     4  10  20  37  73 105 129 170 230 288 339 409
#     4  12  25  41  66  95 141 182 238 278 353 403
#     4  11  25  40  67  91 136 175 237 280 350 408
#     4  10  21  41  65  97 135 164 222 279 357 394
#
# _framework density 25.373958999999999
#
# number of rings (size 3 to 8) (size 9 to 14) (size 15 to 20)
#    0.000    1.000    5.000    2.250    1.750    0.000 
#    2.250    0.000    2.750    0.000    0.000    0.000 
#    0.000    0.000    0.000    0.000    0.000    0.000 
#
# Total GULP energy -89140.162111 kJ/mol
# GULP energy per Si atom -5571.260132 kJ/mol
# Density = 2.531621 g / cm^3
# Si number density = 25.373959 Si / 1000 Ang^3
#
#
#
# Elastic Constant Matrix: (Units=GPa)
#
#
# Indices 1 2 3 4 5 6 
#
# 1 89.9895 25.0549 26.9322 0.0000 -40.0241 0.0000
# 2 25.0549 97.9967 23.0782 0.0000 -9.5088 0.0000
# 3 26.9322 23.0782 53.5298 0.0000 -36.6659 0.0000
# 4 0.0000 0.0000 0.0000 36.1276 0.0000 -12.3396
# 5 -40.0241 -9.5088 -36.6659 0.0000 49.7290 0.0000
# 6 0.0000 0.0000 0.0000 -12.3396 0.0000 35.1692
#
#
#
# Elastic Compliance Matrix: (Units=1/GPa)
#
#
# Indices 1 2 3 4 5 6 
#
# 1 0.018739 -0.004112 0.004317 0.000000 0.017479 0.000000
# 2 -0.004112 0.012472 -0.007963 0.000000 -0.006796 0.000000
# 3 0.004317 -0.007963 0.042991 0.000000 0.033650 0.000000
# 4 0.000000 0.000000 0.000000 0.031448 0.000000 0.011034
# 5 0.017479 -0.006796 0.033650 0.000000 0.057688 0.000000
# 6 0.000000 0.000000 0.000000 0.011034 0.000000 0.032305
#
#
# Mechanical properties :
#
#
# Convention : Reuss Voigt Hill
#
# Bulk Modulus (GPa) = 17.03976 43.51627 30.27802
# Shear Modulus (GPa) = 21.67114 35.30187 28.48650
#
# Velocity S-wave (km/s) = 2.92562 3.73401 3.35426
# Velocity P-wave (km/s) = 4.25938 5.98144 5.19230
#
# Compressibility (1/GPa) = 0.05868628
#
# Stress axis : x y z
#
# Youngs Moduli (GPa) = 53.36417 80.18250 23.26050
#
# Poissons Ratio (x) = 0.32968 -0.10041
# Poissons Ratio (y) = 0.21942 0.18522
# Poissons Ratio (z) = -0.23036 0.63850
#
# Static dielectric constant tensor:
#      x y z
#    x 2.080660 0.000000 -0.047180 
#    y 0.000000 2.210830 0.000000 
#    z -0.047180 0.000000 2.116110 
# 
# From -- ./inp_files/8648.got.cif
#   From: 2010.05.17/outbox.cif.g08.bks.cpg/sg4_5_cif.got.tgz:8648.got - 2010.06.03 18:43:04.
