data_PCOD9115447
_publ_section_title
;
Structure prediction by ZEFSAII (Michael W. Deem and Ramdas Pophale) SiO2 
 PCOD9115447
Probable space group: P 21
;
_chemical_formula_sum "Si O2"
_cell_formula_units_Z 12
_cell_length_a 4.933365
_cell_length_b 18.201958
_cell_length_c 5.189616
_cell_angle_alpha 90.000000
_cell_angle_beta 84.954735
_cell_angle_gamma 90.000000
_cell_volume 464.205896
_symmetry_space_group_name_H-M "P 21"
_symmetry_group_IT_number 4
_symmetry_cell_setting 'monoclinic'
loop_
_space_group_symop_operation_xyz
x,y,z
-x,1/2+y,-z
loop_
_atom_site_type_symbol
_atom_site_label
_atom_site_fract_x
_atom_site_fract_y
_atom_site_fract_z
Si Si1 0.693607 0.662240 0.228926
Si Si2 0.338973 0.652292 0.779347
Si Si3 0.172222 0.500835 0.626662
Si Si4 0.515032 0.866088 0.544798
Si Si5 0.680640 0.505377 0.306545
Si Si6 0.011301 0.766652 0.514685
O O1 0.546180 0.657196 0.520065
O O2 0.791182 0.578502 0.166305
O O3 0.915023 0.723803 0.267873
O O4 0.486769 0.679465 0.020693
O O5 0.248220 0.567414 0.804085
O O6 0.094174 0.703702 0.709250
O O7 0.316515 0.421928 0.660706
O O8 0.359858 0.522114 0.364903
O O9 0.863307 0.499158 0.554722
O O10 0.758252 0.816097 0.629399
O O11 0.279157 0.815908 0.448470
O O12 0.351582 0.919465 0.760495
#
# Coordination Sequence:
#
# PCOD9115447 Si02
#       6
#     2   2   2   2   2   2
#     4  11  25  46  76 104 140 188 241 292 346 421
#     4  11  25  46  76 104 140 188 241 292 346 421
#     4   9  18  39  67  99 134 182 235 280 344 412
#     4  10  20  38  72 100 146 182 230 292 358 416
#     4   9  18  39  67  99 134 182 235 280 344 412
#     4  12  22  42  72 104 148 178 238 288 364 416
#
# _framework density 25.850598999999999
#
# number of rings (size 3 to 8) (size 9 to 14) (size 15 to 20)
#    1.000    0.667    5.000    0.000    0.000    1.333 
#    0.000    1.667    7.333    0.000    0.000    0.000 
#    0.000    0.000    0.000    0.000    0.000    0.000 
#
# Total GULP energy -66849.159111 kJ/mol
# GULP energy per Si atom -5570.763259 kJ/mol
# Density = 2.579176 g / cm^3
# Si number density = 25.850599 Si / 1000 Ang^3
#
#
#
# Elastic Constant Matrix: (Units=GPa)
#
#
# Indices 1 2 3 4 5 6 
#
# 1 170.2740 80.8499 75.2773 0.0000 33.9659 0.0000
# 2 80.8499 217.1933 55.1311 0.0000 40.4118 0.0000
# 3 75.2773 55.1311 136.5004 0.0000 32.3107 0.0000
# 4 0.0000 0.0000 0.0000 5.0913 0.0000 34.7296
# 5 33.9659 40.4118 32.3107 0.0000 55.7868 0.0000
# 6 0.0000 0.0000 0.0000 34.7296 0.0000 32.5823
#
#
#
# Elastic Compliance Matrix: (Units=1/GPa)
#
#
# Indices 1 2 3 4 5 6 
#
# 1 0.008784 -0.002021 -0.003602 0.000000 -0.001798 0.000000
# 2 -0.002021 0.006040 -0.000673 0.000000 -0.002755 0.000000
# 3 -0.003602 -0.000673 0.010372 0.000000 -0.003326 0.000000
# 4 0.000000 0.000000 0.000000 -0.031321 0.000000 0.033385
# 5 -0.001798 -0.002755 -0.003326 0.000000 0.022942 0.000000
# 6 0.000000 0.000000 0.000000 0.033385 0.000000 -0.004894
#
#
# Mechanical properties :
#
#
# Convention : Reuss Voigt Hill
#
# Bulk Modulus (GPa) = 79.34399 105.16491 92.25445
# Shear Modulus (GPa) = 174.12569 39.53936 106.83252
#
# Velocity S-wave (km/s) = 8.21612 3.91517 6.43557
# Velocity P-wave (km/s) = 10.98937 7.82357 9.53872
#
# Compressibility (1/GPa) = 0.01260335
#
# Stress axis : x y z
#
# Youngs Moduli (GPa) = 113.84926 165.56656 96.41616
#
# Poissons Ratio (x) = 0.33458 0.34731
# Poissons Ratio (y) = 0.23007 0.06487
# Poissons Ratio (z) = 0.41011 0.11140
#
# Static dielectric constant tensor:
#      x y z
#    x 2.089240 0.000000 -0.143360 
#    y 0.000000 2.157630 0.000000 
#    z -0.143360 0.000000 2.059690 
# 
# From -- ./inp_files/619.got.cif
#   From: 2010.05.17/outbox.cif.g08.bks.cpg/sg4_1_cif.got.tgz:619.got - 2010.06.03 18:43:04.
