data_PCOD9115679
_publ_section_title
;
Structure prediction by ZEFSAII (Michael W. Deem and Ramdas Pophale) SiO2 
 PCOD9115679
Probable space group: P 21
;
_chemical_formula_sum "Si O2"
_cell_formula_units_Z 16
_cell_length_a 10.828180
_cell_length_b 13.445532
_cell_length_c 5.377945
_cell_angle_alpha 90.000000
_cell_angle_beta 119.675116
_cell_angle_gamma 90.000000
_cell_volume 680.288182
_symmetry_space_group_name_H-M "P 21"
_symmetry_group_IT_number 4
_symmetry_cell_setting 'monoclinic'
loop_
_space_group_symop_operation_xyz
x,y,z
-x,1/2+y,-z
loop_
_atom_site_type_symbol
_atom_site_label
_atom_site_fract_x
_atom_site_fract_y
_atom_site_fract_z
Si Si1 0.648809 0.432150 0.171305
Si Si2 0.337130 0.705056 0.267852
Si Si3 0.826591 0.561672 0.722252
Si Si4 0.590925 0.622819 0.818605
Si Si5 0.426213 0.297773 0.838843
Si Si6 0.134880 0.545651 0.845610
Si Si7 0.870093 0.358248 0.042171
Si Si8 0.835746 0.917341 0.625291
O O1 0.718687 0.505215 0.434517
O O2 0.594009 0.507706 0.903026
O O3 0.514586 0.367420 0.119300
O O4 0.775938 0.363269 0.196212
O O5 0.432844 0.646756 0.561629
O O6 0.456076 0.767171 0.242945
O O7 0.214053 0.783217 0.222093
O O8 0.254287 0.629400 0.003939
O O9 0.723849 0.637496 0.762835
O O10 0.870702 0.472529 0.952746
O O11 0.975225 0.588120 0.738519
O O12 0.621315 0.698459 0.071859
O O13 0.305122 0.359703 0.588122
O O14 0.139004 0.495189 0.578235
O O15 0.166845 0.468315 0.104816
O O16 0.034219 0.338672 0.246922
#
# Coordination Sequence:
#
# PCOD9115679 Si02
#       8
#     2   2   2   2   2   2   2   2
#     4  10  20  42  66  95 137 184 225 297 353 427
#     4  11  25  43  65 104 139 183 237 301 352 425
#     4  10  21  43  69  95 137 186 233 289 358 420
#     4  11  24  40  67 102 138 184 242 288 366 421
#     4  11  26  41  69 103 143 185 239 292 365 425
#     4  11  26  47  75 103 142 187 241 295 356 427
#     4   9  21  43  67  95 135 180 236 287 354 415
#     4  11  25  49  72 105 141 193 237 291 360 428
#
# _framework density 23.519445000000001
#
# number of rings (size 3 to 8) (size 9 to 14) (size 15 to 20)
#    0.000    1.500    1.250    2.250    7.000    2.000 
#    2.250    0.000    0.000    0.000    0.000    0.000 
#    0.000    0.000    0.000    0.000    0.000    0.000 
#
# Total GULP energy -89376.888914 kJ/mol
# GULP energy per Si atom -5586.055557 kJ/mol
# Density = 2.346591 g / cm^3
# Si number density = 23.519445 Si / 1000 Ang^3
#
#
#
# Elastic Constant Matrix: (Units=GPa)
#
#
# Indices 1 2 3 4 5 6 
#
# 1 82.8638 30.5064 29.5969 0.0000 27.7041 0.0000
# 2 30.5064 59.5296 16.2689 0.0000 16.0215 0.0000
# 3 29.5969 16.2689 83.9686 0.0000 13.8593 0.0000
# 4 0.0000 0.0000 0.0000 34.3793 0.0000 10.1984
# 5 27.7041 16.0215 13.8593 0.0000 40.5338 0.0000
# 6 0.0000 0.0000 0.0000 10.1984 0.0000 29.6124
#
#
#
# Elastic Compliance Matrix: (Units=1/GPa)
#
#
# Indices 1 2 3 4 5 6 
#
# 1 0.018744 -0.006093 -0.003931 0.000000 -0.009059 0.000000
# 2 -0.006093 0.021313 -0.001355 0.000000 -0.003796 0.000000
# 3 -0.003931 -0.001355 0.013805 0.000000 -0.001498 0.000000
# 4 0.000000 0.000000 0.000000 0.032397 0.000000 -0.011157
# 5 -0.009059 -0.003796 -0.001498 0.000000 0.032875 0.000000
# 6 0.000000 0.000000 0.000000 -0.011157 0.000000 0.037612
#
#
# Mechanical properties :
#
#
# Convention : Reuss Voigt Hill
#
# Bulk Modulus (GPa) = 32.15153 42.12293 37.13723
# Shear Modulus (GPa) = 26.33360 30.90441 28.61901
#
# Velocity S-wave (km/s) = 3.34975 3.62884 3.49208
# Velocity P-wave (km/s) = 5.35359 5.95875 5.66426
#
# Compressibility (1/GPa) = 0.03110272
#
# Stress axis : x y z
#
# Youngs Moduli (GPa) = 53.35084 46.91997 72.43989
#
# Poissons Ratio (x) = 0.28589 0.28477
# Poissons Ratio (y) = 0.32507 0.09816
# Poissons Ratio (z) = 0.20973 0.06358
#
# Static dielectric constant tensor:
#      x y z
#    x 1.912830 0.000000 -0.016670 
#    y 0.000000 2.004180 0.000000 
#    z -0.016670 0.000000 1.962770 
# 
# From -- ./inp_files/1719.got.cif
#   From: 2010.05.17/outbox.cif.g08.bks.cpg/sg4_1_cif.got.tgz:1719.got - 2010.06.03 18:43:04.
