data_PCOD9115848
_publ_section_title
;
Structure prediction by ZEFSAII (Michael W. Deem and Ramdas Pophale) SiO2 
 PCOD9115848
Probable space group: P 21
;
_chemical_formula_sum "Si O2"
_cell_formula_units_Z 16
_cell_length_a 11.724644
_cell_length_b 7.172668
_cell_length_c 8.420466
_cell_angle_alpha 90.000000
_cell_angle_beta 69.892704
_cell_angle_gamma 90.000000
_cell_volume 664.975219
_symmetry_space_group_name_H-M "P 21"
_symmetry_group_IT_number 4
_symmetry_cell_setting 'monoclinic'
loop_
_space_group_symop_operation_xyz
x,y,z
-x,1/2+y,-z
loop_
_atom_site_type_symbol
_atom_site_label
_atom_site_fract_x
_atom_site_fract_y
_atom_site_fract_z
Si Si1 0.919158 0.502690 0.181123
Si Si2 0.846328 0.102360 0.117467
Si Si3 0.598685 0.044603 0.724680
Si Si4 0.656691 0.621858 0.260005
Si Si5 0.102990 0.910082 0.461599
Si Si6 0.155856 0.486723 0.542210
Si Si7 0.395927 0.515478 0.898961
Si Si8 0.643797 0.486770 0.636056
O O1 0.901696 0.285003 0.165797
O O2 0.798684 0.582562 0.154126
O O3 0.915008 0.528936 0.370160
O O4 0.052357 0.545013 0.055140
O O5 0.831520 0.967967 0.275097
O O6 0.716024 0.139869 0.105507
O O7 0.459932 0.001011 0.742772
O O8 0.713508 0.934057 0.594806
O O9 0.616649 0.260725 0.652636
O O10 0.607902 0.019009 0.909218
O O11 0.651095 0.571915 0.453877
O O12 0.630734 0.818844 0.180588
O O13 0.137584 0.699809 0.491725
O O14 0.227060 0.998545 0.333501
O O15 0.975362 0.905087 0.436395
O O16 0.529656 0.574375 0.780093
#
# Coordination Sequence:
#
# PCOD9115848 Si02
#       8
#     2   2   2   2   2   2   2   2
#     4  10  22  39  61  90 128 169 219 280 339 403
#     4  11  23  39  62  92 129 175 222 274 341 412
#     4  10  22  41  64  95 134 172 218 278 341 403
#     4  10  22  43  68  95 130 176 229 280 339 409
#     4   9  20  39  59  84 118 161 212 268 325 388
#     4  10  21  37  60  88 121 165 213 264 327 397
#     4  11  23  40  67 100 131 171 227 285 340 402
#     4   9  21  42  65  92 131 177 222 273 340 410
#
# _framework density 24.061046999999999
#
# number of rings (size 3 to 8) (size 9 to 14) (size 15 to 20)
#    0.000    2.000    0.000    3.000    0.000   11.000 
#    0.000    6.250    0.000    0.000    0.000    0.000 
#    0.000    0.000    0.000    0.000    0.000    0.000 
#
# Total GULP energy -89207.368910 kJ/mol
# GULP energy per Si atom -5575.460557 kJ/mol
# Density = 2.400628 g / cm^3
# Si number density = 24.061047 Si / 1000 Ang^3
#
#
#
# Elastic Constant Matrix: (Units=GPa)
#
#
# Indices 1 2 3 4 5 6 
#
# 1 144.1154 6.7687 38.4731 0.0000 -14.4272 0.0000
# 2 6.7687 56.2503 0.6127 0.0000 3.9525 0.0000
# 3 38.4731 0.6127 74.3556 0.0000 -27.0992 0.0000
# 4 0.0000 0.0000 0.0000 21.3141 0.0000 -3.2991
# 5 -14.4272 3.9525 -27.0992 0.0000 42.9126 0.0000
# 6 0.0000 0.0000 0.0000 -3.2991 0.0000 26.4146
#
#
#
# Elastic Compliance Matrix: (Units=1/GPa)
#
#
# Indices 1 2 3 4 5 6 
#
# 1 0.008101 -0.000945 -0.004104 0.000000 0.000219 0.000000
# 2 -0.000945 0.018058 -0.000496 0.000000 -0.002294 0.000000
# 3 -0.004104 -0.000496 0.019602 0.000000 0.011044 0.000000
# 4 0.000000 0.000000 0.000000 0.047842 0.000000 0.005975
# 5 0.000219 -0.002294 0.011044 0.000000 0.030563 0.000000
# 6 0.000000 0.000000 0.000000 0.005975 0.000000 0.038604
#
#
# Mechanical properties :
#
#
# Convention : Reuss Voigt Hill
#
# Bulk Modulus (GPa) = 28.84323 40.71448 34.77886
# Shear Modulus (GPa) = 26.96635 33.38604 30.17619
#
# Velocity S-wave (km/s) = 3.35139 3.72903 3.54524
# Velocity P-wave (km/s) = 5.19512 5.95810 5.58964
#
# Compressibility (1/GPa) = 0.03467018
#
# Stress axis : x y z
#
# Youngs Moduli (GPa) = 123.44463 55.37698 51.01635
#
# Poissons Ratio (x) = 0.05236 0.20937
# Poissons Ratio (y) = 0.11671 0.02529
# Poissons Ratio (z) = 0.50661 0.02745
#
# Static dielectric constant tensor:
#      x y z
#    x 1.947870 0.000000 -0.036790 
#    y 0.000000 2.063530 0.000000 
#    z -0.036790 0.000000 2.131460 
# 
# From -- ./inp_files/8017.got.cif
#   From: 2010.05.17/outbox.cif.g08.bks.cpg/sg4_5_cif.got.tgz:8017.got - 2010.06.03 18:43:04.
