data_PCOD9115163
_publ_section_title
;
Structure prediction by ZEFSAII (Michael W. Deem and Ramdas Pophale) SiO2 
 PCOD9115163
Probable space group: P 21
;
_chemical_formula_sum "Si O2"
_cell_formula_units_Z 14
_cell_length_a 10.271294
_cell_length_b 8.657025
_cell_length_c 13.589232
_cell_angle_alpha 90.000000
_cell_angle_beta 35.613284
_cell_angle_gamma 90.000000
_cell_volume 703.629584
_symmetry_space_group_name_H-M "P 21"
_symmetry_group_IT_number 4
_symmetry_cell_setting 'monoclinic'
loop_
_space_group_symop_operation_xyz
x,y,z
-x,1/2+y,-z
loop_
_atom_site_type_symbol
_atom_site_label
_atom_site_fract_x
_atom_site_fract_y
_atom_site_fract_z
Si Si1 0.431775 0.323110 0.522218
Si Si2 0.135932 0.407893 0.533786
Si Si3 0.181981 0.628490 0.672722
Si Si4 0.275642 0.714354 0.125794
Si Si5 0.144015 0.989679 0.979324
Si Si6 0.420261 0.452020 0.183969
Si Si7 0.969508 0.652748 0.143990
O O1 0.336915 0.319269 0.469123
O O2 0.348831 0.491125 0.608036
O O3 0.687296 0.284885 0.386117
O O4 0.280290 0.198277 0.671275
O O5 0.136942 0.575814 0.588040
O O6 0.196501 0.409092 0.382163
O O7 0.905458 0.326367 0.708950
O O8 0.964771 0.600648 0.871290
O O9 0.381336 0.596733 0.137366
O O10 0.126956 0.615660 0.139321
O O11 0.458052 0.817122 0.954248
O O12 0.406901 0.999891 0.835767
O O13 0.049561 0.035601 0.932525
O O14 0.073292 0.814789 0.043645
#
# Coordination Sequence:
#
# PCOD9115163 Si02
#       7
#     2   2   2   2   2   2   2
#     4   8  17  31  53  83 115 151 184 237 285 354
#     4   9  20  39  61  82 123 162 194 243 304 352
#     4   9  17  33  56  86 123 144 197 236 289 363
#     4  10  23  42  60  92 119 155 213 243 294 367
#     4  10  20  34  60  88 116 154 190 242 298 348
#     4  11  22  41  67  83 122 164 197 254 299 350
#     4   9  19  36  55  86 120 146 193 241 293 352
#
# _framework density 19.896833999999998
#
# number of rings (size 3 to 8) (size 9 to 14) (size 15 to 20)
#    0.857    1.714    2.857    0.857    4.000    2.286 
#    0.000    1.429   12.571    0.000    0.000    0.000 
#    0.000    0.000    0.000    0.000    0.000    0.000 
#
# Total GULP energy -77940.941188 kJ/mol
# GULP energy per Si atom -5567.210085 kJ/mol
# Density = 1.985155 g / cm^3
# Si number density = 19.896834 Si / 1000 Ang^3
#
#
#
# Elastic Constant Matrix: (Units=GPa)
#
#
# Indices 1 2 3 4 5 6 
#
# 1 21.5015 23.5096 15.3309 0.0000 -2.1476 0.0000
# 2 23.5096 -6.3036 11.0500 0.0000 11.1603 0.0000
# 3 15.3309 11.0500 94.8533 0.0000 20.9815 0.0000
# 4 0.0000 0.0000 0.0000 23.6736 0.0000 3.4530
# 5 -2.1476 11.1603 20.9815 0.0000 18.8246 0.0000
# 6 0.0000 0.0000 0.0000 3.4530 0.0000 26.3210
#
#
#
# Elastic Compliance Matrix: (Units=1/GPa)
#
#
# Indices 1 2 3 4 5 6 
#
# 1 0.015238 0.029573 -0.003204 0.000000 -0.012223 0.000000
# 2 0.029573 -0.019844 -0.007720 0.000000 0.023743 0.000000
# 3 -0.003204 -0.007720 0.014637 0.000000 -0.012103 0.000000
# 4 0.000000 0.000000 0.000000 0.043065 0.000000 -0.005650
# 5 -0.012223 0.023743 -0.012103 0.000000 0.051141 0.000000
# 6 0.000000 0.000000 0.000000 -0.005650 0.000000 0.038734
#
#
# Mechanical properties :
#
#
# Convention : Reuss Voigt Hill
#
# Bulk Modulus (GPa) = 21.12915 23.31470 22.22193
# Shear Modulus (GPa) = 41.16926 17.77455 29.47190
#
# Velocity S-wave (km/s) = 4.55371 2.99211 3.85286
# Velocity P-wave (km/s) = 6.18795 4.86623 5.56646
#
# Compressibility (1/GPa) = 0.04732797
#
# Stress axis : x y z
#
# Youngs Moduli (GPa) = 65.62716 -50.39423 68.32017
#
# Poissons Ratio (x) = 1.49029 0.21891
# Poissons Ratio (y) = -1.94077 0.52743
# Poissons Ratio (z) = 0.21029 -0.38904
#
# Static dielectric constant tensor:
#      x y z
#    x 1.686400 0.000000 0.014710 
#    y 0.000000 1.708670 0.000000 
#    z 0.014710 0.000000 1.754460 
# 
# From -- ./inp_files/13923.got.cif
#   From: 2010.05.17/outbox.cif.g08.bks.cpg/sg4_7_cif.got.tgz:13923.got - 2010.06.03 18:43:04.
