data_PCOD9115765
_publ_section_title
;
Structure prediction by ZEFSAII (Michael W. Deem and Ramdas Pophale) SiO2 
 PCOD9115765
Probable space group: P 21
;
_chemical_formula_sum "Si O2"
_cell_formula_units_Z 14
_cell_length_a 19.891788
_cell_length_b 5.056753
_cell_length_c 5.151183
_cell_angle_alpha 90.000000
_cell_angle_beta 72.244783
_cell_angle_gamma 90.000000
_cell_volume 493.466134
_symmetry_space_group_name_H-M "P 21"
_symmetry_group_IT_number 4
_symmetry_cell_setting 'monoclinic'
loop_
_space_group_symop_operation_xyz
x,y,z
-x,1/2+y,-z
loop_
_atom_site_type_symbol
_atom_site_label
_atom_site_fract_x
_atom_site_fract_y
_atom_site_fract_z
Si Si1 0.843656 0.648940 0.337552
Si Si2 0.543406 0.444236 0.399691
Si Si3 0.111514 0.660994 0.993527
Si Si4 0.977937 0.802651 0.444993
Si Si5 0.290237 0.371371 0.529786
Si Si6 0.380251 0.788473 0.198848
Si Si7 0.751488 0.178001 0.901931
O O1 0.878657 0.366009 0.248313
O O2 0.758414 0.609573 0.395860
O O3 0.895454 0.765364 0.497539
O O4 0.861152 0.869904 0.101195
O O5 0.487004 0.237312 0.582748
O O6 0.604187 0.440229 0.550702
O O7 0.562264 0.333792 0.092093
O O8 0.171662 0.777340 0.118039
O O9 0.033231 0.642940 0.192056
O O10 0.996833 0.597145 0.650775
O O11 0.363338 0.486279 0.315197
O O12 0.283276 0.515254 0.816494
O O13 0.240556 0.498478 0.362842
O O14 0.310431 0.875650 0.119458
#
# Coordination Sequence:
#
# PCOD9115765 Si02
#       7
#     2   2   2   2   2   2   2
#     4  11  23  42  64  95 133 185 235 295 355 418
#     4  12  26  48  74 106 144 184 232 282 344 416
#     4  11  23  42  64  95 133 185 235 295 355 418
#     4  12  24  40  64  94 134 182 240 300 360 420
#     4   9  19  40  68  98 142 178 233 281 346 410
#     4  10  20  46  72 108 142 188 230 286 344 418
#     4   9  19  40  68  98 142 178 233 281 346 410
#
# _framework density 28.370739
#
# number of rings (size 3 to 8) (size 9 to 14) (size 15 to 20)
#    0.857    0.571    1.429    4.286    0.000    2.286 
#    2.571    5.714    0.000    0.000    0.000    0.000 
#    0.000    0.000    0.000    0.000    0.000    0.000 
#
# Total GULP energy -77998.884982 kJ/mol
# GULP energy per Si atom -5571.348927 kJ/mol
# Density = 2.830617 g / cm^3
# Si number density = 28.370739 Si / 1000 Ang^3
#
#
#
# Elastic Constant Matrix: (Units=GPa)
#
#
# Indices 1 2 3 4 5 6 
#
# 1 55.3756 9.3328 13.0234 0.0000 25.3536 0.0000
# 2 9.3328 105.3680 8.9813 0.0000 -2.2299 0.0000
# 3 13.0234 8.9813 167.1151 0.0000 -0.5124 0.0000
# 4 0.0000 0.0000 0.0000 24.0695 0.0000 -11.2916
# 5 25.3536 -2.2299 -0.5124 0.0000 51.6577 0.0000
# 6 0.0000 0.0000 0.0000 -11.2916 0.0000 24.9010
#
#
#
# Elastic Compliance Matrix: (Units=1/GPa)
#
#
# Indices 1 2 3 4 5 6 
#
# 1 0.024404 -0.002263 -0.001817 0.000000 -0.012093 0.000000
# 2 -0.002263 0.009753 -0.000343 0.000000 0.001528 0.000000
# 3 -0.001817 -0.000343 0.006147 0.000000 0.000938 0.000000
# 4 0.000000 0.000000 0.000000 0.052773 0.000000 0.023930
# 5 -0.012093 0.001528 0.000938 0.000000 0.025369 0.000000
# 6 0.000000 0.000000 0.000000 0.023930 0.000000 0.051010
#
#
# Mechanical properties :
#
#
# Convention : Reuss Voigt Hill
#
# Bulk Modulus (GPa) = 31.78901 43.39262 37.59082
# Shear Modulus (GPa) = 26.48486 39.89373 33.18930
#
# Velocity S-wave (km/s) = 3.05868 3.75395 3.42401
# Velocity P-wave (km/s) = 4.86860 5.84102 5.37684
#
# Compressibility (1/GPa) = 0.03145741
#
# Stress axis : x y z
#
# Youngs Moduli (GPa) = 40.97684 102.53746 162.68519
#
# Poissons Ratio (x) = 0.23200 0.29565
# Poissons Ratio (y) = 0.09271 0.05582
# Poissons Ratio (z) = 0.07447 0.03518
#
# Static dielectric constant tensor:
#      x y z
#    x 2.462770 0.000000 -0.006250 
#    y 0.000000 2.063150 0.000000 
#    z -0.006250 0.000000 2.486180 
# 
# From -- ./inp_files/4286.got.cif
#   From: 2010.05.17/outbox.cif.g08.bks.cpg/sg4_3_cif.got.tgz:4286.got - 2010.06.03 18:43:04.
