data_PCOD9115377
_publ_section_title
;
Structure prediction by ZEFSAII (Michael W. Deem and Ramdas Pophale) SiO2 
 PCOD9115377
Probable space group: P 21
;
_chemical_formula_sum "Si O2"
_cell_formula_units_Z 16
_cell_length_a 19.896348
_cell_length_b 7.373152
_cell_length_c 15.083522
_cell_angle_alpha 90.000000
_cell_angle_beta 16.379892
_cell_angle_gamma 90.000000
_cell_volume 624.001692
_symmetry_space_group_name_H-M "P 21"
_symmetry_group_IT_number 4
_symmetry_cell_setting 'monoclinic'
loop_
_space_group_symop_operation_xyz
x,y,z
-x,1/2+y,-z
loop_
_atom_site_type_symbol
_atom_site_label
_atom_site_fract_x
_atom_site_fract_y
_atom_site_fract_z
Si Si1 0.154040 0.304000 0.494170
Si Si2 0.367571 0.911383 0.188825
Si Si3 0.461069 0.387999 0.460415
Si Si4 0.271210 0.750110 0.630044
Si Si5 0.178895 0.071561 0.886158
Si Si6 0.570292 0.787377 0.695031
Si Si7 0.113086 0.756402 0.339232
Si Si8 0.424369 0.201814 0.912562
O O1 0.180617 0.296014 0.567673
O O2 0.947832 0.334336 0.683222
O O3 0.246491 0.100758 0.360671
O O4 0.368213 0.430183 0.187061
O O5 0.205505 0.831696 0.316125
O O6 0.407648 0.793350 0.225884
O O7 0.310398 0.571624 0.640508
O O8 0.360902 0.243176 0.655862
O O9 0.725978 0.457342 0.149127
O O10 0.420187 0.278230 0.421253
O O11 0.504208 0.783306 0.273716
O O12 0.206091 0.924542 0.771342
O O13 0.068944 0.676737 0.817032
O O14 0.473603 0.989444 0.836770
O O15 0.363154 0.654521 0.995798
O O16 0.845778 0.706726 0.709051
#
# Coordination Sequence:
#
# PCOD9115377 Si02
#       8
#     2   2   2   2   2   2   2   2
#     4  10  21  37  59  88 128 176 230 277 332 402
#     4  10  21  37  59  89 125 178 228 279 331 401
#     4  11  25  46  75 111 146 185 250 308 369 443
#     4  11  25  46  75 106 145 193 237 311 375 436
#     4  12  24  48  77 109 142 192 243 308 379 439
#     4  10  24  42  65  97 137 184 226 290 353 418
#     4  10  20  38  61  93 134 180 225 273 341 416
#     4  10  24  42  65  97 137 180 231 284 350 423
#
# _framework density 25.640954000000001
#
# number of rings (size 3 to 8) (size 9 to 14) (size 15 to 20)
#    0.000    1.500    2.500    3.000    1.750   14.000 
#    0.000    0.000    0.000    0.000    0.000    0.000 
#    0.000    0.000    0.000    0.000    0.000    0.000 
#
# Total GULP energy -89098.972021 kJ/mol
# GULP energy per Si atom -5568.685751 kJ/mol
# Density = 2.558259 g / cm^3
# Si number density = 25.640954 Si / 1000 Ang^3
#
#
#
# Elastic Constant Matrix: (Units=GPa)
#
#
# Indices 1 2 3 4 5 6 
#
# 1 123.8247 30.3777 18.7123 0.0000 -35.4364 0.0000
# 2 30.3777 95.1379 25.7345 0.0000 -6.1363 0.0000
# 3 18.7123 25.7345 76.0830 0.0000 -32.5136 0.0000
# 4 0.0000 0.0000 0.0000 -33.0562 0.0000 96.2077
# 5 -35.4364 -6.1363 -32.5136 0.0000 55.8071 0.0000
# 6 0.0000 0.0000 0.0000 96.2077 0.0000 -121.0372
#
#
#
# Elastic Compliance Matrix: (Units=1/GPa)
#
#
# Indices 1 2 3 4 5 6 
#
# 1 0.010797 -0.003424 0.001693 0.000000 0.007466 0.000000
# 2 -0.003424 0.012731 -0.005053 0.000000 -0.003718 0.000000
# 3 0.001693 -0.005053 0.019518 0.000000 0.011891 0.000000
# 4 0.000000 0.000000 0.000000 0.023033 0.000000 0.018308
# 5 0.007466 -0.003718 0.011891 0.000000 0.029178 0.000000
# 6 0.000000 0.000000 0.000000 0.018308 0.000000 0.006291
#
#
# Mechanical properties :
#
#
# Convention : Reuss Voigt Hill
#
# Bulk Modulus (GPa) = 33.92389 49.41054 41.66721
# Shear Modulus (GPa) = 40.01888 -4.97584 17.52152
#
# Velocity S-wave (km/s) = 3.95491 -1.39456 2.61692
# Velocity P-wave (km/s) = 5.84073 4.08888 5.04148
#
# Compressibility (1/GPa) = 0.02947775
#
# Stress axis : x y z
#
# Youngs Moduli (GPa) = 92.62238 78.54646 51.23558
#
# Poissons Ratio (x) = 0.26893 -0.08674
# Poissons Ratio (y) = 0.31712 0.25890
# Poissons Ratio (z) = -0.15681 0.39691
#
# Static dielectric constant tensor:
#      x y z
#    x 2.326520 0.000000 0.092230 
#    y 0.000000 2.153160 0.000000 
#    z 0.092230 0.000000 2.130020 
# 
# From -- ./inp_files/14305.got.cif
#   From: 2010.05.17/outbox.cif.g08.bks.cpg/sg4_8_cif.got.tgz:14305.got - 2010.06.03 18:43:04.
