data_PCOD9115807
_publ_section_title
;
Structure prediction by ZEFSAII (Michael W. Deem and Ramdas Pophale) SiO2 
 PCOD9115807
Probable space group: P 21
;
_chemical_formula_sum "Si O2"
_cell_formula_units_Z 16
_cell_length_a 22.051003
_cell_length_b 6.138996
_cell_length_c 28.434008
_cell_angle_alpha 90.000000
_cell_angle_beta 169.850138
_cell_angle_gamma 90.000000
_cell_volume 678.308765
_symmetry_space_group_name_H-M "P 21"
_symmetry_group_IT_number 4
_symmetry_cell_setting 'monoclinic'
loop_
_space_group_symop_operation_xyz
x,y,z
-x,1/2+y,-z
loop_
_atom_site_type_symbol
_atom_site_label
_atom_site_fract_x
_atom_site_fract_y
_atom_site_fract_z
Si Si1 0.888654 0.474680 0.268038
Si Si2 0.296812 0.861264 0.625556
Si Si3 0.673140 0.963358 0.816300
Si Si4 0.788512 0.169538 0.278219
Si Si5 0.650659 0.878004 0.981755
Si Si6 0.301698 0.583971 0.501805
Si Si7 0.803793 0.681943 0.624785
Si Si8 0.659776 0.551489 0.619174
O O1 0.813800 0.292748 0.248382
O O2 0.016055 0.688112 0.393950
O O3 0.193193 0.435167 0.463513
O O4 0.532839 0.508065 0.969606
O O5 0.455887 0.958740 0.699563
O O6 0.579116 0.765145 0.876525
O O7 0.136545 0.033684 0.540253
O O8 0.645794 0.713053 0.776745
O O9 0.492547 0.092497 0.636241
O O10 0.043139 0.042948 0.114554
O O11 0.669846 0.333581 0.228193
O O12 0.988805 0.756515 0.261194
O O13 0.813852 0.119372 0.102024
O O14 0.272954 0.438272 0.434025
O O15 0.790148 0.574303 0.665040
O O16 0.488493 0.797947 0.493721
#
# Coordination Sequence:
#
# PCOD9115807 Si02
#       8
#     2   2   2   2   2   2   2   2
#     4  10  21  36  59  88 134 184 245 299 364 431
#     4  11  22  41  61  95 139 190 249 312 372 447
#     4  10  24  48  75 112 147 200 258 306 391 475
#     4  11  22  35  57  89 135 186 243 305 364 427
#     4  10  24  39  61 101 140 186 256 308 371 455
#     4   9  22  42  74 101 138 200 247 309 377 459
#     4  11  24  48  80 105 152 198 250 314 393 474
#     4  12  31  53  85 123 161 198 252 331 406 488
#
# _framework density 23.588076999999998
#
# number of rings (size 3 to 8) (size 9 to 14) (size 15 to 20)
#    0.000    1.500    2.500    1.500    8.750    2.000 
#    2.250    0.000    0.000    0.000    0.000    0.000 
#    0.000    0.000    0.000    0.000    0.000    0.000 
#
# Total GULP energy -89120.980956 kJ/mol
# GULP energy per Si atom -5570.061310 kJ/mol
# Density = 2.353439 g / cm^3
# Si number density = 23.588077 Si / 1000 Ang^3
#
#
#
# Elastic Constant Matrix: (Units=GPa)
#
#
# Indices 1 2 3 4 5 6 
#
# 1 46.5674 8.1704 7.2104 0.0000 -7.1190 0.0000
# 2 8.1704 66.3220 6.9543 0.0000 19.5455 0.0000
# 3 7.2104 6.9543 38.4867 0.0000 -4.2963 0.0000
# 4 0.0000 0.0000 0.0000 17.1394 0.0000 -10.6142
# 5 -7.1190 19.5455 -4.2963 0.0000 25.3243 0.0000
# 6 0.0000 0.0000 0.0000 -10.6142 0.0000 37.6787
#
#
#
# Elastic Compliance Matrix: (Units=1/GPa)
#
#
# Indices 1 2 3 4 5 6 
#
# 1 0.024616 -0.006114 -0.002250 0.000000 0.011257 0.000000
# 2 -0.006114 0.022161 -0.005056 0.000000 -0.019681 0.000000
# 3 -0.002250 -0.005056 0.028218 0.000000 0.008057 0.000000
# 4 0.000000 0.000000 0.000000 0.070674 0.000000 0.019909
# 5 0.011257 -0.019681 0.008057 0.000000 0.059209 0.000000
# 6 0.000000 0.000000 0.000000 0.019909 0.000000 0.032149
#
#
# Mechanical properties :
#
#
# Convention : Reuss Voigt Hill
#
# Bulk Modulus (GPa) = 20.76654 21.78293 21.27473
# Shear Modulus (GPa) = 17.86225 24.63121 21.24673
#
# Velocity S-wave (km/s) = 2.75482 3.23495 3.00449
# Velocity P-wave (km/s) = 4.35220 4.81746 4.59073
#
# Compressibility (1/GPa) = 0.04815438
#
# Stress axis : x y z
#
# Youngs Moduli (GPa) = 40.62336 45.12356 35.43885
#
# Poissons Ratio (x) = 0.27589 0.07975
# Poissons Ratio (y) = 0.24838 0.17918
# Poissons Ratio (z) = 0.09142 0.22814
#
# Static dielectric constant tensor:
#      x y z
#    x 1.903840 0.000000 0.008170 
#    y 0.000000 2.075720 0.000000 
#    z 0.008170 0.000000 1.963520 
# 
# From -- ./inp_files/16578.got.cif
#   From: 2010.05.17/outbox.cif.g08.bks.cpg/sg4_9_cif.got.tgz:16578.got - 2010.06.03 18:43:04.
