data_PCOD9115817
_publ_section_title
;
Structure prediction by ZEFSAII (Michael W. Deem and Ramdas Pophale) SiO2 
 PCOD9115817
Probable space group: P 21
;
_chemical_formula_sum "Si O2"
_cell_formula_units_Z 16
_cell_length_a 8.920268
_cell_length_b 7.634670
_cell_length_c 11.293777
_cell_angle_alpha 90.000000
_cell_angle_beta 97.957882
_cell_angle_gamma 90.000000
_cell_volume 761.736742
_symmetry_space_group_name_H-M "P 21"
_symmetry_group_IT_number 4
_symmetry_cell_setting 'monoclinic'
loop_
_space_group_symop_operation_xyz
x,y,z
-x,1/2+y,-z
loop_
_atom_site_type_symbol
_atom_site_label
_atom_site_fract_x
_atom_site_fract_y
_atom_site_fract_z
Si Si1 0.906309 0.881120 0.034077
Si Si2 0.570673 0.413773 0.108403
Si Si3 0.123835 0.738282 0.890279
Si Si4 0.501329 0.021040 0.161076
Si Si5 0.963728 0.121276 0.623724
Si Si6 0.277845 0.229263 0.782965
Si Si7 0.980116 0.710038 0.638772
Si Si8 0.812593 0.415347 0.753387
O O1 0.796378 0.756601 0.094572
O O2 0.058212 0.906078 0.130166
O O3 0.839709 0.074687 0.022349
O O4 0.963694 0.812598 0.916070
O O5 0.742929 0.373143 0.089255
O O6 0.593299 0.580112 0.196067
O O7 0.511603 0.232937 0.159495
O O8 0.492539 0.465338 0.977033
O O9 0.107816 0.683527 0.752902
O O10 0.639022 0.912474 0.235690
O O11 0.347577 0.952723 0.204307
O O12 0.843441 0.238314 0.682569
O O13 0.133370 0.175646 0.688036
O O14 0.962346 0.163923 0.484798
O O15 0.939654 0.914892 0.638444
O O16 0.852325 0.574808 0.668298
#
# Coordination Sequence:
#
# PCOD9115817 Si02
#       8
#     2   2   2   2   2   2   2   2
#     4  10  21  36  62  99 133 157 220 272 329 387
#     4  12  23  39  61  96 139 175 207 261 331 407
#     4  11  21  36  62 102 130 165 210 275 330 394
#     4  12  25  41  63  98 142 178 216 254 336 410
#     4  11  23  44  72  95 126 168 230 286 330 367
#     4  11  24  41  65  94 132 180 207 271 329 391
#     4  11  23  40  72  97 125 165 224 285 333 375
#     4  10  24  41  65  99 127 170 220 276 324 397
#
# _framework density 21.004632999999998
#
# number of rings (size 3 to 8) (size 9 to 14) (size 15 to 20)
#    0.000    1.000    6.250    0.750    3.500    1.000 
#    0.000    0.000    8.250    0.000    0.000    0.000 
#    0.000    0.000    0.000    0.000    0.000    0.000 
#
# Total GULP energy -89351.496877 kJ/mol
# GULP energy per Si atom -5584.468555 kJ/mol
# Density = 2.095683 g / cm^3
# Si number density = 21.004633 Si / 1000 Ang^3
#
#
#
# Elastic Constant Matrix: (Units=GPa)
#
#
# Indices 1 2 3 4 5 6 
#
# 1 78.5705 37.2365 14.8529 0.0000 -17.2582 0.0000
# 2 37.2365 158.5866 18.2074 0.0000 -11.2694 0.0000
# 3 14.8529 18.2074 69.0162 0.0000 -9.3559 0.0000
# 4 0.0000 0.0000 0.0000 28.3567 0.0000 -6.5474
# 5 -17.2582 -11.2694 -9.3559 0.0000 18.9174 0.0000
# 6 0.0000 0.0000 0.0000 -6.5474 0.0000 35.5882
#
#
#
# Elastic Compliance Matrix: (Units=1/GPa)
#
#
# Indices 1 2 3 4 5 6 
#
# 1 0.017307 -0.002979 -0.001114 0.000000 0.013464 0.000000
# 2 -0.002979 0.007207 -0.001122 0.000000 0.001020 0.000000
# 3 -0.001114 -0.001122 0.015860 0.000000 0.006160 0.000000
# 4 0.000000 0.000000 0.000000 0.036830 0.000000 0.006776
# 5 0.013464 0.001020 0.006160 0.000000 0.068799 0.000000
# 6 0.000000 0.000000 0.000000 0.006776 0.000000 0.029346
#
#
# Mechanical properties :
#
#
# Convention : Reuss Voigt Hill
#
# Bulk Modulus (GPa) = 33.39480 49.64076 41.51778
# Shear Modulus (GPa) = 25.54174 32.29754 28.91964
#
# Velocity S-wave (km/s) = 3.49091 3.92553 3.71458
# Velocity P-wave (km/s) = 5.67291 6.65063 6.18113
#
# Compressibility (1/GPa) = 0.02994478
#
# Stress axis : x y z
#
# Youngs Moduli (GPa) = 57.77956 138.76331 63.05199
#
# Poissons Ratio (x) = 0.41340 0.07021
# Poissons Ratio (y) = 0.17213 0.07073
# Poissons Ratio (z) = 0.06434 0.15565
#
# Static dielectric constant tensor:
#      x y z
#    x 1.767830 0.000000 0.018510 
#    y 0.000000 1.856690 0.000000 
#    z 0.018510 0.000000 1.730630 
# 
# From -- ./inp_files/10803.got.cif
#   From: 2010.05.17/outbox.cif.g08.bks.cpg/sg4_6_cif.got.tgz:10803.got - 2010.06.03 18:43:04.
