data_PCOD9115769
_publ_section_title
;
Structure prediction by ZEFSAII (Michael W. Deem and Ramdas Pophale) SiO2 
 PCOD9115769
Probable space group: P 21
;
_chemical_formula_sum "Si O2"
_cell_formula_units_Z 14
_cell_length_a 12.283581
_cell_length_b 9.450158
_cell_length_c 10.839579
_cell_angle_alpha 90.000000
_cell_angle_beta 24.056376
_cell_angle_gamma 90.000000
_cell_volume 512.918416
_symmetry_space_group_name_H-M "P 21"
_symmetry_group_IT_number 4
_symmetry_cell_setting 'monoclinic'
loop_
_space_group_symop_operation_xyz
x,y,z
-x,1/2+y,-z
loop_
_atom_site_type_symbol
_atom_site_label
_atom_site_fract_x
_atom_site_fract_y
_atom_site_fract_z
Si Si1 0.696555 0.121580 0.878085
Si Si2 0.484198 0.959587 0.535803
Si Si3 0.460221 0.125137 0.785701
Si Si4 0.674167 0.365977 0.704223
Si Si5 0.343707 0.243899 0.431231
Si Si6 0.024566 0.969751 0.836208
Si Si7 0.052860 0.472683 0.585761
O O1 0.722470 0.262831 0.769209
O O2 0.156552 0.122651 0.678051
O O3 0.915189 0.019012 0.589631
O O4 0.619653 0.180689 0.091261
O O5 0.449407 0.105960 0.649818
O O6 0.582441 0.852130 0.538561
O O7 0.721356 0.972078 0.192298
O O8 0.209923 0.912231 0.756196
O O9 0.743274 0.071583 0.546352
O O10 0.447938 0.279661 0.858531
O O11 0.234792 0.018950 0.069560
O O12 0.553604 0.513836 0.875009
O O13 0.901636 0.389261 0.366136
O O14 0.175909 0.320755 0.494642
#
# Coordination Sequence:
#
# PCOD9115769 Si02
#       7
#     2   2   2   2   2   2   2
#     4  10  20  46  75 108 150 190 248 309 376 445
#     4  11  25  46  69 105 145 193 245 310 363 441
#     4  10  23  42  71 100 138 187 244 293 368 425
#     4  10  23  44  74 111 145 196 245 309 374 447
#     4  10  23  45  75 105 147 193 249 305 376 440
#     4  11  27  43  74 106 146 195 250 301 371 447
#     4  10  21  44  70 103 137 186 237 303 364 433
#
# _framework density 27.294788
#
# number of rings (size 3 to 8) (size 9 to 14) (size 15 to 20)
#    0.000    1.714    1.429    1.714    4.000    4.571 
#    5.143   12.857    0.000    0.000    0.000    0.000 
#    0.000    0.000    0.000    0.000    0.000    0.000 
#
# Total GULP energy -78395.825936 kJ/mol
# GULP energy per Si atom -5599.701853 kJ/mol
# Density = 2.723266 g / cm^3
# Si number density = 27.294788 Si / 1000 Ang^3
#
#
#
# Elastic Constant Matrix: (Units=GPa)
#
#
# Indices 1 2 3 4 5 6 
#
# 1 129.4935 42.6603 51.0234 0.0000 8.8203 0.0000
# 2 42.6603 91.6980 4.6962 0.0000 7.4388 0.0000
# 3 51.0234 4.6962 120.9961 0.0000 17.4745 0.0000
# 4 0.0000 0.0000 0.0000 21.3332 0.0000 26.5465
# 5 8.8203 7.4388 17.4745 0.0000 49.5765 0.0000
# 6 0.0000 0.0000 0.0000 26.5465 0.0000 51.0089
#
#
#
# Elastic Compliance Matrix: (Units=1/GPa)
#
#
# Indices 1 2 3 4 5 6 
#
# 1 0.011131 -0.004975 -0.004554 0.000000 0.000371 0.000000
# 2 -0.004975 0.013268 0.001836 0.000000 -0.001753 0.000000
# 3 -0.004554 0.001836 0.010575 0.000000 -0.003193 0.000000
# 4 0.000000 0.000000 0.000000 0.133020 0.000000 -0.069227
# 5 0.000371 -0.001753 -0.003193 0.000000 0.021493 0.000000
# 6 0.000000 0.000000 0.000000 -0.069227 0.000000 0.055632
#
#
# Mechanical properties :
#
#
# Convention : Reuss Voigt Hill
#
# Bulk Modulus (GPa) = 51.05350 59.88305 55.46828
# Shear Modulus (GPa) = 18.72419 40.63758 29.68088
#
# Velocity S-wave (km/s) = 2.62200 3.86274 3.30118
# Velocity P-wave (km/s) = 5.28314 6.47158 5.90732
#
# Compressibility (1/GPa) = 0.01958729
#
# Stress axis : x y z
#
# Youngs Moduli (GPa) = 89.84258 75.36884 94.56204
#
# Poissons Ratio (x) = 0.37497 0.43066
# Poissons Ratio (y) = 0.44698 -0.17363
# Poissons Ratio (z) = 0.40917 -0.13839
#
# Static dielectric constant tensor:
#      x y z
#    x 2.186430 0.000000 -0.031790 
#    y 0.000000 2.217380 0.000000 
#    z -0.031790 0.000000 2.046800 
# 
# From -- ./inp_files/12328.got.cif
#   From: 2010.05.17/outbox.cif.g08.bks.cpg/sg4_7_cif.got.tgz:12328.got - 2010.06.03 18:43:04.
