data_PCOD9115882
_publ_section_title
;
Structure prediction by ZEFSAII (Michael W. Deem and Ramdas Pophale) SiO2 
 PCOD9115882
Probable space group: P 21
;
_chemical_formula_sum "Si O2"
_cell_formula_units_Z 16
_cell_length_a 16.950112
_cell_length_b 5.449538
_cell_length_c 10.622876
_cell_angle_alpha 90.000000
_cell_angle_beta 41.156110
_cell_angle_gamma 90.000000
_cell_volume 645.765400
_symmetry_space_group_name_H-M "P 21"
_symmetry_group_IT_number 4
_symmetry_cell_setting 'monoclinic'
loop_
_space_group_symop_operation_xyz
x,y,z
-x,1/2+y,-z
loop_
_atom_site_type_symbol
_atom_site_label
_atom_site_fract_x
_atom_site_fract_y
_atom_site_fract_z
Si Si1 0.222699 0.910760 0.887777
Si Si2 0.848017 0.906519 0.262435
Si Si3 0.425977 0.312985 0.057867
Si Si4 0.607909 0.056311 0.440594
Si Si5 0.063914 0.910315 0.836643
Si Si6 0.840627 0.722740 0.635301
Si Si7 0.119467 0.719721 0.258507
Si Si8 0.610265 0.769235 0.190138
O O1 0.326602 0.811712 0.671085
O O2 0.116349 0.927976 0.916364
O O3 0.267125 0.148485 0.908942
O O4 0.185174 0.732968 0.045669
O O5 0.710728 0.905306 0.388145
O O6 0.886174 0.161125 0.283087
O O7 0.885453 0.656414 0.283356
O O8 0.924723 0.917885 0.038788
O O9 0.290224 0.260226 0.274216
O O10 0.492965 0.564398 0.021736
O O11 0.401027 0.349288 0.938570
O O12 0.493111 0.066540 0.665285
O O13 0.578529 0.959783 0.337428
O O14 0.839082 0.458186 0.709441
O O15 0.975498 0.729888 0.415748
O O16 0.849572 0.964224 0.712970
#
# Coordination Sequence:
#
# PCOD9115882 Si02
#       8
#     2   2   2   2   2   2   2   2
#     4  11  21  37  64  99 130 179 216 286 349 416
#     4   9  18  35  54  82 125 163 201 253 320 401
#     4  12  28  48  73  99 144 200 240 296 359 423
#     4  11  23  39  67 101 137 176 230 285 345 417
#     4   9  18  32  56  82 118 166 202 248 324 397
#     4  10  21  43  67  98 129 172 237 296 345 411
#     4  10  21  37  71 100 129 169 226 302 351 403
#     4  12  24  41  70 101 136 185 238 290 345 424
#
# _framework density 24.776799
#
# number of rings (size 3 to 8) (size 9 to 14) (size 15 to 20)
#    0.000    1.500    3.750    1.500    1.750    0.000 
#    2.250    0.000   16.500    0.000    0.000    0.000 
#    0.000    0.000    0.000    0.000    0.000    0.000 
#
# Total GULP energy -89303.968477 kJ/mol
# GULP energy per Si atom -5581.498030 kJ/mol
# Density = 2.472041 g / cm^3
# Si number density = 24.776799 Si / 1000 Ang^3
#
#
#
# Elastic Constant Matrix: (Units=GPa)
#
#
# Indices 1 2 3 4 5 6 
#
# 1 88.1381 27.5206 9.3114 0.0000 -15.5128 0.0000
# 2 27.5206 160.1681 -2.3132 0.0000 -8.7137 0.0000
# 3 9.3114 -2.3132 61.7743 0.0000 -27.7531 0.0000
# 4 0.0000 0.0000 0.0000 9.1860 0.0000 -15.6769
# 5 -15.5128 -8.7137 -27.7531 0.0000 45.3650 0.0000
# 6 0.0000 0.0000 0.0000 -15.6769 0.0000 28.9755
#
#
#
# Elastic Compliance Matrix: (Units=1/GPa)
#
#
# Indices 1 2 3 4 5 6 
#
# 1 0.012657 -0.001974 -0.000286 0.000000 0.003774 0.000000
# 2 -0.001974 0.006669 0.001130 0.000000 0.001298 0.000000
# 3 -0.000286 0.001130 0.022515 0.000000 0.013894 0.000000
# 4 0.000000 0.000000 0.000000 1.419940 0.000000 0.768242
# 5 0.003774 0.001298 0.013894 0.000000 0.032083 0.000000
# 6 0.000000 0.000000 0.000000 0.768242 0.000000 0.450160
#
#
# Mechanical properties :
#
#
# Convention : Reuss Voigt Hill
#
# Bulk Modulus (GPa) = 25.26383 42.12423 33.69403
# Shear Modulus (GPa) = 2.55170 35.07607 18.81389
#
# Velocity S-wave (km/s) = 1.01593 3.76664 2.75859
# Velocity P-wave (km/s) = 3.40512 5.99626 4.87596
#
# Compressibility (1/GPa) = 0.03958228
#
# Stress axis : x y z
#
# Youngs Moduli (GPa) = 79.01078 149.93727 44.41416
#
# Poissons Ratio (x) = 0.29590 0.01271
# Poissons Ratio (y) = 0.15593 -0.05020
# Poissons Ratio (z) = 0.02261 -0.16946
#
# Static dielectric constant tensor:
#      x y z
#    x 1.974650 0.000000 -0.080330 
#    y 0.000000 2.102690 0.000000 
#    z -0.080330 0.000000 2.038430 
# 
# From -- ./inp_files/12736.got.cif
#   From: 2010.05.17/outbox.cif.g08.bks.cpg/sg4_7_cif.got.tgz:12736.got - 2010.06.03 18:43:04.
