data_PCOD9115136
_publ_section_title
;
Structure prediction by ZEFSAII (Michael W. Deem and Ramdas Pophale) SiO2 
 PCOD9115136
Probable space group: P 21
;
_chemical_formula_sum "Si O2"
_cell_formula_units_Z 16
_cell_length_a 14.578689
_cell_length_b 11.436777
_cell_length_c 16.201852
_cell_angle_alpha 90.000000
_cell_angle_beta 17.693349
_cell_angle_gamma 90.000000
_cell_volume 821.012177
_symmetry_space_group_name_H-M "P 21"
_symmetry_group_IT_number 4
_symmetry_cell_setting 'monoclinic'
loop_
_space_group_symop_operation_xyz
x,y,z
-x,1/2+y,-z
loop_
_atom_site_type_symbol
_atom_site_label
_atom_site_fract_x
_atom_site_fract_y
_atom_site_fract_z
Si Si1 0.969730 0.175240 0.092917
Si Si2 0.281777 0.428042 0.655574
Si Si3 0.759016 0.682705 0.551024
Si Si4 0.448918 0.686376 0.988051
Si Si5 0.566126 0.299903 0.559381
Si Si6 0.638001 0.916899 0.925031
Si Si7 0.310399 0.803378 0.815110
Si Si8 0.671108 0.420576 0.638929
O O1 0.865455 0.266238 0.252853
O O2 0.768012 0.204201 0.185306
O O3 0.876206 0.051642 0.207931
O O4 0.317001 0.196655 0.773217
O O5 0.408027 0.399076 0.638649
O O6 0.546346 0.406622 0.363439
O O7 0.010514 0.337050 0.871170
O O8 0.689514 0.694387 0.707927
O O9 0.554185 0.767957 0.673345
O O10 0.659853 0.551641 0.613383
O O11 0.115614 0.694777 0.234046
O O12 0.462952 0.551637 0.012344
O O13 0.494392 0.801637 0.005609
O O14 0.628412 0.335326 0.599115
O O15 0.566624 0.908498 0.083717
O O16 0.997184 0.908895 0.605378
#
# Coordination Sequence:
#
# PCOD9115136 Si02
#       8
#     2   2   2   2   2   2   2   2
#     4  10  20  34  51  75 110 143 175 217 263 309
#     4  10  20  34  51  75 110 143 175 217 263 309
#     4  10  20  36  58  80 104 137 181 223 258 315
#     4  10  21  38  59  82 109 139 176 224 276 327
#     4  10  20  34  54  77 103 141 181 216 258 309
#     4  10  21  38  59  82 109 139 176 224 276 327
#     4  10  20  34  54  77 103 141 181 216 258 309
#     4  10  20  36  58  80 104 137 181 223 258 315
#
# _framework density 19.488140000000001
#
# number of rings (size 3 to 8) (size 9 to 14) (size 15 to 20)
#    0.000    2.000    0.000    3.750    0.000    0.000 
#    0.000   15.000    0.000    0.000    0.000    0.000 
#    0.000    0.000    0.000    0.000    0.000    0.000 
#
# Total GULP energy -89214.718999 kJ/mol
# GULP energy per Si atom -5575.919937 kJ/mol
# Density = 1.944378 g / cm^3
# Si number density = 19.488140 Si / 1000 Ang^3
#
#
#
# Elastic Constant Matrix: (Units=GPa)
#
#
# Indices 1 2 3 4 5 6 
#
# 1 34.5128 28.3360 -6.3133 0.0000 -5.6512 0.0000
# 2 28.3360 77.1583 -10.5233 0.0000 -14.6154 0.0000
# 3 -6.3133 -10.5233 52.6600 0.0000 12.4753 0.0000
# 4 0.0000 0.0000 0.0000 18.2440 0.0000 2.4823
# 5 -5.6512 -14.6154 12.4753 0.0000 19.7236 0.0000
# 6 0.0000 0.0000 0.0000 2.4823 0.0000 11.6511
#
#
#
# Elastic Compliance Matrix: (Units=1/GPa)
#
#
# Indices 1 2 3 4 5 6 
#
# 1 0.041690 -0.015138 0.002118 0.000000 -0.000612 0.000000
# 2 -0.015138 0.020581 -0.000338 0.000000 0.011128 0.000000
# 3 0.002118 -0.000338 0.022457 0.000000 -0.013848 0.000000
# 4 0.000000 0.000000 0.000000 0.056449 0.000000 -0.012027
# 5 -0.000612 0.011128 -0.013848 0.000000 0.067530 0.000000
# 6 0.000000 0.000000 0.000000 -0.012027 0.000000 0.088391
#
#
# Mechanical properties :
#
#
# Convention : Reuss Voigt Hill
#
# Bulk Modulus (GPa) = 17.23750 20.81443 19.02597
# Shear Modulus (GPa) = 14.57086 20.11254 17.34170
#
# Velocity S-wave (km/s) = 2.73734 3.21602 2.98629
# Velocity P-wave (km/s) = 4.34224 4.94916 4.65560
#
# Compressibility (1/GPa) = 0.05801306
#
# Stress axis : x y z
#
# Youngs Moduli (GPa) = 23.98637 48.58798 44.53023
#
# Poissons Ratio (x) = 0.73550 -0.09432
# Poissons Ratio (y) = 0.36309 0.01506
# Poissons Ratio (z) = -0.05080 0.01643
#
# Static dielectric constant tensor:
#      x y z
#    x 1.649570 0.000000 0.001880 
#    y 0.000000 1.734830 0.000000 
#    z 0.001880 0.000000 1.654570 
# 
# From -- ./inp_files/2756.got.cif
#   From: 2010.05.17/outbox.cif.g08.bks.cpg/sg4_2_cif.got.tgz:2756.got - 2010.06.03 18:43:04.
