data_PCOD9115639
_publ_section_title
;
Structure prediction by ZEFSAII (Michael W. Deem and Ramdas Pophale) SiO2 
 PCOD9115639
Probable space group: P 21
;
_chemical_formula_sum "Si O2"
_cell_formula_units_Z 14
_cell_length_a 8.964718
_cell_length_b 8.900941
_cell_length_c 9.694367
_cell_angle_alpha 90.000000
_cell_angle_beta 120.285996
_cell_angle_gamma 90.000000
_cell_volume 667.980568
_symmetry_space_group_name_H-M "P 21"
_symmetry_group_IT_number 4
_symmetry_cell_setting 'monoclinic'
loop_
_space_group_symop_operation_xyz
x,y,z
-x,1/2+y,-z
loop_
_atom_site_type_symbol
_atom_site_label
_atom_site_fract_x
_atom_site_fract_y
_atom_site_fract_z
Si Si1 0.660715 0.018720 0.988712
Si Si2 0.731622 0.598198 0.653031
Si Si3 0.950753 0.858709 0.729285
Si Si4 0.675158 0.319825 0.178522
Si Si5 0.009244 0.870078 0.085803
Si Si6 0.248323 0.615351 0.275207
Si Si7 0.439724 0.821760 0.570069
O O1 0.668305 0.062057 0.829393
O O2 0.487385 0.925197 0.936455
O O3 0.669786 0.168077 0.085140
O O4 0.835803 0.921193 0.082969
O O5 0.840037 0.490057 0.805991
O O6 0.621603 0.732230 0.673934
O O7 0.609081 0.492210 0.501240
O O8 0.877716 0.698393 0.644804
O O9 0.137685 0.892700 0.756551
O O10 0.977520 0.859676 0.907797
O O11 0.804972 0.984919 0.643812
O O12 0.655796 0.291556 0.331775
O O13 0.074302 0.706258 0.158584
O O14 0.365439 0.732900 0.406317
#
# Coordination Sequence:
#
# PCOD9115639 Si02
#       7
#     2   2   2   2   2   2   2
#     4  11  24  42  64 100 131 171 222 270 337 378
#     4  11  22  43  66  92 132 176 227 258 316 415
#     4  11  21  40  65  97 129 171 216 271 326 382
#     4  12  26  40  63 100 137 163 216 286 331 379
#     4  10  20  41  69  92 125 174 225 264 313 405
#     4  10  22  43  68  93 126 181 219 259 318 416
#     4  11  25  41  67  96 130 176 219 268 331 385
#
# _framework density 20.958694000000001
#
# number of rings (size 3 to 8) (size 9 to 14) (size 15 to 20)
#    0.000    1.143    2.857    4.286    4.000    1.143 
#    0.000    1.429    0.000    0.000    0.000    0.000 
#    0.000    0.000    0.000    0.000    0.000    0.000 
#
# Total GULP energy -78057.296931 kJ/mol
# GULP energy per Si atom -5575.521209 kJ/mol
# Density = 2.091099 g / cm^3
# Si number density = 20.958694 Si / 1000 Ang^3
#
#
#
# Elastic Constant Matrix: (Units=GPa)
#
#
# Indices 1 2 3 4 5 6 
#
# 1 121.7076 51.2970 12.2328 0.0000 -5.1154 0.0000
# 2 51.2970 110.4903 18.3156 0.0000 6.2464 0.0000
# 3 12.2328 18.3156 37.3516 0.0000 1.3993 0.0000
# 4 0.0000 0.0000 0.0000 26.4549 0.0000 6.5073
# 5 -5.1154 6.2464 1.3993 0.0000 25.8242 0.0000
# 6 0.0000 0.0000 0.0000 6.5073 0.0000 50.3661
#
#
#
# Elastic Compliance Matrix: (Units=1/GPa)
#
#
# Indices 1 2 3 4 5 6 
#
# 1 0.010533 -0.004883 -0.001180 0.000000 0.003331 0.000000
# 2 -0.004883 0.012233 -0.004261 0.000000 -0.003695 0.000000
# 3 -0.001180 -0.004261 0.029278 0.000000 -0.000790 0.000000
# 4 0.000000 0.000000 0.000000 0.039041 0.000000 -0.005044
# 5 0.003331 -0.003695 -0.000790 0.000000 0.040320 0.000000
# 6 0.000000 0.000000 0.000000 -0.005044 0.000000 0.020506
#
#
# Mechanical properties :
#
#
# Convention : Reuss Voigt Hill
#
# Bulk Modulus (GPa) = 31.85091 48.13781 39.99436
# Shear Modulus (GPa) = 27.31882 33.04262 30.18072
#
# Velocity S-wave (km/s) = 3.61426 3.97490 3.79886
# Velocity P-wave (km/s) = 5.71377 6.63960 6.19401
#
# Compressibility (1/GPa) = 0.03139628
#
# Stress axis : x y z
#
# Youngs Moduli (GPa) = 94.93907 81.74782 34.15536
#
# Poissons Ratio (x) = 0.39917 0.04031
# Poissons Ratio (y) = 0.46358 0.14553
# Poissons Ratio (z) = 0.11204 0.34831
#
# Static dielectric constant tensor:
#      x y z
#    x 1.798380 0.000000 0.084420 
#    y 0.000000 1.838880 0.000000 
#    z 0.084420 0.000000 1.751570 
# 
# From -- ./inp_files/5243.got.cif
#   From: 2010.05.17/outbox.cif.g08.bks.cpg/sg4_3_cif.got.tgz:5243.got - 2010.06.03 18:43:04.
