data_PCOD9115177
_publ_section_title
;
Structure prediction by ZEFSAII (Michael W. Deem and Ramdas Pophale) SiO2 
 PCOD9115177
Probable space group: P 21
;
_chemical_formula_sum "Si O2"
_cell_formula_units_Z 16
_cell_length_a 9.201200
_cell_length_b 9.589110
_cell_length_c 9.303229
_cell_angle_alpha 90.000000
_cell_angle_beta 60.364522
_cell_angle_gamma 90.000000
_cell_volume 713.461692
_symmetry_space_group_name_H-M "P 21"
_symmetry_group_IT_number 4
_symmetry_cell_setting 'monoclinic'
loop_
_space_group_symop_operation_xyz
x,y,z
-x,1/2+y,-z
loop_
_atom_site_type_symbol
_atom_site_label
_atom_site_fract_x
_atom_site_fract_y
_atom_site_fract_z
Si Si1 0.918083 0.163820 0.998817
Si Si2 0.179507 0.743699 0.482853
Si Si3 0.334824 0.405168 0.170197
Si Si4 0.251945 0.492407 0.657276
Si Si5 0.837634 0.743694 0.482849
Si Si6 0.994968 0.405184 0.170201
Si Si7 0.416925 0.663807 0.001187
Si Si8 0.590785 0.492404 0.657273
O O1 0.842916 0.066426 0.163705
O O2 0.765255 0.202342 0.969459
O O3 0.982516 0.300475 0.044160
O O4 0.047205 0.062906 0.854013
O O5 0.238025 0.602999 0.532939
O O6 0.106890 0.837593 0.650230
O O7 0.319924 0.846121 0.350724
O O8 0.025382 0.716321 0.449228
O O9 0.257126 0.337580 0.349768
O O10 0.185344 0.411737 0.129302
O O11 0.473292 0.300454 0.044146
O O12 0.401232 0.562882 0.145989
O O13 0.170654 0.346124 0.649278
O O14 0.443234 0.471107 0.613534
O O15 0.729033 0.602993 0.532933
O O16 0.506637 0.566421 0.836293
#
# Coordination Sequence:
#
# PCOD9115177 Si02
#       8
#     2   2   2   2   2   2   2   2
#     4   9  19  35  53  75 102 132 168 208 250 298
#     4  10  20  35  54  76 104 136 171 211 254 302
#     4   9  19  35  53  75 102 132 168 208 250 298
#     4  10  20  35  54  76 104 136 171 211 254 302
#     4  10  20  35  54  76 104 136 171 211 254 302
#     4   9  19  35  53  75 102 132 168 208 250 298
#     4   9  19  35  53  75 102 132 168 208 250 298
#     4  10  20  35  54  76 104 136 171 211 254 302
#
# _framework density 22.425872999999999
#
# number of rings (size 3 to 8) (size 9 to 14) (size 15 to 20)
#    0.000    2.500    0.000    1.500    0.000    5.000 
#    0.000    5.000    0.000    0.000    0.000    0.000 
#    0.000    0.000    0.000    0.000    0.000    0.000 
#
# Total GULP energy -89441.466121 kJ/mol
# GULP energy per Si atom -5590.091633 kJ/mol
# Density = 2.237483 g / cm^3
# Si number density = 22.425873 Si / 1000 Ang^3
#
#
#
# Elastic Constant Matrix: (Units=GPa)
#
#
# Indices 1 2 3 4 5 6 
#
# 1 73.3807 36.2631 14.3530 0.0000 -3.5589 0.0000
# 2 36.2631 107.1007 2.0695 0.0000 -2.8234 0.0000
# 3 14.3530 2.0695 63.7826 0.0000 2.7574 0.0000
# 4 0.0000 0.0000 0.0000 48.4864 0.0000 0.9184
# 5 -3.5589 -2.8234 2.7574 0.0000 8.4821 0.0000
# 6 0.0000 0.0000 0.0000 0.9184 0.0000 37.3324
#
#
#
# Elastic Compliance Matrix: (Units=1/GPa)
#
#
# Indices 1 2 3 4 5 6 
#
# 1 0.017563 -0.005689 -0.004061 0.000000 0.006796 0.000000
# 2 -0.005689 0.011275 0.000867 0.000000 0.001084 0.000000
# 3 -0.004061 0.000867 0.016862 0.000000 -0.006897 0.000000
# 4 0.000000 0.000000 0.000000 0.020634 0.000000 -0.000508
# 5 0.006796 0.001084 -0.006897 0.000000 0.123350 0.000000
# 6 0.000000 0.000000 0.000000 -0.000508 0.000000 0.026799
#
#
# Mechanical properties :
#
#
# Convention : Reuss Voigt Hill
#
# Bulk Modulus (GPa) = 35.79814 38.84837 37.32325
# Shear Modulus (GPa) = 20.52885 31.63207 26.08046
#
# Velocity S-wave (km/s) = 3.02886 3.75976 3.41392
# Velocity P-wave (km/s) = 5.31314 6.01734 5.67617
#
# Compressibility (1/GPa) = 0.02793441
#
# Stress axis : x y z
#
# Youngs Moduli (GPa) = 56.93823 88.69136 59.30429
#
# Poissons Ratio (x) = 0.50456 0.24086
# Poissons Ratio (y) = 0.32392 -0.05145
# Poissons Ratio (z) = 0.23125 -0.07694
#
# Static dielectric constant tensor:
#      x y z
#    x 1.756500 0.000000 0.014500 
#    y 0.000000 1.789850 0.000000 
#    z 0.014500 0.000000 1.932310 
# 
# From -- ./inp_files/7654.got.cif
#   From: 2010.05.17/outbox.cif.g08.bks.cpg/sg4_4_cif.got.tgz:7654.got - 2010.06.03 18:43:04.
