data_PCOD9115717
_publ_section_title
;
Structure prediction by ZEFSAII (Michael W. Deem and Ramdas Pophale) SiO2 
 PCOD9115717
Probable space group: P 21
;
_chemical_formula_sum "Si O2"
_cell_formula_units_Z 14
_cell_length_a 11.452448
_cell_length_b 7.504117
_cell_length_c 12.605556
_cell_angle_alpha 90.000000
_cell_angle_beta 146.796089
_cell_angle_gamma 90.000000
_cell_volume 593.252397
_symmetry_space_group_name_H-M "P 21"
_symmetry_group_IT_number 4
_symmetry_cell_setting 'monoclinic'
loop_
_space_group_symop_operation_xyz
x,y,z
-x,1/2+y,-z
loop_
_atom_site_type_symbol
_atom_site_label
_atom_site_fract_x
_atom_site_fract_y
_atom_site_fract_z
Si Si1 0.357896 0.384270 0.101472
Si Si2 0.123147 0.174254 0.358816
Si Si3 0.410601 0.760513 0.263839
Si Si4 0.094528 0.825289 0.212595
Si Si5 0.825383 0.320534 0.490397
Si Si6 0.689646 0.389986 0.024484
Si Si7 0.275364 0.253089 0.819599
O O1 0.386892 0.568052 0.187302
O O2 0.587552 0.288566 0.270158
O O3 0.285221 0.398765 0.923224
O O4 0.153556 0.289560 0.998940
O O5 0.342248 0.282475 0.517921
O O6 0.911040 0.286958 0.209524
O O7 0.108859 0.038689 0.247354
O O8 0.152935 0.033469 0.477353
O O9 0.257405 0.766728 0.247973
O O10 0.337914 0.904934 0.122525
O O11 0.153551 0.745447 0.373238
O O12 0.037396 0.261330 0.590967
O O13 0.699458 0.567288 0.100853
O O14 0.474202 0.288802 0.896446
#
# Coordination Sequence:
#
# PCOD9115717 Si02
#       7
#     2   2   2   2   2   2   2
#     4  10  20  43  67  94 132 172 216 268 322 385
#     4   9  21  43  62  94 130 167 214 270 319 387
#     4  11  22  41  67  97 127 176 216 268 328 384
#     4   9  20  39  64  96 129 172 213 263 324 383
#     4   8  19  41  64  92 129 168 215 265 324 378
#     4  12  24  43  67  95 134 171 223 268 331 385
#     4  11  24  42  67  96 131 174 217 276 320 390
#
# _framework density 23.598724000000001
#
# number of rings (size 3 to 8) (size 9 to 14) (size 15 to 20)
#    0.857    1.143    1.429    1.714    0.000    5.714 
#    7.714    0.000    0.000    0.000    0.000    0.000 
#    0.000    0.000    0.000    0.000    0.000    0.000 
#
# Total GULP energy -78182.144355 kJ/mol
# GULP energy per Si atom -5584.438883 kJ/mol
# Density = 2.354501 g / cm^3
# Si number density = 23.598724 Si / 1000 Ang^3
#
#
#
# Elastic Constant Matrix: (Units=GPa)
#
#
# Indices 1 2 3 4 5 6 
#
# 1 103.2374 13.9732 30.0909 0.0000 29.2219 0.0000
# 2 13.9732 64.0616 19.3377 0.0000 10.1725 0.0000
# 3 30.0909 19.3377 171.5579 0.0000 47.0831 0.0000
# 4 0.0000 0.0000 0.0000 18.9561 0.0000 10.0632
# 5 29.2219 10.1725 47.0831 0.0000 35.7688 0.0000
# 6 0.0000 0.0000 0.0000 10.0632 0.0000 29.0980
#
#
#
# Elastic Compliance Matrix: (Units=1/GPa)
#
#
# Indices 1 2 3 4 5 6 
#
# 1 0.012803 -0.001287 0.001048 0.000000 -0.011473 0.000000
# 2 -0.001287 0.016564 -0.000997 0.000000 -0.002346 0.000000
# 3 0.001048 -0.000997 0.009260 0.000000 -0.012762 0.000000
# 4 0.000000 0.000000 0.000000 0.064617 0.000000 -0.022347
# 5 -0.011473 -0.002346 -0.012762 0.000000 0.054796 0.000000
# 6 0.000000 0.000000 0.000000 -0.022347 0.000000 0.042095
#
#
# Mechanical properties :
#
#
# Convention : Reuss Voigt Hill
#
# Bulk Modulus (GPa) = 27.65923 51.74005 39.69964
# Shear Modulus (GPa) = 23.29279 35.12827 29.21053
#
# Velocity S-wave (km/s) = 3.14512 3.86238 3.52206
# Velocity P-wave (km/s) = 4.99351 6.47018 5.77920
#
# Compressibility (1/GPa) = 0.03615430
#
# Stress axis : x y z
#
# Youngs Moduli (GPa) = 78.10918 60.37052 107.99309
#
# Poissons Ratio (x) = 0.07770 -0.11320
# Poissons Ratio (y) = 0.10054 0.10771
# Poissons Ratio (z) = -0.08188 0.06021
#
# Static dielectric constant tensor:
#      x y z
#    x 1.878470 0.000000 -0.010380 
#    y 0.000000 1.970490 0.000000 
#    z -0.010380 0.000000 1.918700 
# 
# From -- ./inp_files/13956.got.cif
#   From: 2010.05.17/outbox.cif.g08.bks.cpg/sg4_7_cif.got.tgz:13956.got - 2010.06.03 18:43:04.
