data_PCOD9115570
_publ_section_title
;
Structure prediction by ZEFSAII (Michael W. Deem and Ramdas Pophale) SiO2 
 PCOD9115570
Probable space group: P 21
;
_chemical_formula_sum "Si O2"
_cell_formula_units_Z 14
_cell_length_a 7.512937
_cell_length_b 12.241579
_cell_length_c 6.395960
_cell_angle_alpha 90.000000
_cell_angle_beta 115.477378
_cell_angle_gamma 90.000000
_cell_volume 531.034724
_symmetry_space_group_name_H-M "P 21"
_symmetry_group_IT_number 4
_symmetry_cell_setting 'monoclinic'
loop_
_space_group_symop_operation_xyz
x,y,z
-x,1/2+y,-z
loop_
_atom_site_type_symbol
_atom_site_label
_atom_site_fract_x
_atom_site_fract_y
_atom_site_fract_z
Si Si1 0.899114 0.437800 0.794751
Si Si2 0.410131 0.583828 0.595657
Si Si3 0.248856 0.030727 0.895434
Si Si4 0.156854 0.616765 0.844617
Si Si5 0.396008 0.768367 0.257767
Si Si6 0.573840 0.940464 0.769772
Si Si7 0.757813 0.779034 0.134571
O O1 0.904194 0.457378 0.051155
O O2 0.699626 0.369030 0.669276
O O3 0.941502 0.561622 0.739409
O O4 0.055490 0.357993 0.763379
O O5 0.582230 0.556117 0.844867
O O6 0.232138 0.626425 0.647951
O O7 0.456245 0.673912 0.445882
O O8 0.368141 0.479239 0.431124
O O9 0.358130 0.970920 0.758471
O O10 0.178084 0.153383 0.815640
O O11 0.222076 0.719539 0.017667
O O12 0.288749 0.520931 0.017861
O O13 0.584088 0.796676 0.213664
O O14 0.646033 0.819307 0.865962
#
# Coordination Sequence:
#
# PCOD9115570 Si02
#       7
#     2   2   2   2   2   2   2
#     4  11  24  40  66  97 134 166 214 281 321 384
#     4  10  20  40  68  90 130 170 215 267 322 392
#     4  11  21  41  64  95 130 169 218 268 325 387
#     4   9  20  42  61  95 130 165 218 266 320 390
#     4  11  21  43  69  91 128 178 218 265 331 388
#     4   9  19  38  66  90 121 173 213 257 327 381
#     4  11  21  42  68  92 127 177 220 262 326 392
#
# _framework density 26.363624999999999
#
# number of rings (size 3 to 8) (size 9 to 14) (size 15 to 20)
#    0.000    1.714    5.714    0.857    0.000    1.143 
#    2.571    7.143    0.000    0.000    0.000    0.000 
#    0.000    0.000    0.000    0.000    0.000    0.000 
#
# Total GULP energy -78216.607159 kJ/mol
# GULP energy per Si atom -5586.900511 kJ/mol
# Density = 2.630362 g / cm^3
# Si number density = 26.363625 Si / 1000 Ang^3
#
#
#
# Elastic Constant Matrix: (Units=GPa)
#
#
# Indices 1 2 3 4 5 6 
#
# 1 83.4881 27.6620 15.3275 0.0000 -4.6289 0.0000
# 2 27.6620 112.3125 29.7069 0.0000 -4.8155 0.0000
# 3 15.3275 29.7069 111.4677 0.0000 -11.7600 0.0000
# 4 0.0000 0.0000 0.0000 40.2574 0.0000 -6.5933
# 5 -4.6289 -4.8155 -11.7600 0.0000 25.1178 0.0000
# 6 0.0000 0.0000 0.0000 -6.5933 0.0000 49.5392
#
#
#
# Elastic Compliance Matrix: (Units=1/GPa)
#
#
# Indices 1 2 3 4 5 6 
#
# 1 0.013199 -0.002957 -0.000873 0.000000 0.001457 0.000000
# 2 -0.002957 0.010252 -0.002289 0.000000 0.000349 0.000000
# 3 -0.000873 -0.002289 0.010139 0.000000 0.004147 0.000000
# 4 0.000000 0.000000 0.000000 0.025394 0.000000 0.003380
# 5 0.001457 0.000349 0.004147 0.000000 0.042089 0.000000
# 6 0.000000 0.000000 0.000000 0.003380 0.000000 0.020636
#
#
# Mechanical properties :
#
#
# Convention : Reuss Voigt Hill
#
# Bulk Modulus (GPa) = 46.83560 50.29570 48.56565
# Shear Modulus (GPa) = 35.44473 38.62100 37.03287
#
# Velocity S-wave (km/s) = 3.67066 3.83160 3.75199
# Velocity P-wave (km/s) = 5.98070 6.22045 6.10175
#
# Compressibility (1/GPa) = 0.02135128
#
# Stress axis : x y z
#
# Youngs Moduli (GPa) = 75.76517 97.53724 98.63105
#
# Poissons Ratio (x) = 0.28846 0.08611
# Poissons Ratio (y) = 0.22407 0.22576
# Poissons Ratio (z) = 0.06615 0.22325
#
# Static dielectric constant tensor:
#      x y z
#    x 2.231020 0.000000 0.077030 
#    y 0.000000 2.110310 0.000000 
#    z 0.077030 0.000000 2.130580 
# 
# From -- ./inp_files/1744.got.cif
#   From: 2010.05.17/outbox.cif.g08.bks.cpg/sg4_1_cif.got.tgz:1744.got - 2010.06.03 18:43:04.
