data_PCOD9115954
_publ_section_title
;
Structure prediction by ZEFSAII (Michael W. Deem and Ramdas Pophale) SiO2 
 PCOD9115954
Probable space group: P 21
;
_chemical_formula_sum "Si O2"
_cell_formula_units_Z 14
_cell_length_a 7.592160
_cell_length_b 7.426502
_cell_length_c 15.252260
_cell_angle_alpha 90.000000
_cell_angle_beta 143.423965
_cell_angle_gamma 90.000000
_cell_volume 512.447342
_symmetry_space_group_name_H-M "P 21"
_symmetry_group_IT_number 4
_symmetry_cell_setting 'monoclinic'
loop_
_space_group_symop_operation_xyz
x,y,z
-x,1/2+y,-z
loop_
_atom_site_type_symbol
_atom_site_label
_atom_site_fract_x
_atom_site_fract_y
_atom_site_fract_z
Si Si1 0.296745 0.354040 0.951732
Si Si2 0.203548 0.072172 0.431471
Si Si3 0.860821 0.686227 0.776114
Si Si4 0.139999 0.672333 0.325845
Si Si5 0.685656 0.364139 0.931936
Si Si6 0.352323 0.009894 0.754829
Si Si7 0.637742 0.152038 0.314904
O O1 0.489541 0.371461 0.941570
O O2 0.085548 0.523108 0.880453
O O3 0.088119 0.186300 0.847651
O O4 0.507952 0.371764 0.117851
O O5 0.121118 0.216019 0.320629
O O6 0.548841 0.103680 0.585049
O O7 0.959719 0.093786 0.409800
O O8 0.172849 0.875567 0.375822
O O9 0.527639 0.619508 0.659428
O O10 0.985083 0.826320 0.898718
O O11 0.958237 0.573681 0.329851
O O12 0.556907 0.187378 0.829167
O O13 0.594591 0.537564 0.839159
O O14 0.335548 0.869342 0.670291
#
# Coordination Sequence:
#
# PCOD9115954 Si02
#       7
#     2   2   2   2   2   2   2
#     4   9  19  40  66  95 137 174 224 298 336 410
#     4  11  22  46  66 100 146 185 235 288 346 430
#     4  10  23  39  64 102 136 181 238 286 348 427
#     4  10  21  41  72  98 140 192 227 291 349 417
#     4  10  21  40  62  97 137 177 229 290 350 402
#     4  10  21  38  66 102 134 174 237 289 348 411
#     4  12  23  40  70  94 142 187 228 296 353 411
#
# _framework density 27.319880000000001
#
# number of rings (size 3 to 8) (size 9 to 14) (size 15 to 20)
#    0.000    1.714    4.286    1.714    8.000    0.000 
#    0.000    4.286    6.286    0.000    0.000    0.000 
#    0.000    0.000    0.000    0.000    0.000    0.000 
#
# Total GULP energy -78283.223036 kJ/mol
# GULP energy per Si atom -5591.658788 kJ/mol
# Density = 2.725770 g / cm^3
# Si number density = 27.319880 Si / 1000 Ang^3
#
#
#
# Elastic Constant Matrix: (Units=GPa)
#
#
# Indices 1 2 3 4 5 6 
#
# 1 100.3885 25.7286 33.4374 0.0000 38.7867 0.0000
# 2 25.7286 138.7019 30.4969 0.0000 4.3477 0.0000
# 3 33.4374 30.4969 157.1178 0.0000 38.3647 0.0000
# 4 0.0000 0.0000 0.0000 33.1563 0.0000 1.7848
# 5 38.7867 4.3477 38.3647 0.0000 37.9246 0.0000
# 6 0.0000 0.0000 0.0000 1.7848 0.0000 19.0643
#
#
#
# Elastic Compliance Matrix: (Units=1/GPa)
#
#
# Indices 1 2 3 4 5 6 
#
# 1 0.017670 -0.003010 0.001530 0.000000 -0.019275 0.000000
# 2 -0.003010 0.008063 -0.001926 0.000000 0.004103 0.000000
# 3 0.001530 -0.001926 0.008952 0.000000 -0.010400 0.000000
# 4 0.000000 0.000000 0.000000 0.030313 0.000000 -0.002838
# 5 -0.019275 0.004103 -0.010400 0.000000 0.056132 0.000000
# 6 0.000000 0.000000 0.000000 -0.002838 0.000000 0.052720
#
#
# Mechanical properties :
#
#
# Convention : Reuss Voigt Hill
#
# Bulk Modulus (GPa) = 35.87646 63.94824 49.91235
# Shear Modulus (GPa) = 26.32228 38.46540 32.39384
#
# Velocity S-wave (km/s) = 3.10737 3.75636 3.44717
# Velocity P-wave (km/s) = 5.10244 6.50166 5.84408
#
# Compressibility (1/GPa) = 0.02787343
#
# Stress axis : x y z
#
# Youngs Moduli (GPa) = 56.59271 124.02371 111.70121
#
# Poissons Ratio (x) = 0.37331 -0.17092
# Poissons Ratio (y) = 0.17034 0.21516
# Poissons Ratio (z) = -0.08660 0.23890
#
# Static dielectric constant tensor:
#      x y z
#    x 2.267760 0.000000 -0.241900 
#    y 0.000000 2.146770 0.000000 
#    z -0.241900 0.000000 2.375140 
# 
# From -- ./inp_files/15620.got.cif
#   From: 2010.05.17/outbox.cif.g08.bks.cpg/sg4_8_cif.got.tgz:15620.got - 2010.06.03 18:43:04.
