data_PCOD9115106
_publ_section_title
;
Structure prediction by ZEFSAII (Michael W. Deem and Ramdas Pophale) SiO2 
 PCOD9115106
Probable space group: P 21
;
_chemical_formula_sum "Si O2"
_cell_formula_units_Z 16
_cell_length_a 11.747016
_cell_length_b 5.821339
_cell_length_c 11.318299
_cell_angle_alpha 90.000000
_cell_angle_beta 130.440097
_cell_angle_gamma 90.000000
_cell_volume 589.066764
_symmetry_space_group_name_H-M "P 21"
_symmetry_group_IT_number 4
_symmetry_cell_setting 'monoclinic'
loop_
_space_group_symop_operation_xyz
x,y,z
-x,1/2+y,-z
loop_
_atom_site_type_symbol
_atom_site_label
_atom_site_fract_x
_atom_site_fract_y
_atom_site_fract_z
Si Si1 0.691590 0.742650 0.362162
Si Si2 0.950755 0.705773 0.706473
Si Si3 0.104958 0.719251 0.312385
Si Si4 0.645276 0.357166 0.879585
Si Si5 0.451795 0.793056 0.515586
Si Si6 0.661462 0.853507 0.875663
Si Si7 0.847478 0.129242 0.381462
Si Si8 0.580671 0.358051 0.113720
O O1 0.779224 0.684142 0.542140
O O2 0.526601 0.838621 0.284237
O O3 0.653314 0.563409 0.235217
O O4 0.836871 0.862725 0.399819
O O5 0.974186 0.455003 0.783001
O O6 0.070363 0.704089 0.680317
O O7 0.956605 0.965044 0.762300
O O8 0.277267 0.731217 0.391678
O O9 0.110384 0.729958 0.461657
O O10 0.726871 0.596888 0.902625
O O11 0.722930 0.112799 0.900563
O O12 0.616951 0.361651 0.001626
O O13 0.524210 0.547404 0.525175
O O14 0.520226 0.840767 0.691369
O O15 0.590266 0.852722 0.959807
O O16 0.670810 0.154084 0.234766
#
# Coordination Sequence:
#
# PCOD9115106 Si02
#       8
#     2   2   2   2   2   2   2   2
#     4  10  20  31  48  70 114 154 206 227 266 332
#     4  11  22  34  57  80 115 166 199 220 293 360
#     4  11  20  39  52  79 115 153 191 242 287 345
#     4  11  22  34  57  80 115 166 199 220 293 360
#     4  12  24  39  62  86 114 154 206 251 302 348
#     4  11  20  39  52  79 115 153 191 242 287 345
#     4  11  21  33  53  82 119 165 197 227 280 359
#     4  11  21  33  53  82 119 165 197 227 280 359
#
# _framework density 27.161605999999999
#
# number of rings (size 3 to 8) (size 9 to 14) (size 15 to 20)
#    0.000    1.000    3.750    6.000    3.500    1.000 
#    0.000    0.000    0.000    0.000    0.000    0.000 
#    0.000   20.000    0.000    0.000    0.000    0.000 
#
# Total GULP energy -89141.351034 kJ/mol
# GULP energy per Si atom -5571.334440 kJ/mol
# Density = 2.709978 g / cm^3
# Si number density = 27.161606 Si / 1000 Ang^3
#
#
#
# Elastic Constant Matrix: (Units=GPa)
#
#
# Indices 1 2 3 4 5 6 
#
# 1 87.2371 55.0250 -10.1448 0.0000 0.7529 0.0000
# 2 55.0250 260.4462 20.4310 0.0000 4.4232 0.0000
# 3 -10.1448 20.4310 59.9967 0.0000 -7.4607 0.0000
# 4 0.0000 0.0000 0.0000 23.4147 0.0000 -13.2127
# 5 0.7529 4.4232 -7.4607 0.0000 25.8693 0.0000
# 6 0.0000 0.0000 0.0000 -13.2127 0.0000 33.3376
#
#
#
# Elastic Compliance Matrix: (Units=1/GPa)
#
#
# Indices 1 2 3 4 5 6 
#
# 1 0.013918 -0.003244 0.003606 0.000000 0.001189 0.000000
# 2 -0.003244 0.004731 -0.002332 0.000000 -0.001387 0.000000
# 3 0.003606 -0.002332 0.018782 0.000000 0.005710 0.000000
# 4 0.000000 0.000000 0.000000 0.055011 0.000000 0.021803
# 5 0.001189 -0.001387 0.005710 0.000000 0.040505 0.000000
# 6 0.000000 0.000000 0.000000 0.021803 0.000000 0.038637
#
#
# Mechanical properties :
#
#
# Convention : Reuss Voigt Hill
#
# Bulk Modulus (GPa) = 29.85867 59.81139 44.83503
# Shear Modulus (GPa) = 26.78266 39.34891 33.06578
#
# Velocity S-wave (km/s) = 3.14355 3.81030 3.49287
# Velocity P-wave (km/s) = 4.91861 6.43632 5.72795
#
# Compressibility (1/GPa) = 0.03349111
#
# Stress axis : x y z
#
# Youngs Moduli (GPa) = 71.84977 211.35677 53.24377
#
# Poissons Ratio (x) = 0.68554 -0.19199
# Poissons Ratio (y) = 0.23305 0.12417
# Poissons Ratio (z) = -0.25908 0.49291
#
# Static dielectric constant tensor:
#      x y z
#    x 2.141680 0.000000 -0.012200 
#    y 0.000000 2.463780 0.000000 
#    z -0.012200 0.000000 2.149160 
# 
# From -- ./inp_files/11640.got.cif
#   From: 2010.05.17/outbox.cif.g08.bks.cpg/sg4_6_cif.got.tgz:11640.got - 2010.06.03 18:43:04.
