data_PCOD9115318
_publ_section_title
;
Structure prediction by ZEFSAII (Michael W. Deem and Ramdas Pophale) SiO2 
 PCOD9115318
Probable space group: P 21
;
_chemical_formula_sum "Si O2"
_cell_formula_units_Z 16
_cell_length_a 5.294125
_cell_length_b 8.791694
_cell_length_c 15.519095
_cell_angle_alpha 90.000000
_cell_angle_beta 76.313696
_cell_angle_gamma 90.000000
_cell_volume 701.815900
_symmetry_space_group_name_H-M "P 21"
_symmetry_group_IT_number 4
_symmetry_cell_setting 'monoclinic'
loop_
_space_group_symop_operation_xyz
x,y,z
-x,1/2+y,-z
loop_
_atom_site_type_symbol
_atom_site_label
_atom_site_fract_x
_atom_site_fract_y
_atom_site_fract_z
Si Si1 0.201756 0.480240 0.565698
Si Si2 0.703848 0.265786 0.567323
Si Si3 0.540214 0.286820 0.756996
Si Si4 0.566430 0.215319 0.130998
Si Si5 0.437956 0.647695 0.060933
Si Si6 0.105181 0.421960 0.867556
Si Si7 0.162521 0.083744 0.257678
Si Si8 0.060102 0.946094 0.938200
O O1 0.455507 0.373815 0.562267
O O2 0.263819 0.621107 0.497739
O O3 0.968615 0.368363 0.550399
O O4 0.085402 0.565874 0.660971
O O5 0.640688 0.195319 0.667645
O O6 0.621661 0.241361 0.847012
O O7 0.230259 0.300520 0.793040
O O8 0.646762 0.453088 0.722377
O O9 0.336343 0.229271 0.219218
O O10 0.807304 0.323801 0.134333
O O11 0.671356 0.042900 0.125336
O O12 0.508614 0.235495 0.033619
O O13 0.703298 0.558878 0.059382
O O14 0.193664 0.534653 0.070885
O O15 0.909381 0.524316 0.831250
O O16 0.005469 0.362900 0.965930
#
# Coordination Sequence:
#
# PCOD9115318 Si02
#       8
#     2   2   2   2   2   2   2   2
#     4  11  24  46  77 105 139 176 228 288 351 420
#     4  11  24  47  75 107 137 178 227 287 353 419
#     4  10  23  40  67  92 128 173 229 264 325 412
#     4  10  23  38  59  89 131 172 228 272 322 388
#     4  11  25  38  61  92 126 178 222 273 324 386
#     4  10  20  37  62  90 119 181 223 268 314 392
#     4  10  20  40  68  94 122 178 224 268 323 404
#     4  11  25  38  57  91 136 172 215 278 332 369
#
# _framework density 22.798002
#
# number of rings (size 3 to 8) (size 9 to 14) (size 15 to 20)
#    0.000    1.500    2.500    1.500   10.500    0.000 
#    2.250    0.000    0.000    0.000    0.000    0.000 
#    0.000    0.000    0.000    0.000    0.000    0.000 
#
# Total GULP energy -89197.055888 kJ/mol
# GULP energy per Si atom -5574.815993 kJ/mol
# Density = 2.274611 g / cm^3
# Si number density = 22.798002 Si / 1000 Ang^3
#
#
#
# Elastic Constant Matrix: (Units=GPa)
#
#
# Indices 1 2 3 4 5 6 
#
# 1 132.4588 39.2262 23.5377 0.0000 -10.4274 0.0000
# 2 39.2262 71.2101 37.3792 0.0000 -6.9518 0.0000
# 3 23.5377 37.3792 95.5390 0.0000 -10.2667 0.0000
# 4 0.0000 0.0000 0.0000 33.2225 0.0000 -7.6716
# 5 -10.4274 -6.9518 -10.2667 0.0000 26.9708 0.0000
# 6 0.0000 0.0000 0.0000 -7.6716 0.0000 46.7744
#
#
#
# Elastic Compliance Matrix: (Units=1/GPa)
#
#
# Indices 1 2 3 4 5 6 
#
# 1 0.009160 -0.004742 -0.000159 0.000000 0.002259 0.000000
# 2 -0.004742 0.020232 -0.006656 0.000000 0.000848 0.000000
# 3 -0.000159 -0.006656 0.013470 0.000000 0.003351 0.000000
# 4 0.000000 0.000000 0.000000 0.031285 0.000000 0.005131
# 5 0.002259 0.000848 0.003351 0.000000 0.039444 0.000000
# 6 0.000000 0.000000 0.000000 0.005131 0.000000 0.022221
#
#
# Mechanical properties :
#
#
# Convention : Reuss Voigt Hill
#
# Bulk Modulus (GPa) = 50.63755 55.49935 53.06845
# Shear Modulus (GPa) = 30.20997 34.66453 32.43725
#
# Velocity S-wave (km/s) = 3.64416 3.90360 3.77611
# Velocity P-wave (km/s) = 6.32188 6.68687 6.50694
#
# Compressibility (1/GPa) = 0.01974819
#
# Stress axis : x y z
#
# Youngs Moduli (GPa) = 109.17298 49.42733 74.23729
#
# Poissons Ratio (x) = 0.23438 0.01178
# Poissons Ratio (y) = 0.51768 0.49414
# Poissons Ratio (z) = 0.01733 0.32900
#
# Static dielectric constant tensor:
#      x y z
#    x 1.940480 0.000000 -0.017850 
#    y 0.000000 1.909000 0.000000 
#    z -0.017850 0.000000 1.911680 
# 
# From -- ./inp_files/13330.got.cif
#   From: 2010.05.17/outbox.cif.g08.bks.cpg/sg4_7_cif.got.tgz:13330.got - 2010.06.03 18:43:04.
