data_PCOD9115048
_publ_section_title
;
Structure prediction by ZEFSAII (Michael W. Deem and Ramdas Pophale) SiO2 
 PCOD9115048
Probable space group: P 21
;
_chemical_formula_sum "Si O2"
_cell_formula_units_Z 16
_cell_length_a 12.210651
_cell_length_b 8.157166
_cell_length_c 9.054500
_cell_angle_alpha 90.000000
_cell_angle_beta 133.214518
_cell_angle_gamma 90.000000
_cell_volume 657.276440
_symmetry_space_group_name_H-M "P 21"
_symmetry_group_IT_number 4
_symmetry_cell_setting 'monoclinic'
loop_
_space_group_symop_operation_xyz
x,y,z
-x,1/2+y,-z
loop_
_atom_site_type_symbol
_atom_site_label
_atom_site_fract_x
_atom_site_fract_y
_atom_site_fract_z
Si Si1 0.824331 0.655950 0.589616
Si Si2 0.471518 0.307245 0.626812
Si Si3 0.478520 0.358129 0.985035
Si Si4 0.896544 0.992912 0.148674
Si Si5 0.191804 0.174512 0.775942
Si Si6 0.933668 0.024296 0.690252
Si Si7 0.738222 0.158599 0.237385
Si Si8 0.289414 0.580405 0.285678
O O1 0.656803 0.665255 0.496889
O O2 0.825396 0.636698 0.412565
O O3 0.937955 0.523876 0.758401
O O4 0.891059 0.836874 0.680284
O O5 0.486968 0.340317 0.815601
O O6 0.401988 0.467938 0.485810
O O7 0.620379 0.236124 0.690903
O O8 0.365815 0.223981 0.953756
O O9 0.392675 0.528571 0.929985
O O10 0.647326 0.322256 0.193140
O O11 0.893935 0.843266 0.260165
O O12 0.846381 0.152864 0.196713
O O13 0.773491 0.973523 0.908855
O O14 0.106342 0.050020 0.804229
O O15 0.833690 0.086825 0.459445
O O16 0.860255 0.121176 0.759014
#
# Coordination Sequence:
#
# PCOD9115048 Si02
#       8
#     2   2   2   2   2   2   2   2
#     4  10  19  40  64  85 122 157 201 259 299 345
#     4  10  22  43  61  87 129 166 196 252 309 360
#     4  10  21  40  63  94 125 153 206 262 299 349
#     4  11  22  38  63  91 119 160 203 247 300 367
#     4  10  20  39  61  91 119 154 206 253 299 355
#     4  11  22  40  61  88 124 160 197 252 306 359
#     4  11  20  40  62  93 120 159 207 254 296 354
#     4  11  24  42  63  87 130 163 198 249 310 371
#
# _framework density 24.342877999999999
#
# number of rings (size 3 to 8) (size 9 to 14) (size 15 to 20)
#    0.000    1.500    7.500    0.000    0.000    6.000 
#    4.500    0.000    0.000    0.000    0.000    0.000 
#    0.000    0.000    0.000    0.000    0.000    0.000 
#
# Total GULP energy -89403.355345 kJ/mol
# GULP energy per Si atom -5587.709709 kJ/mol
# Density = 2.428747 g / cm^3
# Si number density = 24.342878 Si / 1000 Ang^3
#
#
#
# Elastic Constant Matrix: (Units=GPa)
#
#
# Indices 1 2 3 4 5 6 
#
# 1 106.3350 13.9732 -17.9562 0.0000 -5.0545 0.0000
# 2 13.9732 52.7455 8.3171 0.0000 6.6089 0.0000
# 3 -17.9562 8.3171 33.9035 0.0000 -6.8293 0.0000
# 4 0.0000 0.0000 0.0000 20.3759 0.0000 12.5558
# 5 -5.0545 6.6089 -6.8293 0.0000 27.8118 0.0000
# 6 0.0000 0.0000 0.0000 12.5558 0.0000 45.8933
#
#
#
# Elastic Compliance Matrix: (Units=1/GPa)
#
#
# Indices 1 2 3 4 5 6 
#
# 1 0.011802 -0.005175 0.008627 0.000000 0.005493 0.000000
# 2 -0.005175 0.023055 -0.010194 0.000000 -0.008922 0.000000
# 3 0.008627 -0.010194 0.039314 0.000000 0.013644 0.000000
# 4 0.000000 0.000000 0.000000 0.059029 0.000000 -0.016150
# 5 0.005493 -0.008922 0.013644 0.000000 0.042425 0.000000
# 6 0.000000 0.000000 0.000000 -0.016150 0.000000 0.026208
#
#
# Mechanical properties :
#
#
# Convention : Reuss Voigt Hill
#
# Bulk Modulus (GPa) = 16.47819 22.40579 19.44199
# Shear Modulus (GPa) = 21.22723 31.39286 26.31005
#
# Velocity S-wave (km/s) = 2.95618 3.59501 3.29114
# Velocity P-wave (km/s) = 4.29371 5.14358 4.73774
#
# Compressibility (1/GPa) = 0.06068628
#
# Stress axis : x y z
#
# Youngs Moduli (GPa) = 84.73028 43.37391 25.43647
#
# Poissons Ratio (x) = 0.22447 -0.21944
# Poissons Ratio (y) = 0.43849 0.25930
# Poissons Ratio (z) = -0.73095 0.44216
#
# Static dielectric constant tensor:
#      x y z
#    x 1.966390 0.000000 0.027990 
#    y 0.000000 2.007360 0.000000 
#    z 0.027990 0.000000 1.928110 
# 
# From -- ./inp_files/7819.got.cif
#   From: 2010.05.17/outbox.cif.g08.bks.cpg/sg4_4_cif.got.tgz:7819.got - 2010.06.03 18:43:04.
