data_PCOD9115621
_publ_section_title
;
Structure prediction by ZEFSAII (Michael W. Deem and Ramdas Pophale) SiO2 
 PCOD9115621
Probable space group: P 21
;
_chemical_formula_sum "Si O2"
_cell_formula_units_Z 16
_cell_length_a 12.685616
_cell_length_b 8.059092
_cell_length_c 16.636488
_cell_angle_alpha 90.000000
_cell_angle_beta 23.589078
_cell_angle_gamma 90.000000
_cell_volume 680.626050
_symmetry_space_group_name_H-M "P 21"
_symmetry_group_IT_number 4
_symmetry_cell_setting 'monoclinic'
loop_
_space_group_symop_operation_xyz
x,y,z
-x,1/2+y,-z
loop_
_atom_site_type_symbol
_atom_site_label
_atom_site_fract_x
_atom_site_fract_y
_atom_site_fract_z
Si Si1 0.907031 0.705690 0.064147
Si Si2 0.590949 0.368852 0.306786
Si Si3 0.094606 0.574272 0.205166
Si Si4 0.728783 0.668924 0.599544
Si Si5 0.122144 0.379463 0.743758
Si Si6 0.352232 0.366413 0.906398
Si Si7 0.351202 0.251942 0.172496
Si Si8 0.324149 0.087463 0.031531
O O1 0.781665 0.525715 0.162757
O O2 0.891102 0.813288 0.156753
O O3 0.742376 0.789994 0.109561
O O4 0.212010 0.712211 0.822691
O O5 0.408071 0.315793 0.357952
O O6 0.411453 0.415710 0.508102
O O7 0.951225 0.579164 0.390844
O O8 0.955504 0.718659 0.253465
O O9 0.109046 0.421423 0.133880
O O10 0.395204 0.630617 0.004072
O O11 0.517804 0.526457 0.766593
O O12 0.804446 0.735674 0.635035
O O13 0.908056 0.515917 0.864089
O O14 0.485067 0.224583 0.868255
O O15 0.492113 0.431446 0.073513
O O16 0.213943 0.182879 0.187931
#
# Coordination Sequence:
#
# PCOD9115621 Si02
#       8
#     2   2   2   2   2   2   2   2
#     4  12  23  40  64  91 127 176 219 267 333 391
#     4  11  24  42  66  96 132 172 222 276 329 395
#     4   9  20  40  63  91 127 167 216 272 324 390
#     4  10  21  41  64  92 128 169 215 268 330 396
#     4  10  24  43  63  94 134 172 222 279 328 391
#     4  11  23  38  62  94 130 169 217 272 327 390
#     4  10  20  41  66  89 125 170 213 268 333 391
#     4  11  23  43  68  97 135 173 220 278 332 394
#
# _framework density 23.507771000000002
#
# number of rings (size 3 to 8) (size 9 to 14) (size 15 to 20)
#    0.000    1.500    0.000    6.750    0.000    6.000 
#    0.000   13.750    0.000    0.000    0.000    0.000 
#    0.000    0.000    0.000    0.000    0.000    0.000 
#
# Total GULP energy -89332.957973 kJ/mol
# GULP energy per Si atom -5583.309873 kJ/mol
# Density = 2.345427 g / cm^3
# Si number density = 23.507771 Si / 1000 Ang^3
#
#
#
# Elastic Constant Matrix: (Units=GPa)
#
#
# Indices 1 2 3 4 5 6 
#
# 1 80.4674 28.7813 22.8565 0.0000 31.5382 0.0000
# 2 28.7813 68.0448 22.4031 0.0000 9.9170 0.0000
# 3 22.8565 22.4031 115.3849 0.0000 24.5346 0.0000
# 4 0.0000 0.0000 0.0000 12.3698 0.0000 5.0628
# 5 31.5382 9.9170 24.5346 0.0000 36.6688 0.0000
# 6 0.0000 0.0000 0.0000 5.0628 0.0000 43.1594
#
#
#
# Elastic Compliance Matrix: (Units=1/GPa)
#
#
# Indices 1 2 3 4 5 6 
#
# 1 0.021293 -0.006766 0.000700 0.000000 -0.016952 0.000000
# 2 -0.006766 0.018061 -0.002758 0.000000 0.002780 0.000000
# 3 0.000700 -0.002758 0.010531 0.000000 -0.006903 0.000000
# 4 0.000000 0.000000 0.000000 0.084919 0.000000 -0.009961
# 5 -0.016952 0.002780 -0.006903 0.000000 0.045718 0.000000
# 6 0.000000 0.000000 0.000000 -0.009961 0.000000 0.024338
#
#
# Mechanical properties :
#
#
# Convention : Reuss Voigt Hill
#
# Bulk Modulus (GPa) = 31.01917 45.77546 38.39732
# Shear Modulus (GPa) = 21.43592 31.09667 26.26629
#
# Velocity S-wave (km/s) = 3.02299 3.64101 3.34630
# Velocity P-wave (km/s) = 5.04069 6.09842 5.59461
#
# Compressibility (1/GPa) = 0.03223813
#
# Stress axis : x y z
#
# Youngs Moduli (GPa) = 46.96407 55.36822 94.95715
#
# Poissons Ratio (x) = 0.37464 -0.06652
# Poissons Ratio (y) = 0.31777 0.26184
# Poissons Ratio (z) = -0.03290 0.15268
#
# Static dielectric constant tensor:
#      x y z
#    x 1.958320 0.000000 0.012840 
#    y 0.000000 1.954320 0.000000 
#    z 0.012840 0.000000 1.961910 
# 
# From -- ./inp_files/13928.got.cif
#   From: 2010.05.17/outbox.cif.g08.bks.cpg/sg4_7_cif.got.tgz:13928.got - 2010.06.03 18:43:04.
