data_PCOD9115501
_publ_section_title
;
Structure prediction by ZEFSAII (Michael W. Deem and Ramdas Pophale) SiO2 
 PCOD9115501
Probable space group: P 21
;
_chemical_formula_sum "Si O2"
_cell_formula_units_Z 16
_cell_length_a 9.401092
_cell_length_b 11.236509
_cell_length_c 8.145282
_cell_angle_alpha 90.000000
_cell_angle_beta 46.101184
_cell_angle_gamma 90.000000
_cell_volume 619.996532
_symmetry_space_group_name_H-M "P 21"
_symmetry_group_IT_number 4
_symmetry_cell_setting 'monoclinic'
loop_
_space_group_symop_operation_xyz
x,y,z
-x,1/2+y,-z
loop_
_atom_site_type_symbol
_atom_site_label
_atom_site_fract_x
_atom_site_fract_y
_atom_site_fract_z
Si Si1 0.778533 0.909430 0.878977
Si Si2 0.051449 0.840460 0.386773
Si Si3 0.849781 0.008606 0.349987
Si Si4 0.617607 0.216245 0.690244
Si Si5 0.102645 0.107171 0.650547
Si Si6 0.157850 0.288138 0.847533
Si Si7 0.726868 0.221580 0.242090
Si Si8 0.481325 0.122131 0.135433
O O1 0.849559 0.851465 0.653387
O O2 0.755663 0.816690 0.044901
O O3 0.965189 0.994254 0.771816
O O4 0.594751 0.997093 0.022896
O O5 0.229745 0.814703 0.364668
O O6 0.030651 0.719390 0.300100
O O7 0.047684 0.959065 0.278347
O O8 0.731822 0.087984 0.575365
O O9 0.838177 0.098241 0.206423
O O10 0.766006 0.885911 0.343592
O O11 0.599896 0.249169 0.508813
O O12 0.486213 0.188266 0.956534
O O13 0.194947 0.157418 0.745066
O O14 0.270656 0.095363 0.381810
O O15 0.918232 0.304445 0.062517
O O16 0.596815 0.197811 0.185496
#
# Coordination Sequence:
#
# PCOD9115501 Si02
#       8
#     2   2   2   2   2   2   2   2
#     4  12  20  43  69  92 133 186 221 273 340 402
#     4  11  19  39  68  93 130 177 225 271 334 403
#     4   9  18  32  61  94 124 165 230 258 327 403
#     4  10  20  39  67  93 131 182 220 280 335 394
#     4  11  26  42  65 107 132 174 230 280 345 409
#     4  11  19  39  68  93 130 177 225 271 334 403
#     4  10  20  39  67  93 131 182 220 280 335 394
#     4  12  22  45  67  91 151 171 215 305 330 388
#
# _framework density 25.806595000000002
#
# number of rings (size 3 to 8) (size 9 to 14) (size 15 to 20)
#    0.750    0.500    6.250    0.750    0.000    0.000 
#    6.750    0.000    0.000    0.000    0.000    0.000 
#    0.000    0.000    0.000    0.000    0.000    0.000 
#
# Total GULP energy -89335.338891 kJ/mol
# GULP energy per Si atom -5583.458681 kJ/mol
# Density = 2.574786 g / cm^3
# Si number density = 25.806595 Si / 1000 Ang^3
#
#
#
# Elastic Constant Matrix: (Units=GPa)
#
#
# Indices 1 2 3 4 5 6 
#
# 1 103.4608 42.7005 41.8659 0.0000 34.4091 0.0000
# 2 42.7005 73.3294 39.8353 0.0000 14.4356 0.0000
# 3 41.8659 39.8353 173.5378 0.0000 13.0289 0.0000
# 4 0.0000 0.0000 0.0000 36.3467 0.0000 5.1385
# 5 34.4091 14.4356 13.0289 0.0000 39.2467 0.0000
# 6 0.0000 0.0000 0.0000 5.1385 0.0000 24.6650
#
#
#
# Elastic Compliance Matrix: (Units=1/GPa)
#
#
# Indices 1 2 3 4 5 6 
#
# 1 0.017082 -0.006674 -0.001691 0.000000 -0.011960 0.000000
# 2 -0.006674 0.019065 -0.002748 0.000000 -0.000249 0.000000
# 3 -0.001691 -0.002748 0.006783 0.000000 0.000241 0.000000
# 4 0.000000 0.000000 0.000000 0.028348 0.000000 -0.005906
# 5 -0.011960 -0.000249 0.000241 0.000000 0.035977 0.000000
# 6 0.000000 0.000000 0.000000 -0.005906 0.000000 0.041774
#
#
# Mechanical properties :
#
#
# Convention : Reuss Voigt Hill
#
# Bulk Modulus (GPa) = 48.29771 66.57014 57.43393
# Shear Modulus (GPa) = 28.06537 35.11342 31.58939
#
# Velocity S-wave (km/s) = 3.30135 3.69268 3.50248
# Velocity P-wave (km/s) = 5.76955 6.63574 6.21775
#
# Compressibility (1/GPa) = 0.02070492
#
# Stress axis : x y z
#
# Youngs Moduli (GPa) = 58.54106 52.45221 147.42782
#
# Poissons Ratio (x) = 0.35006 0.24931
# Poissons Ratio (y) = 0.39070 0.40507
# Poissons Ratio (z) = 0.09900 0.14412
#
# Static dielectric constant tensor:
#      x y z
#    x 2.115440 0.000000 0.002270 
#    y 0.000000 2.031710 0.000000 
#    z 0.002270 0.000000 2.074660 
# 
# From -- ./inp_files/8310.got.cif
#   From: 2010.05.17/outbox.cif.g08.bks.cpg/sg4_5_cif.got.tgz:8310.got - 2010.06.03 18:43:04.
