data_PCOD9115324
_publ_section_title
;
Structure prediction by ZEFSAII (Michael W. Deem and Ramdas Pophale) SiO2 
 PCOD9115324
Probable space group: P 21
;
_chemical_formula_sum "Si O2"
_cell_formula_units_Z 14
_cell_length_a 9.093726
_cell_length_b 7.120244
_cell_length_c 9.274222
_cell_angle_alpha 90.000000
_cell_angle_beta 65.366240
_cell_angle_gamma 90.000000
_cell_volume 545.850426
_symmetry_space_group_name_H-M "P 21"
_symmetry_group_IT_number 4
_symmetry_cell_setting 'monoclinic'
loop_
_space_group_symop_operation_xyz
x,y,z
-x,1/2+y,-z
loop_
_atom_site_type_symbol
_atom_site_label
_atom_site_fract_x
_atom_site_fract_y
_atom_site_fract_z
Si Si1 0.533254 0.385940 0.529370
Si Si2 0.995998 0.255168 0.149932
Si Si3 0.870747 0.549120 0.429613
Si Si4 0.349313 0.662210 0.771016
Si Si5 0.396461 0.656670 0.221281
Si Si6 0.663004 0.896055 0.986591
Si Si7 0.918134 0.398455 0.720128
O O1 0.677320 0.536751 0.498893
O O2 0.370301 0.482985 0.653321
O O3 0.557082 0.322495 0.355438
O O4 0.580230 0.215628 0.620990
O O5 0.153660 0.366419 0.036784
O O6 0.934063 0.370572 0.314299
O O7 0.831729 0.234729 0.128321
O O8 0.057957 0.048348 0.164871
O O9 0.928475 0.518710 0.568664
O O10 0.947322 0.736799 0.335234
O O11 0.409228 0.571649 0.893700
O O12 0.347454 0.453850 0.176934
O O13 0.253242 0.792148 0.220573
O O14 0.563067 0.718125 0.078872
#
# Coordination Sequence:
#
# PCOD9115324 Si02
#       7
#     2   2   2   2   2   2   2
#     4   9  22  42  64  99 127 176 233 277 337 390
#     4  11  23  39  64  96 138 181 222 270 341 415
#     4  10  20  37  62  98 132 169 231 279 333 392
#     4  10  24  43  65  94 136 177 222 282 334 406
#     4  10  22  40  66  94 134 173 232 281 328 397
#     4  11  23  44  64  99 138 178 227 273 342 412
#     4  11  20  37  65  96 133 176 221 288 335 386
#
# _framework density 25.648052
#
# number of rings (size 3 to 8) (size 9 to 14) (size 15 to 20)
#    0.000    1.714    2.857    0.857    2.000    2.286 
#    0.000    1.429    0.000    0.000    0.000    0.000 
#    0.000    0.000    0.000    0.000    0.000    0.000 
#
# Total GULP energy -78274.494594 kJ/mol
# GULP energy per Si atom -5591.035328 kJ/mol
# Density = 2.558968 g / cm^3
# Si number density = 25.648052 Si / 1000 Ang^3
#
#
#
# Elastic Constant Matrix: (Units=GPa)
#
#
# Indices 1 2 3 4 5 6 
#
# 1 76.4464 17.7627 28.5746 0.0000 -17.9496 0.0000
# 2 17.7627 73.5086 12.6756 0.0000 -6.1648 0.0000
# 3 28.5746 12.6756 57.3172 0.0000 -6.0808 0.0000
# 4 0.0000 0.0000 0.0000 51.7241 0.0000 -6.6820
# 5 -17.9496 -6.1648 -6.0808 0.0000 38.9966 0.0000
# 6 0.0000 0.0000 0.0000 -6.6820 0.0000 38.4804
#
#
#
# Elastic Compliance Matrix: (Units=1/GPa)
#
#
# Indices 1 2 3 4 5 6 
#
# 1 0.018151 -0.002478 -0.007785 0.000000 0.006749 0.000000
# 2 -0.002478 0.014604 -0.001902 0.000000 0.000872 0.000000
# 3 -0.007785 -0.001902 0.021695 0.000000 -0.000501 0.000000
# 4 0.000000 0.000000 0.000000 0.019777 0.000000 0.003434
# 5 0.006749 0.000872 -0.000501 0.000000 0.028809 0.000000
# 6 0.000000 0.000000 0.000000 0.003434 0.000000 0.026584
#
#
# Mechanical properties :
#
#
# Convention : Reuss Voigt Hill
#
# Bulk Modulus (GPa) = 33.19943 36.14422 34.67183
# Shear Modulus (GPa) = 30.48959 35.72419 33.10689
#
# Velocity S-wave (km/s) = 3.45159 3.73616 3.59669
# Velocity P-wave (km/s) = 5.37187 5.72143 5.54940
#
# Compressibility (1/GPa) = 0.03012100
#
# Stress axis : x y z
#
# Youngs Moduli (GPa) = 55.09189 68.47621 46.09269
#
# Poissons Ratio (x) = 0.16966 0.35884
# Poissons Ratio (y) = 0.13650 0.08766
# Poissons Ratio (z) = 0.42890 0.13023
#
# Static dielectric constant tensor:
#      x y z
#    x 2.004700 0.000000 0.007450 
#    y 0.000000 2.063240 0.000000 
#    z 0.007450 0.000000 1.997300 
# 
# From -- ./inp_files/5343.got.cif
#   From: 2010.05.17/outbox.cif.g08.bks.cpg/sg4_3_cif.got.tgz:5343.got - 2010.06.03 18:43:04.
