data_PCOD9115744
_publ_section_title
;
Structure prediction by ZEFSAII (Michael W. Deem and Ramdas Pophale) SiO2 
 PCOD9115744
Probable space group: P 21
;
_chemical_formula_sum "Si O2"
_cell_formula_units_Z 14
_cell_length_a 7.869154
_cell_length_b 10.204324
_cell_length_c 10.393636
_cell_angle_alpha 90.000000
_cell_angle_beta 41.330564
_cell_angle_gamma 90.000000
_cell_volume 551.173570
_symmetry_space_group_name_H-M "P 21"
_symmetry_group_IT_number 4
_symmetry_cell_setting 'monoclinic'
loop_
_space_group_symop_operation_xyz
x,y,z
-x,1/2+y,-z
loop_
_atom_site_type_symbol
_atom_site_label
_atom_site_fract_x
_atom_site_fract_y
_atom_site_fract_z
Si Si1 0.013226 0.094100 0.535367
Si Si2 0.562838 0.538407 0.913463
Si Si3 0.151929 0.348358 0.068360
Si Si4 0.215929 0.330840 0.337303
Si Si5 0.345079 0.976657 0.583141
Si Si6 0.278419 0.780406 0.032145
Si Si7 0.696203 0.742111 0.274954
O O1 0.196066 0.078610 0.307511
O O2 0.002059 0.252424 0.540479
O O3 0.177587 0.037828 0.560782
O O4 0.796543 0.986188 0.635130
O O5 0.671625 0.425633 0.943408
O O6 0.352577 0.467210 0.943041
O O7 0.392515 0.662626 0.057312
O O8 0.159853 0.314239 0.215626
O O9 0.865539 0.401647 0.208936
O O10 0.252862 0.245786 0.907315
O O11 0.501925 0.277934 0.204887
O O12 0.438342 0.107764 0.602793
O O13 0.542486 0.869206 0.415489
O O14 0.988151 0.751876 0.162531
#
# Coordination Sequence:
#
# PCOD9115744 Si02
#       7
#     2   2   2   2   2   2   2
#     4  10  21  43  72 106 140 183 241 305 350 434
#     4  10  20  44  72 102 144 183 234 306 357 425
#     4  10  22  48  72 108 145 194 238 303 366 440
#     4   9  22  42  78 102 145 190 240 300 373 417
#     4  11  26  47  76 104 150 198 244 307 371 430
#     4  10  23  44  72 104 139 196 235 301 369 437
#     4  12  26  50  76 104 157 194 248 304 368 445
#
# _framework density 25.400348000000001
#
# number of rings (size 3 to 8) (size 9 to 14) (size 15 to 20)
#    0.000    1.714    2.857    0.000    2.000    3.429 
#   20.571    0.000    0.000    0.000    0.000    0.000 
#    0.000    0.000    0.000    0.000    0.000    0.000 
#
# Total GULP energy -78117.907008 kJ/mol
# GULP energy per Si atom -5579.850501 kJ/mol
# Density = 2.534254 g / cm^3
# Si number density = 25.400348 Si / 1000 Ang^3
#
#
#
# Elastic Constant Matrix: (Units=GPa)
#
#
# Indices 1 2 3 4 5 6 
#
# 1 64.9876 49.3032 16.7830 0.0000 -5.1603 0.0000
# 2 49.3032 114.7235 40.1463 0.0000 -1.5484 0.0000
# 3 16.7830 40.1463 75.4507 0.0000 0.9195 0.0000
# 4 0.0000 0.0000 0.0000 35.8578 0.0000 -2.3456
# 5 -5.1603 -1.5484 0.9195 0.0000 33.8269 0.0000
# 6 0.0000 0.0000 0.0000 -2.3456 0.0000 31.3823
#
#
#
# Elastic Compliance Matrix: (Units=1/GPa)
#
#
# Indices 1 2 3 4 5 6 
#
# 1 0.023148 -0.009943 0.000104 0.000000 0.003073 0.000000
# 2 -0.009943 0.014996 -0.005759 0.000000 -0.000674 0.000000
# 3 0.000104 -0.005759 0.016303 0.000000 -0.000691 0.000000
# 4 0.000000 0.000000 0.000000 0.028025 0.000000 0.002095
# 5 0.003073 -0.000674 -0.000691 0.000000 0.030019 0.000000
# 6 0.000000 0.000000 0.000000 0.002095 0.000000 0.032022
#
#
# Mechanical properties :
#
#
# Convention : Reuss Voigt Hill
#
# Bulk Modulus (GPa) = 43.00875 51.95856 47.48365
# Shear Modulus (GPa) = 27.25396 30.14200 28.69798
#
# Velocity S-wave (km/s) = 3.27918 3.44855 3.36494
# Velocity P-wave (km/s) = 5.59522 6.02967 5.81651
#
# Compressibility (1/GPa) = 0.02325108
#
# Stress axis : x y z
#
# Youngs Moduli (GPa) = 43.20033 66.68467 61.33695
#
# Poissons Ratio (x) = 0.66304 -0.00638
# Poissons Ratio (y) = 0.42954 0.35326
# Poissons Ratio (z) = -0.00450 0.38405
#
# Static dielectric constant tensor:
#      x y z
#    x 2.039830 0.000000 0.007750 
#    y 0.000000 2.215360 0.000000 
#    z 0.007750 0.000000 2.068060 
# 
# From -- ./inp_files/11131.got.cif
#   From: 2010.05.17/outbox.cif.g08.bks.cpg/sg4_6_cif.got.tgz:11131.got - 2010.06.03 18:43:04.
