data_PCOD9115250
_publ_section_title
;
Structure prediction by ZEFSAII (Michael W. Deem and Ramdas Pophale) SiO2 
 PCOD9115250
Probable space group: P 21
;
_chemical_formula_sum "Si O2"
_cell_formula_units_Z 16
_cell_length_a 26.713556
_cell_length_b 5.187252
_cell_length_c 14.200182
_cell_angle_alpha 90.000000
_cell_angle_beta 21.283796
_cell_angle_gamma 90.000000
_cell_volume 714.257642
_symmetry_space_group_name_H-M "P 21"
_symmetry_group_IT_number 4
_symmetry_cell_setting 'monoclinic'
loop_
_space_group_symop_operation_xyz
x,y,z
-x,1/2+y,-z
loop_
_atom_site_type_symbol
_atom_site_label
_atom_site_fract_x
_atom_site_fract_y
_atom_site_fract_z
Si Si1 0.397165 0.717320 0.075433
Si Si2 0.916391 0.143623 0.662522
Si Si3 0.738739 0.846235 0.822700
Si Si4 0.420217 0.061742 0.746702
Si Si5 0.942438 0.132572 0.054652
Si Si6 0.670502 0.958145 0.621321
Si Si7 0.676172 0.062742 0.195512
Si Si8 0.155599 0.111741 0.532905
O O1 0.370977 0.482520 0.052066
O O2 0.404877 0.644446 0.172104
O O3 0.256157 0.881955 0.324811
O O4 0.542997 0.834195 0.791545
O O5 0.808828 0.036872 0.773782
O O6 0.039317 0.935073 0.437281
O O7 0.838417 0.111186 0.899052
O O8 0.856480 0.766357 0.542597
O O9 0.656882 0.623532 0.021439
O O10 0.586107 0.092412 0.448119
O O11 0.357242 0.280018 0.787139
O O12 0.385251 0.783341 0.766220
O O13 0.782450 0.087710 0.357415
O O14 0.979659 0.428660 0.012706
O O15 0.009451 0.058012 0.837170
O O16 0.757245 0.765117 0.538495
#
# Coordination Sequence:
#
# PCOD9115250 Si02
#       8
#     2   2   2   2   2   2   2   2
#     4  11  20  36  61  92 124 161 211 261 306 367
#     4  11  23  40  66  91 121 164 207 252 307 383
#     4  10  24  37  63  93 119 161 204 263 320 363
#     4   9  18  35  61  89 120 148 198 251 302 366
#     4  10  20  37  61  89 122 169 213 250 299 368
#     4  10  20  36  60  93 119 167 217 251 302 367
#     4   9  18  35  62  91 112 154 201 245 298 369
#     4  10  21  36  62  88 127 164 207 255 310 369
#
# _framework density 22.400880999999998
#
# number of rings (size 3 to 8) (size 9 to 14) (size 15 to 20)
#    0.000    2.000    2.500    1.500    5.250    0.000 
#    0.000    0.000    5.500    0.000    0.000    0.000 
#    0.000    0.000    0.000    0.000    0.000    0.000 
#
# Total GULP energy -89213.969959 kJ/mol
# GULP energy per Si atom -5575.873122 kJ/mol
# Density = 2.234990 g / cm^3
# Si number density = 22.400881 Si / 1000 Ang^3
#
#
#
# Elastic Constant Matrix: (Units=GPa)
#
#
# Indices 1 2 3 4 5 6 
#
# 1 49.5237 1.2286 29.7786 0.0000 16.8680 0.0000
# 2 1.2286 47.1431 0.0311 0.0000 2.5261 0.0000
# 3 29.7786 0.0311 127.6539 0.0000 16.4066 0.0000
# 4 0.0000 0.0000 0.0000 31.0088 0.0000 -3.9697
# 5 16.8680 2.5261 16.4066 0.0000 23.7960 0.0000
# 6 0.0000 0.0000 0.0000 -3.9697 0.0000 18.2375
#
#
#
# Elastic Compliance Matrix: (Units=1/GPa)
#
#
# Indices 1 2 3 4 5 6 
#
# 1 0.028790 0.000181 -0.004488 0.000000 -0.017333 0.000000
# 2 0.000181 0.021346 0.000286 0.000000 -0.002592 0.000000
# 3 -0.004488 0.000286 0.009300 0.000000 -0.003260 0.000000
# 4 0.000000 0.000000 0.000000 0.033173 0.000000 0.007221
# 5 -0.017333 -0.002592 -0.003260 0.000000 0.056834 0.000000
# 6 0.000000 0.000000 0.000000 0.007221 0.000000 0.056404
#
#
# Mechanical properties :
#
#
# Convention : Reuss Voigt Hill
#
# Bulk Modulus (GPa) = 19.45783 31.82192 25.63987
# Shear Modulus (GPa) = 21.64309 27.49397 24.56853
#
# Velocity S-wave (km/s) = 3.11170 3.50717 3.31534
# Velocity P-wave (km/s) = 4.64923 5.53505 5.11137
#
# Compressibility (1/GPa) = 0.05139320
#
# Stress axis : x y z
#
# Youngs Moduli (GPa) = 34.73373 46.84724 107.53017
#
# Poissons Ratio (x) = -0.00850 0.48265
# Poissons Ratio (y) = -0.00630 -0.03070
# Poissons Ratio (z) = 0.15590 -0.01338
#
# Static dielectric constant tensor:
#      x y z
#    x 1.820090 0.000000 0.002500 
#    y 0.000000 1.888940 0.000000 
#    z 0.002500 0.000000 1.900180 
# 
# From -- ./inp_files/14573.got.cif
#   From: 2010.05.17/outbox.cif.g08.bks.cpg/sg4_8_cif.got.tgz:14573.got - 2010.06.03 18:43:04.
