data_PCOD9115195
_publ_section_title
;
Structure prediction by ZEFSAII (Michael W. Deem and Ramdas Pophale) SiO2 
 PCOD9115195
Probable space group: P 21
;
_chemical_formula_sum "Si O2"
_cell_formula_units_Z 16
_cell_length_a 11.996911
_cell_length_b 8.460714
_cell_length_c 9.263740
_cell_angle_alpha 90.000000
_cell_angle_beta 59.085037
_cell_angle_gamma 90.000000
_cell_volume 806.705560
_symmetry_space_group_name_H-M "P 21"
_symmetry_group_IT_number 4
_symmetry_cell_setting 'monoclinic'
loop_
_space_group_symop_operation_xyz
x,y,z
-x,1/2+y,-z
loop_
_atom_site_type_symbol
_atom_site_label
_atom_site_fract_x
_atom_site_fract_y
_atom_site_fract_z
Si Si1 0.375947 0.463630 0.502609
Si Si2 0.393297 0.671227 0.900530
Si Si3 0.183379 0.594146 0.841133
Si Si4 0.204874 0.150192 0.670965
Si Si5 0.972562 0.343093 0.893798
Si Si6 0.590135 0.470385 0.603678
Si Si7 0.534736 0.154399 0.818821
Si Si8 0.272140 0.009112 0.939555
O O1 0.281066 0.593599 0.641061
O O2 0.300465 0.299504 0.577659
O O3 0.507661 0.462233 0.509486
O O4 0.404979 0.516404 0.321290
O O5 0.277270 0.562968 0.914959
O O6 0.523803 0.610092 0.740186
O O7 0.351803 0.844511 0.874687
O O8 0.405399 0.664426 0.063054
O O9 0.080224 0.457504 0.886603
O O10 0.103603 0.751042 0.929471
O O11 0.262096 0.013290 0.531404
O O12 0.226333 0.089244 0.820484
O O13 0.057672 0.213072 0.751116
O O14 0.860599 0.449812 0.894117
O O15 0.563837 0.313203 0.711122
O O16 0.379628 0.124553 0.935939
#
# Coordination Sequence:
#
# PCOD9115195 Si02
#       8
#     2   2   2   2   2   2   2   2
#     4  10  20  35  58  93 124 157 212 263 325 379
#     4  10  24  39  58  93 137 169 203 263 344 407
#     4   9  20  35  61  88 122 163 213 267 315 376
#     4  11  21  36  61  94 123 160 215 280 310 367
#     4  10  20  36  61  96 116 165 221 269 310 365
#     4  11  21  35  59  94 124 166 212 261 333 381
#     4  12  23  38  62  95 136 168 203 266 346 401
#     4  11  21  38  64  89 128 168 211 269 313 386
#
# _framework density 19.833753999999999
#
# number of rings (size 3 to 8) (size 9 to 14) (size 15 to 20)
#    0.000    1.500    3.750    1.500    5.250    0.000 
#    0.000    0.000    0.000   24.000    0.000    0.000 
#    0.000    0.000    0.000    0.000    0.000    0.000 
#
# Total GULP energy -89223.584002 kJ/mol
# GULP energy per Si atom -5576.474000 kJ/mol
# Density = 1.978861 g / cm^3
# Si number density = 19.833754 Si / 1000 Ang^3
#
#
#
# Elastic Constant Matrix: (Units=GPa)
#
#
# Indices 1 2 3 4 5 6 
#
# 1 74.2874 28.0122 48.8939 0.0000 -24.1646 0.0000
# 2 28.0122 58.4928 23.7792 0.0000 -10.0723 0.0000
# 3 48.8939 23.7792 75.0487 0.0000 -12.2076 0.0000
# 4 0.0000 0.0000 0.0000 32.0831 0.0000 -21.6478
# 5 -24.1646 -10.0723 -12.2076 0.0000 32.3112 0.0000
# 6 0.0000 0.0000 0.0000 -21.6478 0.0000 29.1275
#
#
#
# Elastic Compliance Matrix: (Units=1/GPa)
#
#
# Indices 1 2 3 4 5 6 
#
# 1 0.031189 -0.005777 -0.015970 0.000000 0.015491 0.000000
# 2 -0.005777 0.021195 -0.002749 0.000000 0.001248 0.000000
# 3 -0.015970 -0.002749 0.023992 0.000000 -0.003736 0.000000
# 4 0.000000 0.000000 0.000000 0.062523 0.000000 0.046467
# 5 0.015491 0.001248 -0.003736 0.000000 0.041512 0.000000
# 6 0.000000 0.000000 0.000000 0.046467 0.000000 0.068867
#
#
# Mechanical properties :
#
#
# Convention : Reuss Voigt Hill
#
# Bulk Modulus (GPa) = 36.51524 45.46661 40.99092
# Shear Modulus (GPa) = 16.26556 25.84724 21.05640
#
# Velocity S-wave (km/s) = 2.86684 3.61390 3.26182
# Velocity P-wave (km/s) = 5.42300 6.35510 5.90746
#
# Compressibility (1/GPa) = 0.02738583
#
# Stress axis : x y z
#
# Youngs Moduli (GPa) = 32.06216 47.18052 41.68028
#
# Poissons Ratio (x) = 0.27256 0.66561
# Poissons Ratio (y) = 0.18522 0.11458
# Poissons Ratio (z) = 0.51202 0.12970
#
# Static dielectric constant tensor:
#      x y z
#    x 1.692610 0.000000 -0.057040 
#    y 0.000000 1.807490 0.000000 
#    z -0.057040 0.000000 1.709580 
# 
# From -- ./inp_files/7669.got.cif
#   From: 2010.05.17/outbox.cif.g08.bks.cpg/sg4_4_cif.got.tgz:7669.got - 2010.06.03 18:43:04.
