data_PCOD9115035
_publ_section_title
;
Structure prediction by ZEFSAII (Michael W. Deem and Ramdas Pophale) SiO2 
 PCOD9115035
Probable space group: P 21
;
_chemical_formula_sum "Si O2"
_cell_formula_units_Z 12
_cell_length_a 10.047647
_cell_length_b 7.925932
_cell_length_c 9.258661
_cell_angle_alpha 90.000000
_cell_angle_beta 48.780422
_cell_angle_gamma 90.000000
_cell_volume 554.613361
_symmetry_space_group_name_H-M "P 21"
_symmetry_group_IT_number 4
_symmetry_cell_setting 'monoclinic'
loop_
_space_group_symop_operation_xyz
x,y,z
-x,1/2+y,-z
loop_
_atom_site_type_symbol
_atom_site_label
_atom_site_fract_x
_atom_site_fract_y
_atom_site_fract_z
Si Si1 0.382403 0.038630 0.067684
Si Si2 0.158381 0.267547 0.579544
Si Si3 0.911859 0.133814 0.002974
Si Si4 0.925720 0.432448 0.537992
Si Si5 0.532147 0.263719 0.207968
Si Si6 0.082891 0.269375 0.151709
O O1 0.498225 0.119787 0.111068
O O2 0.261120 0.185675 0.085526
O O3 0.248895 0.905438 0.240799
O O4 0.476663 0.938522 0.873426
O O5 0.369858 0.262623 0.436359
O O6 0.051754 0.232039 0.800777
O O7 0.085819 0.422780 0.537317
O O8 0.102723 0.113165 0.514414
O O9 0.889664 0.946532 0.952805
O O10 0.724574 0.230163 0.134908
O O11 0.991256 0.141533 0.106098
O O12 0.962357 0.314323 0.375515
#
# Coordination Sequence:
#
# PCOD9115035 Si02
#       6
#     2   2   2   2   2   2
#     4  11  22  39  68  98 131 173 224 272 324 384
#     4  10  22  38  64  92 131 167 217 263 321 384
#     4  11  24  42  66  93 138 173 213 272 334 392
#     4  10  19  39  65  92 126 168 218 257 318 388
#     4  11  22  39  64  98 132 168 225 269 321 392
#     4  11  23  43  67  97 132 179 215 267 340 386
#
# _framework density 21.636690999999999
#
# number of rings (size 3 to 8) (size 9 to 14) (size 15 to 20)
#    0.000    1.333    5.000    2.000    2.333    0.000 
#    0.000    8.333    0.000    0.000    0.000    0.000 
#    0.000    0.000    0.000    0.000    0.000    0.000 
#
# Total GULP energy -67039.557143 kJ/mol
# GULP energy per Si atom -5586.629762 kJ/mol
# Density = 2.158745 g / cm^3
# Si number density = 21.636691 Si / 1000 Ang^3
#
#
#
# Elastic Constant Matrix: (Units=GPa)
#
#
# Indices 1 2 3 4 5 6 
#
# 1 65.1970 -6.7140 41.0625 0.0000 -0.3200 0.0000
# 2 -6.7140 56.4141 27.3763 0.0000 -8.0340 0.0000
# 3 41.0625 27.3763 103.7960 0.0000 -9.8485 0.0000
# 4 0.0000 0.0000 0.0000 32.4015 0.0000 -1.8541
# 5 -0.3200 -8.0340 -9.8485 0.0000 33.8284 0.0000
# 6 0.0000 0.0000 0.0000 -1.8541 0.0000 29.9652
#
#
#
# Elastic Compliance Matrix: (Units=1/GPa)
#
#
# Indices 1 2 3 4 5 6 
#
# 1 0.023467 0.008238 -0.011570 0.000000 -0.001190 0.000000
# 2 0.008238 0.023598 -0.009198 0.000000 0.003004 0.000000
# 3 -0.011570 -0.009198 0.016886 0.000000 0.002622 0.000000
# 4 0.000000 0.000000 0.000000 0.030972 0.000000 0.001916
# 5 -0.001190 0.003004 0.002622 0.000000 0.031027 0.000000
# 6 0.000000 0.000000 0.000000 0.001916 0.000000 0.033491
#
#
# Mechanical properties :
#
#
# Convention : Reuss Voigt Hill
#
# Bulk Modulus (GPa) = 25.71207 38.76186 32.23696
# Shear Modulus (GPa) = 25.32108 30.15119 27.73613
#
# Velocity S-wave (km/s) = 3.42465 3.73704 3.58425
# Velocity P-wave (km/s) = 5.24853 6.04768 5.66222
#
# Compressibility (1/GPa) = 0.03889224
#
# Stress axis : x y z
#
# Youngs Moduli (GPa) = 42.61233 42.37681 59.22060
#
# Poissons Ratio (x) = -0.34910 0.68515
# Poissons Ratio (y) = -0.35104 0.54470
# Poissons Ratio (z) = 0.49300 0.38978
#
# Static dielectric constant tensor:
#      x y z
#    x 1.743700 0.000000 -0.035540 
#    y 0.000000 1.859240 0.000000 
#    z -0.035540 0.000000 1.822130 
# 
# From -- ./inp_files/5759.got.cif
#   From: 2010.05.17/outbox.cif.g08.bks.cpg/sg4_3_cif.got.tgz:5759.got - 2010.06.03 18:43:04.
