data_PCOD9115644
_publ_section_title
;
Structure prediction by ZEFSAII (Michael W. Deem and Ramdas Pophale) SiO2 
 PCOD9115644
Probable space group: P 21
;
_chemical_formula_sum "Si O2"
_cell_formula_units_Z 8
_cell_length_a 10.164068
_cell_length_b 4.987353
_cell_length_c 6.867916
_cell_angle_alpha 90.000000
_cell_angle_beta 82.568572
_cell_angle_gamma 90.000000
_cell_volume 345.222683
_symmetry_space_group_name_H-M "P 21"
_symmetry_group_IT_number 4
_symmetry_cell_setting 'monoclinic'
loop_
_space_group_symop_operation_xyz
x,y,z
-x,1/2+y,-z
loop_
_atom_site_type_symbol
_atom_site_label
_atom_site_fract_x
_atom_site_fract_y
_atom_site_fract_z
Si Si1 0.946155 0.648380 0.759034
Si Si2 0.204792 0.657916 0.281222
Si Si3 0.801852 0.392997 0.123128
Si Si4 0.586547 0.424849 0.471862
O O1 0.921249 0.358383 0.673250
O O2 0.095566 0.741126 0.755773
O O3 0.848474 0.861259 0.677600
O O4 0.888323 0.615360 0.991880
O O5 0.321565 0.773667 0.388555
O O6 0.242402 0.701447 0.046449
O O7 0.678830 0.493021 0.270099
O O8 0.521606 0.697966 0.561036
#
# Coordination Sequence:
#
# PCOD9115644 Si02
#       4
#     2   2   2   2
#     4  10  20  41  71  99 121 163 211 274 346 359
#     4  10  22  42  65  99 125 170 212 273 329 374
#     4  10  23  42  71  94 135 159 219 273 325 399
#     4  12  29  43  63  96 135 182 222 258 318 394
#
# _framework density 23.173449999999999
#
# number of rings (size 3 to 8) (size 9 to 14) (size 15 to 20)
#    1.500    0.000    2.500    1.500    3.500    4.000 
#    0.000    0.000    0.000    0.000    0.000    0.000 
#    0.000    0.000    0.000    0.000    0.000    0.000 
#
# Total GULP energy -44697.834121 kJ/mol
# GULP energy per Si atom -5587.229265 kJ/mol
# Density = 2.312071 g / cm^3
# Si number density = 23.173450 Si / 1000 Ang^3
#
#
#
# Elastic Constant Matrix: (Units=GPa)
#
#
# Indices 1 2 3 4 5 6 
#
# 1 69.6434 0.5481 27.0610 0.0000 -16.4081 0.0000
# 2 0.5481 79.2615 -11.8299 0.0000 -6.8530 0.0000
# 3 27.0610 -11.8299 81.1829 0.0000 -7.8318 0.0000
# 4 0.0000 0.0000 0.0000 18.4331 0.0000 11.6753
# 5 -16.4081 -6.8530 -7.8318 0.0000 43.1747 0.0000
# 6 0.0000 0.0000 0.0000 11.6753 0.0000 31.9446
#
#
#
# Elastic Compliance Matrix: (Units=1/GPa)
#
#
# Indices 1 2 3 4 5 6 
#
# 1 0.017829 -0.000443 -0.005456 0.000000 0.005716 0.000000
# 2 -0.000443 0.013164 0.002291 0.000000 0.002337 0.000000
# 3 -0.005456 0.002291 0.014560 0.000000 0.000931 0.000000
# 4 0.000000 0.000000 0.000000 0.070592 0.000000 -0.025800
# 5 0.005716 0.002337 0.000931 0.000000 0.025874 0.000000
# 6 0.000000 0.000000 0.000000 -0.025800 0.000000 0.040734
#
#
# Mechanical properties :
#
#
# Convention : Reuss Voigt Hill
#
# Bulk Modulus (GPa) = 26.08492 29.07182 27.57837
# Shear Modulus (GPa) = 24.66118 32.99772 28.82945
#
# Velocity S-wave (km/s) = 3.26575 3.77761 3.53097
# Velocity P-wave (km/s) = 5.04985 5.62136 5.34325
#
# Compressibility (1/GPa) = 0.03833632
#
# Stress axis : x y z
#
# Youngs Moduli (GPa) = 56.08821 75.96741 68.67960
#
# Poissons Ratio (x) = 0.03369 0.37473
# Poissons Ratio (y) = 0.02487 -0.15737
# Poissons Ratio (z) = 0.30603 -0.17407
#
# Static dielectric constant tensor:
#      x y z
#    x 1.844430 0.000000 0.003240 
#    y 0.000000 1.836950 0.000000 
#    z 0.003240 0.000000 1.934320 
# 
# From -- ./inp_files/871.got.cif
#   From: 2010.05.17/outbox.cif.g08.bks.cpg/sg4_1_cif.got.tgz:871.got - 2010.06.03 18:43:04.
