data_PCOD9115722
_publ_section_title
;
Structure prediction by ZEFSAII (Michael W. Deem and Ramdas Pophale) SiO2 
 PCOD9115722
Probable space group: P 21
;
_chemical_formula_sum "Si O2"
_cell_formula_units_Z 16
_cell_length_a 11.095982
_cell_length_b 5.354556
_cell_length_c 13.082292
_cell_angle_alpha 90.000000
_cell_angle_beta 134.472627
_cell_angle_gamma 90.000000
_cell_volume 554.649846
_symmetry_space_group_name_H-M "P 21"
_symmetry_group_IT_number 4
_symmetry_cell_setting 'monoclinic'
loop_
_space_group_symop_operation_xyz
x,y,z
-x,1/2+y,-z
loop_
_atom_site_type_symbol
_atom_site_label
_atom_site_fract_x
_atom_site_fract_y
_atom_site_fract_z
Si Si1 0.802229 0.738890 0.810494
Si Si2 0.962512 0.532719 0.699222
Si Si3 0.145053 0.219805 0.945730
Si Si4 0.901476 0.605121 0.447129
Si Si5 0.394946 0.554001 0.442576
Si Si6 0.537795 0.994059 0.303536
Si Si7 0.511095 0.979342 0.847836
Si Si8 0.732217 0.396126 0.147302
O O1 0.721214 0.000904 0.724703
O O2 0.645614 0.568676 0.756778
O O3 0.886247 0.659969 0.754443
O O4 0.923128 0.713153 0.980265
O O5 0.009946 0.268410 0.776775
O O6 0.848658 0.534264 0.531602
O O7 0.139463 0.663514 0.771785
O O8 0.245401 0.993126 0.954335
O O9 0.287576 0.434306 0.039803
O O10 0.793657 0.563649 0.280883
O O11 0.046869 0.394366 0.519287
O O12 0.464612 0.833926 0.488005
O O13 0.338547 0.493416 0.524733
O O14 0.531937 0.735580 0.237762
O O15 0.574105 0.236877 0.256805
O O16 0.463630 0.920544 0.937976
#
# Coordination Sequence:
#
# PCOD9115722 Si02
#       8
#     2   2   2   2   2   2   2   2
#     4  10  25  45  71 110 146 194 240 297 372 445
#     4  11  26  47  73 105 146 197 238 307 363 443
#     4  11  26  45  70 106 144 191 239 298 361 438
#     4  10  22  48  70 102 137 184 245 291 356 422
#     4  10  20  43  71 104 147 186 236 295 355 430
#     4  10  23  47  71 111 144 191 240 305 358 432
#     4  11  27  44  79 106 145 191 248 300 367 428
#     4  11  27  47  75 102 147 190 248 305 360 436
#
# _framework density 28.84703
#
# number of rings (size 3 to 8) (size 9 to 14) (size 15 to 20)
#    0.000    1.500    1.250    2.250   10.500    0.000 
#   11.250    0.000    0.000    0.000    0.000    0.000 
#    0.000    0.000    0.000    0.000    0.000    0.000 
#
# Total GULP energy -89392.348506 kJ/mol
# GULP energy per Si atom -5587.021782 kJ/mol
# Density = 2.878137 g / cm^3
# Si number density = 28.847030 Si / 1000 Ang^3
#
#
#
# Elastic Constant Matrix: (Units=GPa)
#
#
# Indices 1 2 3 4 5 6 
#
# 1 107.2760 40.7822 28.2461 0.0000 -33.9641 0.0000
# 2 40.7822 134.4295 46.6520 0.0000 -15.6466 0.0000
# 3 28.2461 46.6520 182.7585 0.0000 -39.7619 0.0000
# 4 0.0000 0.0000 0.0000 58.6660 0.0000 -10.8560
# 5 -33.9641 -15.6466 -39.7619 0.0000 41.4681 0.0000
# 6 0.0000 0.0000 0.0000 -10.8560 0.0000 47.0875
#
#
#
# Elastic Compliance Matrix: (Units=1/GPa)
#
#
# Indices 1 2 3 4 5 6 
#
# 1 0.013802 -0.003282 0.001130 0.000000 0.011150 0.000000
# 2 -0.003282 0.009004 -0.002068 0.000000 -0.001274 0.000000
# 3 0.001130 -0.002068 0.007400 0.000000 0.007241 0.000000
# 4 0.000000 0.000000 0.000000 0.017805 0.000000 0.004105
# 5 0.011150 -0.001274 0.007241 0.000000 0.039710 0.000000
# 6 0.000000 0.000000 0.000000 0.004105 0.000000 0.022183
#
#
# Mechanical properties :
#
#
# Convention : Reuss Voigt Hill
#
# Bulk Modulus (GPa) = 45.94088 72.86941 59.40514
# Shear Modulus (GPa) = 39.80901 50.02989 44.91945
#
# Velocity S-wave (km/s) = 3.71887 4.16903 3.95037
# Velocity P-wave (km/s) = 5.86517 6.96347 6.43778
#
# Compressibility (1/GPa) = 0.02176711
#
# Stress axis : x y z
#
# Youngs Moduli (GPa) = 72.45445 111.06262 135.12720
#
# Poissons Ratio (x) = 0.36446 -0.15275
# Poissons Ratio (y) = 0.23777 0.27949
# Poissons Ratio (z) = -0.08190 0.22971
#
# Static dielectric constant tensor:
#      x y z
#    x 2.538060 0.000000 0.178420 
#    y 0.000000 2.361640 0.000000 
#    z 0.178420 0.000000 2.368240 
# 
# From -- ./inp_files/11793.got.cif
#   From: 2010.05.17/outbox.cif.g08.bks.cpg/sg4_6_cif.got.tgz:11793.got - 2010.06.03 18:43:04.
