data_PCOD9115895
_publ_section_title
;
Structure prediction by ZEFSAII (Michael W. Deem and Ramdas Pophale) SiO2 
 PCOD9115895
Probable space group: P 21
;
_chemical_formula_sum "Si O2"
_cell_formula_units_Z 16
_cell_length_a 14.430076
_cell_length_b 8.353276
_cell_length_c 9.163939
_cell_angle_alpha 90.000000
_cell_angle_beta 41.587541
_cell_angle_gamma 90.000000
_cell_volume 733.197649
_symmetry_space_group_name_H-M "P 21"
_symmetry_group_IT_number 4
_symmetry_cell_setting 'monoclinic'
loop_
_space_group_symop_operation_xyz
x,y,z
-x,1/2+y,-z
loop_
_atom_site_type_symbol
_atom_site_label
_atom_site_fract_x
_atom_site_fract_y
_atom_site_fract_z
Si Si1 0.562122 0.007960 0.641480
Si Si2 0.262135 0.125529 0.069973
Si Si3 0.371824 0.324863 0.185202
Si Si4 0.493119 0.041088 0.217422
Si Si5 0.703255 0.328084 0.389744
Si Si6 0.110308 0.922751 0.056901
Si Si7 0.700132 0.913841 0.200770
Si Si8 0.944438 0.134709 0.035356
O O1 0.408425 0.028462 0.889902
O O2 0.595675 0.185330 0.541621
O O3 0.666739 0.958363 0.649858
O O4 0.600528 0.893496 0.459930
O O5 0.268375 0.256493 0.931069
O O6 0.135447 0.006261 0.180867
O O7 0.260844 0.220817 0.224359
O O8 0.466160 0.205555 0.169080
O O9 0.462075 0.411383 0.955504
O O10 0.351558 0.979046 0.459234
O O11 0.614229 0.031607 0.194804
O O12 0.736030 0.372557 0.184348
O O13 0.851735 0.247094 0.252974
O O14 0.020117 0.761850 0.135036
O O15 0.058847 0.050293 0.997233
O O16 0.839519 0.001348 0.093816
#
# Coordination Sequence:
#
# PCOD9115895 Si02
#       8
#     2   2   2   2   2   2   2   2
#     4  11  21  36  54  92 125 158 199 244 314 358
#     4  11  22  36  57  89 125 164 200 245 304 379
#     4  11  23  35  58  85 135 162 199 239 306 384
#     4  11  20  38  54  92 123 165 197 243 316 366
#     4   9  20  37  58  86 122 154 194 255 300 368
#     4  10  21  38  60  87 122 156 205 255 306 351
#     4  10  22  33  60  88 123 157 197 257 302 361
#     4   9  21  37  59  93 117 156 199 266 304 347
#
# _framework density 21.822220000000002
#
# number of rings (size 3 to 8) (size 9 to 14) (size 15 to 20)
#    0.750    1.000    3.750    1.500    5.250    0.000 
#    0.000    0.000    0.000    3.000    3.250    0.000 
#    0.000    0.000    0.000    0.000    0.000    0.000 
#
# Total GULP energy -89103.305878 kJ/mol
# GULP energy per Si atom -5568.956617 kJ/mol
# Density = 2.177255 g / cm^3
# Si number density = 21.822220 Si / 1000 Ang^3
#
#
#
# Elastic Constant Matrix: (Units=GPa)
#
#
# Indices 1 2 3 4 5 6 
#
# 1 113.3251 37.4723 11.7753 0.0000 18.4550 0.0000
# 2 37.4723 67.5073 -1.6231 0.0000 1.5620 0.0000
# 3 11.7753 -1.6231 15.9490 0.0000 15.6667 0.0000
# 4 0.0000 0.0000 0.0000 27.0686 0.0000 6.8307
# 5 18.4550 1.5620 15.6667 0.0000 25.8751 0.0000
# 6 0.0000 0.0000 0.0000 6.8307 0.0000 47.3805
#
#
#
# Elastic Compliance Matrix: (Units=1/GPa)
#
#
# Indices 1 2 3 4 5 6 
#
# 1 0.012510 -0.006896 -0.003905 0.000000 -0.006142 0.000000
# 2 -0.006896 0.018863 0.008139 0.000000 -0.001148 0.000000
# 3 -0.003905 0.008139 0.158318 0.000000 -0.093564 0.000000
# 4 0.000000 0.000000 0.000000 0.038338 0.000000 -0.005527
# 5 -0.006142 -0.001148 -0.093564 0.000000 0.099748 0.000000
# 6 0.000000 0.000000 0.000000 -0.005527 0.000000 0.021903
#
#
# Mechanical properties :
#
#
# Convention : Reuss Voigt Hill
#
# Bulk Modulus (GPa) = 5.42395 32.44782 18.93588
# Shear Modulus (GPa) = 12.00596 30.00862 21.00729
#
# Velocity S-wave (km/s) = 2.34812 3.71231 3.10604
# Velocity P-wave (km/s) = 3.13727 5.76857 4.64322
#
# Compressibility (1/GPa) = 0.18436760
#
# Stress axis : x y z
#
# Youngs Moduli (GPa) = 79.93296 53.01267 6.31641
#
# Poissons Ratio (x) = 0.36558 0.02466
# Poissons Ratio (y) = 0.55123 -0.05141
# Poissons Ratio (z) = 0.31211 -0.43146
#
# Static dielectric constant tensor:
#      x y z
#    x 1.815770 0.000000 -0.004780 
#    y 0.000000 1.898930 0.000000 
#    z -0.004780 0.000000 1.808950 
# 
# From -- ./inp_files/9226.got.cif
#   From: 2010.05.17/outbox.cif.g08.bks.cpg/sg4_5_cif.got.tgz:9226.got - 2010.06.03 18:43:04.
