data_PCOD9115958
_publ_section_title
;
Structure prediction by ZEFSAII (Michael W. Deem and Ramdas Pophale) SiO2 
 PCOD9115958
Probable space group: P 21
;
_chemical_formula_sum "Si O2"
_cell_formula_units_Z 16
_cell_length_a 10.194699
_cell_length_b 12.236913
_cell_length_c 6.915369
_cell_angle_alpha 90.000000
_cell_angle_beta 133.344373
_cell_angle_gamma 90.000000
_cell_volume 627.393819
_symmetry_space_group_name_H-M "P 21"
_symmetry_group_IT_number 4
_symmetry_cell_setting 'monoclinic'
loop_
_space_group_symop_operation_xyz
x,y,z
-x,1/2+y,-z
loop_
_atom_site_type_symbol
_atom_site_label
_atom_site_fract_x
_atom_site_fract_y
_atom_site_fract_z
Si Si1 0.911652 0.411480 0.293972
Si Si2 0.472489 0.185278 0.724269
Si Si3 0.090025 0.151161 0.873236
Si Si4 0.631047 0.449920 0.315754
Si Si5 0.192551 0.700094 0.746358
Si Si6 0.763941 0.069376 0.749783
Si Si7 0.647760 0.834353 0.709148
Si Si8 0.713385 0.986385 0.278140
O O1 0.858444 0.526976 0.142472
O O2 0.809488 0.407946 0.395995
O O3 0.853217 0.295433 0.148878
O O4 0.124846 0.404918 0.525370
O O5 0.385496 0.289674 0.539585
O O6 0.346549 0.079160 0.618167
O O7 0.617892 0.140312 0.714570
O O8 0.586721 0.210842 0.034065
O O9 0.958602 0.201183 0.574703
O O10 0.250919 0.234823 0.080080
O O11 0.957465 0.126175 0.919996
O O12 0.542600 0.377703 0.395494
O O13 0.471732 0.448327 0.995102
O O14 0.194124 0.570145 0.783411
O O15 0.767985 0.943894 0.826659
O O16 0.692653 0.052701 0.456253
#
# Coordination Sequence:
#
# PCOD9115958 Si02
#       8
#     2   2   2   2   2   2   2   2
#     4  10  21  38  66  97 119 171 232 259 325 391
#     4  10  23  41  61  97 132 167 215 274 339 387
#     4  10  24  45  66  96 132 177 228 271 325 415
#     4  10  23  41  65  92 133 172 216 276 319 411
#     4   9  20  40  65  88 125 173 212 265 325 389
#     4   9  22  43  63  92 140 169 215 286 330 389
#     4  11  24  42  65 100 131 176 219 275 347 385
#     4   9  21  42  63  92 132 167 221 274 320 399
#
# _framework density 25.502323000000001
#
# number of rings (size 3 to 8) (size 9 to 14) (size 15 to 20)
#    0.000    2.500    0.000    0.750    7.000    5.000 
#   20.250    0.000    0.000    0.000    0.000    0.000 
#    0.000    0.000    0.000    0.000    0.000    0.000 
#
# Total GULP energy -89213.782946 kJ/mol
# GULP energy per Si atom -5575.861434 kJ/mol
# Density = 2.544428 g / cm^3
# Si number density = 25.502323 Si / 1000 Ang^3
#
#
#
# Elastic Constant Matrix: (Units=GPa)
#
#
# Indices 1 2 3 4 5 6 
#
# 1 97.5387 41.5346 9.3012 0.0000 10.8924 0.0000
# 2 41.5346 143.9700 9.9569 0.0000 -3.3268 0.0000
# 3 9.3012 9.9569 56.0815 0.0000 -8.0054 0.0000
# 4 0.0000 0.0000 0.0000 29.1632 0.0000 1.8166
# 5 10.8924 -3.3268 -8.0054 0.0000 19.3874 0.0000
# 6 0.0000 0.0000 0.0000 1.8166 0.0000 41.2828
#
#
#
# Elastic Compliance Matrix: (Units=1/GPa)
#
#
# Indices 1 2 3 4 5 6 
#
# 1 0.013179 -0.003820 -0.002824 0.000000 -0.009226 0.000000
# 2 -0.003820 0.008149 -0.000327 0.000000 0.003410 0.000000
# 3 -0.002824 -0.000327 0.019740 0.000000 0.009682 0.000000
# 4 0.000000 0.000000 0.000000 0.034384 0.000000 -0.001513
# 5 -0.009226 0.003410 0.009682 0.000000 0.061346 0.000000
# 6 0.000000 0.000000 0.000000 -0.001513 0.000000 0.024290
#
#
# Mechanical properties :
#
#
# Convention : Reuss Voigt Hill
#
# Bulk Modulus (GPa) = 36.86541 46.57506 41.72023
# Shear Modulus (GPa) = 27.16350 33.75320 30.45835
#
# Velocity S-wave (km/s) = 3.26719 3.64199 3.45967
# Velocity P-wave (km/s) = 5.35908 5.99901 5.68805
#
# Compressibility (1/GPa) = 0.02712570
#
# Stress axis : x y z
#
# Youngs Moduli (GPa) = 75.88110 122.71059 50.65954
#
# Poissons Ratio (x) = 0.46873 0.14308
# Poissons Ratio (y) = 0.28985 0.01655
# Poissons Ratio (z) = 0.21432 0.04008
#
# Static dielectric constant tensor:
#      x y z
#    x 2.061240 0.000000 -0.086180 
#    y 0.000000 2.191980 0.000000 
#    z -0.086180 0.000000 2.090600 
# 
# From -- ./inp_files/8399.got.cif
#   From: 2010.05.17/outbox.cif.g08.bks.cpg/sg4_5_cif.got.tgz:8399.got - 2010.06.03 18:43:04.
