data_PCOD9115063
_publ_section_title
;
Structure prediction by ZEFSAII (Michael W. Deem and Ramdas Pophale) SiO2 
 PCOD9115063
Probable space group: P 21
;
_chemical_formula_sum "Si O2"
_cell_formula_units_Z 14
_cell_length_a 8.281708
_cell_length_b 7.941263
_cell_length_c 9.242594
_cell_angle_alpha 90.000000
_cell_angle_beta 121.234668
_cell_angle_gamma 90.000000
_cell_volume 519.750860
_symmetry_space_group_name_H-M "P 21"
_symmetry_group_IT_number 4
_symmetry_cell_setting 'monoclinic'
loop_
_space_group_symop_operation_xyz
x,y,z
-x,1/2+y,-z
loop_
_atom_site_type_symbol
_atom_site_label
_atom_site_fract_x
_atom_site_fract_y
_atom_site_fract_z
Si Si1 0.308910 0.163840 0.711025
Si Si2 0.641854 0.678047 0.939616
Si Si3 0.346320 0.405893 0.289315
Si Si4 0.987236 0.963809 0.462016
Si Si5 0.988789 0.767294 0.735492
Si Si6 0.418714 0.905443 0.323973
Si Si7 0.912791 0.216724 0.903769
O O1 0.469040 0.243637 0.685614
O O2 0.135744 0.303060 0.646662
O O3 0.209484 0.007620 0.583006
O O4 0.392946 0.144755 0.909558
O O5 0.565214 0.842239 0.819867
O O6 0.565266 0.531778 0.801862
O O7 0.869457 0.697439 0.033299
O O8 0.476846 0.457163 0.482383
O O9 0.190910 0.541669 0.171433
O O10 0.223179 0.248252 0.298921
O O11 0.959330 0.934032 0.623031
O O12 0.931611 0.121850 0.333684
O O13 0.109297 0.770111 0.937859
O O14 0.200280 0.853722 0.242674
#
# Coordination Sequence:
#
# PCOD9115063 Si02
#       7
#     2   2   2   2   2   2   2
#     4  11  24  43  72 106 142 189 234 301 354 425
#     4  11  25  44  73 102 142 190 233 291 364 426
#     4  11  22  45  66 103 140 184 239 289 355 417
#     4  10  19  40  67  97 147 178 236 281 360 412
#     4  10  21  40  70 101 140 193 234 290 351 440
#     4  12  25  46  70 103 146 179 247 298 346 425
#     4  11  24  44  72  98 145 189 237 288 362 431
#
# _framework density 26.935981999999999
#
# number of rings (size 3 to 8) (size 9 to 14) (size 15 to 20)
#    0.000    1.143    2.857    5.143    0.000    3.429 
#    2.571    1.429    0.000    0.000    0.000    0.000 
#    0.000    0.000    0.000    0.000    0.000    0.000 
#
# Total GULP energy -78185.220898 kJ/mol
# GULP energy per Si atom -5584.658636 kJ/mol
# Density = 2.687467 g / cm^3
# Si number density = 26.935982 Si / 1000 Ang^3
#
#
#
# Elastic Constant Matrix: (Units=GPa)
#
#
# Indices 1 2 3 4 5 6 
#
# 1 85.5202 29.4717 41.6462 0.0000 -3.7154 0.0000
# 2 29.4717 69.0224 51.5855 0.0000 -4.6525 0.0000
# 3 41.6462 51.5855 222.8578 0.0000 -1.1023 0.0000
# 4 0.0000 0.0000 0.0000 70.3904 0.0000 5.3267
# 5 -3.7154 -4.6525 -1.1023 0.0000 40.8553 0.0000
# 6 0.0000 0.0000 0.0000 5.3267 0.0000 45.3507
#
#
#
# Elastic Compliance Matrix: (Units=1/GPa)
#
#
# Indices 1 2 3 4 5 6 
#
# 1 0.014134 -0.004857 -0.001514 0.000000 0.000691 0.000000
# 2 -0.004857 0.019335 -0.003559 0.000000 0.001664 0.000000
# 3 -0.001514 -0.003559 0.005592 0.000000 -0.000392 0.000000
# 4 0.000000 0.000000 0.000000 0.014334 0.000000 -0.001684
# 5 0.000691 0.001664 -0.000392 0.000000 0.024718 0.000000
# 6 0.000000 0.000000 0.000000 -0.001684 0.000000 0.022248
#
#
# Mechanical properties :
#
#
# Convention : Reuss Voigt Hill
#
# Bulk Modulus (GPa) = 52.08345 69.20080 60.64212
# Shear Modulus (GPa) = 39.48769 48.29908 43.89338
#
# Velocity S-wave (km/s) = 3.83297 4.23910 4.04114
# Velocity P-wave (km/s) = 6.24234 7.05029 6.65858
#
# Compressibility (1/GPa) = 0.01919996
#
# Stress axis : x y z
#
# Youngs Moduli (GPa) = 70.75062 51.72101 178.82724
#
# Poissons Ratio (x) = 0.25123 0.27066
# Poissons Ratio (y) = 0.34366 0.63653
# Poissons Ratio (z) = 0.10708 0.18410
#
# Static dielectric constant tensor:
#      x y z
#    x 2.162290 0.000000 0.012750 
#    y 0.000000 2.284770 0.000000 
#    z 0.012750 0.000000 2.041770 
# 
# From -- ./inp_files/5843.got.cif
#   From: 2010.05.17/outbox.cif.g08.bks.cpg/sg4_3_cif.got.tgz:5843.got - 2010.06.03 18:43:04.
