data_PCOD9115707
_publ_section_title
;
Structure prediction by ZEFSAII (Michael W. Deem and Ramdas Pophale) SiO2 
 PCOD9115707
Probable space group: P 21
;
_chemical_formula_sum "Si O2"
_cell_formula_units_Z 16
_cell_length_a 5.189162
_cell_length_b 12.248920
_cell_length_c 11.537598
_cell_angle_alpha 90.000000
_cell_angle_beta 95.140689
_cell_angle_gamma 90.000000
_cell_volume 730.398779
_symmetry_space_group_name_H-M "P 21"
_symmetry_group_IT_number 4
_symmetry_cell_setting 'monoclinic'
loop_
_space_group_symop_operation_xyz
x,y,z
-x,1/2+y,-z
loop_
_atom_site_type_symbol
_atom_site_label
_atom_site_fract_x
_atom_site_fract_y
_atom_site_fract_z
Si Si1 0.996992 0.438660 0.849219
Si Si2 0.726618 0.760684 0.257730
Si Si3 0.638456 0.273919 0.952525
Si Si4 0.647343 0.946701 0.655361
Si Si5 0.141133 0.803305 0.626731
Si Si6 0.014380 0.682915 0.849906
Si Si7 0.248046 0.685031 0.390960
Si Si8 0.302778 0.395409 0.093337
O O1 0.182577 0.386453 0.758575
O O2 0.908729 0.561582 0.823980
O O3 0.784471 0.345435 0.862125
O O4 0.143987 0.438325 0.978234
O O5 0.611100 0.728972 0.125782
O O6 0.497344 0.740481 0.339747
O O7 0.983335 0.695553 0.305460
O O8 0.799705 0.185585 0.029684
O O9 0.576009 0.364009 0.048887
O O10 0.365621 0.893564 0.641155
O O11 0.698783 0.969189 0.794165
O O12 0.862590 0.861779 0.620438
O O13 0.675975 0.059332 0.590786
O O14 0.155600 0.724504 0.739209
O O15 0.182824 0.739484 0.510092
O O16 0.807908 0.777291 0.870773
#
# Coordination Sequence:
#
# PCOD9115707 Si02
#       8
#     2   2   2   2   2   2   2   2
#     4  10  22  40  66 106 137 181 215 292 346 407
#     4  11  24  45  65 104 142 168 238 277 335 412
#     4  10  20  43  63 101 143 178 228 285 337 417
#     4  11  24  47  70 102 133 183 228 281 345 403
#     4  11  25  47  70 100 139 175 238 284 328 424
#     4  10  22  41  67  99 138 183 225 280 356 397
#     4  12  26  46  74 101 135 189 224 287 344 398
#     4   9  21  37  63  97 139 173 226 276 329 430
#
# _framework density 21.905842
#
# number of rings (size 3 to 8) (size 9 to 14) (size 15 to 20)
#    0.000    1.500    2.500    1.500    1.750    4.000 
#    4.500    1.250    0.000    0.000    0.000    0.000 
#    0.000    0.000    0.000    0.000    0.000    0.000 
#
# Total GULP energy -89328.203061 kJ/mol
# GULP energy per Si atom -5583.012691 kJ/mol
# Density = 2.185598 g / cm^3
# Si number density = 21.905842 Si / 1000 Ang^3
#
#
#
# Elastic Constant Matrix: (Units=GPa)
#
#
# Indices 1 2 3 4 5 6 
#
# 1 72.3228 4.9641 14.8544 0.0000 -16.0165 0.0000
# 2 4.9641 81.2228 27.8707 0.0000 -10.5591 0.0000
# 3 14.8544 27.8707 69.9595 0.0000 -23.8844 0.0000
# 4 0.0000 0.0000 0.0000 14.0709 0.0000 -7.0499
# 5 -16.0165 -10.5591 -23.8844 0.0000 36.6994 0.0000
# 6 0.0000 0.0000 0.0000 -7.0499 0.0000 13.4507
#
#
#
# Elastic Compliance Matrix: (Units=1/GPa)
#
#
# Indices 1 2 3 4 5 6 
#
# 1 0.015397 0.000297 -0.001369 0.000000 0.005915 0.000000
# 2 0.000297 0.014275 -0.005533 0.000000 0.000636 0.000000
# 3 -0.001369 -0.005533 0.020624 0.000000 0.011233 0.000000
# 4 0.000000 0.000000 0.000000 0.096378 0.000000 0.050515
# 5 0.005915 0.000636 0.011233 0.000000 0.037323 0.000000
# 6 0.000000 0.000000 0.000000 0.050515 0.000000 0.100822
#
#
# Mechanical properties :
#
#
# Convention : Reuss Voigt Hill
#
# Bulk Modulus (GPa) = 26.96271 35.43151 31.19711
# Shear Modulus (GPa) = 16.10878 24.56526 20.33702
#
# Velocity S-wave (km/s) = 2.71470 3.35237 3.05024
# Velocity P-wave (km/s) = 4.70758 5.58516 5.16505
#
# Compressibility (1/GPa) = 0.03708826
#
# Stress axis : x y z
#
# Youngs Moduli (GPa) = 64.94590 70.05326 48.48788
#
# Poissons Ratio (x) = -0.02084 0.06636
# Poissons Ratio (y) = -0.01932 0.26828
# Poissons Ratio (z) = 0.08888 0.38759
#
# Static dielectric constant tensor:
#      x y z
#    x 1.866620 0.000000 0.009830 
#    y 0.000000 1.778280 0.000000 
#    z 0.009830 0.000000 1.804600 
# 
# From -- ./inp_files/2763.got.cif
#   From: 2010.05.17/outbox.cif.g08.bks.cpg/sg4_2_cif.got.tgz:2763.got - 2010.06.03 18:43:04.
