data_PCOD9115116
_publ_section_title
;
Structure prediction by ZEFSAII (Michael W. Deem and Ramdas Pophale) SiO2 
 PCOD9115116
Probable space group: P 21
;
_chemical_formula_sum "Si O2"
_cell_formula_units_Z 10
_cell_length_a 15.711165
_cell_length_b 5.160688
_cell_length_c 10.142082
_cell_angle_alpha 90.000000
_cell_angle_beta 39.930599
_cell_angle_gamma 90.000000
_cell_volume 527.816440
_symmetry_space_group_name_H-M "P 21"
_symmetry_group_IT_number 4
_symmetry_cell_setting 'monoclinic'
loop_
_space_group_symop_operation_xyz
x,y,z
-x,1/2+y,-z
loop_
_atom_site_type_symbol
_atom_site_label
_atom_site_fract_x
_atom_site_fract_y
_atom_site_fract_z
Si Si1 0.731864 0.953390 0.979528
Si Si2 0.697111 0.286744 0.752273
Si Si3 0.540398 0.220056 0.372731
Si Si4 0.986717 0.456934 0.431704
Si Si5 0.510761 0.547778 0.169779
O O1 0.885881 0.882135 0.807156
O O2 0.718862 0.089040 0.850174
O O3 0.621700 0.727604 0.108024
O O4 0.687697 0.139458 0.151004
O O5 0.838790 0.412851 0.555116
O O6 0.627485 0.169245 0.708000
O O7 0.586855 0.476591 0.944722
O O8 0.526817 0.468582 0.482867
O O9 0.481835 0.309693 0.301312
O O10 0.000651 0.754347 0.461172
#
# Coordination Sequence:
#
# PCOD9115116 Si02
#       5
#     2   2   2   2   2
#     4  10  20  35  58  86 119 154 190 233 289 348
#     4  10  20  32  55  92 128 145 180 234 301 358
#     4  11  23  39  58  86 111 156 207 248 274 327
#     4  10  20  34  53  85 125 156 179 220 292 364
#     4  11  19  34  58  91 119 153 184 243 292 343
#
# _framework density 18.945979999999999
#
# number of rings (size 3 to 8) (size 9 to 14) (size 15 to 20)
#    0.000    1.600    6.000    0.000    0.000    0.000 
#    0.000    0.000    0.000    0.000   10.400    0.000 
#    0.000    0.000    0.000    0.000    0.000    0.000 
#
# Total GULP energy -55687.906043 kJ/mol
# GULP energy per Si atom -5568.790604 kJ/mol
# Density = 1.890286 g / cm^3
# Si number density = 18.945980 Si / 1000 Ang^3
#
#
#
# Elastic Constant Matrix: (Units=GPa)
#
#
# Indices 1 2 3 4 5 6 
#
# 1 49.8531 5.9331 45.9566 0.0000 -21.8357 0.0000
# 2 5.9331 61.4992 24.4557 0.0000 2.7417 0.0000
# 3 45.9566 24.4557 99.0648 0.0000 -5.7042 0.0000
# 4 0.0000 0.0000 0.0000 24.8803 0.0000 2.3906
# 5 -21.8357 2.7417 -5.7042 0.0000 25.1667 0.0000
# 6 0.0000 0.0000 0.0000 2.3906 0.0000 25.4027
#
#
#
# Elastic Compliance Matrix: (Units=1/GPa)
#
#
# Indices 1 2 3 4 5 6 
#
# 1 0.073425 0.002957 -0.031554 0.000000 0.056232 0.000000
# 2 0.002957 0.018378 -0.005954 0.000000 -0.000786 0.000000
# 3 -0.031554 -0.005954 0.024989 0.000000 -0.021065 0.000000
# 4 0.000000 0.000000 0.000000 0.040559 0.000000 -0.003817
# 5 0.056232 -0.000786 -0.021065 0.000000 0.083836 0.000000
# 6 0.000000 0.000000 0.000000 -0.003817 0.000000 0.039725
#
#
# Mechanical properties :
#
#
# Convention : Reuss Voigt Hill
#
# Bulk Modulus (GPa) = 20.96870 40.34532 30.65701
# Shear Modulus (GPa) = 13.66455 24.02805 18.84630
#
# Velocity S-wave (km/s) = 2.68850 3.56510 3.15737
# Velocity P-wave (km/s) = 4.55291 6.18771 5.43216
#
# Compressibility (1/GPa) = 0.04769014
#
# Stress axis : x y z
#
# Youngs Moduli (GPa) = 13.61940 54.41357 40.01698
#
# Poissons Ratio (x) = -0.16092 1.26270
# Poissons Ratio (y) = -0.04028 0.23826
# Poissons Ratio (z) = 0.42975 0.32398
#
# Static dielectric constant tensor:
#      x y z
#    x 1.667890 0.000000 -0.005080 
#    y 0.000000 1.780020 0.000000 
#    z -0.005080 0.000000 1.671610 
# 
# From -- ./inp_files/5168.got.cif
#   From: 2010.05.17/outbox.cif.g08.bks.cpg/sg4_3_cif.got.tgz:5168.got - 2010.06.03 18:43:04.
