data_PCOD9115297
_publ_section_title
;
Structure prediction by ZEFSAII (Michael W. Deem and Ramdas Pophale) SiO2 
 PCOD9115297
Probable space group: P 21
;
_chemical_formula_sum "Si O2"
_cell_formula_units_Z 16
_cell_length_a 17.360354
_cell_length_b 8.693136
_cell_length_c 5.118257
_cell_angle_alpha 90.000000
_cell_angle_beta 98.012210
_cell_angle_gamma 90.000000
_cell_volume 764.886328
_symmetry_space_group_name_H-M "P 21"
_symmetry_group_IT_number 4
_symmetry_cell_setting 'monoclinic'
loop_
_space_group_symop_operation_xyz
x,y,z
-x,1/2+y,-z
loop_
_atom_site_type_symbol
_atom_site_label
_atom_site_fract_x
_atom_site_fract_y
_atom_site_fract_z
Si Si1 0.451047 0.589880 0.747881
Si Si2 0.737585 0.932826 0.904636
Si Si3 0.965470 0.745892 0.503224
Si Si4 0.278574 0.639877 0.600764
Si Si5 0.135212 0.782476 0.780068
Si Si6 0.940209 0.535586 0.987039
Si Si7 0.898190 0.941341 0.093522
Si Si8 0.433327 0.372102 0.241901
O O1 0.368949 0.681190 0.676880
O O2 0.452801 0.464445 0.516142
O O3 0.518394 0.716142 0.764301
O O4 0.450325 0.492361 0.015003
O O5 0.659541 0.838766 0.810961
O O6 0.734318 0.070834 0.691917
O O7 0.823066 0.857941 0.939095
O O8 0.731545 0.001291 0.194048
O O9 0.939255 0.637159 0.726698
O O10 0.913517 0.893694 0.402150
O O11 0.056014 0.792106 0.571384
O O12 0.952575 0.645760 0.237604
O O13 0.213641 0.763572 0.651668
O O14 0.122617 0.621403 0.923350
O O15 0.130593 0.923437 0.978005
O O16 0.018292 0.431127 0.003474
#
# Coordination Sequence:
#
# PCOD9115297 Si02
#       8
#     2   2   2   2   2   2   2   2
#     4  10  20  37  62  90 119 151 190 235 287 347
#     4   9  19  34  57  86 111 145 195 239 274 334
#     4  11  23  36  54  83 114 147 191 246 297 337
#     4   9  19  34  57  86 111 145 195 239 274 334
#     4  10  20  37  59  79 108 153 198 236 283 342
#     4  11  23  36  54  83 114 147 191 246 297 337
#     4  10  20  37  59  79 108 153 198 236 283 342
#     4  10  20  37  62  90 119 151 190 235 287 347
#
# _framework density 20.918140999999999
#
# number of rings (size 3 to 8) (size 9 to 14) (size 15 to 20)
#    0.000    2.000    0.000    4.500    0.000    6.000 
#    0.000    1.250    0.000    7.500    0.000    0.000 
#    0.000    0.000    0.000    0.000    0.000    0.000 
#
# Total GULP energy -89308.928263 kJ/mol
# GULP energy per Si atom -5581.808016 kJ/mol
# Density = 2.087053 g / cm^3
# Si number density = 20.918141 Si / 1000 Ang^3
#
#
#
# Elastic Constant Matrix: (Units=GPa)
#
#
# Indices 1 2 3 4 5 6 
#
# 1 87.3502 -3.3398 7.5076 0.0000 11.5952 0.0000
# 2 -3.3398 40.9655 11.1310 0.0000 -2.5490 0.0000
# 3 7.5076 11.1310 94.0318 0.0000 -6.1354 0.0000
# 4 0.0000 0.0000 0.0000 21.6924 0.0000 -7.3761
# 5 11.5952 -2.5490 -6.1354 0.0000 31.4021 0.0000
# 6 0.0000 0.0000 0.0000 -7.3761 0.0000 34.9321
#
#
#
# Elastic Compliance Matrix: (Units=1/GPa)
#
#
# Indices 1 2 3 4 5 6 
#
# 1 0.012236 0.001089 -0.001413 0.000000 -0.004706 0.000000
# 2 0.001089 0.025387 -0.003022 0.000000 0.001068 0.000000
# 3 -0.001413 -0.003022 0.011267 0.000000 0.002478 0.000000
# 4 0.000000 0.000000 0.000000 0.049665 0.000000 0.010487
# 5 -0.004706 0.001068 0.002478 0.000000 0.034153 0.000000
# 6 0.000000 0.000000 0.000000 0.010487 0.000000 0.030841
#
#
# Mechanical properties :
#
#
# Convention : Reuss Voigt Hill
#
# Bulk Modulus (GPa) = 23.69845 28.10501 25.90173
# Shear Modulus (GPa) = 27.12839 31.40857 29.26848
#
# Velocity S-wave (km/s) = 3.60513 3.87912 3.74463
# Velocity P-wave (km/s) = 5.35566 5.79037 5.57725
#
# Compressibility (1/GPa) = 0.04219685
#
# Stress axis : x y z
#
# Youngs Moduli (GPa) = 81.72683 39.38981 88.75513
#
# Poissons Ratio (x) = -0.04288 0.12540
# Poissons Ratio (y) = -0.08897 0.26826
# Poissons Ratio (z) = 0.11547 0.11905
#
# Static dielectric constant tensor:
#      x y z
#    x 1.816120 0.000000 -0.008230 
#    y 0.000000 1.798280 0.000000 
#    z -0.008230 0.000000 1.785470 
# 
# From -- ./inp_files/4070.got.cif
#   From: 2010.05.17/outbox.cif.g08.bks.cpg/sg4_3_cif.got.tgz:4070.got - 2010.06.03 18:43:04.
