data_PCOD9115939
_publ_section_title
;
Structure prediction by ZEFSAII (Michael W. Deem and Ramdas Pophale) SiO2 
 PCOD9115939
Probable space group: P 21
;
_chemical_formula_sum "Si O2"
_cell_formula_units_Z 16
_cell_length_a 7.594406
_cell_length_b 8.243789
_cell_length_c 20.079702
_cell_angle_alpha 90.000000
_cell_angle_beta 30.223839
_cell_angle_gamma 90.000000
_cell_volume 632.810195
_symmetry_space_group_name_H-M "P 21"
_symmetry_group_IT_number 4
_symmetry_cell_setting 'monoclinic'
loop_
_space_group_symop_operation_xyz
x,y,z
-x,1/2+y,-z
loop_
_atom_site_type_symbol
_atom_site_label
_atom_site_fract_x
_atom_site_fract_y
_atom_site_fract_z
Si Si1 0.464685 0.616910 0.551541
Si Si2 0.383749 0.290515 0.973653
Si Si3 0.145238 0.449502 0.545950
Si Si4 0.833261 0.036594 0.219225
Si Si5 0.407130 0.317539 0.818541
Si Si6 0.774802 0.976730 0.722306
Si Si7 0.143495 0.513339 0.156272
Si Si8 0.447890 0.343991 0.328426
O O1 0.303816 0.604658 0.529811
O O2 0.581995 0.802053 0.526248
O O3 0.184498 0.530958 0.693883
O O4 0.835141 0.524704 0.426486
O O5 0.398345 0.444619 0.016351
O O6 0.112644 0.161096 0.094368
O O7 0.255242 0.341535 0.942425
O O8 0.755413 0.196910 0.857237
O O9 0.133659 0.429241 0.470457
O O10 0.772280 0.411237 0.697284
O O11 0.493136 0.155552 0.328625
O O12 0.793837 0.884776 0.181251
O O13 0.524632 0.129735 0.784845
O O14 0.781713 0.930156 0.797278
O O15 0.613732 0.841752 0.729184
O O16 0.771858 0.456813 0.248398
#
# Coordination Sequence:
#
# PCOD9115939 Si02
#       8
#     2   2   2   2   2   2   2   2
#     4  10  21  38  64  95 128 160 204 260 321 382
#     4  10  24  40  64  88 128 172 218 260 316 372
#     4  10  21  38  64  95 128 160 204 260 321 382
#     4  10  23  41  61  94 126 162 218 261 308 382
#     4  10  23  41  61  94 126 162 218 261 308 382
#     4  10  21  40  66  93 126 164 202 263 327 374
#     4  10  22  42  60  92 126 166 218 262 310 382
#     4  10  21  40  66  93 126 164 202 263 327 374
#
# _framework density 25.284041999999999
#
# number of rings (size 3 to 8) (size 9 to 14) (size 15 to 20)
#    0.000    2.000    1.250    0.750    1.750    8.000 
#    0.000    1.250    0.000    0.000    0.000    0.000 
#    0.000    0.000    0.000    0.000    0.000    0.000 
#
# Total GULP energy -89202.630515 kJ/mol
# GULP energy per Si atom -5575.164407 kJ/mol
# Density = 2.522649 g / cm^3
# Si number density = 25.284042 Si / 1000 Ang^3
#
#
#
# Elastic Constant Matrix: (Units=GPa)
#
#
# Indices 1 2 3 4 5 6 
#
# 1 90.6254 12.9691 11.4040 0.0000 31.1594 0.0000
# 2 12.9691 30.7734 -2.4890 0.0000 -6.8851 0.0000
# 3 11.4040 -2.4890 75.4543 0.0000 27.9396 0.0000
# 4 0.0000 0.0000 0.0000 -2.3958 0.0000 5.8543
# 5 31.1594 -6.8851 27.9396 0.0000 32.1125 0.0000
# 6 0.0000 0.0000 0.0000 5.8543 0.0000 40.4548
#
#
#
# Elastic Compliance Matrix: (Units=1/GPa)
#
#
# Indices 1 2 3 4 5 6 
#
# 1 0.024519 -0.017488 0.008727 0.000000 -0.035133 0.000000
# 2 -0.017488 0.046888 -0.008580 0.000000 0.034487 0.000000
# 3 0.008727 -0.008580 0.022819 0.000000 -0.030162 0.000000
# 4 0.000000 0.000000 0.000000 -0.308355 0.000000 0.044623
# 5 -0.035133 0.034487 -0.030162 0.000000 0.098867 0.000000
# 6 0.000000 0.000000 0.000000 0.044623 0.000000 0.018261
#
#
# Mechanical properties :
#
#
# Convention : Reuss Voigt Hill
#
# Bulk Modulus (GPa) = 16.79461 26.73570 21.76515
# Shear Modulus (GPa) = -117.73072 25.69889 -46.01592
#
# Velocity S-wave (km/s) = -6.83113 3.19157 -4.27073
# Velocity P-wave (km/s) = 7.45401 4.91718 3.96129
#
# Compressibility (1/GPa) = 0.05954291
#
# Stress axis : x y z
#
# Youngs Moduli (GPa) = 40.78533 21.32753 43.82223
#
# Poissons Ratio (x) = 0.37297 -0.38242
# Poissons Ratio (y) = 0.71325 0.37601
# Poissons Ratio (z) = -0.35592 0.18300
#
# Static dielectric constant tensor:
#      x y z
#    x 2.070320 0.000000 0.068030 
#    y 0.000000 2.002160 0.000000 
#    z 0.068030 0.000000 2.292410 
# 
# From -- ./inp_files/15633.got.cif
#   From: 2010.05.17/outbox.cif.g08.bks.cpg/sg4_8_cif.got.tgz:15633.got - 2010.06.03 18:43:04.
