data_PCOD9115607
_publ_section_title
;
Structure prediction by ZEFSAII (Michael W. Deem and Ramdas Pophale) SiO2 
 PCOD9115607
Probable space group: P 21
;
_chemical_formula_sum "Si O2"
_cell_formula_units_Z 16
_cell_length_a 17.920076
_cell_length_b 9.643919
_cell_length_c 8.711894
_cell_angle_alpha 90.000000
_cell_angle_beta 150.465341
_cell_angle_gamma 90.000000
_cell_volume 742.179270
_symmetry_space_group_name_H-M "P 21"
_symmetry_group_IT_number 4
_symmetry_cell_setting 'monoclinic'
loop_
_space_group_symop_operation_xyz
x,y,z
-x,1/2+y,-z
loop_
_atom_site_type_symbol
_atom_site_label
_atom_site_fract_x
_atom_site_fract_y
_atom_site_fract_z
Si Si1 0.905601 0.857260 0.430573
Si Si2 0.609903 0.133752 0.648145
Si Si3 0.246913 0.215267 0.344309
Si Si4 0.071892 0.623055 0.331565
Si Si5 0.859945 0.025533 0.860523
Si Si6 0.214117 0.840025 0.812821
Si Si7 0.807339 0.583669 0.436091
Si Si8 0.379244 0.327911 0.281648
O O1 0.868081 0.716052 0.450880
O O2 0.077050 0.878068 0.681776
O O3 0.876927 0.984332 0.491652
O O4 0.790948 0.855233 0.082175
O O5 0.746243 0.091645 0.779703
O O6 0.472766 0.226397 0.338348
O O7 0.550631 0.981943 0.591374
O O8 0.676177 0.237985 0.896183
O O9 0.189531 0.371362 0.276886
O O10 0.278141 0.136104 0.561520
O O11 0.366858 0.248781 0.423790
O O12 0.108331 0.133786 0.015640
O O13 0.141052 0.625002 0.287029
O O14 0.133278 0.745591 0.542478
O O15 0.032950 0.016423 0.224989
O O16 0.271645 0.974349 0.821152
#
# Coordination Sequence:
#
# PCOD9115607 Si02
#       8
#     2   2   2   2   2   2   2   2
#     4  12  22  39  67 100 127 167 220 270 321 383
#     4  11  25  44  65  92 131 175 217 268 326 387
#     4  10  21  40  63  96 134 168 207 268 329 380
#     4  11  21  37  66  97 129 164 210 272 326 380
#     4  10  20  41  63  96 134 166 211 265 329 382
#     4  12  22  40  65 102 128 165 219 270 321 383
#     4  11  22  37  66 102 129 166 215 269 330 386
#     4  11  25  44  65  91 132 173 219 268 324 391
#
# _framework density 21.558133000000002
#
# number of rings (size 3 to 8) (size 9 to 14) (size 15 to 20)
#    0.000    1.000    6.250    1.500    1.750    0.000 
#    2.250    1.250    0.000    0.000    0.000    0.000 
#    0.000    0.000    0.000    0.000    0.000    0.000 
#
# Total GULP energy -89274.798067 kJ/mol
# GULP energy per Si atom -5579.674879 kJ/mol
# Density = 2.150907 g / cm^3
# Si number density = 21.558133 Si / 1000 Ang^3
#
#
#
# Elastic Constant Matrix: (Units=GPa)
#
#
# Indices 1 2 3 4 5 6 
#
# 1 84.9930 46.6812 29.6589 0.0000 -12.5870 0.0000
# 2 46.6812 116.6551 18.9175 0.0000 -11.2306 0.0000
# 3 29.6589 18.9175 35.3182 0.0000 1.5728 0.0000
# 4 0.0000 0.0000 0.0000 40.0020 0.0000 -8.1776
# 5 -12.5870 -11.2306 1.5728 0.0000 24.1089 0.0000
# 6 0.0000 0.0000 0.0000 -8.1776 0.0000 29.3294
#
#
#
# Elastic Compliance Matrix: (Units=1/GPa)
#
#
# Indices 1 2 3 4 5 6 
#
# 1 0.021553 -0.005108 -0.015804 0.000000 0.009904 0.000000
# 2 -0.005108 0.011165 -0.001809 0.000000 0.002652 0.000000
# 3 -0.015804 -0.001809 0.043085 0.000000 -0.011904 0.000000
# 4 0.000000 0.000000 0.000000 0.026510 0.000000 0.007391
# 5 0.009904 0.002652 -0.011904 0.000000 0.048661 0.000000
# 6 0.000000 0.000000 0.000000 0.007391 0.000000 0.036156
#
#
# Mechanical properties :
#
#
# Convention : Reuss Voigt Hill
#
# Bulk Modulus (GPa) = 32.93776 47.49794 40.21785
# Shear Modulus (GPa) = 20.60214 28.13530 24.36872
#
# Velocity S-wave (km/s) = 3.09472 3.61652 3.36575
# Velocity P-wave (km/s) = 5.29920 6.28644 5.81381
#
# Compressibility (1/GPa) = 0.03036030
#
# Stress axis : x y z
#
# Youngs Moduli (GPa) = 46.39687 89.56496 23.21005
#
# Poissons Ratio (x) = 0.45753 0.36682
# Poissons Ratio (y) = 0.23701 0.04198
# Poissons Ratio (z) = 0.73327 0.16199
#
# Static dielectric constant tensor:
#      x y z
#    x 1.842200 0.000000 0.007510 
#    y 0.000000 1.792750 0.000000 
#    z 0.007510 0.000000 1.834660 
# 
# From -- ./inp_files/5653.got.cif
#   From: 2010.05.17/outbox.cif.g08.bks.cpg/sg4_3_cif.got.tgz:5653.got - 2010.06.03 18:43:04.
