data_PCOD9115803
_publ_section_title
;
Structure prediction by ZEFSAII (Michael W. Deem and Ramdas Pophale) SiO2 
 PCOD9115803
Probable space group: P 21
;
_chemical_formula_sum "Si O2"
_cell_formula_units_Z 14
_cell_length_a 12.085635
_cell_length_b 7.991275
_cell_length_c 8.435980
_cell_angle_alpha 90.000000
_cell_angle_beta 40.740452
_cell_angle_gamma 90.000000
_cell_volume 531.729131
_symmetry_space_group_name_H-M "P 21"
_symmetry_group_IT_number 4
_symmetry_cell_setting 'monoclinic'
loop_
_space_group_symop_operation_xyz
x,y,z
-x,1/2+y,-z
loop_
_atom_site_type_symbol
_atom_site_label
_atom_site_fract_x
_atom_site_fract_y
_atom_site_fract_z
Si Si1 0.687802 0.358950 0.118303
Si Si2 0.659104 0.022231 0.948226
Si Si3 0.977417 0.960632 0.079724
Si Si4 0.534358 0.367124 0.603002
Si Si5 0.194109 0.681469 0.493837
Si Si6 0.812072 0.649752 0.376250
Si Si7 0.720693 0.514682 0.771563
O O1 0.716325 0.509545 0.963965
O O2 0.857126 0.363137 0.037777
O O3 0.668619 0.199453 0.027405
O O4 0.539677 0.354893 0.408736
O O5 0.641040 0.892714 0.112822
O O6 0.477594 0.998650 0.058451
O O7 0.786519 0.041816 0.664071
O O8 0.830804 0.825958 0.268671
O O9 0.942287 0.117088 0.234011
O O10 0.029317 0.035918 0.854664
O O11 0.639641 0.219953 0.576833
O O12 0.650205 0.535889 0.504220
O O13 0.180321 0.854493 0.410700
O O14 0.796614 0.663961 0.583425
#
# Coordination Sequence:
#
# PCOD9115803 Si02
#       7
#     2   2   2   2   2   2   2
#     4  10  21  36  58  86 118 150 194 250 288 350
#     4   9  19  37  58  83 116 156 195 243 300 341
#     4  11  20  35  59  87 118 155 194 235 298 356
#     4   9  20  39  61  88 117 154 203 244 289 345
#     4   9  19  36  60  83 117 157 187 239 298 357
#     4   9  19  35  56  83 117 155 191 238 295 358
#     4   9  20  38  58  80 113 153 198 247 298 343
#
# _framework density 26.329197000000001
#
# number of rings (size 3 to 8) (size 9 to 14) (size 15 to 20)
#    0.000    2.857    0.000    2.571    0.000   10.286 
#    0.000    2.857    0.000   20.571    0.000    0.000 
#    0.000    0.000    0.000    0.000    0.000    0.000 
#
# Total GULP energy -78109.614295 kJ/mol
# GULP energy per Si atom -5579.258164 kJ/mol
# Density = 2.626927 g / cm^3
# Si number density = 26.329197 Si / 1000 Ang^3
#
#
#
# Elastic Constant Matrix: (Units=GPa)
#
#
# Indices 1 2 3 4 5 6 
#
# 1 54.1982 13.0060 27.9008 0.0000 12.8596 0.0000
# 2 13.0060 92.5450 -2.8636 0.0000 0.2746 0.0000
# 3 27.9008 -2.8636 122.7691 0.0000 48.3912 0.0000
# 4 0.0000 0.0000 0.0000 44.7919 0.0000 -5.4648
# 5 12.8596 0.2746 48.3912 0.0000 51.8939 0.0000
# 6 0.0000 0.0000 0.0000 -5.4648 0.0000 21.5356
#
#
#
# Elastic Compliance Matrix: (Units=1/GPa)
#
#
# Indices 1 2 3 4 5 6 
#
# 1 0.021855 -0.003211 -0.004607 0.000000 -0.001103 0.000000
# 2 -0.003211 0.011292 0.001112 0.000000 -0.000301 0.000000
# 3 -0.004607 0.001112 0.013868 0.000000 -0.011796 0.000000
# 4 0.000000 0.000000 0.000000 0.023039 0.000000 0.005846
# 5 -0.001103 -0.000301 -0.011796 0.000000 0.030545 0.000000
# 6 0.000000 0.000000 0.000000 0.005846 0.000000 0.047918
#
#
# Mechanical properties :
#
#
# Convention : Reuss Voigt Hill
#
# Bulk Modulus (GPa) = 29.75979 38.39985 34.07982
# Shear Modulus (GPa) = 28.88018 39.07554 33.97786
#
# Velocity S-wave (km/s) = 3.31552 3.85660 3.59625
# Velocity P-wave (km/s) = 5.09749 5.86918 5.49690
#
# Compressibility (1/GPa) = 0.03360239
#
# Stress axis : x y z
#
# Youngs Moduli (GPa) = 45.75711 88.55783 72.10905
#
# Poissons Ratio (x) = 0.28433 0.33220
# Poissons Ratio (y) = 0.14691 -0.08015
# Poissons Ratio (z) = 0.21080 -0.09844
#
# Static dielectric constant tensor:
#      x y z
#    x 2.103370 0.000000 0.051010 
#    y 0.000000 2.166150 0.000000 
#    z 0.051010 0.000000 2.131030 
# 
# From -- ./inp_files/9122.got.cif
#   From: 2010.05.17/outbox.cif.g08.bks.cpg/sg4_5_cif.got.tgz:9122.got - 2010.06.03 18:43:04.
