data_PCOD9115723
_publ_section_title
;
Structure prediction by ZEFSAII (Michael W. Deem and Ramdas Pophale) SiO2 
 PCOD9115723
Probable space group: P 21
;
_chemical_formula_sum "Si O2"
_cell_formula_units_Z 16
_cell_length_a 8.467017
_cell_length_b 5.190777
_cell_length_c 14.512823
_cell_angle_alpha 90.000000
_cell_angle_beta 75.714672
_cell_angle_gamma 90.000000
_cell_volume 618.121517
_symmetry_space_group_name_H-M "P 21"
_symmetry_group_IT_number 4
_symmetry_cell_setting 'monoclinic'
loop_
_space_group_symop_operation_xyz
x,y,z
-x,1/2+y,-z
loop_
_atom_site_type_symbol
_atom_site_label
_atom_site_fract_x
_atom_site_fract_y
_atom_site_fract_z
Si Si1 0.543416 0.407760 0.813286
Si Si2 0.122891 0.858725 0.329382
Si Si3 0.142295 0.740616 0.692798
Si Si4 0.054138 0.023242 0.877157
Si Si5 0.522404 0.406659 0.276081
Si Si6 0.782587 0.017513 0.055300
Si Si7 0.586676 0.878197 0.514884
Si Si8 0.126318 0.070021 0.529126
O O1 0.727285 0.307669 0.761700
O O2 0.566160 0.698441 0.773096
O O3 0.412124 0.463988 0.914919
O O4 0.443930 0.178870 0.775837
O O5 0.154876 0.039086 0.416531
O O6 0.983741 0.008241 0.291933
O O7 0.050334 0.625467 0.402200
O O8 0.318789 0.742394 0.715412
O O9 0.058245 0.960741 0.768698
O O10 0.179585 0.834310 0.584073
O O11 0.163304 0.796538 0.911096
O O12 0.871783 0.000455 0.944081
O O13 0.125823 0.298079 0.897422
O O14 0.423630 0.480390 0.380880
O O15 0.508560 0.591503 0.527987
O O16 0.764551 0.810118 0.455256
#
# Coordination Sequence:
#
# PCOD9115723 Si02
#       8
#     2   2   2   2   2   2   2   2
#     4  12  25  45  71 100 137 178 225 285 349 409
#     4  12  29  43  66  93 143 195 231 280 347 421
#     4  12  25  45  67 100 134 182 234 284 344 412
#     4  10  22  39  76 105 134 167 222 289 352 410
#     4  12  25  41  70 100 128 174 234 290 332 400
#     4  10  20  43  71 109 133 166 219 291 356 409
#     4  12  25  41  65  96 128 170 231 294 337 391
#     4  12  27  43  64  89 139 188 232 277 345 410
#
# _framework density 25.884879999999999
#
# number of rings (size 3 to 8) (size 9 to 14) (size 15 to 20)
#    0.000    0.500    6.250    1.500    7.000    0.000 
#    0.000    0.000    2.750    0.000    0.000    0.000 
#    0.000    0.000    0.000    0.000    0.000    0.000 
#
# Total GULP energy -89225.769919 kJ/mol
# GULP energy per Si atom -5576.610620 kJ/mol
# Density = 2.582596 g / cm^3
# Si number density = 25.884880 Si / 1000 Ang^3
#
#
#
# Elastic Constant Matrix: (Units=GPa)
#
#
# Indices 1 2 3 4 5 6 
#
# 1 56.8899 6.6847 19.8268 0.0000 -27.2095 0.0000
# 2 6.6847 124.8249 -9.7469 0.0000 11.9786 0.0000
# 3 19.8268 -9.7469 94.8499 0.0000 -26.7159 0.0000
# 4 0.0000 0.0000 0.0000 33.7133 0.0000 -7.9109
# 5 -27.2095 11.9786 -26.7159 0.0000 36.2882 0.0000
# 6 0.0000 0.0000 0.0000 -7.9109 0.0000 33.9642
#
#
#
# Elastic Compliance Matrix: (Units=1/GPa)
#
#
# Indices 1 2 3 4 5 6 
#
# 1 0.029022 -0.003761 0.000033 0.000000 0.023027 0.000000
# 2 -0.003761 0.008762 0.000098 0.000000 -0.005640 0.000000
# 3 0.000033 0.000098 0.013302 0.000000 0.009786 0.000000
# 4 0.000000 0.000000 0.000000 0.031377 0.000000 0.007308
# 5 0.023027 -0.005640 0.009786 0.000000 0.053889 0.000000
# 6 0.000000 0.000000 0.000000 0.007308 0.000000 0.031145
#
#
# Mechanical properties :
#
#
# Convention : Reuss Voigt Hill
#
# Bulk Modulus (GPa) = 22.81840 34.45489 28.63665
# Shear Modulus (GPa) = 26.40389 38.11313 32.25851
#
# Velocity S-wave (km/s) = 3.19729 3.84136 3.53403
# Velocity P-wave (km/s) = 4.73969 5.74582 5.26684
#
# Compressibility (1/GPa) = 0.04382427
#
# Stress axis : x y z
#
# Youngs Moduli (GPa) = 34.45712 114.13478 75.17396
#
# Poissons Ratio (x) = 0.42930 -0.00246
# Poissons Ratio (y) = 0.12960 -0.00736
# Poissons Ratio (z) = -0.00113 -0.01117
#
# Static dielectric constant tensor:
#      x y z
#    x 2.280410 0.000000 -0.010950 
#    y 0.000000 2.047460 0.000000 
#    z -0.010950 0.000000 2.049070 
# 
# From -- ./inp_files/13459.got.cif
#   From: 2010.05.17/outbox.cif.g08.bks.cpg/sg4_7_cif.got.tgz:13459.got - 2010.06.03 18:43:04.
