data_PCOD9115678
_publ_section_title
;
Structure prediction by ZEFSAII (Michael W. Deem and Ramdas Pophale) SiO2 
 PCOD9115678
Probable space group: P 21
;
_chemical_formula_sum "Si O2"
_cell_formula_units_Z 16
_cell_length_a 12.980717
_cell_length_b 10.464551
_cell_length_c 5.858714
_cell_angle_alpha 90.000000
_cell_angle_beta 49.917425
_cell_angle_gamma 90.000000
_cell_volume 608.905052
_symmetry_space_group_name_H-M "P 21"
_symmetry_group_IT_number 4
_symmetry_cell_setting 'monoclinic'
loop_
_space_group_symop_operation_xyz
x,y,z
-x,1/2+y,-z
loop_
_atom_site_type_symbol
_atom_site_label
_atom_site_fract_x
_atom_site_fract_y
_atom_site_fract_z
Si Si1 0.621669 0.765970 0.352337
Si Si2 0.213413 0.895692 0.931364
Si Si3 0.000418 0.616846 0.813918
Si Si4 0.198558 0.234429 0.525824
Si Si5 0.475237 0.515896 0.683107
Si Si6 0.322632 0.975394 0.258277
Si Si7 0.904363 0.851511 0.727644
Si Si8 0.179401 0.599240 0.939978
O O1 0.668037 0.787766 0.544847
O O2 0.570202 0.620861 0.422890
O O3 0.760936 0.796237 0.026307
O O4 0.518099 0.870510 0.415375
O O5 0.264834 0.922643 0.590119
O O6 0.094786 0.000999 0.130175
O O7 0.298409 0.904571 0.052445
O O8 0.167989 0.749429 0.991069
O O9 0.910120 0.678062 0.145795
O O10 0.010612 0.741596 0.638438
O O11 0.142427 0.581949 0.725896
O O12 0.249520 0.110244 0.322322
O O13 0.126592 0.343098 0.491040
O O14 0.524747 0.508173 0.875097
O O15 0.325507 0.561195 0.831093
O O16 0.918726 0.993593 0.802347
#
# Coordination Sequence:
#
# PCOD9115678 Si02
#       8
#     2   2   2   2   2   2   2   2
#     4   9  20  39  64  91 130 174 223 280 343 412
#     4  11  23  47  72 102 135 183 241 288 344 416
#     4  10  21  43  71  92 137 184 235 280 354 422
#     4   9  19  40  66  93 122 182 235 275 339 419
#     4  10  21  42  63 100 133 178 223 289 346 419
#     4  10  22  44  73  96 133 186 236 281 344 418
#     4  10  20  42  66  95 128 178 231 285 348 415
#     4  11  24  43  63 107 140 177 228 300 356 411
#
# _framework density 26.276675000000001
#
# number of rings (size 3 to 8) (size 9 to 14) (size 15 to 20)
#    0.000    2.000    1.250    2.250    0.000    0.000 
#   29.250    0.000    0.000    0.000    0.000    0.000 
#    0.000    0.000    0.000    0.000    0.000    0.000 
#
# Total GULP energy -89249.113252 kJ/mol
# GULP energy per Si atom -5578.069578 kJ/mol
# Density = 2.621687 g / cm^3
# Si number density = 26.276675 Si / 1000 Ang^3
#
#
#
# Elastic Constant Matrix: (Units=GPa)
#
#
# Indices 1 2 3 4 5 6 
#
# 1 174.2289 60.9575 43.2640 0.0000 41.6735 0.0000
# 2 60.9575 184.3366 45.4927 0.0000 40.8930 0.0000
# 3 43.2640 45.4927 67.6203 0.0000 14.6218 0.0000
# 4 0.0000 0.0000 0.0000 25.9019 0.0000 16.4447
# 5 41.6735 40.8930 14.6218 0.0000 34.2994 0.0000
# 6 0.0000 0.0000 0.0000 16.4447 0.0000 48.9487
#
#
#
# Elastic Compliance Matrix: (Units=1/GPa)
#
#
# Indices 1 2 3 4 5 6 
#
# 1 0.008849 0.000028 -0.003688 0.000000 -0.009212 0.000000
# 2 0.000028 0.008146 -0.003735 0.000000 -0.008154 0.000000
# 3 -0.003688 -0.003735 0.019529 0.000000 0.000609 0.000000
# 4 0.000000 0.000000 0.000000 0.049075 0.000000 -0.016487
# 5 -0.009212 -0.008154 0.000609 0.000000 0.049809 0.000000
# 6 0.000000 0.000000 0.000000 -0.016487 0.000000 0.025969
#
#
# Mechanical properties :
#
#
# Convention : Reuss Voigt Hill
#
# Bulk Modulus (GPa) = 46.01257 80.62382 63.31819
# Shear Modulus (GPa) = 27.26077 40.26143 33.76110
#
# Velocity S-wave (km/s) = 3.22444 3.91859 3.58834
# Velocity P-wave (km/s) = 5.60460 7.15703 6.42785
#
# Compressibility (1/GPa) = 0.02173319
#
# Stress axis : x y z
#
# Youngs Moduli (GPa) = 113.00331 122.75492 51.20460
#
# Poissons Ratio (x) = -0.00339 0.18886
# Poissons Ratio (y) = -0.00312 0.19126
# Poissons Ratio (z) = 0.41680 0.45851
#
# Static dielectric constant tensor:
#      x y z
#    x 2.160360 0.000000 0.006940 
#    y 0.000000 2.002380 0.000000 
#    z 0.006940 0.000000 2.257910 
# 
# From -- ./inp_files/2953.got.cif
#   From: 2010.05.17/outbox.cif.g08.bks.cpg/sg4_2_cif.got.tgz:2953.got - 2010.06.03 18:43:04.
