data_PCOD9115186
_publ_section_title
;
Structure prediction by ZEFSAII (Michael W. Deem and Ramdas Pophale) SiO2 
 PCOD9115186
Probable space group: P 21
;
_chemical_formula_sum "Si O2"
_cell_formula_units_Z 12
_cell_length_a 15.127170
_cell_length_b 7.119570
_cell_length_c 10.204116
_cell_angle_alpha 90.000000
_cell_angle_beta 151.226862
_cell_angle_gamma 90.000000
_cell_volume 528.982497
_symmetry_space_group_name_H-M "P 21"
_symmetry_group_IT_number 4
_symmetry_cell_setting 'monoclinic'
loop_
_space_group_symop_operation_xyz
x,y,z
-x,1/2+y,-z
loop_
_atom_site_type_symbol
_atom_site_label
_atom_site_fract_x
_atom_site_fract_y
_atom_site_fract_z
Si Si1 0.504431 0.256360 0.394553
Si Si2 0.104296 0.184292 0.812906
Si Si3 0.114326 0.756367 0.224197
Si Si4 0.163011 0.190401 0.366968
Si Si5 0.058355 0.618178 0.675064
Si Si6 0.459061 0.690387 0.255106
O O1 0.694458 0.176970 0.583389
O O2 0.481829 0.465906 0.308427
O O3 0.520960 0.270574 0.572561
O O4 0.318479 0.145842 0.118008
O O5 0.090709 0.409141 0.772131
O O6 0.981033 0.145860 0.780565
O O7 0.025959 0.101152 0.577898
O O8 0.155230 0.965915 0.328624
O O9 0.969375 0.770583 0.917770
O O10 0.372263 0.252332 0.616791
O O11 0.078873 0.217885 0.401181
O O12 0.256565 0.717887 0.934275
#
# Coordination Sequence:
#
# PCOD9115186 Si02
#       6
#     2   2   2   2   2   2
#     4  10  20  35  57  83 110 142 183 227 271 324
#     4  10  22  38  54  80 115 146 181 226 273 324
#     4  10  20  35  57  83 110 142 183 227 271 324
#     4  10  20  35  57  83 110 142 183 227 271 324
#     4  10  22  38  54  80 115 146 181 226 273 324
#     4  10  20  35  57  83 110 142 183 227 271 324
#
# _framework density 22.685061999999999
#
# number of rings (size 3 to 8) (size 9 to 14) (size 15 to 20)
#    0.000    2.000    3.333    0.000    0.000    4.000 
#    0.000    0.000    0.000    0.000    0.000    0.000 
#    0.000    0.000    0.000    0.000    0.000    0.000 
#
# Total GULP energy -67126.257666 kJ/mol
# GULP energy per Si atom -5593.854806 kJ/mol
# Density = 2.263343 g / cm^3
# Si number density = 22.685062 Si / 1000 Ang^3
#
#
#
# Elastic Constant Matrix: (Units=GPa)
#
#
# Indices 1 2 3 4 5 6 
#
# 1 223.4188 14.1799 116.7388 0.0000 30.4239 0.0000
# 2 14.1799 48.3372 9.4230 0.0000 4.8433 0.0000
# 3 116.7388 9.4230 172.6399 0.0000 21.2362 0.0000
# 4 0.0000 0.0000 0.0000 14.1625 0.0000 0.1861
# 5 30.4239 4.8433 21.2362 0.0000 47.7453 0.0000
# 6 0.0000 0.0000 0.0000 0.1861 0.0000 14.3599
#
#
#
# Elastic Compliance Matrix: (Units=1/GPa)
#
#
# Indices 1 2 3 4 5 6 
#
# 1 0.007253 -0.000992 -0.004543 0.000000 -0.002501 0.000000
# 2 -0.000992 0.021178 -0.000316 0.000000 -0.001376 0.000000
# 3 -0.004543 -0.000316 0.009015 0.000000 -0.001083 0.000000
# 4 0.000000 0.000000 0.000000 0.070621 0.000000 -0.000915
# 5 -0.002501 -0.001376 -0.001083 0.000000 0.023159 0.000000
# 6 0.000000 0.000000 0.000000 -0.000915 0.000000 0.069650
#
#
# Mechanical properties :
#
#
# Convention : Reuss Voigt Hill
#
# Bulk Modulus (GPa) = 38.84251 80.56435 59.70343
# Shear Modulus (GPa) = 22.60820 35.52384 29.06602
#
# Velocity S-wave (km/s) = 3.16034 3.96151 3.58339
# Velocity P-wave (km/s) = 5.52057 7.51772 6.59518
#
# Compressibility (1/GPa) = 0.02574499
#
# Stress axis : x y z
#
# Youngs Moduli (GPa) = 137.87439 47.21793 110.93059
#
# Poissons Ratio (x) = 0.04682 0.50393
# Poissons Ratio (y) = 0.13671 0.03508
# Poissons Ratio (z) = 0.62633 0.01493
#
# Static dielectric constant tensor:
#      x y z
#    x 1.817750 0.000000 0.040390 
#    y 0.000000 1.941030 0.000000 
#    z 0.040390 0.000000 1.778030 
# 
# From -- ./inp_files/5214.got.cif
#   From: 2010.05.17/outbox.cif.g08.bks.cpg/sg4_3_cif.got.tgz:5214.got - 2010.06.03 18:43:04.
