data_PCOD9115590
_publ_section_title
;
Structure prediction by ZEFSAII (Michael W. Deem and Ramdas Pophale) SiO2 
 PCOD9115590
Probable space group: P 21
;
_chemical_formula_sum "Si O2"
_cell_formula_units_Z 16
_cell_length_a 22.316320
_cell_length_b 6.176929
_cell_length_c 27.181196
_cell_angle_alpha 90.000000
_cell_angle_beta 168.164342
_cell_angle_gamma 90.000000
_cell_volume 768.493934
_symmetry_space_group_name_H-M "P 21"
_symmetry_group_IT_number 4
_symmetry_cell_setting 'monoclinic'
loop_
_space_group_symop_operation_xyz
x,y,z
-x,1/2+y,-z
loop_
_atom_site_type_symbol
_atom_site_label
_atom_site_fract_x
_atom_site_fract_y
_atom_site_fract_z
Si Si1 0.714253 0.180650 0.298402
Si Si2 0.581849 0.170259 0.586058
Si Si3 0.820880 0.899621 0.087023
Si Si4 0.218986 0.575770 0.462731
Si Si5 0.681692 0.354434 0.074288
Si Si6 0.149988 0.136604 0.988395
Si Si7 0.851285 0.789870 0.683337
Si Si8 0.690212 0.491917 0.192325
O O1 0.767777 0.287020 0.288221
O O2 0.019801 0.137732 0.570089
O O3 0.510167 0.337542 0.166591
O O4 0.521296 0.969453 0.129949
O O5 0.497416 0.422819 0.499188
O O6 0.413436 0.168064 0.502519
O O7 0.929317 0.177080 0.856185
O O8 0.018995 0.777803 0.286511
O O9 0.889984 0.806318 0.088107
O O10 0.926094 0.143222 0.168502
O O11 0.516356 0.634428 0.727899
O O12 0.284996 0.459100 0.464133
O O13 0.013473 0.417716 0.329441
O O14 0.620613 0.444968 0.080130
O O15 0.582716 0.107951 0.000575
O O16 0.048694 0.911749 0.882209
#
# Coordination Sequence:
#
# PCOD9115590 Si02
#       8
#     2   2   2   2   2   2   2   2
#     4  11  23  38  62  88 117 160 204 257 312 382
#     4  10  20  40  71  96 136 177 216 270 326 386
#     4  10  21  41  62  86 124 160 204 259 315 378
#     4  10  23  41  60  91 125 161 208 262 314 385
#     4  11  23  40  60  88 125 156 203 267 315 370
#     4  10  21  41  63  94 125 164 209 253 321 379
#     4  10  21  41  62  92 126 163 208 259 316 372
#     4  12  22  40  60  87 118 159 208 251 321 374
#
# _framework density 20.819942000000001
#
# number of rings (size 3 to 8) (size 9 to 14) (size 15 to 20)
#    0.000    1.500    3.750    1.500    0.000    1.000 
#    6.750    0.000    0.000    0.000    0.000    0.000 
#    0.000    0.000    0.000    0.000    0.000    0.000 
#
# Total GULP energy -89158.965159 kJ/mol
# GULP energy per Si atom -5572.435322 kJ/mol
# Density = 2.077255 g / cm^3
# Si number density = 20.819942 Si / 1000 Ang^3
#
#
#
# Elastic Constant Matrix: (Units=GPa)
#
#
# Indices 1 2 3 4 5 6 
#
# 1 41.6427 8.7688 11.2916 0.0000 7.7990 0.0000
# 2 8.7688 58.7307 10.5171 0.0000 -2.4532 0.0000
# 3 11.2916 10.5171 89.2789 0.0000 1.7263 0.0000
# 4 0.0000 0.0000 0.0000 20.5245 0.0000 13.4059
# 5 7.7990 -2.4532 1.7263 0.0000 32.7696 0.0000
# 6 0.0000 0.0000 0.0000 13.4059 0.0000 31.0827
#
#
#
# Elastic Compliance Matrix: (Units=1/GPa)
#
#
# Indices 1 2 3 4 5 6 
#
# 1 0.026791 -0.003767 -0.002819 0.000000 -0.006510 0.000000
# 2 -0.003767 0.017989 -0.001688 0.000000 0.002332 0.000000
# 3 -0.002819 -0.001688 0.011758 0.000000 -0.000075 0.000000
# 4 0.000000 0.000000 0.000000 0.067831 0.000000 -0.029255
# 5 -0.006510 0.002332 -0.000075 0.000000 0.032244 0.000000
# 6 0.000000 0.000000 0.000000 -0.029255 0.000000 0.044790
#
#
# Mechanical properties :
#
#
# Convention : Reuss Voigt Hill
#
# Bulk Modulus (GPa) = 25.00630 27.86750 26.43690
# Shear Modulus (GPa) = 21.61890 27.48033 24.54961
#
# Velocity S-wave (km/s) = 3.22588 3.63699 3.43759
# Velocity P-wave (km/s) = 5.09037 5.57234 5.33680
#
# Compressibility (1/GPa) = 0.03998993
#
# Stress axis : x y z
#
# Youngs Moduli (GPa) = 37.32662 55.58966 85.05120
#
# Poissons Ratio (x) = 0.20941 0.23974
# Poissons Ratio (y) = 0.14061 0.14355
# Poissons Ratio (z) = 0.10521 0.09382
#
# Static dielectric constant tensor:
#      x y z
#    x 1.760530 0.000000 0.026370 
#    y 0.000000 1.840650 0.000000 
#    z 0.026370 0.000000 1.715740 
# 
# From -- ./inp_files/3985.got.cif
#   From: 2010.05.17/outbox.cif.g08.bks.cpg/sg4_2_cif.got.tgz:3985.got - 2010.06.03 18:43:04.
