data_PCOD9115479
_publ_section_title
;
Structure prediction by ZEFSAII (Michael W. Deem and Ramdas Pophale) SiO2 
 PCOD9115479
Probable space group: P 21
;
_chemical_formula_sum "Si O2"
_cell_formula_units_Z 14
_cell_length_a 11.211542
_cell_length_b 8.499753
_cell_length_c 5.696809
_cell_angle_alpha 90.000000
_cell_angle_beta 75.128373
_cell_angle_gamma 90.000000
_cell_volume 524.694668
_symmetry_space_group_name_H-M "P 21"
_symmetry_group_IT_number 4
_symmetry_cell_setting 'monoclinic'
loop_
_space_group_symop_operation_xyz
x,y,z
-x,1/2+y,-z
loop_
_atom_site_type_symbol
_atom_site_label
_atom_site_fract_x
_atom_site_fract_y
_atom_site_fract_z
Si Si1 0.752936 0.008480 0.414557
Si Si2 0.990091 0.413179 0.939732
Si Si3 0.646868 0.563155 0.440059
Si Si4 0.846962 0.636998 0.696002
Si Si5 0.488185 0.329070 0.263311
Si Si6 0.665775 0.846363 0.058686
Si Si7 0.916457 0.122497 0.722690
O O1 0.799648 0.117430 0.606359
O O2 0.625996 0.935583 0.581078
O O3 0.708041 0.007656 0.161012
O O4 0.885126 0.923672 0.283889
O O5 0.889952 0.536901 0.896516
O O6 0.923055 0.247557 0.932737
O O7 0.034171 0.464144 0.174288
O O8 0.761267 0.542549 0.555905
O O9 0.605178 0.407546 0.325861
O O10 0.540692 0.651265 0.646188
O O11 0.671606 0.702413 0.240131
O O12 0.973120 0.673437 0.503521
O O13 0.762977 0.782255 0.817875
O O14 0.468116 0.346437 0.995140
#
# Coordination Sequence:
#
# PCOD9115479 Si02
#       7
#     2   2   2   2   2   2   2
#     4  10  22  39  61  89 123 162 206 253 304 364
#     4  11  22  39  64  93 126 167 206 251 311 370
#     4  10  22  40  63  89 120 160 204 257 311 369
#     4  10  22  40  63  89 123 164 210 256 309 369
#     4  10  22  41  63  89 121 159 205 257 310 368
#     4  10  20  39  64  88 121 164 206 252 316 371
#     4  11  24  40  64  95 130 164 207 256 307 371
#
# _framework density 26.682182000000001
#
# number of rings (size 3 to 8) (size 9 to 14) (size 15 to 20)
#    0.000    1.714    0.000    5.143    0.000   13.714 
#    0.000    2.857    0.000    0.000    0.000    0.000 
#    0.000    0.000    0.000    0.000    0.000    0.000 
#
# Total GULP energy -78069.855367 kJ/mol
# GULP energy per Si atom -5576.418241 kJ/mol
# Density = 2.662145 g / cm^3
# Si number density = 26.682182 Si / 1000 Ang^3
#
#
#
# Elastic Constant Matrix: (Units=GPa)
#
#
# Indices 1 2 3 4 5 6 
#
# 1 92.9897 -4.9923 17.9325 0.0000 29.8858 0.0000
# 2 -4.9923 30.6439 6.6410 0.0000 13.1963 0.0000
# 3 17.9325 6.6410 88.2120 0.0000 34.1160 0.0000
# 4 0.0000 0.0000 0.0000 34.4904 0.0000 14.3056
# 5 29.8858 13.1963 34.1160 0.0000 59.2963 0.0000
# 6 0.0000 0.0000 0.0000 14.3056 0.0000 52.5716
#
#
#
# Elastic Compliance Matrix: (Units=1/GPa)
#
#
# Indices 1 2 3 4 5 6 
#
# 1 0.013693 0.005752 -0.000067 0.000000 -0.008142 0.000000
# 2 0.005752 0.038525 0.000473 0.000000 -0.011744 0.000000
# 3 -0.000067 0.000473 0.014588 0.000000 -0.008464 0.000000
# 4 0.000000 0.000000 0.000000 0.032682 0.000000 -0.008893
# 5 -0.008142 -0.011744 -0.008464 0.000000 0.028452 0.000000
# 6 0.000000 0.000000 0.000000 -0.008893 0.000000 0.021442
#
#
# Mechanical properties :
#
#
# Convention : Reuss Voigt Hill
#
# Bulk Modulus (GPa) = 12.63916 27.88979 20.26448
# Shear Modulus (GPa) = 30.59204 42.08928 36.34066
#
# Velocity S-wave (km/s) = 3.38972 3.97600 3.69451
# Velocity P-wave (km/s) = 4.47968 5.61724 5.08040
#
# Compressibility (1/GPa) = 0.07911918
#
# Stress axis : x y z
#
# Youngs Moduli (GPa) = 73.03251 25.95713 68.54920
#
# Poissons Ratio (x) = -0.14930 0.00463
# Poissons Ratio (y) = -0.42006 -0.03240
# Poissons Ratio (z) = 0.00493 -0.01227
#
# Static dielectric constant tensor:
#      x y z
#    x 2.076860 0.000000 0.000040 
#    y 0.000000 2.196800 0.000000 
#    z 0.000040 0.000000 2.274470 
# 
# From -- ./inp_files/2478.got.cif
#   From: 2010.05.17/outbox.cif.g08.bks.cpg/sg4_2_cif.got.tgz:2478.got - 2010.06.03 18:43:04.
