data_PCOD9115910
_publ_section_title
;
Structure prediction by ZEFSAII (Michael W. Deem and Ramdas Pophale) SiO2 
 PCOD9115910
Probable space group: P 21
;
_chemical_formula_sum "Si O2"
_cell_formula_units_Z 14
_cell_length_a 5.564090
_cell_length_b 22.800530
_cell_length_c 4.878248
_cell_angle_alpha 90.000000
_cell_angle_beta 97.232352
_cell_angle_gamma 90.000000
_cell_volume 613.951125
_symmetry_space_group_name_H-M "P 21"
_symmetry_group_IT_number 4
_symmetry_cell_setting 'monoclinic'
loop_
_space_group_symop_operation_xyz
x,y,z
-x,1/2+y,-z
loop_
_atom_site_type_symbol
_atom_site_label
_atom_site_fract_x
_atom_site_fract_y
_atom_site_fract_z
Si Si1 0.594521 0.581950 0.774207
Si Si2 0.744390 0.784532 0.229264
Si Si3 0.753276 0.649262 0.318642
Si Si4 0.052536 0.440097 0.254901
Si Si5 0.930147 0.055649 0.468144
Si Si6 0.436837 0.347060 0.279152
Si Si7 0.130317 0.878031 0.253350
O O1 0.637639 0.604645 0.084036
O O2 0.334246 0.552043 0.703391
O O3 0.828997 0.546763 0.687847
O O4 0.607729 0.639446 0.579142
O O5 0.716100 0.804385 0.540524
O O6 0.756984 0.715115 0.218341
O O7 0.536691 0.811335 0.999537
O O8 0.984985 0.818581 0.166135
O O9 0.018161 0.621605 0.416258
O O10 0.062570 0.509212 0.284865
O O11 0.652357 0.363380 0.512753
O O12 0.845458 0.414679 0.023464
O O13 0.029378 0.418545 0.565752
O O14 0.292025 0.406553 0.188881
#
# Coordination Sequence:
#
# PCOD9115910 Si02
#       7
#     2   2   2   2   2   2   2
#     4  10  25  42  65  95 131 165 219 256 326 375
#     4  10  21  40  59  91 121 160 213 258 317 380
#     4  10  24  40  64  93 131 171 218 266 321 385
#     4  10  23  37  63  88 127 158 216 253 323 375
#     4  10  26  43  66  98 131 172 214 267 320 389
#     4  10  21  38  61  90 123 161 208 262 322 375
#     4  10  22  40  60  93 120 167 204 266 315 377
#
# _framework density 22.803118000000001
#
# number of rings (size 3 to 8) (size 9 to 14) (size 15 to 20)
#    0.857    1.143    0.000    1.714    6.000    2.286 
#    0.000    0.000    0.000    0.000    0.000    0.000 
#    0.000    0.000    0.000    0.000    0.000    0.000 
#
# Total GULP energy -78041.789899 kJ/mol
# GULP energy per Si atom -5574.413564 kJ/mol
# Density = 2.275122 g / cm^3
# Si number density = 22.803118 Si / 1000 Ang^3
#
#
#
# Elastic Constant Matrix: (Units=GPa)
#
#
# Indices 1 2 3 4 5 6 
#
# 1 93.4968 17.0818 13.3644 0.0000 24.6282 0.0000
# 2 17.0818 60.8719 2.3355 0.0000 7.2428 0.0000
# 3 13.3644 2.3355 116.0807 0.0000 9.4793 0.0000
# 4 0.0000 0.0000 0.0000 33.4073 0.0000 5.1316
# 5 24.6282 7.2428 9.4793 0.0000 33.9508 0.0000
# 6 0.0000 0.0000 0.0000 5.1316 0.0000 8.6651
#
#
#
# Elastic Compliance Matrix: (Units=1/GPa)
#
#
# Indices 1 2 3 4 5 6 
#
# 1 0.013716 -0.002730 -0.000777 0.000000 -0.009150 0.000000
# 2 -0.002730 0.017400 0.000108 0.000000 -0.001761 0.000000
# 3 -0.000777 0.000108 0.008860 0.000000 -0.001933 0.000000
# 4 0.000000 0.000000 0.000000 0.032929 0.000000 -0.019501
# 5 -0.009150 -0.001761 -0.001933 0.000000 0.037007 0.000000
# 6 0.000000 0.000000 0.000000 -0.019501 0.000000 0.126955
#
#
# Mechanical properties :
#
#
# Convention : Reuss Voigt Hill
#
# Bulk Modulus (GPa) = 30.14163 37.33476 33.73820
# Shear Modulus (GPa) = 19.62911 31.04916 25.33913
#
# Velocity S-wave (km/s) = 2.93714 3.69402 3.33710
# Velocity P-wave (km/s) = 4.97486 5.88239 5.44756
#
# Compressibility (1/GPa) = 0.03317671
#
# Stress axis : x y z
#
# Youngs Moduli (GPa) = 72.90919 57.47272 112.86893
#
# Poissons Ratio (x) = 0.15692 0.08769
# Poissons Ratio (y) = 0.19907 -0.01220
# Poissons Ratio (z) = 0.05665 -0.00621
#
# Static dielectric constant tensor:
#      x y z
#    x 1.952940 0.000000 -0.010030 
#    y 0.000000 1.844780 0.000000 
#    z -0.010030 0.000000 1.863450 
# 
# From -- ./inp_files/633.got.cif
#   From: 2010.05.17/outbox.cif.g08.bks.cpg/sg4_1_cif.got.tgz:633.got - 2010.06.03 18:43:04.
