data_PCOD9115808
_publ_section_title
;
Structure prediction by ZEFSAII (Michael W. Deem and Ramdas Pophale) SiO2 
 PCOD9115808
Probable space group: P 21
;
_chemical_formula_sum "Si O2"
_cell_formula_units_Z 16
_cell_length_a 11.692424
_cell_length_b 9.077414
_cell_length_c 11.962478
_cell_angle_alpha 90.000000
_cell_angle_beta 141.939775
_cell_angle_gamma 90.000000
_cell_volume 782.732718
_symmetry_space_group_name_H-M "P 21"
_symmetry_group_IT_number 4
_symmetry_cell_setting 'monoclinic'
loop_
_space_group_symop_operation_xyz
x,y,z
-x,1/2+y,-z
loop_
_atom_site_type_symbol
_atom_site_label
_atom_site_fract_x
_atom_site_fract_y
_atom_site_fract_z
Si Si1 0.658705 0.927780 0.524233
Si Si2 0.989140 0.275129 0.427552
Si Si3 0.317459 0.973453 0.422843
Si Si4 0.920482 0.739298 0.863205
Si Si5 0.386805 0.164468 0.680867
Si Si6 0.915524 0.101337 0.577570
Si Si7 0.213258 0.619168 0.936656
Si Si8 0.951745 0.801188 0.144213
O O1 0.504121 0.952976 0.497680
O O2 0.843949 0.876247 0.732850
O O3 0.589130 0.797786 0.389483
O O4 0.726565 0.058035 0.496495
O O5 0.888656 0.225222 0.462794
O O6 0.889309 0.197591 0.245597
O O7 0.196396 0.206570 0.595187
O O8 0.012825 0.448636 0.422721
O O9 0.170554 0.842299 0.308328
O O10 0.207226 0.105610 0.277091
O O11 0.358013 0.022594 0.580222
O O12 0.125490 0.694428 0.980620
O O13 0.898264 0.764030 0.976703
O O14 0.567709 0.143542 0.894457
O O15 0.059917 0.167461 0.778358
O O16 0.155444 0.447410 0.897021
#
# Coordination Sequence:
#
# PCOD9115808 Si02
#       8
#     2   2   2   2   2   2   2   2
#     4  10  21  39  61  99 136 175 217 278 343 406
#     4  11  23  48  66  95 133 178 239 273 332 401
#     4  10  21  36  60  97 138 166 219 276 340 410
#     4  10  21  36  60 100 133 170 218 275 337 416
#     4  10  21  40  66  91 129 177 222 281 333 393
#     4  11  25  42  72  91 140 184 224 281 337 399
#     4  11  21  42  68  91 131 179 222 285 338 395
#     4  11  23  37  65 100 136 179 221 275 356 404
#
# _framework density 20.441205
#
# number of rings (size 3 to 8) (size 9 to 14) (size 15 to 20)
#    0.000    1.500    5.000    2.250    8.750    1.000 
#    0.000    5.000    0.000    0.000    0.000    0.000 
#    0.000    0.000    0.000    0.000    0.000    0.000 
#
# Total GULP energy -89358.113712 kJ/mol
# GULP energy per Si atom -5584.882107 kJ/mol
# Density = 2.039468 g / cm^3
# Si number density = 20.441205 Si / 1000 Ang^3
#
#
#
# Elastic Constant Matrix: (Units=GPa)
#
#
# Indices 1 2 3 4 5 6 
#
# 1 60.8740 39.5530 18.9927 0.0000 1.1216 0.0000
# 2 39.5530 63.1893 27.3077 0.0000 2.2826 0.0000
# 3 18.9927 27.3077 85.6419 0.0000 10.7101 0.0000
# 4 0.0000 0.0000 0.0000 10.8701 0.0000 -10.2140
# 5 1.1216 2.2826 10.7101 0.0000 30.3490 0.0000
# 6 0.0000 0.0000 0.0000 -10.2140 0.0000 28.4601
#
#
#
# Elastic Compliance Matrix: (Units=1/GPa)
#
#
# Indices 1 2 3 4 5 6 
#
# 1 0.027734 -0.017041 -0.000784 0.000000 0.000533 0.000000
# 2 -0.017041 0.028840 -0.005465 0.000000 0.000389 0.000000
# 3 -0.000784 -0.005465 0.014163 0.000000 -0.004558 0.000000
# 4 0.000000 0.000000 0.000000 0.138804 0.000000 0.049815
# 5 0.000533 0.000389 -0.004558 0.000000 0.034510 0.000000
# 6 0.000000 0.000000 0.000000 0.049815 0.000000 0.053015
#
#
# Mechanical properties :
#
#
# Convention : Reuss Voigt Hill
#
# Bulk Modulus (GPa) = 41.39503 42.37911 41.88707
# Shear Modulus (GPa) = 14.21673 22.19262 18.20467
#
# Velocity S-wave (km/s) = 2.64008 3.29854 2.98751
# Velocity P-wave (km/s) = 5.43950 5.94006 5.69528
#
# Compressibility (1/GPa) = 0.02415749
#
# Stress axis : x y z
#
# Youngs Moduli (GPa) = 36.05644 34.67425 70.60621
#
# Poissons Ratio (x) = 0.59087 0.05533
# Poissons Ratio (y) = 0.61443 0.38589
# Poissons Ratio (z) = 0.02826 0.18951
#
# Static dielectric constant tensor:
#      x y z
#    x 1.764450 0.000000 0.000210 
#    y 0.000000 1.772660 0.000000 
#    z 0.000210 0.000000 1.707250 
# 
# From -- ./inp_files/11967.got.cif
#   From: 2010.05.17/outbox.cif.g08.bks.cpg/sg4_6_cif.got.tgz:11967.got - 2010.06.03 18:43:04.
