data_PCOD9115713
_publ_section_title
;
Structure prediction by ZEFSAII (Michael W. Deem and Ramdas Pophale) SiO2 
 PCOD9115713
Probable space group: P 21
;
_chemical_formula_sum "Si O2"
_cell_formula_units_Z 16
_cell_length_a 11.623183
_cell_length_b 12.389075
_cell_length_c 8.408246
_cell_angle_alpha 90.000000
_cell_angle_beta 36.318642
_cell_angle_gamma 90.000000
_cell_volume 717.121987
_symmetry_space_group_name_H-M "P 21"
_symmetry_group_IT_number 4
_symmetry_cell_setting 'monoclinic'
loop_
_space_group_symop_operation_xyz
x,y,z
-x,1/2+y,-z
loop_
_atom_site_type_symbol
_atom_site_label
_atom_site_fract_x
_atom_site_fract_y
_atom_site_fract_z
Si Si1 0.040170 0.580640 0.051765
Si Si2 0.276608 0.128903 0.837002
Si Si3 0.648465 0.989101 0.094984
Si Si4 0.909788 0.798848 0.737637
Si Si5 0.474185 0.213624 0.300121
Si Si6 0.951057 0.775979 0.344092
Si Si7 0.274072 0.924664 0.035608
Si Si8 0.751000 0.428119 0.557449
O O1 0.931202 0.593416 0.007920
O O2 0.065848 0.699245 0.095340
O O3 0.876179 0.525677 0.346710
O O4 0.234090 0.512724 0.871937
O O5 0.412216 0.170527 0.543616
O O6 0.232957 0.226409 0.002908
O O7 0.348764 0.026531 0.854942
O O8 0.579184 0.107063 0.108013
O O9 0.447038 0.924251 0.320299
O O10 0.798937 0.913376 0.830561
O O11 0.967798 0.742381 0.509566
O O12 0.105965 0.826372 0.614046
O O13 0.273059 0.257239 0.448511
O O14 0.608907 0.317249 0.137696
O O15 0.052643 0.892823 0.232565
O O16 0.285605 0.942451 0.213172
#
# Coordination Sequence:
#
# PCOD9115713 Si02
#       8
#     2   2   2   2   2   2   2   2
#     4  10  21  40  67  92 134 175 208 269 327 390
#     4  11  25  43  64 100 139 173 217 268 328 402
#     4  11  21  42  68  95 128 173 217 265 327 387
#     4  10  24  41  67 100 131 171 219 274 324 392
#     4  11  24  42  67  97 132 177 215 270 332 391
#     4  10  20  43  66  94 128 172 221 270 325 383
#     4  11  24  44  69  97 131 172 222 274 325 388
#     4  10  21  43  70  95 125 171 221 270 324 383
#
# _framework density 22.311406999999999
#
# number of rings (size 3 to 8) (size 9 to 14) (size 15 to 20)
#    0.000    1.500    3.750    1.500    1.750    4.000 
#    2.250    0.000    0.000    0.000    0.000    0.000 
#    0.000    0.000    0.000    0.000    0.000    0.000 
#
# Total GULP energy -89220.255401 kJ/mol
# GULP energy per Si atom -5576.265963 kJ/mol
# Density = 2.226063 g / cm^3
# Si number density = 22.311407 Si / 1000 Ang^3
#
#
#
# Elastic Constant Matrix: (Units=GPa)
#
#
# Indices 1 2 3 4 5 6 
#
# 1 31.9346 36.3259 24.6604 0.0000 -15.3955 0.0000
# 2 36.3259 91.6940 37.6494 0.0000 6.6535 0.0000
# 3 24.6604 37.6494 56.3112 0.0000 -8.3485 0.0000
# 4 0.0000 0.0000 0.0000 26.4860 0.0000 2.4071
# 5 -15.3955 6.6535 -8.3485 0.0000 41.7003 0.0000
# 6 0.0000 0.0000 0.0000 2.4071 0.0000 32.4942
#
#
#
# Elastic Compliance Matrix: (Units=1/GPa)
#
#
# Indices 1 2 3 4 5 6 
#
# 1 0.110839 -0.041264 -0.014333 0.000000 0.044635 0.000000
# 2 -0.041264 0.031280 -0.006020 0.000000 -0.021431 0.000000
# 3 -0.014333 -0.006020 0.028257 0.000000 0.001326 0.000000
# 4 0.000000 0.000000 0.000000 0.038012 0.000000 -0.002816
# 5 0.044635 -0.021431 0.001326 0.000000 0.044145 0.000000
# 6 0.000000 0.000000 0.000000 -0.002816 0.000000 0.030983
#
#
# Mechanical properties :
#
#
# Convention : Reuss Voigt Hill
#
# Bulk Modulus (GPa) = 21.21293 41.91238 31.56265
# Shear Modulus (GPa) = 11.83530 25.55636 18.69583
#
# Velocity S-wave (km/s) = 2.30567 3.38811 2.89788
# Velocity P-wave (km/s) = 4.07633 5.84223 5.03727
#
# Compressibility (1/GPa) = 0.04714107
#
# Stress axis : x y z
#
# Youngs Moduli (GPa) = 9.02209 31.96921 35.38929
#
# Poissons Ratio (x) = 1.31918 0.50725
# Poissons Ratio (y) = 0.37229 0.21305
# Poissons Ratio (z) = 0.12932 0.19246
#
# Static dielectric constant tensor:
#      x y z
#    x 1.821300 0.000000 -0.101840 
#    y 0.000000 1.836080 0.000000 
#    z -0.101840 0.000000 1.801360 
# 
# From -- ./inp_files/8309.got.cif
#   From: 2010.05.17/outbox.cif.g08.bks.cpg/sg4_5_cif.got.tgz:8309.got - 2010.06.03 18:43:04.
