data_PCOD9115838
_publ_section_title
;
Structure prediction by ZEFSAII (Michael W. Deem and Ramdas Pophale) SiO2 
 PCOD9115838
Probable space group: P 21
;
_chemical_formula_sum "Si O2"
_cell_formula_units_Z 14
_cell_length_a 8.979751
_cell_length_b 7.616941
_cell_length_c 7.918201
_cell_angle_alpha 90.000000
_cell_angle_beta 92.248039
_cell_angle_gamma 90.000000
_cell_volume 541.174142
_symmetry_space_group_name_H-M "P 21"
_symmetry_group_IT_number 4
_symmetry_cell_setting 'monoclinic'
loop_
_space_group_symop_operation_xyz
x,y,z
-x,1/2+y,-z
loop_
_atom_site_type_symbol
_atom_site_label
_atom_site_fract_x
_atom_site_fract_y
_atom_site_fract_z
Si Si1 0.609532 0.805930 0.815215
Si Si2 0.066472 0.175670 0.220616
Si Si3 0.396945 0.812760 0.478394
Si Si4 0.185553 0.530624 0.611608
Si Si5 0.317359 0.167614 0.627954
Si Si6 0.662094 0.145801 0.025657
Si Si7 0.861050 0.468202 0.091220
O O1 0.760205 0.707512 0.782408
O O2 0.502860 0.814606 0.649158
O O3 0.657414 0.993621 0.889355
O O4 0.505883 0.704731 0.942754
O O5 0.987553 0.066964 0.364671
O O6 0.044226 0.074417 0.040948
O O7 0.975447 0.357165 0.209872
O O8 0.268731 0.667731 0.493104
O O9 0.517600 0.755993 0.343902
O O10 0.333945 0.007911 0.495487
O O11 0.241937 0.085728 0.791488
O O12 0.216827 0.331186 0.566356
O O13 0.265067 0.567419 0.797679
O O14 0.756555 0.322454 0.995546
#
# Coordination Sequence:
#
# PCOD9115838 Si02
#       7
#     2   2   2   2   2   2   2
#     4  11  22  37  58  95 134 161 210 274 328 378
#     4  11  21  38  61  96 134 160 209 271 337 396
#     4  11  24  42  66  94 121 174 226 266 313 371
#     4  10  22  39  66  91 125 173 212 262 320 392
#     4  12  21  43  69  89 122 172 234 264 296 392
#     4  10  21  37  58  93 131 170 208 262 332 383
#     4  11  21  38  64  94 127 176 215 257 330 394
#
# _framework density 25.869679000000001
#
# number of rings (size 3 to 8) (size 9 to 14) (size 15 to 20)
#    0.000    1.143    5.714    4.286    2.000    0.000 
#    0.000    1.429    0.000    0.000    0.000    0.000 
#    0.000    0.000    0.000    0.000    0.000    0.000 
#
# Total GULP energy -78464.289166 kJ/mol
# GULP energy per Si atom -5604.592083 kJ/mol
# Density = 2.581080 g / cm^3
# Si number density = 25.869679 Si / 1000 Ang^3
#
#
#
# Elastic Constant Matrix: (Units=GPa)
#
#
# Indices 1 2 3 4 5 6 
#
# 1 166.7478 52.8677 12.0033 0.0000 -42.3463 0.0000
# 2 52.8677 150.9585 12.8727 0.0000 -25.1714 0.0000
# 3 12.0033 12.8727 46.4342 0.0000 -21.3264 0.0000
# 4 0.0000 0.0000 0.0000 42.8930 0.0000 -15.5837
# 5 -42.3463 -25.1714 -21.3264 0.0000 48.8627 0.0000
# 6 0.0000 0.0000 0.0000 -15.5837 0.0000 56.7839
#
#
#
# Elastic Compliance Matrix: (Units=1/GPa)
#
#
# Indices 1 2 3 4 5 6 
#
# 1 0.008212 -0.001869 0.001528 0.000000 0.006821 0.000000
# 2 -0.001869 0.007677 -0.000716 0.000000 0.002023 0.000000
# 3 0.001528 -0.000716 0.027238 0.000000 0.012844 0.000000
# 4 0.000000 0.000000 0.000000 0.025896 0.000000 0.007107
# 5 0.006821 0.002023 0.012844 0.000000 0.033024 0.000000
# 6 0.000000 0.000000 0.000000 0.007107 0.000000 0.019561
#
#
# Mechanical properties :
#
#
# Convention : Reuss Voigt Hill
#
# Bulk Modulus (GPa) = 24.38249 57.73645 41.05947
# Shear Modulus (GPa) = 36.39185 48.80107 42.59646
#
# Velocity S-wave (km/s) = 3.75472 4.34801 4.06221
# Velocity P-wave (km/s) = 5.31440 6.89736 6.15696
#
# Compressibility (1/GPa) = 0.04101304
#
# Stress axis : x y z
#
# Youngs Moduli (GPa) = 121.77623 130.25632 36.71312
#
# Poissons Ratio (x) = 0.24343 -0.05610
# Poissons Ratio (y) = 0.22758 0.02630
# Poissons Ratio (z) = -0.18608 0.09330
#
# Static dielectric constant tensor:
#      x y z
#    x 2.016910 0.000000 0.047800 
#    y 0.000000 2.027550 0.000000 
#    z 0.047800 0.000000 2.103600 
# 
# From -- ./inp_files/5474.got.cif
#   From: 2010.05.17/outbox.cif.g08.bks.cpg/sg4_3_cif.got.tgz:5474.got - 2010.06.03 18:43:04.
