data_PCOD9115400
_publ_section_title
;
Structure prediction by ZEFSAII (Michael W. Deem and Ramdas Pophale) SiO2 
 PCOD9115400
Probable space group: P 21
;
_chemical_formula_sum "Si O2"
_cell_formula_units_Z 12
_cell_length_a 8.260513
_cell_length_b 4.760726
_cell_length_c 21.844137
_cell_angle_alpha 90.000000
_cell_angle_beta 136.510945
_cell_angle_gamma 90.000000
_cell_volume 591.207399
_symmetry_space_group_name_H-M "P 21"
_symmetry_group_IT_number 4
_symmetry_cell_setting 'monoclinic'
loop_
_space_group_symop_operation_xyz
x,y,z
-x,1/2+y,-z
loop_
_atom_site_type_symbol
_atom_site_label
_atom_site_fract_x
_atom_site_fract_y
_atom_site_fract_z
Si Si1 0.387171 0.565920 0.810493
Si Si2 0.178184 0.079287 0.688014
Si Si3 0.472914 0.387320 0.032750
Si Si4 0.171525 0.319984 0.556233
Si Si5 0.633357 0.016613 0.510660
Si Si6 0.847852 0.241072 0.967646
O O1 0.205371 0.316867 0.747416
O O2 0.385829 0.724197 0.875381
O O3 0.333591 0.811343 0.747923
O O4 0.637539 0.405859 0.876084
O O5 0.258356 0.211335 0.645357
O O6 0.905107 0.000756 0.605629
O O7 0.606993 0.634195 0.033312
O O8 0.266331 0.564129 0.008458
O O9 0.359933 0.422447 0.558393
O O10 0.986425 0.571664 0.516017
O O11 0.466834 0.824812 0.506400
O O12 0.022508 0.493311 0.033861
#
# Coordination Sequence:
#
# PCOD9115400 Si02
#       6
#     2   2   2   2   2   2
#     4  12  22  40  67 100 125 167 218 264 332 366
#     4  11  22  39  66  92 130 168 217 269 306 386
#     4  12  22  41  68  96 125 172 222 264 313 410
#     4  10  20  38  63  96 118 174 219 247 302 391
#     4  11  22  39  66  94 129 170 212 259 316 371
#     4  12  22  41  68  96 125 165 218 267 325 384
#
# _framework density 20.297445
#
# number of rings (size 3 to 8) (size 9 to 14) (size 15 to 20)
#    0.000    0.667    5.000    5.000    0.000    0.000 
#    0.000    0.000   18.333    0.000    0.000    0.000 
#    0.000    0.000    0.000    0.000    0.000    0.000 
#
# Total GULP energy -66953.732052 kJ/mol
# GULP energy per Si atom -5579.477671 kJ/mol
# Density = 2.025125 g / cm^3
# Si number density = 20.297445 Si / 1000 Ang^3
#
#
#
# Elastic Constant Matrix: (Units=GPa)
#
#
# Indices 1 2 3 4 5 6 
#
# 1 70.2776 21.3698 34.0540 0.0000 -4.4844 0.0000
# 2 21.3698 135.1355 42.2013 0.0000 1.1740 0.0000
# 3 34.0540 42.2013 81.9785 0.0000 -2.2944 0.0000
# 4 0.0000 0.0000 0.0000 59.1590 0.0000 0.6170
# 5 -4.4844 1.1740 -2.2944 0.0000 11.4195 0.0000
# 6 0.0000 0.0000 0.0000 0.6170 0.0000 55.1593
#
#
#
# Elastic Compliance Matrix: (Units=1/GPa)
#
#
# Indices 1 2 3 4 5 6 
#
# 1 0.018232 -0.000738 -0.007031 0.000000 0.005823 0.000000
# 2 -0.000738 0.008886 -0.004326 0.000000 -0.002072 0.000000
# 3 -0.007031 -0.004326 0.017378 0.000000 0.001176 0.000000
# 4 0.000000 0.000000 0.000000 0.016906 0.000000 -0.000189
# 5 0.005823 -0.002072 0.001176 0.000000 0.090305 0.000000
# 6 0.000000 0.000000 0.000000 -0.000189 0.000000 0.018131
#
#
# Mechanical properties :
#
#
# Convention : Reuss Voigt Hill
#
# Bulk Modulus (GPa) = 49.24301 53.62686 51.43494
# Shear Modulus (GPa) = 24.90088 37.79866 31.34977
#
# Velocity S-wave (km/s) = 3.50637 4.32005 3.93430
# Velocity P-wave (km/s) = 6.38014 7.16670 6.78483
#
# Compressibility (1/GPa) = 0.02030745
#
# Stress axis : x y z
#
# Youngs Moduli (GPa) = 54.84827 112.54260 57.54237
#
# Poissons Ratio (x) = 0.08307 0.40456
# Poissons Ratio (y) = 0.04049 0.24890
# Poissons Ratio (z) = 0.38562 0.48681
#
# Static dielectric constant tensor:
#      x y z
#    x 1.762230 0.000000 -0.029190 
#    y 0.000000 1.774680 0.000000 
#    z -0.029190 0.000000 1.742620 
# 
# From -- ./inp_files/15560.got.cif
#   From: 2010.05.17/outbox.cif.g08.bks.cpg/sg4_8_cif.got.tgz:15560.got - 2010.06.03 18:43:04.
