data_PCOD9115298
_publ_section_title
;
Structure prediction by ZEFSAII (Michael W. Deem and Ramdas Pophale) SiO2 
 PCOD9115298
Probable space group: P 21
;
_chemical_formula_sum "Si O2"
_cell_formula_units_Z 16
_cell_length_a 7.639825
_cell_length_b 7.070498
_cell_length_c 14.727860
_cell_angle_alpha 90.000000
_cell_angle_beta 132.851777
_cell_angle_gamma 90.000000
_cell_volume 583.237586
_symmetry_space_group_name_H-M "P 21"
_symmetry_group_IT_number 4
_symmetry_cell_setting 'monoclinic'
loop_
_space_group_symop_operation_xyz
x,y,z
-x,1/2+y,-z
loop_
_atom_site_type_symbol
_atom_site_label
_atom_site_fract_x
_atom_site_fract_y
_atom_site_fract_z
Si Si1 0.201565 0.913960 0.423731
Si Si2 0.286126 0.352193 0.489339
Si Si3 0.593496 0.354366 0.324104
Si Si4 0.501239 0.807296 0.255496
Si Si5 0.066774 0.295551 0.147654
Si Si6 0.177798 0.873458 0.773263
Si Si7 0.979749 0.734024 0.077997
Si Si8 0.723863 0.788791 0.153107
O O1 0.453848 0.873623 0.463627
O O2 0.218220 0.824248 0.529902
O O3 0.975879 0.848745 0.287219
O O4 0.205773 0.136138 0.446234
O O5 0.324649 0.399373 0.608814
O O6 0.071667 0.450849 0.359610
O O7 0.550544 0.580601 0.289166
O O8 0.343103 0.272280 0.269607
O O9 0.678583 0.278604 0.257559
O O10 0.226901 0.842373 0.184096
O O11 0.536297 0.859935 0.162201
O O12 0.022420 0.521080 0.126117
O O13 0.889233 0.240190 0.165852
O O14 0.040296 0.223061 0.036927
O O15 0.309556 0.061858 0.852248
O O16 0.763126 0.821470 0.059515
#
# Coordination Sequence:
#
# PCOD9115298 Si02
#       8
#     2   2   2   2   2   2   2   2
#     4  11  20  34  57  85 115 146 179 219 270 329
#     4  11  20  34  57  85 115 146 179 219 270 329
#     4   9  19  36  57  81 111 145 179 221 275 327
#     4   9  19  36  57  81 111 145 179 221 275 327
#     4  10  21  38  56  78 108 145 186 227 271 320
#     4  10  20  37  59  81 110 146 180 223 276 324
#     4  10  21  38  56  78 108 145 186 227 271 320
#     4  10  20  37  59  81 110 146 180 223 276 324
#
# _framework density 27.433073
#
# number of rings (size 3 to 8) (size 9 to 14) (size 15 to 20)
#    0.000    2.000    2.500    1.500    0.000    2.000 
#    0.000    2.500    0.000    0.000    0.000    0.000 
#    0.000    0.000    0.000    0.000    0.000    0.000 
#
# Total GULP energy -89596.223644 kJ/mol
# GULP energy per Si atom -5599.763978 kJ/mol
# Density = 2.737063 g / cm^3
# Si number density = 27.433073 Si / 1000 Ang^3
#
#
#
# Elastic Constant Matrix: (Units=GPa)
#
#
# Indices 1 2 3 4 5 6 
#
# 1 151.1473 10.6520 20.0391 0.0000 -46.3614 0.0000
# 2 10.6520 96.1382 10.3868 0.0000 0.6592 0.0000
# 3 20.0391 10.3868 99.3387 0.0000 -31.5410 0.0000
# 4 0.0000 0.0000 0.0000 31.7104 0.0000 -1.1435
# 5 -46.3614 0.6592 -31.5410 0.0000 59.8598 0.0000
# 6 0.0000 0.0000 0.0000 -1.1435 0.0000 15.1991
#
#
#
# Elastic Compliance Matrix: (Units=1/GPa)
#
#
# Indices 1 2 3 4 5 6 
#
# 1 0.008806 -0.001091 0.000609 0.000000 0.007153 0.000000
# 2 -0.001091 0.010690 -0.001445 0.000000 -0.001724 0.000000
# 3 0.000609 -0.001445 0.012309 0.000000 0.006973 0.000000
# 4 0.000000 0.000000 0.000000 0.031621 0.000000 0.002379
# 5 0.007153 -0.001724 0.006973 0.000000 0.025939 0.000000
# 6 0.000000 0.000000 0.000000 0.002379 0.000000 0.065972
#
#
# Mechanical properties :
#
#
# Convention : Reuss Voigt Hill
#
# Bulk Modulus (GPa) = 35.77564 47.64223 41.70893
# Shear Modulus (GPa) = 29.67196 41.72362 35.69779
#
# Velocity S-wave (km/s) = 3.29236 3.90413 3.61122
# Velocity P-wave (km/s) = 5.24616 6.14227 5.71181
#
# Compressibility (1/GPa) = 0.02795198
#
# Stress axis : x y z
#
# Youngs Moduli (GPa) = 113.55466 93.54119 81.24194
#
# Poissons Ratio (x) = 0.10201 -0.04946
# Poissons Ratio (y) = 0.12384 0.11740
# Poissons Ratio (z) = -0.06913 0.13518
#
# Static dielectric constant tensor:
#      x y z
#    x 2.135740 0.000000 -0.042800 
#    y 0.000000 2.135440 0.000000 
#    z -0.042800 0.000000 2.154180 
# 
# From -- ./inp_files/7566.got.cif
#   From: 2010.05.17/outbox.cif.g08.bks.cpg/sg4_4_cif.got.tgz:7566.got - 2010.06.03 18:43:04.
