data_PCOD9115161
_publ_section_title
;
Structure prediction by ZEFSAII (Michael W. Deem and Ramdas Pophale) SiO2 
 PCOD9115161
Probable space group: P 21
;
_chemical_formula_sum "Si O2"
_cell_formula_units_Z 16
_cell_length_a 8.176769
_cell_length_b 12.486382
_cell_length_c 7.549092
_cell_angle_alpha 90.000000
_cell_angle_beta 58.828832
_cell_angle_gamma 90.000000
_cell_volume 659.472125
_symmetry_space_group_name_H-M "P 21"
_symmetry_group_IT_number 4
_symmetry_cell_setting 'monoclinic'
loop_
_space_group_symop_operation_xyz
x,y,z
-x,1/2+y,-z
loop_
_atom_site_type_symbol
_atom_site_label
_atom_site_fract_x
_atom_site_fract_y
_atom_site_fract_z
Si Si1 0.156886 0.588700 0.559887
Si Si2 0.617960 0.881278 0.591791
Si Si3 0.831229 0.312497 0.768016
Si Si4 0.325487 0.017421 0.997251
Si Si5 0.688289 0.108236 0.933224
Si Si6 0.175163 0.176952 0.461391
Si Si7 0.270337 0.808298 0.588628
Si Si8 0.906075 0.522593 0.194260
O O1 0.222465 0.467651 0.561462
O O2 0.249341 0.602971 0.310392
O O3 0.239618 0.681317 0.640763
O O4 0.940087 0.628050 0.640354
O O5 0.477541 0.948995 0.795390
O O6 0.684965 0.774535 0.656907
O O7 0.487563 0.839719 0.505040
O O8 0.700267 0.234544 0.959540
O O9 0.775738 0.319372 0.592849
O O10 0.029447 0.250097 0.661597
O O11 0.815132 0.430716 0.843566
O O12 0.468438 0.070688 0.060554
O O13 0.196638 0.073817 0.919543
O O14 0.865497 0.045617 0.924983
O O15 0.203686 0.077061 0.576570
O O16 0.136774 0.895150 0.764071
#
# Coordination Sequence:
#
# PCOD9115161 Si02
#       8
#     2   2   2   2   2   2   2   2
#     4   8  18  32  53  82 112 141 185 234 283 335
#     4  10  20  34  59  88 106 153 198 232 286 345
#     4   9  20  38  53  83 113 149 183 240 285 341
#     4  10  20  37  59  80 114 147 195 228 286 345
#     4   8  18  36  57  73 115 153 181 220 300 337
#     4   9  20  34  62  77 119 149 191 235 296 333
#     4   9  19  33  59  81 117 140 193 242 279 336
#     4   9  19  36  60  82 108 158 190 229 289 340
#
# _framework density 24.26183
#
# number of rings (size 3 to 8) (size 9 to 14) (size 15 to 20)
#    0.000    3.500    0.000    0.000   17.500    0.000 
#    4.500    0.000    5.500    0.000    0.000    0.000 
#    0.000    0.000    0.000    0.000    0.000    0.000 
#
# Total GULP energy -89096.036438 kJ/mol
# GULP energy per Si atom -5568.502277 kJ/mol
# Density = 2.420661 g / cm^3
# Si number density = 24.261830 Si / 1000 Ang^3
#
#
#
# Elastic Constant Matrix: (Units=GPa)
#
#
# Indices 1 2 3 4 5 6 
#
# 1 92.2306 53.8857 19.0354 0.0000 -18.8362 0.0000
# 2 53.8857 134.7375 13.7576 0.0000 -2.4144 0.0000
# 3 19.0354 13.7576 30.6679 0.0000 -6.4818 0.0000
# 4 0.0000 0.0000 0.0000 27.3731 0.0000 3.8464
# 5 -18.8362 -2.4144 -6.4818 0.0000 30.5497 0.0000
# 6 0.0000 0.0000 0.0000 3.8464 0.0000 32.0764
#
#
#
# Elastic Compliance Matrix: (Units=1/GPa)
#
#
# Indices 1 2 3 4 5 6 
#
# 1 0.017629 -0.006253 -0.006224 0.000000 0.009055 0.000000
# 2 -0.006253 0.009996 -0.001310 0.000000 -0.003343 0.000000
# 3 -0.006224 -0.001310 0.037926 0.000000 0.004106 0.000000
# 4 0.000000 0.000000 0.000000 0.037158 0.000000 -0.004456
# 5 0.009055 -0.003343 0.004106 0.000000 0.038924 0.000000
# 6 0.000000 0.000000 0.000000 -0.004456 0.000000 0.031710
#
#
# Mechanical properties :
#
#
# Convention : Reuss Voigt Hill
#
# Bulk Modulus (GPa) = 26.33041 47.88817 37.10929
# Shear Modulus (GPa) = 23.41090 29.39699 26.40395
#
# Velocity S-wave (km/s) = 3.10970 3.48466 3.30251
# Velocity P-wave (km/s) = 4.87543 5.99762 5.46540
#
# Compressibility (1/GPa) = 0.03797890
#
# Stress axis : x y z
#
# Youngs Moduli (GPa) = 56.72342 100.03635 26.36731
#
# Poissons Ratio (x) = 0.62551 0.16410
# Poissons Ratio (y) = 0.35468 0.03454
# Poissons Ratio (z) = 0.35302 0.13104
#
# Static dielectric constant tensor:
#      x y z
#    x 2.034600 0.000000 -0.083170 
#    y 0.000000 2.016900 0.000000 
#    z -0.083170 0.000000 2.059770 
# 
# From -- ./inp_files/6417.got.cif
#   From: 2010.05.17/outbox.cif.g08.bks.cpg/sg4_4_cif.got.tgz:6417.got - 2010.06.03 18:43:04.
