data_PCOD9115457
_publ_section_title
;
Structure prediction by ZEFSAII (Michael W. Deem and Ramdas Pophale) SiO2 
 PCOD9115457
Probable space group: P 21
;
_chemical_formula_sum "Si O2"
_cell_formula_units_Z 14
_cell_length_a 11.592906
_cell_length_b 8.909580
_cell_length_c 11.596075
_cell_angle_alpha 90.000000
_cell_angle_beta 154.764964
_cell_angle_gamma 90.000000
_cell_volume 510.633156
_symmetry_space_group_name_H-M "P 21"
_symmetry_group_IT_number 4
_symmetry_cell_setting 'monoclinic'
loop_
_space_group_symop_operation_xyz
x,y,z
-x,1/2+y,-z
loop_
_atom_site_type_symbol
_atom_site_label
_atom_site_fract_x
_atom_site_fract_y
_atom_site_fract_z
Si Si1 0.066083 0.492460 0.186657
Si Si2 0.943476 0.827925 0.497633
Si Si3 0.980816 0.374056 0.868131
Si Si4 0.888558 0.641593 0.243005
Si Si5 0.602661 0.296359 0.717692
Si Si6 0.536602 0.475487 0.301214
Si Si7 0.556187 0.150795 0.995119
O O1 0.998970 0.627660 0.213662
O O2 0.350430 0.409231 0.466988
O O3 0.003938 0.500211 0.993931
O O4 0.824093 0.375455 0.999341
O O5 0.998855 0.992956 0.590701
O O6 0.987748 0.786619 0.403408
O O7 0.635072 0.778784 0.233763
O O8 0.140962 0.707100 0.734951
O O9 0.763561 0.271935 0.742294
O O10 0.818361 0.435518 0.613343
O O11 0.299029 0.361187 0.125027
O O12 0.570577 0.635240 0.990689
O O13 0.522185 0.137812 0.695376
O O14 0.504516 0.504102 0.135568
#
# Coordination Sequence:
#
# PCOD9115457 Si02
#       7
#     2   2   2   2   2   2   2
#     4  10  20  39  61  88 117 159 207 252 305 370
#     4  10  23  39  65  96 123 167 211 255 318 363
#     4  10  22  36  60  90 115 153 201 256 301 356
#     4  10  24  40  68  93 131 159 217 259 311 378
#     4  10  21  37  63  88 111 166 204 253 294 369
#     4  12  20  40  63  87 123 152 212 249 308 369
#     4  10  24  37  66  94 118 170 200 262 315 371
#
# _framework density 27.416945999999999
#
# number of rings (size 3 to 8) (size 9 to 14) (size 15 to 20)
#    1.714    0.000    1.429    3.429    4.000    0.000 
#    0.000    1.429    9.429    0.000    0.000    0.000 
#    0.000    0.000    0.000    0.000    0.000    0.000 
#
# Total GULP energy -78214.648001 kJ/mol
# GULP energy per Si atom -5586.760572 kJ/mol
# Density = 2.735454 g / cm^3
# Si number density = 27.416946 Si / 1000 Ang^3
#
#
#
# Elastic Constant Matrix: (Units=GPa)
#
#
# Indices 1 2 3 4 5 6 
#
# 1 152.9716 -11.0123 20.4432 0.0000 -2.3633 0.0000
# 2 -11.0123 30.8425 -0.5986 0.0000 5.1106 0.0000
# 3 20.4432 -0.5986 128.2783 0.0000 -0.0177 0.0000
# 4 0.0000 0.0000 0.0000 42.1848 0.0000 20.3186
# 5 -2.3633 5.1106 -0.0177 0.0000 11.7495 0.0000
# 6 0.0000 0.0000 0.0000 20.3186 0.0000 19.8891
#
#
#
# Elastic Compliance Matrix: (Units=1/GPa)
#
#
# Indices 1 2 3 4 5 6 
#
# 1 0.006858 0.002370 -0.001082 0.000000 0.000347 0.000000
# 2 0.002370 0.035764 -0.000213 0.000000 -0.015079 0.000000
# 3 -0.001082 -0.000213 0.007967 0.000000 -0.000113 0.000000
# 4 0.000000 0.000000 0.000000 0.046669 0.000000 -0.047677
# 5 0.000347 -0.015079 -0.000113 0.000000 0.091739 0.000000
# 6 0.000000 0.000000 0.000000 -0.047677 0.000000 0.098985
#
#
# Mechanical properties :
#
#
# Convention : Reuss Voigt Hill
#
# Bulk Modulus (GPa) = 18.96129 36.63964 27.80047
# Shear Modulus (GPa) = 16.47934 34.98202 25.73068
#
# Velocity S-wave (km/s) = 2.45432 3.57589 3.06681
# Velocity P-wave (km/s) = 3.86814 5.51744 4.76470
#
# Compressibility (1/GPa) = 0.05273903
#
# Stress axis : x y z
#
# Youngs Moduli (GPa) = 145.82129 27.96143 125.51868
#
# Poissons Ratio (x) = -0.06627 0.13578
# Poissons Ratio (y) = -0.34561 0.02672
# Poissons Ratio (z) = 0.15775 0.00595
#
# Static dielectric constant tensor:
#      x y z
#    x 2.303040 0.000000 -0.021680 
#    y 0.000000 2.317380 0.000000 
#    z -0.021680 0.000000 2.060610 
# 
# From -- ./inp_files/14233.got.cif
#   From: 2010.05.17/outbox.cif.g08.bks.cpg/sg4_8_cif.got.tgz:14233.got - 2010.06.03 18:43:04.
