data_PCOD9115556
_publ_section_title
;
Structure prediction by ZEFSAII (Michael W. Deem and Ramdas Pophale) SiO2 
 PCOD9115556
Probable space group: P 21
;
_chemical_formula_sum "Si O2"
_cell_formula_units_Z 14
_cell_length_a 5.604545
_cell_length_b 14.410414
_cell_length_c 7.768819
_cell_angle_alpha 90.000000
_cell_angle_beta 115.299698
_cell_angle_gamma 90.000000
_cell_volume 567.258472
_symmetry_space_group_name_H-M "P 21"
_symmetry_group_IT_number 4
_symmetry_cell_setting 'monoclinic'
loop_
_space_group_symop_operation_xyz
x,y,z
-x,1/2+y,-z
loop_
_atom_site_type_symbol
_atom_site_label
_atom_site_fract_x
_atom_site_fract_y
_atom_site_fract_z
Si Si1 0.160698 0.561960 0.496544
Si Si2 0.200657 0.818825 0.891184
Si Si3 0.488058 0.709471 0.444019
Si Si4 0.602009 0.555481 0.225154
Si Si5 0.963229 0.631220 0.802173
Si Si6 0.420019 0.370726 0.316214
Si Si7 0.386587 0.989683 0.143020
O O1 0.227169 0.652146 0.404522
O O2 0.902800 0.518638 0.332294
O O3 0.065111 0.598556 0.651210
O O4 0.407065 0.501200 0.638235
O O5 0.393270 0.829330 0.782984
O O6 0.153635 0.711645 0.928816
O O7 0.894554 0.851574 0.780365
O O8 0.331979 0.884781 0.072467
O O9 0.592588 0.658498 0.304082
O O10 0.682718 0.677322 0.660824
O O11 0.470581 0.817851 0.479875
O O12 0.448349 0.481538 0.296687
O O13 0.516008 0.540859 0.002683
O O14 0.881745 0.544368 0.891827
#
# Coordination Sequence:
#
# PCOD9115556 Si02
#       7
#     2   2   2   2   2   2   2
#     4  10  20  40  66  88 130 170 212 262 328 378
#     4  10  21  39  67  97 127 175 218 260 325 391
#     4   9  19  38  65  91 127 173 213 261 326 385
#     4  10  23  38  70  95 126 169 221 267 321 383
#     4   9  19  38  65  91 127 173 213 261 326 385
#     4  10  21  39  67  97 127 175 218 260 325 391
#     4  10  23  38  70  95 126 169 221 267 321 383
#
# _framework density 24.680109000000002
#
# number of rings (size 3 to 8) (size 9 to 14) (size 15 to 20)
#    0.000    2.286    1.429    0.000    8.000    0.000 
#    0.000    0.000   25.143    0.000    0.000    0.000 
#    0.000    0.000    0.000    0.000    0.000    0.000 
#
# Total GULP energy -78085.869020 kJ/mol
# GULP energy per Si atom -5577.562073 kJ/mol
# Density = 2.462394 g / cm^3
# Si number density = 24.680109 Si / 1000 Ang^3
#
#
#
# Elastic Constant Matrix: (Units=GPa)
#
#
# Indices 1 2 3 4 5 6 
#
# 1 126.3916 20.5752 30.8533 0.0000 0.2548 0.0000
# 2 20.5752 49.1829 -5.0912 0.0000 3.8147 0.0000
# 3 30.8533 -5.0912 103.7159 0.0000 5.4266 0.0000
# 4 0.0000 0.0000 0.0000 28.1524 0.0000 -5.2324
# 5 0.2548 3.8147 5.4266 0.0000 35.5706 0.0000
# 6 0.0000 0.0000 0.0000 -5.2324 0.0000 37.2658
#
#
#
# Elastic Compliance Matrix: (Units=1/GPa)
#
#
# Indices 1 2 3 4 5 6 
#
# 1 0.009350 -0.004292 -0.003037 0.000000 0.000857 0.000000
# 2 -0.004292 0.022606 0.002532 0.000000 -0.002780 0.000000
# 3 -0.003037 0.002532 0.010768 0.000000 -0.001893 0.000000
# 4 0.000000 0.000000 0.000000 0.036473 0.000000 0.005121
# 5 0.000857 -0.002780 -0.001893 0.000000 0.028694 0.000000
# 6 0.000000 0.000000 0.000000 0.005121 0.000000 0.027553
#
#
# Mechanical properties :
#
#
# Convention : Reuss Voigt Hill
#
# Bulk Modulus (GPa) = 30.18453 41.32944 35.75699
# Shear Modulus (GPa) = 32.03434 35.72796 33.88115
#
# Velocity S-wave (km/s) = 3.60666 3.80892 3.70917
# Velocity P-wave (km/s) = 5.44067 6.01051 5.73267
#
# Compressibility (1/GPa) = 0.03312955
#
# Stress axis : x y z
#
# Youngs Moduli (GPa) = 106.94815 44.23666 92.86348
#
# Poissons Ratio (x) = 0.18988 0.28203
# Poissons Ratio (y) = 0.45907 -0.23513
# Poissons Ratio (z) = 0.32481 -0.11201
#
# Static dielectric constant tensor:
#      x y z
#    x 2.045510 0.000000 0.055950 
#    y 0.000000 2.111390 0.000000 
#    z 0.055950 0.000000 1.956160 
# 
# From -- ./inp_files/1639.got.cif
#   From: 2010.05.17/outbox.cif.g08.bks.cpg/sg4_1_cif.got.tgz:1639.got - 2010.06.03 18:43:04.
