data_PCOD9115057
_publ_section_title
;
Structure prediction by ZEFSAII (Michael W. Deem and Ramdas Pophale) SiO2 
 PCOD9115057
Probable space group: P 21
;
_chemical_formula_sum "Si O2"
_cell_formula_units_Z 16
_cell_length_a 6.323720
_cell_length_b 11.834999
_cell_length_c 11.801856
_cell_angle_alpha 90.000000
_cell_angle_beta 130.544975
_cell_angle_gamma 90.000000
_cell_volume 671.189715
_symmetry_space_group_name_H-M "P 21"
_symmetry_group_IT_number 4
_symmetry_cell_setting 'monoclinic'
loop_
_space_group_symop_operation_xyz
x,y,z
-x,1/2+y,-z
loop_
_atom_site_type_symbol
_atom_site_label
_atom_site_fract_x
_atom_site_fract_y
_atom_site_fract_z
Si Si1 0.925330 0.993180 0.567411
Si Si2 0.721517 0.959909 0.073921
Si Si3 0.508392 0.607704 0.213071
Si Si4 0.298930 0.791784 0.987755
Si Si5 0.276069 0.809385 0.570485
Si Si6 0.828259 0.937450 0.785715
Si Si7 0.707845 0.464886 0.632701
Si Si8 0.862972 0.136895 0.280857
O O1 0.935050 0.940294 0.695642
O O2 0.595824 0.004359 0.434744
O O3 0.162176 0.091192 0.653522
O O4 0.040001 0.897754 0.524933
O O5 0.054504 0.952202 0.190150
O O6 0.668737 0.032571 0.171336
O O7 0.583187 0.026071 0.922888
O O8 0.577375 0.840391 0.029711
O O9 0.315488 0.558008 0.244361
O O10 0.400902 0.726800 0.133772
O O11 0.152876 0.715700 0.838085
O O12 0.090270 0.892797 0.944790
O O13 0.577167 0.850913 0.717639
O O14 0.301272 0.847854 0.445254
O O15 0.212689 0.701392 0.629824
O O16 0.839017 0.572676 0.608789
#
# Coordination Sequence:
#
# PCOD9115057 Si02
#       8
#     2   2   2   2   2   2   2   2
#     4  10  19  42  62  87 125 170 212 268 312 397
#     4   9  20  41  59  95 128 157 219 271 305 401
#     4  10  21  38  65  90 125 173 212 269 332 371
#     4  11  19  40  65  90 132 170 211 271 331 374
#     4  10  19  40  66  84 124 173 210 260 322 379
#     4  10  20  36  63  92 118 167 222 251 322 398
#     4   9  22  41  60  95 128 162 223 261 316 399
#     4   9  20  40  64  91 126 170 211 263 332 369
#
# _framework density 23.838266999999998
#
# number of rings (size 3 to 8) (size 9 to 14) (size 15 to 20)
#    0.750    1.500    2.500    0.750    0.000    1.000 
#   15.750    0.000    0.000    0.000    0.000    0.000 
#    0.000    0.000    0.000    0.000    0.000    0.000 
#
# Total GULP energy -89067.791606 kJ/mol
# GULP energy per Si atom -5566.736975 kJ/mol
# Density = 2.378401 g / cm^3
# Si number density = 23.838267 Si / 1000 Ang^3
#
#
#
# Elastic Constant Matrix: (Units=GPa)
#
#
# Indices 1 2 3 4 5 6 
#
# 1 67.6518 4.6391 32.5188 0.0000 11.8265 0.0000
# 2 4.6391 18.2724 10.1118 0.0000 -1.0855 0.0000
# 3 32.5188 10.1118 113.1699 0.0000 21.6663 0.0000
# 4 0.0000 0.0000 0.0000 31.2848 0.0000 -1.2896
# 5 11.8265 -1.0855 21.6663 0.0000 40.9205 0.0000
# 6 0.0000 0.0000 0.0000 -1.2896 0.0000 15.1898
#
#
#
# Elastic Compliance Matrix: (Units=1/GPa)
#
#
# Indices 1 2 3 4 5 6 
#
# 1 0.017491 -0.002241 -0.004280 0.000000 -0.002848 0.000000
# 2 -0.002241 0.058696 -0.005589 0.000000 0.005164 0.000000
# 3 -0.004280 -0.005589 0.011525 0.000000 -0.005014 0.000000
# 4 0.000000 0.000000 0.000000 0.032077 0.000000 0.002723
# 5 -0.002848 0.005164 -0.005014 0.000000 0.028052 0.000000
# 6 0.000000 0.000000 0.000000 0.002723 0.000000 0.066065
#
#
# Mechanical properties :
#
#
# Convention : Reuss Voigt Hill
#
# Bulk Modulus (GPa) = 15.75029 32.62594 24.18812
# Shear Modulus (GPa) = 19.28335 27.60064 23.44199
#
# Velocity S-wave (km/s) = 2.84724 3.40638 3.13929
# Velocity P-wave (km/s) = 4.17499 5.40253 4.82793
#
# Compressibility (1/GPa) = 0.06349088
#
# Stress axis : x y z
#
# Youngs Moduli (GPa) = 57.17358 17.03689 86.76448
#
# Poissons Ratio (x) = 0.03818 0.37138
# Poissons Ratio (y) = 0.12813 0.48495
# Poissons Ratio (z) = 0.24472 0.09522
#
# Static dielectric constant tensor:
#      x y z
#    x 1.968780 0.000000 -0.043800 
#    y 0.000000 2.009630 0.000000 
#    z -0.043800 0.000000 1.902210 
# 
# From -- ./inp_files/13398.got.cif
#   From: 2010.05.17/outbox.cif.g08.bks.cpg/sg4_7_cif.got.tgz:13398.got - 2010.06.03 18:43:04.
