data_PCOD9115683
_publ_section_title
;
Structure prediction by ZEFSAII (Michael W. Deem and Ramdas Pophale) SiO2 
 PCOD9115683
Probable space group: P 21
;
_chemical_formula_sum "Si O2"
_cell_formula_units_Z 16
_cell_length_a 19.528981
_cell_length_b 7.162326
_cell_length_c 9.719956
_cell_angle_alpha 90.000000
_cell_angle_beta 28.936155
_cell_angle_gamma 90.000000
_cell_volume 657.801716
_symmetry_space_group_name_H-M "P 21"
_symmetry_group_IT_number 4
_symmetry_cell_setting 'monoclinic'
loop_
_space_group_symop_operation_xyz
x,y,z
-x,1/2+y,-z
loop_
_atom_site_type_symbol
_atom_site_label
_atom_site_fract_x
_atom_site_fract_y
_atom_site_fract_z
Si Si1 0.248196 0.611850 0.293917
Si Si2 0.464521 0.451655 0.735903
Si Si3 0.237492 0.371312 0.705695
Si Si4 0.020564 0.971985 0.366065
Si Si5 0.326230 0.144497 0.814135
Si Si6 0.996386 0.555615 0.299619
Si Si7 0.726895 0.687147 0.636055
Si Si8 0.592208 0.202744 0.730970
O O1 0.264155 0.398434 0.319637
O O2 0.302009 0.732177 0.327293
O O3 0.088020 0.611301 0.521527
O O4 0.362223 0.615799 0.969900
O O5 0.370152 0.272812 0.863161
O O6 0.550316 0.506050 0.449750
O O7 0.568682 0.378360 0.672295
O O8 0.303448 0.272036 0.720722
O O9 0.221148 0.221119 0.611745
O O10 0.341837 0.533104 0.470456
O O11 0.093782 0.469297 0.009881
O O12 0.970051 0.958368 0.613056
O O13 0.025849 0.774295 0.279778
O O14 0.178829 0.044928 0.098259
O O15 0.834047 0.560648 0.535142
O O16 0.560848 0.642735 0.940496
#
# Coordination Sequence:
#
# PCOD9115683 Si02
#       8
#     2   2   2   2   2   2   2   2
#     4   9  20  39  63  91 126 168 216 270 327 393
#     4  11  23  42  67  95 131 171 222 278 334 401
#     4  11  23  41  65  98 135 174 227 281 336 406
#     4  11  23  43  67  97 138 182 226 276 340 403
#     4  12  25  42  65  99 136 176 224 278 340 404
#     4  11  23  43  69  99 137 180 228 281 336 400
#     4   9  21  40  63  93 131 171 216 272 333 397
#     4  10  20  42  67  94 130 172 223 278 336 398
#
# _framework density 24.323440000000002
#
# number of rings (size 3 to 8) (size 9 to 14) (size 15 to 20)
#    0.000    1.500    0.000    6.000    0.000    4.000 
#    0.000   20.000    0.000    0.000    0.000    0.000 
#    0.000    0.000    0.000    0.000    0.000    0.000 
#
# Total GULP energy -89596.968157 kJ/mol
# GULP energy per Si atom -5599.810510 kJ/mol
# Density = 2.426808 g / cm^3
# Si number density = 24.323440 Si / 1000 Ang^3
#
#
#
# Elastic Constant Matrix: (Units=GPa)
#
#
# Indices 1 2 3 4 5 6 
#
# 1 103.6400 19.1864 21.1279 0.0000 6.3720 0.0000
# 2 19.1864 29.2436 -0.6903 0.0000 -7.7357 0.0000
# 3 21.1279 -0.6903 91.8141 0.0000 8.3901 0.0000
# 4 0.0000 0.0000 0.0000 27.7684 0.0000 -5.1728
# 5 6.3720 -7.7357 8.3901 0.0000 37.1795 0.0000
# 6 0.0000 0.0000 0.0000 -5.1728 0.0000 40.3969
#
#
#
# Elastic Compliance Matrix: (Units=1/GPa)
#
#
# Indices 1 2 3 4 5 6 
#
# 1 0.011998 -0.008810 -0.002524 0.000000 -0.003320 0.000000
# 2 -0.008810 0.042672 0.001428 0.000000 0.010066 0.000000
# 3 -0.002524 0.001428 0.011657 0.000000 -0.001901 0.000000
# 4 0.000000 0.000000 0.000000 0.036892 0.000000 0.004724
# 5 -0.003320 0.010066 -0.001901 0.000000 0.029989 0.000000
# 6 0.000000 0.000000 0.000000 0.004724 0.000000 0.025359
#
#
# Mechanical properties :
#
#
# Convention : Reuss Voigt Hill
#
# Bulk Modulus (GPa) = 21.49786 33.77176 27.63481
# Shear Modulus (GPa) = 25.78871 33.40720 29.59795
#
# Velocity S-wave (km/s) = 3.25967 3.71004 3.49212
# Velocity P-wave (km/s) = 4.79841 5.68041 5.25794
#
# Compressibility (1/GPa) = 0.04651626
#
# Stress axis : x y z
#
# Youngs Moduli (GPa) = 83.34523 23.43468 85.78689
#
# Poissons Ratio (x) = 0.20645 0.21651
# Poissons Ratio (y) = 0.73424 -0.12252
# Poissons Ratio (z) = 0.21035 -0.03347
#
# Static dielectric constant tensor:
#      x y z
#    x 1.930720 0.000000 0.023150 
#    y 0.000000 1.991690 0.000000 
#    z 0.023150 0.000000 1.975750 
# 
# From -- ./inp_files/9666.got.cif
#   From: 2010.05.17/outbox.cif.g08.bks.cpg/sg4_5_cif.got.tgz:9666.got - 2010.06.03 18:43:04.
