data_PCOD9115453
_publ_section_title
;
Structure prediction by ZEFSAII (Michael W. Deem and Ramdas Pophale) SiO2 
 PCOD9115453
Probable space group: P 21
;
_chemical_formula_sum "Si O2"
_cell_formula_units_Z 10
_cell_length_a 6.455484
_cell_length_b 11.358194
_cell_length_c 9.931306
_cell_angle_alpha 90.000000
_cell_angle_beta 44.213588
_cell_angle_gamma 90.000000
_cell_volume 507.792149
_symmetry_space_group_name_H-M "P 21"
_symmetry_group_IT_number 4
_symmetry_cell_setting 'monoclinic'
loop_
_space_group_symop_operation_xyz
x,y,z
-x,1/2+y,-z
loop_
_atom_site_type_symbol
_atom_site_label
_atom_site_fract_x
_atom_site_fract_y
_atom_site_fract_z
Si Si1 0.781591 0.463710 0.615007
Si Si2 0.432573 0.319160 0.583322
Si Si3 0.698558 0.128936 0.656847
Si Si4 0.413968 0.366844 0.291752
Si Si5 0.730305 0.309702 0.878433
O O1 0.550425 0.436173 0.605209
O O2 0.659537 0.423785 0.816841
O O3 0.960025 0.585775 0.526984
O O4 0.054715 0.371053 0.462152
O O5 0.568890 0.209866 0.600027
O O6 0.520063 0.319595 0.385938
O O7 0.076877 0.316366 0.754761
O O8 0.677418 0.198911 0.805975
O O9 0.517411 0.006714 0.747030
O O10 0.541143 0.306297 0.101515
#
# Coordination Sequence:
#
# PCOD9115453 Si02
#       5
#     2   2   2   2   2
#     4   8  20  40  58  78 123 150 187 238 289 339
#     4  10  20  39  61  85 116 151 199 237 281 348
#     4   9  21  40  59  83 123 157 183 236 302 334
#     4   9  21  40  57  86 119 151 193 239 281 344
#     4  10  20  39  59  88 115 151 198 238 279 347
#
# _framework density 19.693097999999999
#
# number of rings (size 3 to 8) (size 9 to 14) (size 15 to 20)
#    1.200    1.600    0.000    0.000    2.800    3.200 
#   14.400    0.000    0.000    0.000    0.000    0.000 
#    0.000    0.000    0.000    0.000    0.000    0.000 
#
# Total GULP energy -55699.036222 kJ/mol
# GULP energy per Si atom -5569.903622 kJ/mol
# Density = 1.964828 g / cm^3
# Si number density = 19.693098 Si / 1000 Ang^3
#
#
#
# Elastic Constant Matrix: (Units=GPa)
#
#
# Indices 1 2 3 4 5 6 
#
# 1 108.3319 23.2678 47.5387 0.0000 28.9570 0.0000
# 2 23.2678 49.5551 1.2015 0.0000 5.7605 0.0000
# 3 47.5387 1.2015 88.9826 0.0000 26.3527 0.0000
# 4 0.0000 0.0000 0.0000 22.1400 0.0000 -0.8638
# 5 28.9570 5.7605 26.3527 0.0000 20.1971 0.0000
# 6 0.0000 0.0000 0.0000 -0.8638 0.0000 20.8166
#
#
#
# Elastic Compliance Matrix: (Units=1/GPa)
#
#
# Indices 1 2 3 4 5 6 
#
# 1 0.016792 -0.005743 -0.003665 0.000000 -0.017655 0.000000
# 2 -0.005743 0.023159 0.003705 0.000000 -0.003205 0.000000
# 3 -0.003665 0.003705 0.019399 0.000000 -0.021114 0.000000
# 4 0.000000 0.000000 0.000000 0.045240 0.000000 0.001877
# 5 -0.017655 -0.003205 -0.021114 0.000000 0.103288 0.000000
# 6 0.000000 0.000000 0.000000 0.001877 0.000000 0.048117
#
#
# Mechanical properties :
#
#
# Convention : Reuss Voigt Hill
#
# Bulk Modulus (GPa) = 20.85793 43.43172 32.14483
# Shear Modulus (GPa) = 17.64405 24.28817 20.96611
#
# Velocity S-wave (km/s) = 2.99649 3.51570 3.26643
# Velocity P-wave (km/s) = 4.75252 6.21147 5.53031
#
# Compressibility (1/GPa) = 0.04794339
#
# Stress axis : x y z
#
# Youngs Moduli (GPa) = 59.55301 43.17991 51.54906
#
# Poissons Ratio (x) = 0.24799 0.18892
# Poissons Ratio (y) = 0.34202 -0.19098
# Poissons Ratio (z) = 0.21825 -0.15997
#
# Static dielectric constant tensor:
#      x y z
#    x 1.678610 0.000000 -0.008890 
#    y 0.000000 1.765050 0.000000 
#    z -0.008890 0.000000 1.675700 
# 
# From -- ./inp_files/203.got.cif
#   From: 2010.05.17/outbox.cif.g08.bks.cpg/sg4_1_cif.got.tgz:203.got - 2010.06.03 18:43:04.
