data_PCOD9115013
_publ_section_title
;
Structure prediction by ZEFSAII (Michael W. Deem and Ramdas Pophale) SiO2 
 PCOD9115013
Probable space group: P 21
;
_chemical_formula_sum "Si O2"
_cell_formula_units_Z 16
_cell_length_a 9.424360
_cell_length_b 12.545533
_cell_length_c 11.514078
_cell_angle_alpha 90.000000
_cell_angle_beta 141.079432
_cell_angle_gamma 90.000000
_cell_volume 855.258479
_symmetry_space_group_name_H-M "P 21"
_symmetry_group_IT_number 4
_symmetry_cell_setting 'monoclinic'
loop_
_space_group_symop_operation_xyz
x,y,z
-x,1/2+y,-z
loop_
_atom_site_type_symbol
_atom_site_label
_atom_site_fract_x
_atom_site_fract_y
_atom_site_fract_z
Si Si1 0.617262 0.595580 0.941966
Si Si2 0.048578 0.979648 0.008367
Si Si3 0.159844 0.489667 0.666769
Si Si4 0.884224 0.583407 0.705868
Si Si5 0.732283 0.537991 0.264448
Si Si6 0.806797 0.255425 0.999635
Si Si7 0.576024 0.062739 0.722591
Si Si8 0.363198 0.264264 0.863873
O O1 0.802140 0.567347 0.964894
O O2 0.664521 0.523912 0.088091
O O3 0.632784 0.715160 0.003540
O O4 0.367175 0.558693 0.748602
O O5 0.784242 0.992825 0.811096
O O6 0.081722 0.002364 0.165688
O O7 0.137146 0.865883 0.024573
O O8 0.243170 0.374858 0.763226
O O9 0.048342 0.549854 0.705078
O O10 0.960658 0.481374 0.446067
O O11 0.629742 0.580378 0.496413
O O12 0.973887 0.696591 0.809287
O O13 0.535926 0.513151 0.231579
O O14 0.756426 0.667700 0.284850
O O15 0.691766 0.173089 0.836189
O O16 0.618443 0.269239 0.979417
#
# Coordination Sequence:
#
# PCOD9115013 Si02
#       8
#     2   2   2   2   2   2   2   2
#     4  10  20  37  56  91 118 143 197 249 280 349
#     4  11  22  36  61  88 119 152 193 247 298 349
#     4  11  18  38  64  80 117 160 192 243 299 336
#     4  10  22  39  62  83 120 161 192 241 296 362
#     4   8  20  39  56  84 117 152 198 242 284 348
#     4  10  19  39  60  86 115 157 197 239 302 351
#     4   9  20  40  59  81 120 153 196 241 285 363
#     4   9  19  38  58  89 116 150 201 242 292 344
#
# _framework density 18.707795999999998
#
# number of rings (size 3 to 8) (size 9 to 14) (size 15 to 20)
#    0.750    1.500    2.500    0.750    0.000    4.000 
#    9.000    1.250    2.750    0.000    0.000    0.000 
#    0.000    0.000    0.000    0.000    0.000    0.000 
#
# Total GULP energy -89160.998750 kJ/mol
# GULP energy per Si atom -5572.562422 kJ/mol
# Density = 1.866522 g / cm^3
# Si number density = 18.707796 Si / 1000 Ang^3
#
#
#
# Elastic Constant Matrix: (Units=GPa)
#
#
# Indices 1 2 3 4 5 6 
#
# 1 42.2767 -16.1213 27.0599 0.0000 13.1458 0.0000
# 2 -16.1213 26.3527 4.3791 0.0000 6.2425 0.0000
# 3 27.0599 4.3791 90.1828 0.0000 21.1176 0.0000
# 4 0.0000 0.0000 0.0000 17.5311 0.0000 8.1037
# 5 13.1458 6.2425 21.1176 0.0000 25.9394 0.0000
# 6 0.0000 0.0000 0.0000 8.1037 0.0000 23.9716
#
#
#
# Elastic Compliance Matrix: (Units=1/GPa)
#
#
# Indices 1 2 3 4 5 6 
#
# 1 0.058064 0.044704 -0.012582 0.000000 -0.029942 0.000000
# 2 0.044704 0.074670 -0.009299 0.000000 -0.033055 0.000000
# 3 -0.012582 -0.009299 0.016431 0.000000 -0.004762 0.000000
# 4 0.000000 0.000000 0.000000 0.067606 0.000000 -0.022855
# 5 -0.029942 -0.033055 -0.004762 0.000000 0.065557 0.000000
# 6 0.000000 0.000000 0.000000 -0.022855 0.000000 0.049442
#
#
# Mechanical properties :
#
#
# Convention : Reuss Voigt Hill
#
# Bulk Modulus (GPa) = 5.13318 21.04973 13.09145
# Shear Modulus (GPa) = 14.24252 23.05473 18.64863
#
# Velocity S-wave (km/s) = 2.76219 3.51431 3.16070
# Velocity P-wave (km/s) = 3.59482 5.26720 4.50922
#
# Compressibility (1/GPa) = 0.19481112
#
# Stress axis : x y z
#
# Youngs Moduli (GPa) = 17.22226 13.39223 60.86232
#
# Poissons Ratio (x) = -0.59869 0.76577
# Poissons Ratio (y) = -0.76991 0.56598
# Poissons Ratio (z) = 0.21669 0.12454
#
# Static dielectric constant tensor:
#      x y z
#    x 1.647510 0.000000 -0.004640 
#    y 0.000000 1.658050 0.000000 
#    z -0.004640 0.000000 1.647620 
# 
# From -- ./inp_files/11299.got.cif
#   From: 2010.05.17/outbox.cif.g08.bks.cpg/sg4_6_cif.got.tgz:11299.got - 2010.06.03 18:43:04.
