data_PCOD9115693
_publ_section_title
;
Structure prediction by ZEFSAII (Michael W. Deem and Ramdas Pophale) SiO2 
 PCOD9115693
Probable space group: P 21
;
_chemical_formula_sum "Si O2"
_cell_formula_units_Z 16
_cell_length_a 5.302595
_cell_length_b 11.439597
_cell_length_c 10.914697
_cell_angle_alpha 90.000000
_cell_angle_beta 98.126456
_cell_angle_gamma 90.000000
_cell_volume 655.432319
_symmetry_space_group_name_H-M "P 21"
_symmetry_group_IT_number 4
_symmetry_cell_setting 'monoclinic'
loop_
_space_group_symop_operation_xyz
x,y,z
-x,1/2+y,-z
loop_
_atom_site_type_symbol
_atom_site_label
_atom_site_fract_x
_atom_site_fract_y
_atom_site_fract_z
Si Si1 0.974990 0.083480 0.480035
Si Si2 0.776503 0.857267 0.136134
Si Si3 0.653194 0.410894 0.553458
Si Si4 0.036141 0.507839 0.052578
Si Si5 0.654789 0.713707 0.341061
Si Si6 0.478997 0.154165 0.009450
Si Si7 0.336118 0.498960 0.313729
Si Si8 0.575418 0.081813 0.267185
O O1 0.197891 0.170274 0.530208
O O2 0.822879 0.069016 0.595161
O O3 0.813185 0.131909 0.357454
O O4 0.060583 0.949138 0.458438
O O5 0.839884 0.773319 0.254380
O O6 0.664710 0.971467 0.192474
O O7 0.567559 0.780726 0.051290
O O8 0.973863 0.904547 0.049700
O O9 0.560915 0.303034 0.627377
O O10 0.499506 0.413013 0.413546
O O11 0.588647 0.522422 0.637224
O O12 0.151403 0.463106 0.190206
O O13 0.253150 0.598785 0.016994
O O14 0.764875 0.572067 0.040014
O O15 0.532651 0.596433 0.277280
O O16 0.466692 0.165579 0.156849
#
# Coordination Sequence:
#
# PCOD9115693 Si02
#       8
#     2   2   2   2   2   2   2   2
#     4  10  21  40  68  94 137 176 232 293 347 409
#     4  10  22  44  70 101 134 186 234 279 357 415
#     4   9  21  38  64  94 130 178 223 286 348 413
#     4  11  25  43  68 104 140 180 235 291 341 413
#     4  10  20  42  69  97 127 177 238 274 357 419
#     4  11  24  44  70 100 140 186 233 288 345 414
#     4  10  21  40  63  96 135 176 224 288 341 407
#     4   9  22  41  66 100 135 181 229 293 342 416
#
# _framework density 24.411372
#
# number of rings (size 3 to 8) (size 9 to 14) (size 15 to 20)
#    0.000    2.000    1.250    0.750    5.250    6.000 
#   11.250    2.500    0.000    0.000    0.000    0.000 
#    0.000    0.000    0.000    0.000    0.000    0.000 
#
# Total GULP energy -89299.699299 kJ/mol
# GULP energy per Si atom -5581.231206 kJ/mol
# Density = 2.435581 g / cm^3
# Si number density = 24.411372 Si / 1000 Ang^3
#
#
#
# Elastic Constant Matrix: (Units=GPa)
#
#
# Indices 1 2 3 4 5 6 
#
# 1 70.1945 2.3230 31.2736 0.0000 5.7559 0.0000
# 2 2.3230 19.4496 37.8812 0.0000 6.3764 0.0000
# 3 31.2736 37.8812 166.0005 0.0000 -2.0827 0.0000
# 4 0.0000 0.0000 0.0000 26.0669 0.0000 6.1302
# 5 5.7559 6.3764 -2.0827 0.0000 20.9998 0.0000
# 6 0.0000 0.0000 0.0000 6.1302 0.0000 16.3952
#
#
#
# Elastic Compliance Matrix: (Units=1/GPa)
#
#
# Indices 1 2 3 4 5 6 
#
# 1 0.017523 0.013954 -0.006607 0.000000 -0.009695 0.000000
# 2 0.013954 0.127842 -0.032378 0.000000 -0.045854 0.000000
# 3 -0.006607 -0.032378 0.014822 0.000000 0.013112 0.000000
# 4 0.000000 0.000000 0.000000 0.042061 0.000000 -0.015727
# 5 -0.009695 -0.045854 0.013112 0.000000 0.065501 0.000000
# 6 0.000000 0.000000 0.000000 -0.015727 0.000000 0.066874
#
#
# Mechanical properties :
#
#
# Convention : Reuss Voigt Hill
#
# Bulk Modulus (GPa) = 9.08051 44.28892 26.68472
# Shear Modulus (GPa) = 11.86542 24.97016 18.41779
#
# Velocity S-wave (km/s) = 2.20707 3.20174 2.74975
# Velocity P-wave (km/s) = 3.19730 5.64360 4.58656
#
# Compressibility (1/GPa) = 0.11012593
#
# Stress axis : x y z
#
# Youngs Moduli (GPa) = 57.06767 7.82215 67.46757
#
# Poissons Ratio (x) = -0.10915 0.44578
# Poissons Ratio (y) = -0.79635 2.18445
# Poissons Ratio (z) = 0.37706 0.25326
#
# Static dielectric constant tensor:
#      x y z
#    x 2.002310 0.000000 0.002020 
#    y 0.000000 1.976050 0.000000 
#    z 0.002020 0.000000 1.980020 
# 
# From -- ./inp_files/10414.got.cif
#   From: 2010.05.17/outbox.cif.g08.bks.cpg/sg4_6_cif.got.tgz:10414.got - 2010.06.03 18:43:04.
