data_PCOD9115974
_publ_section_title
;
Structure prediction by ZEFSAII (Michael W. Deem and Ramdas Pophale) SiO2 
 PCOD9115974
Probable space group: P 21
;
_chemical_formula_sum "Si O2"
_cell_formula_units_Z 16
_cell_length_a 6.944041
_cell_length_b 5.718463
_cell_length_c 18.294035
_cell_angle_alpha 90.000000
_cell_angle_beta 123.306277
_cell_angle_gamma 90.000000
_cell_volume 607.122086
_symmetry_space_group_name_H-M "P 21"
_symmetry_group_IT_number 4
_symmetry_cell_setting 'monoclinic'
loop_
_space_group_symop_operation_xyz
x,y,z
-x,1/2+y,-z
loop_
_atom_site_type_symbol
_atom_site_label
_atom_site_fract_x
_atom_site_fract_y
_atom_site_fract_z
Si Si1 0.748234 0.819450 0.115011
Si Si2 0.290160 0.411789 0.687056
Si Si3 0.767832 0.318438 0.861306
Si Si4 0.114847 0.334746 0.104432
Si Si5 0.196387 0.973859 0.378346
Si Si6 0.575170 0.791488 0.693983
Si Si7 0.635779 0.686147 0.449249
Si Si8 0.358149 0.820026 0.913826
O O1 0.681194 0.567538 0.135105
O O2 0.015744 0.823661 0.149663
O O3 0.681273 0.071902 0.134935
O O4 0.596223 0.818491 0.008163
O O5 0.521509 0.303644 0.770169
O O6 0.365599 0.680763 0.696058
O O7 0.262744 0.334631 0.596643
O O8 0.055280 0.364040 0.680422
O O9 0.791904 0.580270 0.901145
O O10 0.818311 0.083079 0.918510
O O11 0.242100 0.374156 0.208934
O O12 0.846631 0.323781 0.068257
O O13 0.406983 0.799148 0.436549
O O14 0.281431 0.106632 0.324470
O O15 0.191094 0.136527 0.449069
O O16 0.462822 0.963335 0.613350
#
# Coordination Sequence:
#
# PCOD9115974 Si02
#       8
#     2   2   2   2   2   2   2   2
#     4   8  13  21  38  63 104 131 171 217 266 307
#     4  10  23  36  57  79 105 142 185 220 285 333
#     4   9  16  30  47  75 104 142 176 227 270 323
#     4   9  16  29  50  70 108 141 180 221 274 321
#     4  11  24  38  55  80 106 139 184 227 280 338
#     4  10  21  39  54  76 109 140 177 228 278 324
#     4  11  22  38  54  76 106 138 175 232 277 328
#     4   8  13  21  37  67  96 139 170 214 264 316
#
# _framework density 26.353843999999999
#
# number of rings (size 3 to 8) (size 9 to 14) (size 15 to 20)
#    0.000    2.500    2.500    0.000    1.750    1.000 
#    0.000    0.000    0.000    0.000    0.000    0.000 
#    3.750    0.250    0.000    0.000    0.500    0.000 
#
# Total GULP energy -89444.880102 kJ/mol
# GULP energy per Si atom -5590.305006 kJ/mol
# Density = 2.629386 g / cm^3
# Si number density = 26.353844 Si / 1000 Ang^3
#
#
#
# Elastic Constant Matrix: (Units=GPa)
#
#
# Indices 1 2 3 4 5 6 
#
# 1 131.8536 16.5417 21.4525 0.0000 25.7013 0.0000
# 2 16.5417 163.6927 17.3280 0.0000 -1.9271 0.0000
# 3 21.4525 17.3280 104.3966 0.0000 9.3032 0.0000
# 4 0.0000 0.0000 0.0000 31.9003 0.0000 16.8911
# 5 25.7013 -1.9271 9.3032 0.0000 38.8812 0.0000
# 6 0.0000 0.0000 0.0000 16.8911 0.0000 -0.0080
#
#
#
# Elastic Compliance Matrix: (Units=1/GPa)
#
#
# Indices 1 2 3 4 5 6 
#
# 1 0.008997 -0.000849 -0.001200 0.000000 -0.005703 0.000000
# 2 -0.000849 0.006311 -0.000972 0.000000 0.001107 0.000000
# 3 -0.001200 -0.000972 0.010136 0.000000 -0.001680 0.000000
# 4 0.000000 0.000000 0.000000 0.000028 0.000000 0.059149
# 5 -0.005703 0.001107 -0.001680 0.000000 0.029946 0.000000
# 6 0.000000 0.000000 0.000000 0.059149 0.000000 -0.111709
#
#
# Mechanical properties :
#
#
# Convention : Reuss Voigt Hill
#
# Bulk Modulus (GPa) = 51.53764 56.73193 54.13478
# Shear Modulus (GPa) = -114.20489 37.12942 -38.53774
#
# Velocity S-wave (km/s) = -6.59009 3.75758 -3.82818
# Velocity P-wave (km/s) = 6.18928 6.35607 1.02283
#
# Compressibility (1/GPa) = 0.01940329
#
# Stress axis : x y z
#
# Youngs Moduli (GPa) = 111.14214 158.46070 98.65435
#
# Poissons Ratio (x) = 0.13459 0.11836
# Poissons Ratio (y) = 0.09440 0.09585
# Poissons Ratio (z) = 0.13334 0.15395
#
# Static dielectric constant tensor:
#      x y z
#    x 1.994500 0.000000 -0.003040 
#    y 0.000000 2.216840 0.000000 
#    z -0.003040 0.000000 1.996210 
# 
# From -- ./inp_files/4179.got.cif
#   From: 2010.05.17/outbox.cif.g08.bks.cpg/sg4_3_cif.got.tgz:4179.got - 2010.06.03 18:43:04.
