data_PCOD9115883
_publ_section_title
;
Structure prediction by ZEFSAII (Michael W. Deem and Ramdas Pophale) SiO2 
 PCOD9115883
Probable space group: P 21
;
_chemical_formula_sum "Si O2"
_cell_formula_units_Z 14
_cell_length_a 8.041116
_cell_length_b 11.933209
_cell_length_c 5.677237
_cell_angle_alpha 90.000000
_cell_angle_beta 109.798464
_cell_angle_gamma 90.000000
_cell_volume 512.565513
_symmetry_space_group_name_H-M "P 21"
_symmetry_group_IT_number 4
_symmetry_cell_setting 'monoclinic'
loop_
_space_group_symop_operation_xyz
x,y,z
-x,1/2+y,-z
loop_
_atom_site_type_symbol
_atom_site_label
_atom_site_fract_x
_atom_site_fract_y
_atom_site_fract_z
Si Si1 0.526124 0.530370 0.363569
Si Si2 0.665004 0.864963 0.451673
Si Si3 0.786018 0.272194 0.189338
Si Si4 0.805555 0.018447 0.154744
Si Si5 0.926788 0.324585 0.759591
Si Si6 0.207850 0.153286 0.779753
Si Si7 0.433211 0.206116 0.257721
O O1 0.511403 0.424400 0.530586
O O2 0.723759 0.561273 0.371762
O O3 0.473828 0.642691 0.482907
O O4 0.377162 0.515916 0.087771
O O5 0.765830 0.970510 0.396956
O O6 0.700936 0.769879 0.273367
O O7 0.707922 0.793242 0.704319
O O8 0.865841 0.333720 0.455973
O O9 0.582456 0.257822 0.166194
O O10 0.863360 0.146055 0.209377
O O11 0.809625 0.319067 0.939431
O O12 0.947719 0.931242 0.128729
O O13 0.023114 0.201442 0.778220
O O14 0.319018 0.117970 0.060943
#
# Coordination Sequence:
#
# PCOD9115883 Si02
#       7
#     2   2   2   2   2   2   2
#     4  11  20  41  75 102 131 191 250 293 363 435
#     4  10  21  37  71  99 135 177 246 290 362 421
#     4  12  26  49  72 107 152 198 239 306 372 446
#     4  11  24  46  75  99 145 206 239 294 391 439
#     4  11  29  46  74 107 153 193 244 301 373 447
#     4  10  23  42  67 107 136 187 247 308 345 441
#     4  11  23  41  74 103 140 182 251 302 352 435
#
# _framework density 27.313580000000002
#
# number of rings (size 3 to 8) (size 9 to 14) (size 15 to 20)
#    0.000    1.143    2.857    2.571   12.000    0.000 
#    5.143    0.000    0.000    0.000    0.000    0.000 
#    0.000    0.000    0.000    0.000    0.000    0.000 
#
# Total GULP energy -78069.074741 kJ/mol
# GULP energy per Si atom -5576.362482 kJ/mol
# Density = 2.725141 g / cm^3
# Si number density = 27.313580 Si / 1000 Ang^3
#
#
#
# Elastic Constant Matrix: (Units=GPa)
#
#
# Indices 1 2 3 4 5 6 
#
# 1 68.0025 20.9607 64.6903 0.0000 -29.6273 0.0000
# 2 20.9607 121.5902 43.3757 0.0000 -10.2115 0.0000
# 3 64.6903 43.3757 126.0487 0.0000 -28.6658 0.0000
# 4 0.0000 0.0000 0.0000 41.1854 0.0000 -11.0898
# 5 -29.6273 -10.2115 -28.6658 0.0000 52.7683 0.0000
# 6 0.0000 0.0000 0.0000 -11.0898 0.0000 54.7146
#
#
#
# Elastic Compliance Matrix: (Units=1/GPa)
#
#
# Indices 1 2 3 4 5 6 
#
# 1 0.033363 0.000442 -0.014827 0.000000 0.010763 0.000000
# 2 0.000442 0.009381 -0.003407 0.000000 0.000213 0.000000
# 3 -0.014827 -0.003407 0.016740 0.000000 0.000110 0.000000
# 4 0.000000 0.000000 0.000000 0.025682 0.000000 0.005205
# 5 0.010763 0.000213 0.000110 0.000000 0.025095 0.000000
# 6 0.000000 0.000000 0.000000 0.005205 0.000000 0.019332
#
#
# Mechanical properties :
#
#
# Convention : Reuss Voigt Hill
#
# Bulk Modulus (GPa) = 41.83890 63.74386 52.79138
# Shear Modulus (GPa) = 28.87786 42.17464 35.52625
#
# Velocity S-wave (km/s) = 3.25510 3.93375 3.61041
# Velocity P-wave (km/s) = 5.42944 6.63483 6.06217
#
# Compressibility (1/GPa) = 0.02390120
#
# Stress axis : x y z
#
# Youngs Moduli (GPa) = 29.97338 106.59468 59.73687
#
# Poissons Ratio (x) = -0.04709 0.88570
# Poissons Ratio (y) = -0.01324 0.20350
# Poissons Ratio (z) = 0.44441 0.36313
#
# Static dielectric constant tensor:
#      x y z
#    x 2.164320 0.000000 0.024530 
#    y 0.000000 2.140280 0.000000 
#    z 0.024530 0.000000 2.126430 
# 
# From -- ./inp_files/1438.got.cif
#   From: 2010.05.17/outbox.cif.g08.bks.cpg/sg4_1_cif.got.tgz:1438.got - 2010.06.03 18:43:04.
