data_PCOD9115165
_publ_section_title
;
Structure prediction by ZEFSAII (Michael W. Deem and Ramdas Pophale) SiO2 
 PCOD9115165
Probable space group: P 21
;
_chemical_formula_sum "Si O2"
_cell_formula_units_Z 14
_cell_length_a 24.617494
_cell_length_b 5.000063
_cell_length_c 17.423751
_cell_angle_alpha 90.000000
_cell_angle_beta 160.528937
_cell_angle_gamma 90.000000
_cell_volume 714.885254
_symmetry_space_group_name_H-M "P 21"
_symmetry_group_IT_number 4
_symmetry_cell_setting 'monoclinic'
loop_
_space_group_symop_operation_xyz
x,y,z
-x,1/2+y,-z
loop_
_atom_site_type_symbol
_atom_site_label
_atom_site_fract_x
_atom_site_fract_y
_atom_site_fract_z
Si Si1 0.435474 0.598700 0.129144
Si Si2 0.939136 0.046886 0.378270
Si Si3 0.465157 0.083309 0.270327
Si Si4 0.406264 0.796875 0.406264
Si Si5 0.145182 0.010444 0.950350
Si Si6 0.951863 0.495054 0.645531
Si Si7 0.432720 0.046881 0.865439
O O1 0.449623 0.305730 0.184366
O O2 0.509559 0.613589 0.143556
O O3 0.509855 0.808333 0.288503
O O4 0.243273 0.658111 0.867734
O O5 0.050359 0.296890 0.550357
O O6 0.994358 0.935647 0.369902
O O7 0.586289 0.187056 0.497786
O O8 0.293547 0.046876 0.087092
O O9 0.468640 0.546875 0.437280
O O10 0.236704 0.906698 0.148199
O O11 0.019865 0.788023 0.754607
O O12 0.047442 0.285422 0.826088
O O13 0.758433 0.480167 0.392431
O O14 0.531512 0.796885 0.031514
#
# Coordination Sequence:
#
# PCOD9115165 Si02
#       7
#     2   2   2   2   2   2   2
#     4  12  23  39  63  88 125 162 208 259 302 374
#     4  12  22  36  56  86 116 154 200 260 314 342
#     4  11  20  38  61  96 126 157 203 253 315 365
#     4  10  20  34  60  96 134 162 192 254 314 380
#     4  11  20  38  61  96 126 157 203 253 315 365
#     4  12  23  39  63  88 125 162 208 259 302 374
#     4  12  26  46  62  86 124 172 220 252 308 376
#
# _framework density 19.583561
#
# number of rings (size 3 to 8) (size 9 to 14) (size 15 to 20)
#    0.000    0.571    2.857    8.571    0.000    0.000 
#    0.000    0.000    0.000    3.429    0.000    2.000 
#    0.000    0.000    0.000    0.000    0.000    0.000 
#
# Total GULP energy -78299.438137 kJ/mol
# GULP energy per Si atom -5592.817010 kJ/mol
# Density = 1.953899 g / cm^3
# Si number density = 19.583561 Si / 1000 Ang^3
#
#
#
# Elastic Constant Matrix: (Units=GPa)
#
#
# Indices 1 2 3 4 5 6 
#
# 1 88.8284 5.3327 47.2813 0.0000 0.7817 0.0000
# 2 5.3327 92.1233 8.0796 0.0000 -4.1359 0.0000
# 3 47.2813 8.0796 89.4578 0.0000 -1.7341 0.0000
# 4 0.0000 0.0000 0.0000 42.4575 0.0000 -15.5381
# 5 0.7817 -4.1359 -1.7341 0.0000 24.2982 0.0000
# 6 0.0000 0.0000 0.0000 -15.5381 0.0000 32.1282
#
#
#
# Elastic Compliance Matrix: (Units=1/GPa)
#
#
# Indices 1 2 3 4 5 6 
#
# 1 0.015699 -0.000232 -0.008298 0.000000 -0.001137 0.000000
# 2 -0.000232 0.011024 -0.000838 0.000000 0.001824 0.000000
# 3 -0.008298 -0.000838 0.015664 0.000000 0.001242 0.000000
# 4 0.000000 0.000000 0.000000 0.028618 0.000000 0.013841
# 5 -0.001137 0.001824 0.001242 0.000000 0.041591 0.000000
# 6 0.000000 0.000000 0.000000 0.013841 0.000000 0.037819
#
#
# Mechanical properties :
#
#
# Convention : Reuss Voigt Hill
#
# Bulk Modulus (GPa) = 42.28222 43.53298 42.90760
# Shear Modulus (GPa) = 28.24312 33.75781 31.00047
#
# Velocity S-wave (km/s) = 3.80173 4.15635 3.98299
# Velocity P-wave (km/s) = 6.39597 6.73136 6.56581
#
# Compressibility (1/GPa) = 0.02365060
#
# Stress axis : x y z
#
# Youngs Moduli (GPa) = 63.70009 90.71277 63.84026
#
# Poissons Ratio (x) = 0.02104 0.52976
# Poissons Ratio (y) = 0.01478 0.05348
# Poissons Ratio (z) = 0.52860 0.07599
#
# Static dielectric constant tensor:
#      x y z
#    x 1.668240 0.000000 -0.027100 
#    y 0.000000 1.727470 0.000000 
#    z -0.027100 0.000000 1.686250 
# 
# From -- ./inp_files/14447.got.cif
#   From: 2010.05.17/outbox.cif.g08.bks.cpg/sg4_8_cif.got.tgz:14447.got - 2010.06.03 18:43:04.
