data_PCOD9115365
_publ_section_title
;
Structure prediction by ZEFSAII (Michael W. Deem and Ramdas Pophale) SiO2 
 PCOD9115365
Probable space group: P 21
;
_chemical_formula_sum "Si O2"
_cell_formula_units_Z 10
_cell_length_a 9.167596
_cell_length_b 7.893272
_cell_length_c 5.318946
_cell_angle_alpha 90.000000
_cell_angle_beta 74.739889
_cell_angle_gamma 90.000000
_cell_volume 371.320395
_symmetry_space_group_name_H-M "P 21"
_symmetry_group_IT_number 4
_symmetry_cell_setting 'monoclinic'
loop_
_space_group_symop_operation_xyz
x,y,z
-x,1/2+y,-z
loop_
_atom_site_type_symbol
_atom_site_label
_atom_site_fract_x
_atom_site_fract_y
_atom_site_fract_z
Si Si1 0.310700 0.962660 0.089720
Si Si2 0.451745 0.082107 0.518915
Si Si3 0.747432 0.929533 0.382283
Si Si4 0.083124 0.240564 0.046203
Si Si5 0.035636 0.766651 0.409556
O O1 0.426519 0.991374 0.262405
O O2 0.192869 0.817412 0.212329
O O3 0.198467 0.122920 0.140223
O O4 0.385612 0.974420 0.783328
O O5 0.631921 0.081118 0.476519
O O6 0.360842 0.260082 0.549480
O O7 0.898439 0.911693 0.484260
O O8 0.825398 0.908088 0.074698
O O9 0.945411 0.245422 0.301132
O O10 0.043872 0.166073 0.786687
#
# Coordination Sequence:
#
# PCOD9115365 Si02
#       5
#     2   2   2   2   2
#     4  11  21  39  61  85 119 160 196 247 303 344
#     4  11  23  40  64  87 125 157 199 247 296 358
#     4   9  23  41  61  88 122 162 194 247 299 352
#     4   9  19  38  59  79 121 153 192 242 298 341
#     4  10  20  38  61  83 117 158 193 245 298 351
#
# _framework density 26.930917000000001
#
# number of rings (size 3 to 8) (size 9 to 14) (size 15 to 20)
#    1.200    0.800    2.000    1.200    2.800    0.000 
#    7.200    0.000    0.000    0.000    0.000    0.000 
#    0.000    0.000    0.000    0.000    0.000    0.000 
#
# Total GULP energy -55713.379387 kJ/mol
# GULP energy per Si atom -5571.337939 kJ/mol
# Density = 2.686962 g / cm^3
# Si number density = 26.930917 Si / 1000 Ang^3
#
#
#
# Elastic Constant Matrix: (Units=GPa)
#
#
# Indices 1 2 3 4 5 6 
#
# 1 123.5858 26.0195 34.6514 0.0000 -1.4280 0.0000
# 2 26.0195 42.8510 23.6265 0.0000 -5.8615 0.0000
# 3 34.6514 23.6265 169.7361 0.0000 12.6838 0.0000
# 4 0.0000 0.0000 0.0000 27.4600 0.0000 -13.7622
# 5 -1.4280 -5.8615 12.6838 0.0000 52.0464 0.0000
# 6 0.0000 0.0000 0.0000 -13.7622 0.0000 45.8632
#
#
#
# Elastic Compliance Matrix: (Units=1/GPa)
#
#
# Indices 1 2 3 4 5 6 
#
# 1 0.009510 -0.005098 -0.001231 0.000000 -0.000013 0.000000
# 2 -0.005098 0.028758 -0.003253 0.000000 0.003892 0.000000
# 3 -0.001231 -0.003253 0.006748 0.000000 -0.002045 0.000000
# 4 0.000000 0.000000 0.000000 0.042863 0.000000 0.012862
# 5 -0.000013 0.003892 -0.002045 0.000000 0.020150 0.000000
# 6 0.000000 0.000000 0.000000 0.012862 0.000000 0.025663
#
#
# Mechanical properties :
#
#
# Convention : Reuss Voigt Hill
#
# Bulk Modulus (GPa) = 38.68023 56.08531 47.38277
# Shear Modulus (GPa) = 30.96498 41.86562 36.41530
#
# Velocity S-wave (km/s) = 3.39454 3.94706 3.68118
# Velocity P-wave (km/s) = 5.45507 6.45316 5.97499
#
# Compressibility (1/GPa) = 0.02585300
#
# Stress axis : x y z
#
# Youngs Moduli (GPa) = 105.15536 34.77296 148.18338
#
# Poissons Ratio (x) = 0.17726 0.18239
# Poissons Ratio (y) = 0.53604 0.48206
# Poissons Ratio (z) = 0.12943 0.11312
#
# Static dielectric constant tensor:
#      x y z
#    x 2.068580 0.000000 -0.007010 
#    y 0.000000 2.410220 0.000000 
#    z -0.007010 0.000000 2.117860 
# 
# From -- ./inp_files/941.got.cif
#   From: 2010.05.17/outbox.cif.g08.bks.cpg/sg4_1_cif.got.tgz:941.got - 2010.06.03 18:43:04.
