data_PCOD9115540
_publ_section_title
;
Structure prediction by ZEFSAII (Michael W. Deem and Ramdas Pophale) SiO2 
 PCOD9115540
Probable space group: P 21
;
_chemical_formula_sum "Si O2"
_cell_formula_units_Z 16
_cell_length_a 5.789570
_cell_length_b 9.210100
_cell_length_c 13.621365
_cell_angle_alpha 90.000000
_cell_angle_beta 64.873488
_cell_angle_gamma 90.000000
_cell_volume 657.595063
_symmetry_space_group_name_H-M "P 21"
_symmetry_group_IT_number 4
_symmetry_cell_setting 'monoclinic'
loop_
_space_group_symop_operation_xyz
x,y,z
-x,1/2+y,-z
loop_
_atom_site_type_symbol
_atom_site_label
_atom_site_fract_x
_atom_site_fract_y
_atom_site_fract_z
Si Si1 0.964041 0.888950 0.664400
Si Si2 0.534039 0.404126 0.533336
Si Si3 0.654411 0.170278 0.665358
Si Si4 0.822910 0.785334 0.144607
Si Si5 0.886760 0.273921 0.156954
Si Si6 0.648371 0.634617 0.679953
Si Si7 0.000976 0.414297 0.684910
Si Si8 0.013959 0.531071 0.008401
O O1 0.263104 0.913537 0.589711
O O2 0.956772 0.842686 0.780312
O O3 0.860155 0.754234 0.620601
O O4 0.780097 0.015649 0.660764
O O5 0.553628 0.243543 0.581264
O O6 0.621330 0.523512 0.596392
O O7 0.241350 0.448670 0.571939
O O8 0.427990 0.196174 0.784198
O O9 0.875986 0.276990 0.658650
O O10 0.891889 0.872560 0.229307
O O11 0.036741 0.661717 0.083452
O O12 0.785543 0.911977 0.069858
O O13 0.619135 0.205689 0.242049
O O14 0.833282 0.409148 0.092029
O O15 0.033627 0.141448 0.074794
O O16 0.787075 0.535828 0.735897
#
# Coordination Sequence:
#
# PCOD9115540 Si02
#       8
#     2   2   2   2   2   2   2   2
#     4  12  24  40  66 100 131 170 218 266 324 391
#     4  10  23  41  65  96 135 176 212 258 321 392
#     4  10  22  40  64  96 130 168 214 264 317 389
#     4  10  20  40  63  92 129 167 214 269 326 385
#     4  11  24  43  66  95 132 171 221 276 327 387
#     4  11  23  42  66  97 133 169 215 269 320 389
#     4  10  21  41  66  90 128 176 213 257 323 390
#     4  10  21  41  66  90 126 169 213 277 334 373
#
# _framework density 24.331085000000002
#
# number of rings (size 3 to 8) (size 9 to 14) (size 15 to 20)
#    0.000    1.500    0.000    6.000    0.000    5.000 
#    0.000   18.750    0.000    0.000    0.000    0.000 
#    0.000    0.000    0.000    0.000    0.000    0.000 
#
# Total GULP energy -89204.300769 kJ/mol
# GULP energy per Si atom -5575.268798 kJ/mol
# Density = 2.427571 g / cm^3
# Si number density = 24.331085 Si / 1000 Ang^3
#
#
#
# Elastic Constant Matrix: (Units=GPa)
#
#
# Indices 1 2 3 4 5 6 
#
# 1 62.4363 28.9043 13.3024 0.0000 -3.2052 0.0000
# 2 28.9043 169.5741 49.1312 0.0000 1.3592 0.0000
# 3 13.3024 49.1312 88.9392 0.0000 8.0932 0.0000
# 4 0.0000 0.0000 0.0000 39.0495 0.0000 -11.9803
# 5 -3.2052 1.3592 8.0932 0.0000 7.0288 0.0000
# 6 0.0000 0.0000 0.0000 -11.9803 0.0000 32.8184
#
#
#
# Elastic Compliance Matrix: (Units=1/GPa)
#
#
# Indices 1 2 3 4 5 6 
#
# 1 0.018287 -0.002514 -0.002401 0.000000 0.011589 0.000000
# 2 -0.002514 0.007443 -0.003910 0.000000 0.001916 0.000000
# 3 -0.002401 -0.003910 0.015408 0.000000 -0.018080 0.000000
# 4 0.000000 0.000000 0.000000 0.028838 0.000000 0.010527
# 5 0.011589 0.001916 -0.018080 0.000000 0.168003 0.000000
# 6 0.000000 0.000000 0.000000 0.010527 0.000000 0.034314
#
#
# Mechanical properties :
#
#
# Convention : Reuss Voigt Hill
#
# Bulk Modulus (GPa) = 42.57569 55.95837 49.26703
# Shear Modulus (GPa) = 16.79136 31.08679 23.93908
#
# Velocity S-wave (km/s) = 2.62986 3.57831 3.14010
# Velocity P-wave (km/s) = 5.17282 6.33412 5.78269
#
# Compressibility (1/GPa) = 0.02348758
#
# Stress axis : x y z
#
# Youngs Moduli (GPa) = 54.68437 134.35072 64.90208
#
# Poissons Ratio (x) = 0.33780 0.15581
# Poissons Ratio (y) = 0.13750 0.25377
# Poissons Ratio (z) = 0.13128 0.52531
#
# Static dielectric constant tensor:
#      x y z
#    x 1.936880 0.000000 0.016970 
#    y 0.000000 1.970460 0.000000 
#    z 0.016970 0.000000 2.039010 
# 
# From -- ./inp_files/13293.got.cif
#   From: 2010.05.17/outbox.cif.g08.bks.cpg/sg4_7_cif.got.tgz:13293.got - 2010.06.03 18:43:04.
