data_PCOD9115085
_publ_section_title
;
Structure prediction by ZEFSAII (Michael W. Deem and Ramdas Pophale) SiO2 
 PCOD9115085
Probable space group: P 21
;
_chemical_formula_sum "Si O2"
_cell_formula_units_Z 14
_cell_length_a 5.528953
_cell_length_b 13.085810
_cell_length_c 8.239601
_cell_angle_alpha 90.000000
_cell_angle_beta 84.964471
_cell_angle_gamma 90.000000
_cell_volume 593.841126
_symmetry_space_group_name_H-M "P 21"
_symmetry_group_IT_number 4
_symmetry_cell_setting 'monoclinic'
loop_
_space_group_symop_operation_xyz
x,y,z
-x,1/2+y,-z
loop_
_atom_site_type_symbol
_atom_site_label
_atom_site_fract_x
_atom_site_fract_y
_atom_site_fract_z
Si Si1 0.735151 0.483170 0.147141
Si Si2 0.663175 0.875633 0.696476
Si Si3 0.143061 0.381757 0.944684
Si Si4 0.279396 0.150655 0.381340
Si Si5 0.598992 0.081702 0.078273
Si Si6 0.951958 0.180347 0.836243
Si Si7 0.763564 0.092689 0.545232
O O1 0.625244 0.400707 0.275466
O O2 0.873924 0.424395 0.996423
O O3 0.901794 0.574788 0.196500
O O4 0.509098 0.542760 0.084804
O O5 0.753558 0.862715 0.878743
O O6 0.722392 0.772648 0.600875
O O7 0.772141 0.976307 0.608583
O O8 0.285816 0.477219 0.858107
O O9 0.120973 0.278104 0.847037
O O10 0.383642 0.125723 0.196766
O O11 0.500082 0.107438 0.478453
O O12 0.007632 0.110253 0.424909
O O13 0.800126 0.163612 0.011812
O O14 0.786549 0.178041 0.686636
#
# Coordination Sequence:
#
# PCOD9115085 Si02
#       7
#     2   2   2   2   2   2   2
#     4  10  19  41  74 102 136 186 251 304 349 429
#     4  11  24  49  72 103 143 206 234 299 385 430
#     4  10  22  39  79 106 138 189 254 309 352 424
#     4  12  30  47  77 107 150 200 236 300 373 447
#     4  10  23  44  70 108 136 190 254 298 349 441
#     4  11  22  43  74 103 143 188 250 299 358 430
#     4  12  28  49  72 109 154 189 241 307 364 445
#
# _framework density 23.575330999999998
#
# number of rings (size 3 to 8) (size 9 to 14) (size 15 to 20)
#    0.000    1.143    4.286    2.571    8.000    2.286 
#    2.571    0.000    0.000    0.000    0.000    0.000 
#    0.000    0.000    0.000    0.000    0.000    0.000 
#
# Total GULP energy -78196.200060 kJ/mol
# GULP energy per Si atom -5585.442861 kJ/mol
# Density = 2.352167 g / cm^3
# Si number density = 23.575331 Si / 1000 Ang^3
#
#
#
# Elastic Constant Matrix: (Units=GPa)
#
#
# Indices 1 2 3 4 5 6 
#
# 1 77.0291 23.9766 15.9818 0.0000 -17.9571 0.0000
# 2 23.9766 110.4496 13.6463 0.0000 -13.4757 0.0000
# 3 15.9818 13.6463 43.7404 0.0000 -20.5220 0.0000
# 4 0.0000 0.0000 0.0000 23.7997 0.0000 3.4755
# 5 -17.9571 -13.4757 -20.5220 0.0000 43.1438 0.0000
# 6 0.0000 0.0000 0.0000 3.4755 0.0000 27.3082
#
#
#
# Elastic Compliance Matrix: (Units=1/GPa)
#
#
# Indices 1 2 3 4 5 6 
#
# 1 0.015329 -0.002457 -0.002833 0.000000 0.004265 0.000000
# 2 -0.002457 0.009945 -0.001580 0.000000 0.001332 0.000000
# 3 -0.002833 -0.001580 0.030387 0.000000 0.012781 0.000000
# 4 0.000000 0.000000 0.000000 0.042813 0.000000 -0.005449
# 5 0.004265 0.001332 0.012781 0.000000 0.031449 0.000000
# 6 0.000000 0.000000 0.000000 -0.005449 0.000000 0.037313
#
#
# Mechanical properties :
#
#
# Convention : Reuss Voigt Hill
#
# Bulk Modulus (GPa) = 23.85481 37.60316 30.72898
# Shear Modulus (GPa) = 25.64760 30.69130 28.16945
#
# Velocity S-wave (km/s) = 3.30191 3.61202 3.46044
# Velocity P-wave (km/s) = 4.96763 5.77758 5.38784
#
# Compressibility (1/GPa) = 0.04192027
#
# Stress axis : x y z
#
# Youngs Moduli (GPa) = 65.23558 100.55259 32.90882
#
# Poissons Ratio (x) = 0.24708 0.09324
# Poissons Ratio (y) = 0.16030 0.05199
# Poissons Ratio (z) = 0.18483 0.15887
#
# Static dielectric constant tensor:
#      x y z
#    x 1.979150 0.000000 0.051610 
#    y 0.000000 1.873630 0.000000 
#    z 0.051610 0.000000 1.971740 
# 
# From -- ./inp_files/1319.got.cif
#   From: 2010.05.17/outbox.cif.g08.bks.cpg/sg4_1_cif.got.tgz:1319.got - 2010.06.03 18:43:04.
