data_PCOD9115905
_publ_section_title
;
Structure prediction by ZEFSAII (Michael W. Deem and Ramdas Pophale) SiO2 
 PCOD9115905
Probable space group: P 21
;
_chemical_formula_sum "Si O2"
_cell_formula_units_Z 14
_cell_length_a 15.754842
_cell_length_b 7.029066
_cell_length_c 15.897471
_cell_angle_alpha 90.000000
_cell_angle_beta 19.620800
_cell_angle_gamma 90.000000
_cell_volume 591.169546
_symmetry_space_group_name_H-M "P 21"
_symmetry_group_IT_number 4
_symmetry_cell_setting 'monoclinic'
loop_
_space_group_symop_operation_xyz
x,y,z
-x,1/2+y,-z
loop_
_atom_site_type_symbol
_atom_site_label
_atom_site_fract_x
_atom_site_fract_y
_atom_site_fract_z
Si Si1 0.576604 0.725280 0.549276
Si Si2 0.449275 0.663224 0.479168
Si Si3 0.153891 0.770140 0.433572
Si Si4 0.310050 0.274992 0.039702
Si Si5 0.867383 0.135101 0.733178
Si Si6 0.102182 0.221289 0.057478
Si Si7 0.127295 0.775613 0.087608
O O1 0.494483 0.644487 0.535982
O O2 0.864389 0.680605 0.304079
O O3 0.570609 0.952525 0.539892
O O4 0.370782 0.688573 0.813485
O O5 0.181395 0.760535 0.708688
O O6 0.691173 0.755545 0.207802
O O7 0.151999 0.743767 0.335777
O O8 0.906270 0.670895 0.704795
O O9 0.414501 0.687178 0.226200
O O10 0.106549 0.989361 0.505336
O O11 0.348464 0.472263 0.055166
O O12 0.187087 0.319200 0.064688
O O13 0.860209 0.256395 0.823907
O O14 0.114917 0.996799 0.071169
#
# Coordination Sequence:
#
# PCOD9115905 Si02
#       7
#     2   2   2   2   2   2   2
#     4  10  22  39  59  91 118 162 200 247 300 352
#     4  10  21  38  61  87 124 157 203 246 296 355
#     4  10  25  41  61  90 122 155 207 243 309 355
#     4  10  24  39  62  90 122 156 208 241 307 354
#     4  10  26  40  65  88 126 155 205 250 303 362
#     4  10  21  39  60  90 120 164 201 247 298 352
#     4  10  23  38  62  86 124 157 204 248 301 354
#
# _framework density 23.68187
#
# number of rings (size 3 to 8) (size 9 to 14) (size 15 to 20)
#    0.857    1.143    0.000    1.714    6.000    2.286 
#    0.000    0.000    0.000    0.000    0.000    0.000 
#    0.000    0.000    0.000    0.000    0.000    0.000 
#
# Total GULP energy -78203.232760 kJ/mol
# GULP energy per Si atom -5585.945197 kJ/mol
# Density = 2.362797 g / cm^3
# Si number density = 23.681870 Si / 1000 Ang^3
#
#
#
# Elastic Constant Matrix: (Units=GPa)
#
#
# Indices 1 2 3 4 5 6 
#
# 1 129.9027 10.0408 79.9118 0.0000 21.2392 0.0000
# 2 10.0408 56.7067 28.6585 0.0000 11.1419 0.0000
# 3 79.9118 28.6585 200.6098 0.0000 -4.0863 0.0000
# 4 0.0000 0.0000 0.0000 -4.3463 0.0000 5.5351
# 5 21.2392 11.1419 -4.0863 0.0000 41.9387 0.0000
# 6 0.0000 0.0000 0.0000 5.5351 0.0000 19.9852
#
#
#
# Elastic Compliance Matrix: (Units=1/GPa)
#
#
# Indices 1 2 3 4 5 6 
#
# 1 0.011855 0.001870 -0.005132 0.000000 -0.007001 0.000000
# 2 0.001870 0.020568 -0.003821 0.000000 -0.006784 0.000000
# 3 -0.005132 -0.003821 0.007664 0.000000 0.004361 0.000000
# 4 0.000000 0.000000 0.000000 -0.170089 0.000000 0.047108
# 5 -0.007001 -0.006784 0.004361 0.000000 0.029617 0.000000
# 6 0.000000 0.000000 0.000000 0.047108 0.000000 0.036990
#
#
# Mechanical properties :
#
#
# Convention : Reuss Voigt Hill
#
# Bulk Modulus (GPa) = 38.58038 69.38237 53.98137
# Shear Modulus (GPa) = -123.18834 29.42273 -46.88280
#
# Velocity S-wave (km/s) = -7.22017 3.52862 -4.45420
# Velocity P-wave (km/s) = 7.29256 6.77959 1.89982
#
# Compressibility (1/GPa) = 0.02591991
#
# Stress axis : x y z
#
# Youngs Moduli (GPa) = 84.34992 48.62019 130.48077
#
# Poissons Ratio (x) = -0.09093 0.66967
# Poissons Ratio (y) = -0.15775 0.49861
# Poissons Ratio (z) = 0.43291 0.18580
#
# Static dielectric constant tensor:
#      x y z
#    x 1.836210 0.000000 -0.016330 
#    y 0.000000 1.966450 0.000000 
#    z -0.016330 0.000000 1.917770 
# 
# From -- ./inp_files/3529.got.cif
#   From: 2010.05.17/outbox.cif.g08.bks.cpg/sg4_2_cif.got.tgz:3529.got - 2010.06.03 18:43:04.
