data_PCOD9115350
_publ_section_title
;
Structure prediction by ZEFSAII (Michael W. Deem and Ramdas Pophale) SiO2 
 PCOD9115350
Probable space group: P 21
;
_chemical_formula_sum "Si O2"
_cell_formula_units_Z 16
_cell_length_a 21.587048
_cell_length_b 8.641758
_cell_length_c 9.362307
_cell_angle_alpha 90.000000
_cell_angle_beta 150.680733
_cell_angle_gamma 90.000000
_cell_volume 855.237564
_symmetry_space_group_name_H-M "P 21"
_symmetry_group_IT_number 4
_symmetry_cell_setting 'monoclinic'
loop_
_space_group_symop_operation_xyz
x,y,z
-x,1/2+y,-z
loop_
_atom_site_type_symbol
_atom_site_label
_atom_site_fract_x
_atom_site_fract_y
_atom_site_fract_z
Si Si1 0.783860 0.646160 0.721903
Si Si2 0.516782 0.806345 0.200195
Si Si3 0.010676 0.152006 0.381710
Si Si4 0.716347 0.323934 0.088629
Si Si5 0.245811 0.149430 0.675817
Si Si6 0.521121 0.178436 0.187292
Si Si7 0.007293 0.780322 0.343141
Si Si8 0.250153 0.825985 0.180986
O O1 0.657240 0.741441 0.506851
O O2 0.781318 0.624906 0.546085
O O3 0.775995 0.484933 0.789459
O O4 0.910574 0.732045 0.026489
O O5 0.523185 0.992033 0.197427
O O6 0.416405 0.759996 0.120745
O O7 0.466601 0.736122 0.950378
O O8 0.123761 0.216397 0.510100
O O9 0.034765 0.201145 0.593420
O O10 0.005878 0.966015 0.360157
O O11 0.876342 0.222888 0.067498
O O12 0.731515 0.486256 0.200723
O O13 0.845981 0.233414 0.386709
O O14 0.719097 0.349133 0.924506
O O15 0.381311 0.233732 0.956822
O O16 0.632155 0.244387 0.506632
#
# Coordination Sequence:
#
# PCOD9115350 Si02
#       8
#     2   2   2   2   2   2   2   2
#     4  11  22  37  58  84 113 149 187 228 276 329
#     4  10  21  38  58  82 114 147 183 233 278 328
#     4  10  21  38  58  82 114 147 183 233 278 328
#     4   9  20  37  57  82 112 145 184 230 277 328
#     4   9  20  37  57  82 112 145 184 230 277 328
#     4  10  20  38  57  82 112 145 185 229 279 331
#     4  10  20  38  57  82 112 145 185 229 279 331
#     4  11  22  37  58  84 113 149 187 228 276 329
#
# _framework density 18.708252000000002
#
# number of rings (size 3 to 8) (size 9 to 14) (size 15 to 20)
#    0.000    2.000    0.000    5.250    0.000    6.000 
#    0.000   11.250    0.000    0.000    0.000    0.000 
#    0.000    0.000    0.000    0.000    0.000    0.000 
#
# Total GULP energy -89271.049755 kJ/mol
# GULP energy per Si atom -5579.440610 kJ/mol
# Density = 1.866567 g / cm^3
# Si number density = 18.708252 Si / 1000 Ang^3
#
#
#
# Elastic Constant Matrix: (Units=GPa)
#
#
# Indices 1 2 3 4 5 6 
#
# 1 28.2560 -16.8032 -35.6276 0.0000 19.8246 0.0000
# 2 -16.8032 54.6634 -6.8736 0.0000 0.1238 0.0000
# 3 -35.6276 -6.8736 42.8524 0.0000 -6.1798 0.0000
# 4 0.0000 0.0000 0.0000 26.8053 0.0000 -5.7179
# 5 19.8246 0.1238 -6.1798 0.0000 16.1631 0.0000
# 6 0.0000 0.0000 0.0000 -5.7179 0.0000 23.5750
#
#
#
# Elastic Compliance Matrix: (Units=1/GPa)
#
#
# Indices 1 2 3 4 5 6 
#
# 1 -0.041194 -0.016692 -0.031350 0.000000 0.038667 0.000000
# 2 -0.016692 0.011924 -0.009553 0.000000 0.016730 0.000000
# 3 -0.031350 -0.009553 0.001370 0.000000 0.039049 0.000000
# 4 0.000000 0.000000 0.000000 0.039342 0.000000 0.009542
# 5 0.038667 0.016730 0.039049 0.000000 0.029244 0.000000
# 6 0.000000 0.000000 0.000000 0.009542 0.000000 0.044732
#
#
# Mechanical properties :
#
#
# Convention : Reuss Voigt Hill
#
# Bulk Modulus (GPa) = -6.98862 0.79587 -3.09637
# Shear Modulus (GPa) = 32.69860 25.64709 29.17285
#
# Velocity S-wave (km/s) = 4.18523 3.70658 3.95315
# Velocity P-wave (km/s) = 4.42845 4.32951 4.37926
#
# Compressibility (1/GPa) = -0.14308979
#
# Stress axis : x y z
#
# Youngs Moduli (GPa) = -24.27554 83.86752 729.67065
#
# Poissons Ratio (x) = 1.39994 22.87508
# Poissons Ratio (y) = -0.40522 6.97043
# Poissons Ratio (z) = -0.76103 0.80117
#
# Static dielectric constant tensor:
#      x y z
#    x 1.658350 0.000000 0.042960 
#    y 0.000000 1.633820 0.000000 
#    z 0.042960 0.000000 1.660510 
# 
# From -- ./inp_files/9256.got.cif
#   From: 2010.05.17/outbox.cif.g08.bks.cpg/sg4_5_cif.got.tgz:9256.got - 2010.06.03 18:43:04.
