data_PCOD9115951
_publ_section_title
;
Structure prediction by ZEFSAII (Michael W. Deem and Ramdas Pophale) SiO2 
 PCOD9115951
Probable space group: P 21
;
_chemical_formula_sum "Si O2"
_cell_formula_units_Z 16
_cell_length_a 12.486091
_cell_length_b 14.092828
_cell_length_c 4.892790
_cell_angle_alpha 90.000000
_cell_angle_beta 61.136994
_cell_angle_gamma 90.000000
_cell_volume 754.005395
_symmetry_space_group_name_H-M "P 21"
_symmetry_group_IT_number 4
_symmetry_cell_setting 'monoclinic'
loop_
_space_group_symop_operation_xyz
x,y,z
-x,1/2+y,-z
loop_
_atom_site_type_symbol
_atom_site_label
_atom_site_fract_x
_atom_site_fract_y
_atom_site_fract_z
Si Si1 0.921095 0.047150 0.938427
Si Si2 0.104094 0.879387 0.598292
Si Si3 0.252788 0.936462 0.894347
Si Si4 0.676684 0.951854 0.077188
Si Si5 0.661375 0.756096 0.876583
Si Si6 0.007896 0.669183 0.650447
Si Si7 0.480203 0.408866 0.195157
Si Si8 0.253817 0.151285 0.754765
O O1 0.060172 0.774785 0.576372
O O2 0.986758 0.119386 0.649552
O O3 0.785527 0.023733 0.997480
O O4 0.921039 0.098264 0.230856
O O5 0.206269 0.869265 0.709344
O O6 0.998616 0.949232 0.844821
O O7 0.158574 0.929298 0.261414
O O8 0.256165 0.038790 0.746949
O O9 0.384680 0.920331 0.862609
O O10 0.729806 0.853101 0.886011
O O11 0.569735 0.975894 0.989591
O O12 0.611807 0.924758 0.439975
O O13 0.539692 0.803319 0.902154
O O14 0.728842 0.699031 0.557667
O O15 0.644710 0.691510 0.161198
O O16 0.872865 0.676883 0.942675
#
# Coordination Sequence:
#
# PCOD9115951 Si02
#       8
#     2   2   2   2   2   2   2   2
#     4  12  23  45  65 103 137 165 232 274 338 413
#     4  12  25  44  67  99 136 186 206 290 352 388
#     4  12  25  45  67  96 144 177 219 276 355 401
#     4  10  21  41  69  94 129 179 212 282 334 375
#     4  10  21  38  65  97 119 172 228 273 318 377
#     4  12  26  41  67 103 134 178 226 270 348 418
#     4  10  22  43  65  96 126 182 223 265 340 391
#     4  12  21  41  65 100 129 169 234 274 313 417
#
# _framework density 21.220009999999998
#
# number of rings (size 3 to 8) (size 9 to 14) (size 15 to 20)
#    0.750    0.000    3.750    4.500    0.000    1.000 
#    0.000    7.500    0.000    0.000    0.000    0.000 
#    0.000    0.000    0.000    0.000    0.000    0.000 
#
# Total GULP energy -89372.806519 kJ/mol
# GULP energy per Si atom -5585.800407 kJ/mol
# Density = 2.117171 g / cm^3
# Si number density = 21.220010 Si / 1000 Ang^3
#
#
#
# Elastic Constant Matrix: (Units=GPa)
#
#
# Indices 1 2 3 4 5 6 
#
# 1 70.2830 9.2059 7.4793 0.0000 6.2445 0.0000
# 2 9.2059 63.5414 3.7619 0.0000 -11.2567 0.0000
# 3 7.4793 3.7619 52.4716 0.0000 23.4422 0.0000
# 4 0.0000 0.0000 0.0000 18.0073 0.0000 14.0048
# 5 6.2445 -11.2567 23.4422 0.0000 32.8920 0.0000
# 6 0.0000 0.0000 0.0000 14.0048 0.0000 22.9756
#
#
#
# Elastic Compliance Matrix: (Units=1/GPa)
#
#
# Indices 1 2 3 4 5 6 
#
# 1 0.014942 -0.002770 -0.000353 0.000000 -0.003533 0.000000
# 2 -0.002770 0.018433 -0.005839 0.000000 0.010996 0.000000
# 3 -0.000353 -0.005839 0.029915 0.000000 -0.023252 0.000000
# 4 0.000000 0.000000 0.000000 0.105589 0.000000 -0.064362
# 5 -0.003533 0.010996 -0.023252 0.000000 0.051408 0.000000
# 6 0.000000 0.000000 0.000000 -0.064362 0.000000 0.082757
#
#
# Mechanical properties :
#
#
# Convention : Reuss Voigt Hill
#
# Bulk Modulus (GPa) = 22.04276 25.24336 23.64306
# Shear Modulus (GPa) = 14.87698 25.83158 20.35428
#
# Velocity S-wave (km/s) = 2.65067 3.49280 3.10046
# Velocity P-wave (km/s) = 4.44728 5.30924 4.89726
#
# Compressibility (1/GPa) = 0.04536637
#
# Stress axis : x y z
#
# Youngs Moduli (GPa) = 66.92327 54.25133 33.42824
#
# Poissons Ratio (x) = 0.15027 0.01179
# Poissons Ratio (y) = 0.18537 0.19519
# Poissons Ratio (z) = 0.02361 0.31678
#
# Static dielectric constant tensor:
#      x y z
#    x 1.822150 0.000000 0.001730 
#    y 0.000000 1.789410 0.000000 
#    z 0.001730 0.000000 1.737420 
# 
# From -- ./inp_files/3224.got.cif
#   From: 2010.05.17/outbox.cif.g08.bks.cpg/sg4_2_cif.got.tgz:3224.got - 2010.06.03 18:43:04.
