data_PCOD9115308
_publ_section_title
;
Structure prediction by ZEFSAII (Michael W. Deem and Ramdas Pophale) SiO2 
 PCOD9115308
Probable space group: P 21
;
_chemical_formula_sum "Si O2"
_cell_formula_units_Z 14
_cell_length_a 5.216980
_cell_length_b 11.257054
_cell_length_c 11.927793
_cell_angle_alpha 90.000000
_cell_angle_beta 131.922555
_cell_angle_gamma 90.000000
_cell_volume 521.201087
_symmetry_space_group_name_H-M "P 21"
_symmetry_group_IT_number 4
_symmetry_cell_setting 'monoclinic'
loop_
_space_group_symop_operation_xyz
x,y,z
-x,1/2+y,-z
loop_
_atom_site_type_symbol
_atom_site_label
_atom_site_fract_x
_atom_site_fract_y
_atom_site_fract_z
Si Si1 0.625210 0.138860 0.281177
Si Si2 0.489012 0.015376 0.791685
Si Si3 0.508005 0.495620 0.962984
Si Si4 0.154618 0.763695 0.447060
Si Si5 0.977951 0.806317 0.922774
Si Si6 0.924650 0.194401 0.823730
Si Si7 0.110149 0.353215 0.410257
O O1 0.741533 0.149106 0.445005
O O2 0.874677 0.241116 0.300697
O O3 0.232579 0.188290 0.170504
O O4 0.657765 0.028783 0.205122
O O5 0.653360 0.026306 0.963743
O O6 0.100444 0.968819 0.688632
O O7 0.556509 0.129857 0.735850
O O8 0.698761 0.904329 0.804391
O O9 0.814846 0.592326 0.061225
O O10 0.662660 0.362261 0.013555
O O11 0.010441 0.731212 0.283681
O O12 0.925237 0.841212 0.465216
O O13 0.504957 0.834887 0.518022
O O14 0.036385 0.796758 0.073561
#
# Coordination Sequence:
#
# PCOD9115308 Si02
#       7
#     2   2   2   2   2   2   2
#     4   8  19  36  59  88 118 165 201 260 311 372
#     4  10  21  37  65  93 120 172 211 265 315 379
#     4  10  20  37  61  90 123 158 215 262 317 375
#     4  10  21  42  63  88 127 164 209 253 318 374
#     4   9  19  39  56  89 118 162 205 262 315 370
#     4  10  23  38  63  91 128 162 214 263 316 381
#     4   9  21  39  65  87 126 167 205 251 318 377
#
# _framework density 26.861031000000001
#
# number of rings (size 3 to 8) (size 9 to 14) (size 15 to 20)
#    0.857    1.714    0.000    0.857    4.000    6.857 
#    2.571    1.429    0.000    0.000    0.000    0.000 
#    0.000    0.000    0.000    0.000    0.000    0.000 
#
# Total GULP energy -78140.172910 kJ/mol
# GULP energy per Si atom -5581.440922 kJ/mol
# Density = 2.679989 g / cm^3
# Si number density = 26.861031 Si / 1000 Ang^3
#
#
#
# Elastic Constant Matrix: (Units=GPa)
#
#
# Indices 1 2 3 4 5 6 
#
# 1 89.9430 13.3734 18.6364 0.0000 -27.3468 0.0000
# 2 13.3734 42.1702 27.6945 0.0000 1.9227 0.0000
# 3 18.6364 27.6945 156.5104 0.0000 -42.9553 0.0000
# 4 0.0000 0.0000 0.0000 48.3620 0.0000 -4.5748
# 5 -27.3468 1.9227 -42.9553 0.0000 51.4093 0.0000
# 6 0.0000 0.0000 0.0000 -4.5748 0.0000 35.7907
#
#
#
# Elastic Compliance Matrix: (Units=1/GPa)
#
#
# Indices 1 2 3 4 5 6 
#
# 1 0.014609 -0.006440 0.002075 0.000000 0.009745 0.000000
# 2 -0.006440 0.031426 -0.007859 0.000000 -0.011167 0.000000
# 3 0.002075 -0.007859 0.010272 0.000000 0.009980 0.000000
# 4 0.000000 0.000000 0.000000 0.020930 0.000000 0.002675
# 5 0.009745 -0.011167 0.009980 0.000000 0.033393 0.000000
# 6 0.000000 0.000000 0.000000 0.002675 0.000000 0.028282
#
#
# Mechanical properties :
#
#
# Convention : Reuss Voigt Hill
#
# Bulk Modulus (GPa) = 31.38842 45.33693 38.36268
# Shear Modulus (GPa) = 28.73893 42.37369 35.55631
#
# Velocity S-wave (km/s) = 3.27450 3.97610 3.64223
# Velocity P-wave (km/s) = 5.09974 6.16394 5.65692
#
# Compressibility (1/GPa) = 0.03185888
#
# Stress axis : x y z
#
# Youngs Moduli (GPa) = 68.45180 31.82073 97.35036
#
# Poissons Ratio (x) = 0.20492 -0.20197
# Poissons Ratio (y) = 0.44081 0.76508
# Poissons Ratio (z) = -0.14201 0.25008
#
# Static dielectric constant tensor:
#      x y z
#    x 2.215990 0.000000 0.019940 
#    y 0.000000 2.135130 0.000000 
#    z 0.019940 0.000000 2.120670 
# 
# From -- ./inp_files/1331.got.cif
#   From: 2010.05.17/outbox.cif.g08.bks.cpg/sg4_1_cif.got.tgz:1331.got - 2010.06.03 18:43:04.
