data_PCOD9115326
_publ_section_title
;
Structure prediction by ZEFSAII (Michael W. Deem and Ramdas Pophale) SiO2 
 PCOD9115326
Probable space group: P 21
;
_chemical_formula_sum "Si O2"
_cell_formula_units_Z 12
_cell_length_a 6.589912
_cell_length_b 14.592359
_cell_length_c 9.780665
_cell_angle_alpha 90.000000
_cell_angle_beta 29.494231
_cell_angle_gamma 90.000000
_cell_volume 463.057614
_symmetry_space_group_name_H-M "P 21"
_symmetry_group_IT_number 4
_symmetry_cell_setting 'monoclinic'
loop_
_space_group_symop_operation_xyz
x,y,z
-x,1/2+y,-z
loop_
_atom_site_type_symbol
_atom_site_label
_atom_site_fract_x
_atom_site_fract_y
_atom_site_fract_z
Si Si1 0.668608 0.949730 0.287427
Si Si2 0.577009 0.767524 0.475300
Si Si3 0.605303 0.944095 0.775847
Si Si4 0.488697 0.746484 0.841894
Si Si5 0.438287 0.543820 0.907214
Si Si6 0.479896 0.586991 0.403745
O O1 0.469019 0.870810 0.496824
O O2 0.429045 0.973001 0.289841
O O3 0.695880 0.043226 0.355230
O O4 0.138322 0.919722 0.995876
O O5 0.418926 0.741354 0.718077
O O6 0.433920 0.695437 0.444470
O O7 0.076995 0.759183 0.176269
O O8 0.761512 0.838931 0.696044
O O9 0.703069 0.024073 0.608726
O O10 0.580986 0.992123 0.937713
O O11 0.639880 0.644569 0.793938
O O12 0.969967 0.567721 0.133017
#
# Coordination Sequence:
#
# PCOD9115326 Si02
#       6
#     2   2   2   2   2   2
#     4  10  20  38  61  85 117 161 196 246 299 356
#     4  10  20  37  63  86 123 158 202 242 306 357
#     4  10  22  38  61  87 122 156 203 246 301 358
#     4  10  20  39  59  88 123 160 192 256 302 349
#     4  10  22  38  61  87 122 156 203 246 301 358
#     4  10  20  38  61  85 117 161 196 246 299 356
#
# _framework density 25.914701000000001
#
# number of rings (size 3 to 8) (size 9 to 14) (size 15 to 20)
#    0.000    2.000    3.333    0.000    0.000    2.667 
#    0.000    3.333    0.000    0.000    0.000    0.000 
#    0.000    0.000    0.000    0.000    0.000    0.000 
#
# Total GULP energy -67016.420939 kJ/mol
# GULP energy per Si atom -5584.701745 kJ/mol
# Density = 2.585572 g / cm^3
# Si number density = 25.914701 Si / 1000 Ang^3
#
#
#
# Elastic Constant Matrix: (Units=GPa)
#
#
# Indices 1 2 3 4 5 6 
#
# 1 114.2722 50.1845 17.7084 0.0000 32.5281 0.0000
# 2 50.1845 226.0364 17.8516 0.0000 27.8903 0.0000
# 3 17.7084 17.8516 55.8081 0.0000 25.3075 0.0000
# 4 0.0000 0.0000 0.0000 45.5300 0.0000 5.0157
# 5 32.5281 27.8903 25.3075 0.0000 57.6984 0.0000
# 6 0.0000 0.0000 0.0000 5.0157 0.0000 47.4547
#
#
#
# Elastic Compliance Matrix: (Units=1/GPa)
#
#
# Indices 1 2 3 4 5 6 
#
# 1 0.011086 -0.001781 -0.000629 0.000000 -0.005113 0.000000
# 2 -0.001781 0.005006 -0.000492 0.000000 -0.001200 0.000000
# 3 -0.000629 -0.000492 0.022478 0.000000 -0.009266 0.000000
# 4 0.000000 0.000000 0.000000 0.022222 0.000000 -0.002349
# 5 -0.005113 -0.001200 -0.009266 0.000000 0.024859 0.000000
# 6 0.000000 0.000000 0.000000 -0.002349 0.000000 0.021321
#
#
# Mechanical properties :
#
#
# Convention : Reuss Voigt Hill
#
# Bulk Modulus (GPa) = 30.51980 63.06732 46.79356
# Shear Modulus (GPa) = 40.42085 50.82809 45.62447
#
# Velocity S-wave (km/s) = 3.95367 4.43353 4.20046
# Velocity P-wave (km/s) = 5.71355 7.11320 6.45144
#
# Compressibility (1/GPa) = 0.03276561
#
# Stress axis : x y z
#
# Youngs Moduli (GPa) = 90.20342 199.74499 44.48840
#
# Poissons Ratio (x) = 0.35569 0.02800
# Poissons Ratio (y) = 0.16063 0.02189
# Poissons Ratio (z) = 0.05678 0.09829
#
# Static dielectric constant tensor:
#      x y z
#    x 2.044380 0.000000 -0.128740 
#    y 0.000000 2.083610 0.000000 
#    z -0.128740 0.000000 2.177130 
# 
# From -- ./inp_files/272.got.cif
#   From: 2010.05.17/outbox.cif.g08.bks.cpg/sg4_1_cif.got.tgz:272.got - 2010.06.03 18:43:04.
