data_PCOD9115645
_publ_section_title
;
Structure prediction by ZEFSAII (Michael W. Deem and Ramdas Pophale) SiO2 
 PCOD9115645
Probable space group: P 21
;
_chemical_formula_sum "Si O2"
_cell_formula_units_Z 16
_cell_length_a 11.728979
_cell_length_b 8.030156
_cell_length_c 13.897084
_cell_angle_alpha 90.000000
_cell_angle_beta 31.543438
_cell_angle_gamma 90.000000
_cell_volume 684.746487
_symmetry_space_group_name_H-M "P 21"
_symmetry_group_IT_number 4
_symmetry_cell_setting 'monoclinic'
loop_
_space_group_symop_operation_xyz
x,y,z
-x,1/2+y,-z
loop_
_atom_site_type_symbol
_atom_site_label
_atom_site_fract_x
_atom_site_fract_y
_atom_site_fract_z
Si Si1 0.198822 0.114760 0.314862
Si Si2 0.287478 0.550095 0.878781
Si Si3 0.314454 0.658895 0.077616
Si Si4 0.124360 0.242177 0.880503
Si Si5 0.663140 0.575901 0.121381
Si Si6 0.759415 0.225103 0.661718
Si Si7 0.032339 0.420168 0.751606
Si Si8 0.637209 0.788644 0.624857
O O1 0.202665 0.223299 0.409256
O O2 0.959380 0.163909 0.450585
O O3 0.220312 0.919486 0.324227
O O4 0.421563 0.172022 0.102358
O O5 0.197577 0.376296 0.906384
O O6 0.521365 0.617475 0.674153
O O7 0.285690 0.556887 0.997396
O O8 0.119945 0.676596 0.948145
O O9 0.246119 0.612757 0.235963
O O10 0.153791 0.813359 0.170054
O O11 0.274264 0.092626 0.810961
O O12 0.137312 0.323761 0.767239
O O13 0.473424 0.696875 0.221447
O O14 0.554588 0.394098 0.188451
O O15 0.889876 0.571181 0.898041
O O16 0.237921 0.413390 0.533902
#
# Coordination Sequence:
#
# PCOD9115645 Si02
#       8
#     2   2   2   2   2   2   2   2
#     4  11  24  44  65 101 136 179 221 281 334 400
#     4  10  20  41  71  99 134 178 225 287 337 402
#     4  10  23  42  67  95 131 179 217 276 336 395
#     4  11  21  44  70  97 136 179 227 278 349 393
#     4  12  24  43  67 102 133 180 221 282 337 410
#     4  12  27  41  72  97 138 179 229 274 339 415
#     4  11  23  42  70  93 132 178 221 279 338 401
#     4  11  22  43  68  98 138 172 225 277 344 396
#
# _framework density 23.366311
#
# number of rings (size 3 to 8) (size 9 to 14) (size 15 to 20)
#    0.000    1.000    6.250    2.250    1.750    1.000 
#    0.000    1.250    0.000    0.000    0.000    0.000 
#    0.000    0.000    0.000    0.000    0.000    0.000 
#
# Total GULP energy -89085.957576 kJ/mol
# GULP energy per Si atom -5567.872349 kJ/mol
# Density = 2.331313 g / cm^3
# Si number density = 23.366311 Si / 1000 Ang^3
#
#
#
# Elastic Constant Matrix: (Units=GPa)
#
#
# Indices 1 2 3 4 5 6 
#
# 1 125.2856 8.5210 21.5746 0.0000 -19.3355 0.0000
# 2 8.5210 43.1262 -4.9727 0.0000 -6.0407 0.0000
# 3 21.5746 -4.9727 116.7508 0.0000 -11.9200 0.0000
# 4 0.0000 0.0000 0.0000 17.1257 0.0000 -18.3040
# 5 -19.3355 -6.0407 -11.9200 0.0000 20.1272 0.0000
# 6 0.0000 0.0000 0.0000 -18.3040 0.0000 37.6929
#
#
#
# Elastic Compliance Matrix: (Units=1/GPa)
#
#
# Indices 1 2 3 4 5 6 
#
# 1 0.009481 -0.000818 -0.000939 0.000000 0.008307 0.000000
# 2 -0.000818 0.024673 0.001999 0.000000 0.007803 0.000000
# 3 -0.000939 0.001999 0.009359 0.000000 0.005241 0.000000
# 4 0.000000 0.000000 0.000000 0.121401 0.000000 0.058953
# 5 0.008307 0.007803 0.005241 0.000000 0.063110 0.000000
# 6 0.000000 0.000000 0.000000 0.058953 0.000000 0.055158
#
#
# Mechanical properties :
#
#
# Convention : Reuss Voigt Hill
#
# Bulk Modulus (GPa) = 22.72907 37.26761 29.99834
# Shear Modulus (GPa) = 16.81443 32.32513 24.56978
#
# Velocity S-wave (km/s) = 2.68545 3.72345 3.24621
# Velocity P-wave (km/s) = 4.40045 5.87106 5.18813
#
# Compressibility (1/GPa) = 0.04399652
#
# Stress axis : x y z
#
# Youngs Moduli (GPa) = 105.47364 40.53046 106.84993
#
# Poissons Ratio (x) = 0.03316 0.10031
# Poissons Ratio (y) = 0.08628 -0.21356
# Poissons Ratio (z) = 0.09902 -0.08101
#
# Static dielectric constant tensor:
#      x y z
#    x 1.908520 0.000000 0.008930 
#    y 0.000000 2.036480 0.000000 
#    z 0.008930 0.000000 1.889650 
# 
# From -- ./inp_files/13926.got.cif
#   From: 2010.05.17/outbox.cif.g08.bks.cpg/sg4_7_cif.got.tgz:13926.got - 2010.06.03 18:43:04.
