data_PCOD9115921
_publ_section_title
;
Structure prediction by ZEFSAII (Michael W. Deem and Ramdas Pophale) SiO2 
 PCOD9115921
Probable space group: P 21
;
_chemical_formula_sum "Si O2"
_cell_formula_units_Z 16
_cell_length_a 10.876716
_cell_length_b 5.195924
_cell_length_c 12.905946
_cell_angle_alpha 90.000000
_cell_angle_beta 92.684928
_cell_angle_gamma 90.000000
_cell_volume 728.573559
_symmetry_space_group_name_H-M "P 21"
_symmetry_group_IT_number 4
_symmetry_cell_setting 'monoclinic'
loop_
_space_group_symop_operation_xyz
x,y,z
-x,1/2+y,-z
loop_
_atom_site_type_symbol
_atom_site_label
_atom_site_fract_x
_atom_site_fract_y
_atom_site_fract_z
Si Si1 0.398824 0.771260 0.598765
Si Si2 0.785481 0.480387 0.247252
Si Si3 0.069302 0.473484 0.694564
Si Si4 0.870519 0.854480 0.906903
Si Si5 0.806080 0.916678 0.502656
Si Si6 0.162192 0.853468 0.969526
Si Si7 0.173534 0.702670 0.285598
Si Si8 0.640263 0.527217 0.614434
O O1 0.323459 0.951893 0.674084
O O2 0.305568 0.535669 0.570316
O O3 0.531580 0.706562 0.649885
O O4 0.421063 0.878953 0.484433
O O5 0.839917 0.766754 0.248581
O O6 0.756557 0.405157 0.128466
O O7 0.887025 0.266379 0.288323
O O8 0.083536 0.398913 0.574027
O O9 0.937143 0.403770 0.735765
O O10 0.834929 0.966779 0.793599
O O11 0.819716 0.073262 0.982581
O O12 0.019208 0.864167 0.925304
O O13 0.826266 0.576696 0.944004
O O14 0.752470 0.671073 0.560307
O O15 0.840223 0.101735 0.597848
O O16 0.303368 0.847307 0.295795
#
# Coordination Sequence:
#
# PCOD9115921 Si02
#       8
#     2   2   2   2   2   2   2   2
#     4  10  21  39  61  90 126 166 226 265 310 375
#     4  11  22  40  66  94 124 170 211 276 317 379
#     4  11  24  38  60  93 137 167 209 251 326 401
#     4  10  22  38  60  89 127 162 207 258 316 398
#     4  10  23  37  57  87 125 171 207 259 312 376
#     4  10  21  38  62  89 123 162 208 263 319 376
#     4  11  26  36  60  91 134 174 208 262 331 395
#     4  11  21  38  60  89 128 174 216 266 311 380
#
# _framework density 21.960719000000001
#
# number of rings (size 3 to 8) (size 9 to 14) (size 15 to 20)
#    0.000    1.500    3.750    0.750    8.750    0.000 
#    0.000    0.000    0.000    0.000    3.250    0.000 
#    0.000    0.000    0.000    0.000    0.000    0.000 
#
# Total GULP energy -89417.264572 kJ/mol
# GULP energy per Si atom -5588.579036 kJ/mol
# Density = 2.191074 g / cm^3
# Si number density = 21.960719 Si / 1000 Ang^3
#
#
#
# Elastic Constant Matrix: (Units=GPa)
#
#
# Indices 1 2 3 4 5 6 
#
# 1 51.4142 6.1734 25.2344 0.0000 2.2178 0.0000
# 2 6.1734 52.9135 -2.2539 0.0000 6.8321 0.0000
# 3 25.2344 -2.2539 68.1547 0.0000 -7.8805 0.0000
# 4 0.0000 0.0000 0.0000 35.2353 0.0000 -2.0994
# 5 2.2178 6.8321 -7.8805 0.0000 12.2264 0.0000
# 6 0.0000 0.0000 0.0000 -2.0994 0.0000 24.0731
#
#
#
# Elastic Compliance Matrix: (Units=1/GPa)
#
#
# Indices 1 2 3 4 5 6 
#
# 1 0.025374 -0.002084 -0.010656 0.000000 -0.010307 0.000000
# 2 -0.002084 0.020570 0.000180 0.000000 -0.011001 0.000000
# 3 -0.010656 0.000180 0.020352 0.000000 0.014950 0.000000
# 4 0.000000 0.000000 0.000000 0.028529 0.000000 0.002488
# 5 -0.010307 -0.011001 0.014950 0.000000 0.099443 0.000000
# 6 0.000000 0.000000 0.000000 0.002488 0.000000 0.041757
#
#
# Mechanical properties :
#
#
# Convention : Reuss Voigt Hill
#
# Bulk Modulus (GPa) = 24.28486 25.64338 24.96412
# Shear Modulus (GPa) = 18.19038 23.86219 21.02628
#
# Velocity S-wave (km/s) = 2.88117 3.29991 3.09763
# Velocity P-wave (km/s) = 4.70643 5.12070 4.91793
#
# Compressibility (1/GPa) = 0.04117793
#
# Stress axis : x y z
#
# Youngs Moduli (GPa) = 39.40976 48.61469 49.13438
#
# Poissons Ratio (x) = 0.10129 0.52355
# Poissons Ratio (y) = 0.08211 -0.00883
# Poissons Ratio (z) = 0.41993 -0.00874
#
# Static dielectric constant tensor:
#      x y z
#    x 1.802770 0.000000 0.003500 
#    y 0.000000 1.876160 0.000000 
#    z 0.003500 0.000000 1.824630 
# 
# From -- ./inp_files/11693.got.cif
#   From: 2010.05.17/outbox.cif.g08.bks.cpg/sg4_6_cif.got.tgz:11693.got - 2010.06.03 18:43:04.
