data_PCOD9115624
_publ_section_title
;
Structure prediction by ZEFSAII (Michael W. Deem and Ramdas Pophale) SiO2 
 PCOD9115624
Probable space group: P 21
;
_chemical_formula_sum "Si O2"
_cell_formula_units_Z 14
_cell_length_a 7.274165
_cell_length_b 7.667362
_cell_length_c 16.290640
_cell_angle_alpha 90.000000
_cell_angle_beta 142.745362
_cell_angle_gamma 90.000000
_cell_volume 550.021734
_symmetry_space_group_name_H-M "P 21"
_symmetry_group_IT_number 4
_symmetry_cell_setting 'monoclinic'
loop_
_space_group_symop_operation_xyz
x,y,z
-x,1/2+y,-z
loop_
_atom_site_type_symbol
_atom_site_label
_atom_site_fract_x
_atom_site_fract_y
_atom_site_fract_z
Si Si1 0.220764 0.225620 0.635522
Si Si2 0.118085 0.103595 0.129706
Si Si3 0.693998 0.667076 0.504634
Si Si4 0.234280 0.341552 0.910294
Si Si5 0.329840 0.565469 0.786234
Si Si6 0.444173 0.770641 0.586418
Si Si7 0.435334 0.059087 0.864677
O O1 0.351932 0.275114 0.593896
O O2 0.255820 0.389670 0.707196
O O3 0.509214 0.207495 0.489821
O O4 0.339646 0.069563 0.736228
O O5 0.337124 0.111727 0.129398
O O6 0.280409 0.216897 0.257295
O O7 0.058675 0.907480 0.143872
O O8 0.768996 0.153253 0.986612
O O9 0.612349 0.475624 0.441799
O O10 0.038605 0.681936 0.660016
O O11 0.132314 0.688501 0.507656
O O12 0.303975 0.495300 0.869458
O O13 0.502713 0.369608 0.073046
O O14 0.224867 0.167922 0.853140
#
# Coordination Sequence:
#
# PCOD9115624 Si02
#       7
#     2   2   2   2   2   2   2
#     4  10  23  41  62  97 130 160 217 268 317 376
#     4  10  21  42  64  90 124 169 214 249 325 381
#     4  11  23  40  67  98 129 165 220 269 311 383
#     4   9  20  42  63  87 128 163 211 256 313 383
#     4  10  20  41  67  88 126 175 202 261 327 376
#     4  11  24  41  68  95 126 173 216 259 327 379
#     4   9  21  43  63  93 127 165 208 266 316 376
#
# _framework density 25.453538999999999
#
# number of rings (size 3 to 8) (size 9 to 14) (size 15 to 20)
#    0.857    1.143    2.857    0.000    2.000    1.143 
#   15.429    0.000    0.000    0.000    0.000    0.000 
#    0.000    0.000    0.000    0.000    0.000    0.000 
#
# Total GULP energy -78215.477023 kJ/mol
# GULP energy per Si atom -5586.819787 kJ/mol
# Density = 2.539561 g / cm^3
# Si number density = 25.453539 Si / 1000 Ang^3
#
#
#
# Elastic Constant Matrix: (Units=GPa)
#
#
# Indices 1 2 3 4 5 6 
#
# 1 60.8894 -3.9665 8.1693 0.0000 -6.7157 0.0000
# 2 -3.9665 27.1830 1.8544 0.0000 7.4477 0.0000
# 3 8.1693 1.8544 76.4369 0.0000 4.4757 0.0000
# 4 0.0000 0.0000 0.0000 27.3351 0.0000 6.4383
# 5 -6.7157 7.4477 4.4757 0.0000 45.0192 0.0000
# 6 0.0000 0.0000 0.0000 6.4383 0.0000 25.9758
#
#
#
# Elastic Compliance Matrix: (Units=1/GPa)
#
#
# Indices 1 2 3 4 5 6 
#
# 1 0.017089 0.001967 -0.002016 0.000000 0.002424 0.000000
# 2 0.001967 0.038785 -0.000797 0.000000 -0.006044 0.000000
# 3 -0.002016 -0.000797 0.013405 0.000000 -0.001502 0.000000
# 4 0.000000 0.000000 0.000000 0.038851 0.000000 -0.009629
# 5 0.002424 -0.006044 -0.001502 0.000000 0.023724 0.000000
# 6 0.000000 0.000000 0.000000 -0.009629 0.000000 0.040884
#
#
# Mechanical properties :
#
#
# Convention : Reuss Voigt Hill
#
# Bulk Modulus (GPa) = 14.79581 19.62487 17.21034
# Shear Modulus (GPa) = 25.38588 30.22951 27.80769
#
# Velocity S-wave (km/s) = 3.16150 3.44995 3.30887
# Velocity P-wave (km/s) = 4.37633 4.85760 4.62323
#
# Compressibility (1/GPa) = 0.06758670
#
# Stress axis : x y z
#
# Youngs Moduli (GPa) = 58.51641 25.78321 74.59665
#
# Poissons Ratio (x) = -0.05071 0.15040
# Poissons Ratio (y) = -0.11510 0.05948
# Poissons Ratio (z) = 0.11798 0.02056
#
# Static dielectric constant tensor:
#      x y z
#    x 2.235930 0.000000 -0.088940 
#    y 0.000000 2.094600 0.000000 
#    z -0.088940 0.000000 2.059800 
# 
# From -- ./inp_files/14454.got.cif
#   From: 2010.05.17/outbox.cif.g08.bks.cpg/sg4_8_cif.got.tgz:14454.got - 2010.06.03 18:43:04.
