data_PCOD9115611
_publ_section_title
;
Structure prediction by ZEFSAII (Michael W. Deem and Ramdas Pophale) SiO2 
 PCOD9115611
Probable space group: P 21
;
_chemical_formula_sum "Si O2"
_cell_formula_units_Z 16
_cell_length_a 9.880892
_cell_length_b 12.941841
_cell_length_c 5.903801
_cell_angle_alpha 90.000000
_cell_angle_beta 113.964429
_cell_angle_gamma 90.000000
_cell_volume 689.880753
_symmetry_space_group_name_H-M "P 21"
_symmetry_group_IT_number 4
_symmetry_cell_setting 'monoclinic'
loop_
_space_group_symop_operation_xyz
x,y,z
-x,1/2+y,-z
loop_
_atom_site_type_symbol
_atom_site_label
_atom_site_fract_x
_atom_site_fract_y
_atom_site_fract_z
Si Si1 0.047439 0.078880 0.950698
Si Si2 0.865860 0.741848 0.609256
Si Si3 0.861716 0.191008 0.439960
Si Si4 0.687193 0.594010 0.153583
Si Si5 0.811250 0.000349 0.075423
Si Si6 0.371085 0.379290 0.683312
Si Si7 0.529069 0.260003 0.156407
Si Si8 0.521043 0.975174 0.641911
O O1 0.932589 0.143192 0.715174
O O2 0.187350 0.036408 0.906272
O O3 0.110427 0.165220 0.165928
O O4 0.956491 0.989601 0.019613
O O5 0.782503 0.678185 0.355907
O O6 0.749142 0.832272 0.572935
O O7 0.022937 0.769468 0.602368
O O8 0.696686 0.233561 0.332445
O O9 0.853913 0.093735 0.266845
O O10 0.604497 0.528998 0.291830
O O11 0.574574 0.658770 0.918732
O O12 0.738842 0.915121 0.189583
O O13 0.672153 0.029053 0.825111
O O14 0.462622 0.468112 0.617523
O O15 0.493275 0.305238 0.880103
O O16 0.487262 0.354798 0.290487
#
# Coordination Sequence:
#
# PCOD9115611 Si02
#       8
#     2   2   2   2   2   2   2   2
#     4  10  21  40  69  95 124 178 216 265 335 389
#     4   9  21  40  64  93 131 174 216 269 328 387
#     4  10  20  41  64  93 131 166 213 270 330 390
#     4  10  21  42  68  95 133 167 221 276 327 385
#     4  10  21  40  65  92 131 168 217 263 329 390
#     4  10  22  41  65  96 130 170 224 267 327 394
#     4  10  22  41  66  99 130 169 221 278 323 389
#     4  11  22  39  67  99 130 176 216 272 331 388
#
# _framework density 23.192413999999999
#
# number of rings (size 3 to 8) (size 9 to 14) (size 15 to 20)
#    0.000    2.000    1.250    1.500    0.000    5.000 
#   15.750    0.000    0.000    0.000    0.000    0.000 
#    0.000    0.000    0.000    0.000    0.000    0.000 
#
# Total GULP energy -89230.450160 kJ/mol
# GULP energy per Si atom -5576.903135 kJ/mol
# Density = 2.313963 g / cm^3
# Si number density = 23.192414 Si / 1000 Ang^3
#
#
#
# Elastic Constant Matrix: (Units=GPa)
#
#
# Indices 1 2 3 4 5 6 
#
# 1 201.0249 46.0451 31.9728 0.0000 2.0071 0.0000
# 2 46.0451 50.2310 21.5600 0.0000 4.1995 0.0000
# 3 31.9728 21.5600 44.3403 0.0000 21.3528 0.0000
# 4 0.0000 0.0000 0.0000 19.7692 0.0000 -0.7034
# 5 2.0071 4.1995 21.3528 0.0000 28.9109 0.0000
# 6 0.0000 0.0000 0.0000 -0.7034 0.0000 31.4005
#
#
#
# Elastic Compliance Matrix: (Units=1/GPa)
#
#
# Indices 1 2 3 4 5 6 
#
# 1 0.006652 -0.004598 -0.004129 0.000000 0.003255 0.000000
# 2 -0.004598 0.029706 -0.014286 0.000000 0.006555 0.000000
# 3 -0.004129 -0.014286 0.048638 0.000000 -0.033561 0.000000
# 4 0.000000 0.000000 0.000000 0.050624 0.000000 0.001134
# 5 0.003255 0.006555 -0.033561 0.000000 0.058198 0.000000
# 6 0.000000 0.000000 0.000000 0.001134 0.000000 0.031872
#
#
# Mechanical properties :
#
#
# Convention : Reuss Voigt Hill
#
# Bulk Modulus (GPa) = 25.65952 54.97246 40.31599
# Shear Modulus (GPa) = 17.56204 29.08402 23.32303
#
# Velocity S-wave (km/s) = 2.75477 3.54507 3.17461
# Velocity P-wave (km/s) = 4.60501 6.36482 5.55505
#
# Compressibility (1/GPa) = 0.03897190
#
# Stress axis : x y z
#
# Youngs Moduli (GPa) = 150.33708 33.66303 20.55999
#
# Poissons Ratio (x) = 0.15477 0.08488
# Poissons Ratio (y) = 0.69118 0.29372
# Poissons Ratio (z) = 0.62067 0.48091
#
# Static dielectric constant tensor:
#      x y z
#    x 1.949880 0.000000 -0.077580 
#    y 0.000000 1.925150 0.000000 
#    z -0.077580 0.000000 1.975230 
# 
# From -- ./inp_files/1550.got.cif
#   From: 2010.05.17/outbox.cif.g08.bks.cpg/sg4_1_cif.got.tgz:1550.got - 2010.06.03 18:43:04.
