data_PCOD9115604
_publ_section_title
;
Structure prediction by ZEFSAII (Michael W. Deem and Ramdas Pophale) SiO2 
 PCOD9115604
Probable space group: P 21
;
_chemical_formula_sum "Si O2"
_cell_formula_units_Z 14
_cell_length_a 7.753899
_cell_length_b 17.273502
_cell_length_c 4.974782
_cell_angle_alpha 90.000000
_cell_angle_beta 62.921819
_cell_angle_gamma 90.000000
_cell_volume 593.270860
_symmetry_space_group_name_H-M "P 21"
_symmetry_group_IT_number 4
_symmetry_cell_setting 'monoclinic'
loop_
_space_group_symop_operation_xyz
x,y,z
-x,1/2+y,-z
loop_
_atom_site_type_symbol
_atom_site_label
_atom_site_fract_x
_atom_site_fract_y
_atom_site_fract_z
Si Si1 0.797157 0.810390 0.612172
Si Si2 0.934550 0.185671 0.804544
Si Si3 0.425599 0.864108 0.690009
Si Si4 0.017543 0.375285 0.019633
Si Si5 0.149910 0.524011 0.229398
Si Si6 0.411708 0.534738 0.547186
Si Si7 0.345157 0.704490 0.492954
O O1 0.575906 0.835604 0.809608
O O2 0.877543 0.734662 0.406610
O O3 0.905182 0.813770 0.818158
O O4 0.859087 0.871833 0.337360
O O5 0.985076 0.096816 0.724615
O O6 0.761369 0.204689 0.717238
O O7 0.828239 0.194688 0.164886
O O8 0.200485 0.864352 0.920702
O O9 0.441321 0.788592 0.479925
O O10 0.470093 0.953904 0.577032
O O11 0.043954 0.450617 0.182810
O O12 0.228161 0.526301 0.475164
O O13 0.339353 0.533903 0.905389
O O14 0.472288 0.624794 0.437726
#
# Coordination Sequence:
#
# PCOD9115604 Si02
#       7
#     2   2   2   2   2   2   2
#     4  12  24  41  62  98 126 166 214 262 316 388
#     4  10  20  41  63  87 129 169 208 265 317 372
#     4  12  24  40  72  92 134 170 212 268 328 380
#     4  12  24  41  62  98 126 166 214 262 316 388
#     4  10  20  41  63  87 129 169 208 265 317 372
#     4  10  22  39  63  95 126 166 218 264 312 382
#     4  10  22  39  63  95 126 166 218 264 312 382
#
# _framework density 23.597992000000001
#
# number of rings (size 3 to 8) (size 9 to 14) (size 15 to 20)
#    0.000    1.143    5.714    0.000    0.000    5.714 
#    0.000    0.000    0.000   10.286    0.000    0.000 
#    0.000    0.000    0.000    0.000    0.000    0.000 
#
# Total GULP energy -78016.712864 kJ/mol
# GULP energy per Si atom -5572.622347 kJ/mol
# Density = 2.354428 g / cm^3
# Si number density = 23.597992 Si / 1000 Ang^3
#
#
#
# Elastic Constant Matrix: (Units=GPa)
#
#
# Indices 1 2 3 4 5 6 
#
# 1 72.1800 3.9605 22.1419 0.0000 5.0841 0.0000
# 2 3.9605 138.0191 -7.8627 0.0000 10.3399 0.0000
# 3 22.1419 -7.8627 68.2741 0.0000 22.3443 0.0000
# 4 0.0000 0.0000 0.0000 21.6464 0.0000 1.1673
# 5 5.0841 10.3399 22.3443 0.0000 20.6168 0.0000
# 6 0.0000 0.0000 0.0000 1.1673 0.0000 45.5963
#
#
#
# Elastic Compliance Matrix: (Units=1/GPa)
#
#
# Indices 1 2 3 4 5 6 
#
# 1 0.015612 -0.001079 -0.006361 0.000000 0.003585 0.000000
# 2 -0.001079 0.008102 0.003914 0.000000 -0.008039 0.000000
# 3 -0.006361 0.003914 0.026793 0.000000 -0.029432 0.000000
# 4 0.000000 0.000000 0.000000 0.046261 0.000000 -0.001184
# 5 0.003585 -0.008039 -0.029432 0.000000 0.083550 0.000000
# 6 0.000000 0.000000 0.000000 -0.001184 0.000000 0.021962
#
#
# Mechanical properties :
#
#
# Convention : Reuss Voigt Hill
#
# Bulk Modulus (GPa) = 23.01236 34.99474 29.00355
# Shear Modulus (GPa) = 22.33985 34.92081 28.63033
#
# Velocity S-wave (km/s) = 3.08016 3.85102 3.48696
# Velocity P-wave (km/s) = 4.73528 5.88519 5.34127
#
# Compressibility (1/GPa) = 0.04345492
#
# Stress axis : x y z
#
# Youngs Moduli (GPa) = 64.05273 123.43336 37.32365
#
# Poissons Ratio (x) = 0.13317 0.23740
# Poissons Ratio (y) = 0.06911 -0.14608
# Poissons Ratio (z) = 0.40741 -0.48309
#
# Static dielectric constant tensor:
#      x y z
#    x 1.892550 0.000000 -0.016530 
#    y 0.000000 2.060950 0.000000 
#    z -0.016530 0.000000 1.824920 
# 
# From -- ./inp_files/2084.got.cif
#   From: 2010.05.17/outbox.cif.g08.bks.cpg/sg4_2_cif.got.tgz:2084.got - 2010.06.03 18:43:04.
