data_PCOD9115108
_publ_section_title
;
Structure prediction by ZEFSAII (Michael W. Deem and Ramdas Pophale) SiO2 
 PCOD9115108
Probable space group: P 21
;
_chemical_formula_sum "Si O2"
_cell_formula_units_Z 16
_cell_length_a 13.601684
_cell_length_b 7.418643
_cell_length_c 18.520804
_cell_angle_alpha 90.000000
_cell_angle_beta 160.300488
_cell_angle_gamma 90.000000
_cell_volume 629.969179
_symmetry_space_group_name_H-M "P 21"
_symmetry_group_IT_number 4
_symmetry_cell_setting 'monoclinic'
loop_
_space_group_symop_operation_xyz
x,y,z
-x,1/2+y,-z
loop_
_atom_site_type_symbol
_atom_site_label
_atom_site_fract_x
_atom_site_fract_y
_atom_site_fract_z
Si Si1 0.360342 0.881160 0.930058
Si Si2 0.808030 0.985100 0.620071
Si Si3 0.723079 0.629174 0.363161
Si Si4 0.310097 0.523372 0.702054
Si Si5 0.719179 0.994684 0.051983
Si Si6 0.775677 0.364047 0.832217
Si Si7 0.123973 0.133787 0.974875
Si Si8 0.277605 0.093076 0.474988
O O1 0.057419 0.993752 0.729972
O O2 0.508018 0.871139 0.954143
O O3 0.568477 0.957760 0.136568
O O4 0.301247 0.677291 0.913738
O O5 0.472271 0.007804 0.365489
O O6 0.808843 0.768311 0.633866
O O7 0.910354 0.088284 0.760948
O O8 0.694935 0.844132 0.350080
O O9 0.435149 0.547688 0.128591
O O10 0.799546 0.557739 0.494561
O O11 0.990534 0.599128 0.493138
O O12 0.551869 0.650140 0.833806
O O13 0.063573 0.947174 0.289006
O O14 0.606852 0.169104 0.717313
O O15 0.880008 0.454120 0.977827
O O16 0.029656 0.310016 0.953363
#
# Coordination Sequence:
#
# PCOD9115108 Si02
#       8
#     2   2   2   2   2   2   2   2
#     4   9  18  34  55  84 119 155 201 237 296 369
#     4   8  20  38  64  79 124 167 202 252 314 369
#     4  11  21  35  62  90 126 164 197 248 316 373
#     4  10  21  38  59  91 125 162 200 253 307 382
#     4  10  20  31  57  87 117 160 198 239 297 374
#     4  10  23  40  71  87 128 168 216 270 316 380
#     4  11  22  44  65  97 123 167 220 265 321 373
#     4   9  19  38  59  87 118 167 196 246 313 370
#
# _framework density 25.398067999999999
#
# number of rings (size 3 to 8) (size 9 to 14) (size 15 to 20)
#    0.750    1.500    2.500    0.750    5.250    1.000 
#    2.250    0.000    5.500    0.000    0.000    0.000 
#    0.000    0.000    0.000    0.000    0.000    0.000 
#
# Total GULP energy -89157.519894 kJ/mol
# GULP energy per Si atom -5572.344993 kJ/mol
# Density = 2.534026 g / cm^3
# Si number density = 25.398068 Si / 1000 Ang^3
#
#
#
# Elastic Constant Matrix: (Units=GPa)
#
#
# Indices 1 2 3 4 5 6 
#
# 1 80.6833 28.0725 43.9751 0.0000 -15.6539 0.0000
# 2 28.0725 54.7631 20.1150 0.0000 -10.6138 0.0000
# 3 43.9751 20.1150 108.3902 0.0000 -17.2088 0.0000
# 4 0.0000 0.0000 0.0000 8.9573 0.0000 9.5656
# 5 -15.6539 -10.6138 -17.2088 0.0000 38.6877 0.0000
# 6 0.0000 0.0000 0.0000 9.5656 0.0000 42.2912
#
#
#
# Elastic Compliance Matrix: (Units=1/GPa)
#
#
# Indices 1 2 3 4 5 6 
#
# 1 0.018479 -0.006765 -0.005756 0.000000 0.003061 0.000000
# 2 -0.006765 0.022679 -0.000980 0.000000 0.003049 0.000000
# 3 -0.005756 -0.000980 0.012191 0.000000 0.002825 0.000000
# 4 0.000000 0.000000 0.000000 0.147194 0.000000 -0.033293
# 5 0.003061 0.003049 0.002825 0.000000 0.029179 0.000000
# 6 0.000000 0.000000 0.000000 -0.033293 0.000000 0.031176
#
#
# Mechanical properties :
#
#
# Convention : Reuss Voigt Hill
#
# Bulk Modulus (GPa) = 37.95392 47.57354 42.76373
# Shear Modulus (GPa) = 16.85296 28.09885 22.47591
#
# Velocity S-wave (km/s) = 2.57875 3.32977 2.97803
# Velocity P-wave (km/s) = 4.88289 5.79267 5.35713
#
# Compressibility (1/GPa) = 0.02634774
#
# Stress axis : x y z
#
# Youngs Moduli (GPa) = 54.11593 44.09306 82.02457
#
# Poissons Ratio (x) = 0.29830 0.47210
# Poissons Ratio (y) = 0.36611 0.08039
# Poissons Ratio (z) = 0.31147 0.04321
#
# Static dielectric constant tensor:
#      x y z
#    x 2.021250 0.000000 0.130550 
#    y 0.000000 2.114040 0.000000 
#    z 0.130550 0.000000 2.127680 
# 
# From -- ./inp_files/15841.got.cif
#   From: 2010.05.17/outbox.cif.g08.bks.cpg/sg4_8_cif.got.tgz:15841.got - 2010.06.03 18:43:04.
