data_PCOD9115019
_publ_section_title
;
Structure prediction by ZEFSAII (Michael W. Deem and Ramdas Pophale) SiO2 
 PCOD9115019
Probable space group: P 21
;
_chemical_formula_sum "Si O2"
_cell_formula_units_Z 14
_cell_length_a 7.575785
_cell_length_b 11.878628
_cell_length_c 7.380335
_cell_angle_alpha 90.000000
_cell_angle_beta 125.478044
_cell_angle_gamma 90.000000
_cell_volume 540.847332
_symmetry_space_group_name_H-M "P 21"
_symmetry_group_IT_number 4
_symmetry_cell_setting 'monoclinic'
loop_
_space_group_symop_operation_xyz
x,y,z
-x,1/2+y,-z
loop_
_atom_site_type_symbol
_atom_site_label
_atom_site_fract_x
_atom_site_fract_y
_atom_site_fract_z
Si Si1 0.680459 0.119780 0.562856
Si Si2 0.195885 0.189065 0.208785
Si Si3 0.668479 0.383334 0.201778
Si Si4 0.229031 0.279710 0.825915
Si Si5 0.799697 0.379246 0.655246
Si Si6 0.055025 0.655572 0.613007
Si Si7 0.988448 0.939263 0.858546
O O1 0.424380 0.132177 0.394165
O O2 0.743035 0.247541 0.652781
O O3 0.793545 0.087860 0.436792
O O4 0.804285 0.033173 0.765095
O O5 0.205807 0.205549 0.996877
O O6 0.021437 0.124457 0.231910
O O7 0.141285 0.320009 0.231688
O O8 0.447731 0.351392 0.969363
O O9 0.646208 0.418432 0.399519
O O10 0.789012 0.263310 0.274173
O O11 0.843384 0.459124 0.205036
O O12 0.038868 0.371780 0.712591
O O13 0.164024 0.198838 0.621192
O O14 0.841017 0.430430 0.874653
#
# Coordination Sequence:
#
# PCOD9115019 Si02
#       7
#     2   2   2   2   2   2   2
#     4  10  20  42  60  92 132 156 221 266 288 399
#     4  10  19  39  62  87 128 165 199 262 314 358
#     4   9  17  35  59  84 118 158 196 257 310 361
#     4   9  16  33  62  83 114 159 198 243 309 366
#     4   9  20  38  61  84 125 160 203 262 306 370
#     4   9  20  35  59  88 117 157 203 255 307 366
#     4  10  22  38  63  92 124 171 210 253 326 368
#
# _framework density 25.88531
#
# number of rings (size 3 to 8) (size 9 to 14) (size 15 to 20)
#    0.000    2.857    2.857    0.000    2.000    0.000 
#    5.143   12.857    0.000    0.000    0.000    0.000 
#    0.000    0.000    0.000    0.000    0.000    0.000 
#
# Total GULP energy -78073.522411 kJ/mol
# GULP energy per Si atom -5576.680172 kJ/mol
# Density = 2.582639 g / cm^3
# Si number density = 25.885310 Si / 1000 Ang^3
#
#
#
# Elastic Constant Matrix: (Units=GPa)
#
#
# Indices 1 2 3 4 5 6 
#
# 1 93.6487 23.4626 41.1339 0.0000 7.8453 0.0000
# 2 23.4626 81.2436 31.4018 0.0000 -3.3640 0.0000
# 3 41.1339 31.4018 76.8196 0.0000 14.1929 0.0000
# 4 0.0000 0.0000 0.0000 38.1046 0.0000 5.1696
# 5 7.8453 -3.3640 14.1929 0.0000 49.8084 0.0000
# 6 0.0000 0.0000 0.0000 5.1696 0.0000 26.3570
#
#
#
# Elastic Compliance Matrix: (Units=1/GPa)
#
#
# Indices 1 2 3 4 5 6 
#
# 1 0.014095 -0.001416 -0.006904 0.000000 -0.000348 0.000000
# 2 -0.001416 0.015151 -0.005980 0.000000 0.002950 0.000000
# 3 -0.006904 -0.005980 0.020090 0.000000 -0.005041 0.000000
# 4 0.000000 0.000000 0.000000 0.026961 0.000000 -0.005288
# 5 -0.000348 0.002950 -0.005041 0.000000 0.021768 0.000000
# 6 0.000000 0.000000 0.000000 -0.005288 0.000000 0.038978
#
#
# Mechanical properties :
#
#
# Convention : Reuss Voigt Hill
#
# Bulk Modulus (GPa) = 48.22663 49.30092 48.76378
# Shear Modulus (GPa) = 28.97631 33.23490 31.10561
#
# Velocity S-wave (km/s) = 3.34939 3.58708 3.47027
# Velocity P-wave (km/s) = 5.79907 6.02026 5.91070
#
# Compressibility (1/GPa) = 0.02073543
#
# Stress axis : x y z
#
# Youngs Moduli (GPa) = 70.94889 66.00100 49.77582
#
# Poissons Ratio (x) = 0.09349 0.34364
# Poissons Ratio (y) = 0.10050 0.29766
# Poissons Ratio (z) = 0.48981 0.39469
#
# Static dielectric constant tensor:
#      x y z
#    x 2.059320 0.000000 -0.058320 
#    y 0.000000 2.131390 0.000000 
#    z -0.058320 0.000000 2.118070 
# 
# From -- ./inp_files/6770.got.cif
#   From: 2010.05.17/outbox.cif.g08.bks.cpg/sg4_4_cif.got.tgz:6770.got - 2010.06.03 18:43:04.
