data_PCOD9115920
_publ_section_title
;
Structure prediction by ZEFSAII (Michael W. Deem and Ramdas Pophale) SiO2 
 PCOD9115920
Probable space group: P 21
;
_chemical_formula_sum "Si O2"
_cell_formula_units_Z 12
_cell_length_a 12.863353
_cell_length_b 5.336956
_cell_length_c 8.557223
_cell_angle_alpha 90.000000
_cell_angle_beta 70.705178
_cell_angle_gamma 90.000000
_cell_volume 554.465864
_symmetry_space_group_name_H-M "P 21"
_symmetry_group_IT_number 4
_symmetry_cell_setting 'monoclinic'
loop_
_space_group_symop_operation_xyz
x,y,z
-x,1/2+y,-z
loop_
_atom_site_type_symbol
_atom_site_label
_atom_site_fract_x
_atom_site_fract_y
_atom_site_fract_z
Si Si1 0.971610 0.276160 0.659935
Si Si2 0.814573 0.006986 0.529455
Si Si3 0.972938 0.775606 0.868277
Si Si4 0.435806 0.517857 0.723285
Si Si5 0.814282 0.039251 0.157310
Si Si6 0.564523 0.012315 0.659187
O O1 0.873297 0.238304 0.585936
O O2 0.960843 0.525954 0.769799
O O3 0.088600 0.299494 0.511863
O O4 0.971824 0.026021 0.764518
O O5 0.800633 0.023464 0.350273
O O6 0.690835 0.987312 0.652584
O O7 0.090810 0.751340 0.897291
O O8 0.875545 0.811603 0.041095
O O9 0.309834 0.550300 0.842275
O O10 0.501316 0.763616 0.740542
O O11 0.435230 0.514919 0.532258
O O12 0.499202 0.263827 0.739844
#
# Coordination Sequence:
#
# PCOD9115920 Si02
#       6
#     2   2   2   2   2   2
#     4  11  24  39  59  93 128 159 198 252 312 364
#     4  10  21  38  62  88 120 158 202 247 301 366
#     4  11  24  39  59  93 128 159 198 252 312 364
#     4   9  19  33  53  83 115 149 194 249 298 344
#     4  10  21  38  62  88 120 158 202 247 301 366
#     4   9  19  33  53  83 115 149 194 249 298 344
#
# _framework density 21.642451000000001
#
# number of rings (size 3 to 8) (size 9 to 14) (size 15 to 20)
#    0.000    2.000    0.000    4.000    0.000   14.667 
#    0.000    0.000    0.000    4.000    0.000    0.000 
#    0.000    0.000    0.000    0.000    0.000    0.000 
#
# Total GULP energy -66872.505681 kJ/mol
# GULP energy per Si atom -5572.708807 kJ/mol
# Density = 2.159319 g / cm^3
# Si number density = 21.642451 Si / 1000 Ang^3
#
#
#
# Elastic Constant Matrix: (Units=GPa)
#
#
# Indices 1 2 3 4 5 6 
#
# 1 117.3468 50.6970 75.2433 0.0000 -77.5312 0.0000
# 2 50.6970 177.1666 69.3893 0.0000 -22.2559 0.0000
# 3 75.2433 69.3893 52.1773 0.0000 -9.4953 0.0000
# 4 0.0000 0.0000 0.0000 35.1269 0.0000 2.8472
# 5 -77.5312 -22.2559 -9.4953 0.0000 27.2240 0.0000
# 6 0.0000 0.0000 0.0000 2.8472 0.0000 28.8684
#
#
#
# Elastic Compliance Matrix: (Units=1/GPa)
#
#
# Indices 1 2 3 4 5 6 
#
# 1 -0.004599 -0.004159 0.009781 0.000000 -0.013085 0.000000
# 2 -0.004159 0.008547 -0.006677 0.000000 -0.007185 0.000000
# 3 0.009781 -0.006677 0.019236 0.000000 0.029107 0.000000
# 4 0.000000 0.000000 0.000000 0.028698 0.000000 -0.002830
# 5 -0.013085 -0.007185 0.029107 0.000000 0.003744 0.000000
# 6 0.000000 0.000000 0.000000 -0.002830 0.000000 0.034919
#
#
# Mechanical properties :
#
#
# Convention : Reuss Voigt Hill
#
# Bulk Modulus (GPa) = 47.44757 81.92778 64.68768
# Shear Modulus (GPa) = 50.16131 28.33461 39.24796
#
# Velocity S-wave (km/s) = 4.81950 3.62223 4.26311
# Velocity P-wave (km/s) = 7.27606 7.44523 7.36113
#
# Compressibility (1/GPa) = 0.02107589
#
# Stress axis : x y z
#
# Youngs Moduli (GPa) = -217.44384 117.00345 51.98550
#
# Poissons Ratio (x) = 0.48659 -0.50848
# Poissons Ratio (y) = -0.90429 0.34708
# Poissons Ratio (z) = 2.12686 0.78118
#
# Static dielectric constant tensor:
#      x y z
#    x 1.801110 0.000000 0.023140 
#    y 0.000000 1.814090 0.000000 
#    z 0.023140 0.000000 1.849720 
# 
# From -- ./inp_files/7048.got.cif
#   From: 2010.05.17/outbox.cif.g08.bks.cpg/sg4_4_cif.got.tgz:7048.got - 2010.06.03 18:43:04.
