data_PCOD9115185
_publ_section_title
;
Structure prediction by ZEFSAII (Michael W. Deem and Ramdas Pophale) SiO2 
 PCOD9115185
Probable space group: P 21
;
_chemical_formula_sum "Si O2"
_cell_formula_units_Z 12
_cell_length_a 20.274246
_cell_length_b 5.092602
_cell_length_c 15.017637
_cell_angle_alpha 90.000000
_cell_angle_beta 20.203446
_cell_angle_gamma 90.000000
_cell_volume 535.489981
_symmetry_space_group_name_H-M "P 21"
_symmetry_group_IT_number 4
_symmetry_cell_setting 'monoclinic'
loop_
_space_group_symop_operation_xyz
x,y,z
-x,1/2+y,-z
loop_
_atom_site_type_symbol
_atom_site_label
_atom_site_fract_x
_atom_site_fract_y
_atom_site_fract_z
Si Si1 0.590356 0.780000 0.083147
Si Si2 0.662384 0.969070 0.175705
Si Si3 0.699186 0.727992 0.311120
Si Si4 0.325794 0.280883 0.403145
Si Si5 0.373085 0.175717 0.153469
Si Si6 0.921560 0.211444 0.986547
O O1 0.697943 0.812516 0.040380
O O2 0.424958 0.558461 0.297845
O O3 0.487516 0.058989 0.200450
O O4 0.705089 0.714901 0.847341
O O5 0.611958 0.774463 0.321825
O O6 0.477090 0.155672 0.403400
O O7 0.834703 0.135381 0.999106
O O8 0.842055 0.487632 0.118626
O O9 0.822143 0.987783 0.172281
O O10 0.256371 0.267667 0.387518
O O11 0.147622 0.210291 0.690585
O O12 0.555659 0.375905 0.926982
#
# Coordination Sequence:
#
# PCOD9115185 Si02
#       6
#     2   2   2   2   2   2
#     4  10  21  33  60  84 108 143 199 227 265 337
#     4  10  21  36  60  78 108 148 197 225 269 336
#     4  10  20  35  58  74 106 154 187 219 279 342
#     4  10  20  36  56  83 115 146 176 238 288 327
#     4   8  16  33  53  77 108 146 178 218 279 336
#     4  10  20  35  57  78 109 151 183 219 294 330
#
# _framework density 22.409382000000001
#
# number of rings (size 3 to 8) (size 9 to 14) (size 15 to 20)
#    1.000    1.333    1.667    1.000    2.333    0.000 
#    0.000    3.333    3.667    0.000    0.000    0.000 
#    0.000    0.000    0.000    0.000    0.000    0.000 
#
# Total GULP energy -66943.814790 kJ/mol
# GULP energy per Si atom -5578.651232 kJ/mol
# Density = 2.235838 g / cm^3
# Si number density = 22.409382 Si / 1000 Ang^3
#
#
#
# Elastic Constant Matrix: (Units=GPa)
#
#
# Indices 1 2 3 4 5 6 
#
# 1 101.4999 1.6694 13.7226 0.0000 13.8753 0.0000
# 2 1.6694 105.7492 -1.6970 0.0000 -1.7886 0.0000
# 3 13.7226 -1.6970 28.5525 0.0000 -0.2392 0.0000
# 4 0.0000 0.0000 0.0000 13.2227 0.0000 13.0830
# 5 13.8753 -1.7886 -0.2392 0.0000 30.8884 0.0000
# 6 0.0000 0.0000 0.0000 13.0830 0.0000 17.6241
#
#
#
# Elastic Compliance Matrix: (Units=1/GPa)
#
#
# Indices 1 2 3 4 5 6 
#
# 1 0.011304 -0.000354 -0.005497 0.000000 -0.005141 0.000000
# 2 -0.000354 0.009486 0.000740 0.000000 0.000714 0.000000
# 3 -0.005497 0.000740 0.037732 0.000000 0.002804 0.000000
# 4 0.000000 0.000000 0.000000 0.284835 0.000000 -0.211443
# 5 -0.005141 0.000714 0.002804 0.000000 0.034747 0.000000
# 6 0.000000 0.000000 0.000000 -0.211443 0.000000 0.213702
#
#
# Mechanical properties :
#
#
# Convention : Reuss Voigt Hill
#
# Bulk Modulus (GPa) = 20.70360 29.24351 24.97355
# Shear Modulus (GPa) = 8.08894 27.15416 17.62155
#
# Velocity S-wave (km/s) = 1.90196 3.48477 2.80723
# Velocity P-wave (km/s) = 3.75262 5.41013 4.65573
#
# Compressibility (1/GPa) = 0.04830079
#
# Stress axis : x y z
#
# Youngs Moduli (GPa) = 88.46442 105.42006 26.50238
#
# Poissons Ratio (x) = 0.03728 0.14568
# Poissons Ratio (y) = 0.03128 -0.01960
# Poissons Ratio (z) = 0.48628 -0.07798
#
# Static dielectric constant tensor:
#      x y z
#    x 2.062290 0.000000 0.030600 
#    y 0.000000 1.798360 0.000000 
#    z 0.030600 0.000000 1.765660 
# 
# From -- ./inp_files/7169.got.cif
#   From: 2010.05.17/outbox.cif.g08.bks.cpg/sg4_4_cif.got.tgz:7169.got - 2010.06.03 18:43:04.
