data_PCOD9115695
_publ_section_title
;
Structure prediction by ZEFSAII (Michael W. Deem and Ramdas Pophale) SiO2 
 PCOD9115695
Probable space group: P 21
;
_chemical_formula_sum "Si O2"
_cell_formula_units_Z 16
_cell_length_a 11.391755
_cell_length_b 12.888273
_cell_length_c 4.954307
_cell_angle_alpha 90.000000
_cell_angle_beta 64.512030
_cell_angle_gamma 90.000000
_cell_volume 656.598684
_symmetry_space_group_name_H-M "P 21"
_symmetry_group_IT_number 4
_symmetry_cell_setting 'monoclinic'
loop_
_space_group_symop_operation_xyz
x,y,z
-x,1/2+y,-z
loop_
_atom_site_type_symbol
_atom_site_label
_atom_site_fract_x
_atom_site_fract_y
_atom_site_fract_z
Si Si1 0.066464 0.282950 0.977738
Si Si2 0.787009 0.235665 0.153948
Si Si3 0.708050 0.371018 0.759826
Si Si4 0.577133 0.925248 0.076707
Si Si5 0.119388 0.949153 0.738004
Si Si6 0.769160 0.748315 0.686343
Si Si7 0.593664 0.063008 0.546857
Si Si8 0.685947 0.563718 0.117994
O O1 0.185325 0.262298 0.663651
O O2 0.103949 0.262326 0.247969
O O3 0.941691 0.215280 0.008644
O O4 0.012772 0.402337 0.024640
O O5 0.785544 0.341219 0.346469
O O6 0.698877 0.150256 0.375811
O O7 0.743500 0.268340 0.898835
O O8 0.847654 0.445898 0.607606
O O9 0.566728 0.377733 0.748917
O O10 0.651979 0.448395 0.058074
O O11 0.669883 0.836968 0.869560
O O12 0.590532 0.023308 0.857670
O O13 0.622401 0.967001 0.321259
O O14 0.190514 0.043021 0.809350
O O15 0.711957 0.639826 0.844083
O O16 0.447870 0.102170 0.613185
#
# Coordination Sequence:
#
# PCOD9115695 Si02
#       8
#     2   2   2   2   2   2   2   2
#     4  10  25  45  63  94 134 176 241 260 337 409
#     4   9  23  40  71  94 132 179 225 286 332 411
#     4  10  20  42  70 101 127 170 228 283 361 399
#     4  11  26  42  67  99 149 166 225 291 347 410
#     4   9  20  43  67  95 127 180 222 285 326 411
#     4  12  26  46  64 101 136 186 224 281 333 405
#     4  11  24  45  66 110 132 178 227 285 359 408
#     4  10  24  39  70  98 135 169 230 283 345 413
#
# _framework density 24.368003000000002
#
# number of rings (size 3 to 8) (size 9 to 14) (size 15 to 20)
#    0.750    1.000    1.250    1.500    5.250    2.000 
#    6.750    0.000    0.000    0.000    0.000    0.000 
#    0.000    0.000    0.000    0.000    0.000    0.000 
#
# Total GULP energy -89125.991232 kJ/mol
# GULP energy per Si atom -5570.374452 kJ/mol
# Density = 2.431254 g / cm^3
# Si number density = 24.368003 Si / 1000 Ang^3
#
#
#
# Elastic Constant Matrix: (Units=GPa)
#
#
# Indices 1 2 3 4 5 6 
#
# 1 44.2893 15.8929 0.4800 0.0000 2.2862 0.0000
# 2 15.8929 60.6025 18.8023 0.0000 -8.9018 0.0000
# 3 0.4800 18.8023 102.0568 0.0000 -4.5318 0.0000
# 4 0.0000 0.0000 0.0000 32.7098 0.0000 -1.9182
# 5 2.2862 -8.9018 -4.5318 0.0000 35.2991 0.0000
# 6 0.0000 0.0000 0.0000 -1.9182 0.0000 26.1590
#
#
#
# Elastic Compliance Matrix: (Units=1/GPa)
#
#
# Indices 1 2 3 4 5 6 
#
# 1 0.025440 -0.007517 0.001114 0.000000 -0.003400 0.000000
# 2 -0.007517 0.020309 -0.003477 0.000000 0.005162 0.000000
# 3 0.001114 -0.003477 0.010451 0.000000 0.000393 0.000000
# 4 0.000000 0.000000 0.000000 0.030704 0.000000 0.002251
# 5 -0.003400 0.005162 0.000393 0.000000 0.029902 0.000000
# 6 0.000000 0.000000 0.000000 0.002251 0.000000 0.038393
#
#
# Mechanical properties :
#
#
# Convention : Reuss Voigt Hill
#
# Bulk Modulus (GPa) = 27.44161 30.81101 29.12631
# Shear Modulus (GPa) = 26.72305 30.28516 28.50411
#
# Velocity S-wave (km/s) = 3.31516 3.52920 3.42385
# Velocity P-wave (km/s) = 5.09308 5.41096 5.25442
#
# Compressibility (1/GPa) = 0.03644101
#
# Stress axis : x y z
#
# Youngs Moduli (GPa) = 39.30889 49.23876 95.68230
#
# Poissons Ratio (x) = 0.37011 -0.10661
# Poissons Ratio (y) = 0.29547 0.33269
# Poissons Ratio (z) = -0.04380 0.17121
#
# Static dielectric constant tensor:
#      x y z
#    x 2.063280 0.000000 -0.020040 
#    y 0.000000 2.002420 0.000000 
#    z -0.020040 0.000000 1.982080 
# 
# From -- ./inp_files/3161.got.cif
#   From: 2010.05.17/outbox.cif.g08.bks.cpg/sg4_2_cif.got.tgz:3161.got - 2010.06.03 18:43:04.
