data_PCOD9115440
_publ_section_title
;
Structure prediction by ZEFSAII (Michael W. Deem and Ramdas Pophale) SiO2 
 PCOD9115440
Probable space group: P 21
;
_chemical_formula_sum "Si O2"
_cell_formula_units_Z 14
_cell_length_a 8.837554
_cell_length_b 9.062869
_cell_length_c 6.353074
_cell_angle_alpha 90.000000
_cell_angle_beta 95.915572
_cell_angle_gamma 90.000000
_cell_volume 506.130875
_symmetry_space_group_name_H-M "P 21"
_symmetry_group_IT_number 4
_symmetry_cell_setting 'monoclinic'
loop_
_space_group_symop_operation_xyz
x,y,z
-x,1/2+y,-z
loop_
_atom_site_type_symbol
_atom_site_label
_atom_site_fract_x
_atom_site_fract_y
_atom_site_fract_z
Si Si1 0.206048 0.494000 0.033009
Si Si2 0.676394 0.733602 0.246854
Si Si3 0.129176 0.326680 0.366027
Si Si4 0.145256 0.819274 0.391056
Si Si5 0.926579 0.633231 0.046820
Si Si6 0.410489 0.927636 0.148829
Si Si7 0.372888 0.715004 0.787999
O O1 0.260939 0.374886 0.874308
O O2 0.266708 0.646061 0.956092
O O3 0.024088 0.492010 0.005882
O O4 0.240254 0.447637 0.275451
O O5 0.506890 0.785803 0.260814
O O6 0.765238 0.727799 0.473859
O O7 0.756741 0.610198 0.112807
O O8 0.985937 0.389916 0.475505
O O9 0.079913 0.224377 0.167459
O O10 0.037904 0.709140 0.237869
O O11 0.252093 0.916160 0.253104
O O12 0.264279 0.743505 0.573292
O O13 0.497770 0.084741 0.208597
O O14 0.426738 0.868093 0.905945
#
# Coordination Sequence:
#
# PCOD9115440 Si02
#       7
#     2   2   2   2   2   2   2
#     4  10  20  38  69  91 127 184 226 287 348 413
#     4   9  23  38  61 100 131 177 231 279 357 410
#     4  10  21  40  67  98 130 174 236 289 346 427
#     4  11  22  43  71 102 136 185 238 288 357 427
#     4  10  20  41  66  94 128 174 232 285 351 408
#     4  11  25  46  71 106 144 194 235 291 363 429
#     4  11  25  46  75  99 148 190 240 293 362 426
#
# _framework density 27.660827000000001
#
# number of rings (size 3 to 8) (size 9 to 14) (size 15 to 20)
#    0.000    1.714    2.857    0.000    4.000    4.571 
#   12.857    0.000    0.000    0.000    0.000    0.000 
#    0.000    0.000    0.000    0.000    0.000    0.000 
#
# Total GULP energy -78150.938947 kJ/mol
# GULP energy per Si atom -5582.209925 kJ/mol
# Density = 2.759787 g / cm^3
# Si number density = 27.660827 Si / 1000 Ang^3
#
#
#
# Elastic Constant Matrix: (Units=GPa)
#
#
# Indices 1 2 3 4 5 6 
#
# 1 152.4298 29.6948 53.8116 0.0000 -7.9768 0.0000
# 2 29.6948 84.6655 28.4597 0.0000 -4.1217 0.0000
# 3 53.8116 28.4597 142.8478 0.0000 8.0770 0.0000
# 4 0.0000 0.0000 0.0000 28.4059 0.0000 -11.0636
# 5 -7.9768 -4.1217 8.0770 0.0000 61.2734 0.0000
# 6 0.0000 0.0000 0.0000 -11.0636 0.0000 55.2247
#
#
#
# Elastic Compliance Matrix: (Units=1/GPa)
#
#
# Indices 1 2 3 4 5 6 
#
# 1 0.007933 -0.001813 -0.002699 0.000000 0.001266 0.000000
# 2 -0.001813 0.013161 -0.001990 0.000000 0.000912 0.000000
# 3 -0.002699 -0.001990 0.008504 0.000000 -0.001606 0.000000
# 4 0.000000 0.000000 0.000000 0.038183 0.000000 0.007650
# 5 0.001266 0.000912 -0.001606 0.000000 0.016758 0.000000
# 6 0.000000 0.000000 0.000000 0.007650 0.000000 0.019640
#
#
# Mechanical properties :
#
#
# Convention : Reuss Voigt Hill
#
# Bulk Modulus (GPa) = 60.26715 67.09726 63.68220
# Shear Modulus (GPa) = 40.74467 46.84593 43.79530
#
# Velocity S-wave (km/s) = 3.84214 4.11978 3.98338
# Velocity P-wave (km/s) = 6.44344 6.85127 6.65049
#
# Compressibility (1/GPa) = 0.01659279
#
# Stress axis : x y z
#
# Youngs Moduli (GPa) = 126.06184 75.98404 117.58621
#
# Poissons Ratio (x) = 0.13779 0.31732
# Poissons Ratio (y) = 0.22861 0.23404
# Poissons Ratio (z) = 0.34019 0.15124
#
# Static dielectric constant tensor:
#      x y z
#    x 2.241320 0.000000 0.037840 
#    y 0.000000 2.393260 0.000000 
#    z 0.037840 0.000000 2.225970 
# 
# From -- ./inp_files/1442.got.cif
#   From: 2010.05.17/outbox.cif.g08.bks.cpg/sg4_1_cif.got.tgz:1442.got - 2010.06.03 18:43:04.
