data_PCOD9115382
_publ_section_title
;
Structure prediction by ZEFSAII (Michael W. Deem and Ramdas Pophale) SiO2 
 PCOD9115382
Probable space group: P 21
;
_chemical_formula_sum "Si O2"
_cell_formula_units_Z 12
_cell_length_a 5.388450
_cell_length_b 12.031937
_cell_length_c 8.616306
_cell_angle_alpha 90.000000
_cell_angle_beta 63.548958
_cell_angle_gamma 90.000000
_cell_volume 500.145686
_symmetry_space_group_name_H-M "P 21"
_symmetry_group_IT_number 4
_symmetry_cell_setting 'monoclinic'
loop_
_space_group_symop_operation_xyz
x,y,z
-x,1/2+y,-z
loop_
_atom_site_type_symbol
_atom_site_label
_atom_site_fract_x
_atom_site_fract_y
_atom_site_fract_z
Si Si1 0.124379 0.018110 0.580663
Si Si2 0.851847 0.816935 0.261512
Si Si3 0.396452 0.379176 0.383499
Si Si4 0.388532 0.909297 0.990446
Si Si5 0.394006 0.540456 0.783056
Si Si6 0.085595 0.120656 0.919236
O O1 0.030081 0.094446 0.751860
O O2 0.323954 0.926269 0.611315
O O3 0.324195 0.064144 0.387728
O O4 0.848743 0.969181 0.579228
O O5 0.736169 0.789727 0.463084
O O6 0.753292 0.944150 0.274229
O O7 0.749752 0.735590 0.152679
O O8 0.176811 0.830395 0.140525
O O9 0.461399 0.344349 0.189212
O O10 0.240057 0.013194 0.943165
O O11 0.563011 0.974870 0.068053
O O12 0.174302 0.633997 0.892598
#
# Coordination Sequence:
#
# PCOD9115382 Si02
#       6
#     2   2   2   2   2   2
#     4  10  20  38  62  85 118 161 200 248 310 363
#     4  10  22  38  59  90 122 161 209 254 303 369
#     4  10  20  38  62  85 118 161 200 248 310 363
#     4  10  20  38  63  85 123 163 201 255 312 362
#     4  10  20  38  63  85 123 163 201 255 312 362
#     4  10  22  38  59  90 122 161 209 254 303 369
#
# _framework density 23.993010000000002
#
# number of rings (size 3 to 8) (size 9 to 14) (size 15 to 20)
#    0.000    2.000    3.333    0.000    0.000    2.667 
#    0.000    0.000    0.000    0.000    0.000    0.000 
#    0.000    0.000    0.000    0.000    0.000    0.000 
#
# Total GULP energy -66819.406222 kJ/mol
# GULP energy per Si atom -5568.283852 kJ/mol
# Density = 2.393840 g / cm^3
# Si number density = 23.993010 Si / 1000 Ang^3
#
#
#
# Elastic Constant Matrix: (Units=GPa)
#
#
# Indices 1 2 3 4 5 6 
#
# 1 59.4937 4.3547 8.0426 0.0000 9.7969 0.0000
# 2 4.3547 52.9212 15.2174 0.0000 -5.2803 0.0000
# 3 8.0426 15.2174 139.2052 0.0000 -16.8249 0.0000
# 4 0.0000 0.0000 0.0000 40.3188 0.0000 1.5459
# 5 9.7969 -5.2803 -16.8249 0.0000 40.0876 0.0000
# 6 0.0000 0.0000 0.0000 1.5459 0.0000 4.1243
#
#
#
# Elastic Compliance Matrix: (Units=1/GPa)
#
#
# Indices 1 2 3 4 5 6 
#
# 1 0.017988 -0.001571 -0.001500 0.000000 -0.005232 0.000000
# 2 -0.001571 0.019766 -0.001800 0.000000 0.002232 0.000000
# 3 -0.001500 -0.001800 0.007883 0.000000 0.003438 0.000000
# 4 0.000000 0.000000 0.000000 0.025164 0.000000 -0.009432
# 5 -0.005232 0.002232 0.003438 0.000000 0.027961 0.000000
# 6 0.000000 0.000000 0.000000 -0.009432 0.000000 0.245999
#
#
# Mechanical properties :
#
#
# Convention : Reuss Voigt Hill
#
# Bulk Modulus (GPa) = 27.85982 34.09437 30.97710
# Shear Modulus (GPa) = 13.64381 31.83985 22.74183
#
# Velocity S-wave (km/s) = 2.38724 3.64682 3.08206
# Velocity P-wave (km/s) = 4.38582 5.65450 5.06008
#
# Compressibility (1/GPa) = 0.03589399
#
# Stress axis : x y z
#
# Youngs Moduli (GPa) = 55.59295 50.59296 126.86181
#
# Poissons Ratio (x) = 0.07948 0.19028
# Poissons Ratio (y) = 0.08733 0.22838
# Poissons Ratio (z) = 0.08339 0.09108
#
# Static dielectric constant tensor:
#      x y z
#    x 1.943900 0.000000 0.001010 
#    y 0.000000 2.075360 0.000000 
#    z 0.001010 0.000000 2.043900 
# 
# From -- ./inp_files/1089.got.cif
#   From: 2010.05.17/outbox.cif.g08.bks.cpg/sg4_1_cif.got.tgz:1089.got - 2010.06.03 18:43:04.
