data_PCOD9115931
_publ_section_title
;
Structure prediction by ZEFSAII (Michael W. Deem and Ramdas Pophale) SiO2 
 PCOD9115931
Probable space group: P 21
;
_chemical_formula_sum "Si O2"
_cell_formula_units_Z 10
_cell_length_a 8.951147
_cell_length_b 7.541990
_cell_length_c 6.683658
_cell_angle_alpha 90.000000
_cell_angle_beta 127.511082
_cell_angle_gamma 90.000000
_cell_volume 357.915945
_symmetry_space_group_name_H-M "P 21"
_symmetry_group_IT_number 4
_symmetry_cell_setting 'monoclinic'
loop_
_space_group_symop_operation_xyz
x,y,z
-x,1/2+y,-z
loop_
_atom_site_type_symbol
_atom_site_label
_atom_site_fract_x
_atom_site_fract_y
_atom_site_fract_z
Si Si1 0.256759 0.970360 0.372140
Si Si2 0.903920 0.853123 0.877750
Si Si3 0.444832 0.941941 0.155714
Si Si4 0.245119 0.578708 0.873947
Si Si5 0.892267 0.528232 0.332136
O O1 0.236114 0.945008 0.590628
O O2 0.190831 0.170515 0.266047
O O3 0.446794 0.948172 0.398526
O O4 0.106277 0.832714 0.155806
O O5 0.972762 0.949675 0.731330
O O6 0.797784 0.965339 0.962514
O O7 0.358936 0.751931 0.029316
O O8 0.286424 0.084037 0.950157
O O9 0.632449 0.974842 0.189027
O O10 0.048902 0.623531 0.598579
#
# Coordination Sequence:
#
# PCOD9115931 Si02
#       5
#     2   2   2   2   2
#     4  10  21  38  63  93 126 165 210 260 312 372
#     4  10  21  38  63  93 126 165 210 260 312 372
#     4  11  25  43  66  95 128 167 212 263 315 374
#     4  11  25  43  66  95 128 167 212 263 315 374
#     4  10  22  40  64  92 126 164 204 252 316 372
#
# _framework density 27.939523000000001
#
# number of rings (size 3 to 8) (size 9 to 14) (size 15 to 20)
#    0.000    1.600    0.000    6.000    0.000   20.800 
#    0.000    0.000    0.000    0.000    0.000    0.000 
#    0.000    0.000    0.000    0.000    0.000    0.000 
#
# Total GULP energy -55832.677084 kJ/mol
# GULP energy per Si atom -5583.267708 kJ/mol
# Density = 2.787593 g / cm^3
# Si number density = 27.939523 Si / 1000 Ang^3
#
#
#
# Elastic Constant Matrix: (Units=GPa)
#
#
# Indices 1 2 3 4 5 6 
#
# 1 228.8534 40.9489 63.5853 0.0000 -75.0275 0.0000
# 2 40.9489 82.6316 11.3477 0.0000 -28.9021 0.0000
# 3 63.5853 11.3477 137.2038 0.0000 -48.2232 0.0000
# 4 0.0000 0.0000 0.0000 18.4624 0.0000 -12.1707
# 5 -75.0275 -28.9021 -48.2232 0.0000 88.4559 0.0000
# 6 0.0000 0.0000 0.0000 -12.1707 0.0000 47.6497
#
#
#
# Elastic Compliance Matrix: (Units=1/GPa)
#
#
# Indices 1 2 3 4 5 6 
#
# 1 0.006391 -0.001518 -0.001367 0.000000 0.004180 0.000000
# 2 -0.001518 0.014057 0.000869 0.000000 0.003779 0.000000
# 3 -0.001367 0.000869 0.009330 0.000000 0.004211 0.000000
# 4 0.000000 0.000000 0.000000 0.065131 0.000000 0.016636
# 5 0.004180 0.003779 0.004211 0.000000 0.018381 0.000000
# 6 0.000000 0.000000 0.000000 0.016636 0.000000 0.025236
#
#
# Mechanical properties :
#
#
# Convention : Reuss Voigt Hill
#
# Bulk Modulus (GPa) = 38.84048 75.60586 57.22317
# Shear Modulus (GPa) = 33.08215 53.10072 43.09144
#
# Velocity S-wave (km/s) = 3.44475 4.36427 3.93149
# Velocity P-wave (km/s) = 5.45468 7.24673 6.41361
#
# Compressibility (1/GPa) = 0.02574634
#
# Stress axis : x y z
#
# Youngs Moduli (GPa) = 156.46061 71.14123 107.17910
#
# Poissons Ratio (x) = 0.10796 0.14656
# Poissons Ratio (y) = 0.23744 -0.09315
# Poissons Ratio (z) = 0.21395 -0.06183
#
# Static dielectric constant tensor:
#      x y z
#    x 2.185460 0.000000 0.042090 
#    y 0.000000 2.323460 0.000000 
#    z 0.042090 0.000000 2.192700 
# 
# From -- ./inp_files/1028.got.cif
#   From: 2010.05.17/outbox.cif.g08.bks.cpg/sg4_1_cif.got.tgz:1028.got - 2010.06.03 18:43:04.
