data_PCOD9115688
_publ_section_title
;
Structure prediction by ZEFSAII (Michael W. Deem and Ramdas Pophale) SiO2 
 PCOD9115688
Probable space group: P 21
;
_chemical_formula_sum "Si O2"
_cell_formula_units_Z 16
_cell_length_a 13.650159
_cell_length_b 12.562944
_cell_length_c 8.444324
_cell_angle_alpha 90.000000
_cell_angle_beta 28.236119
_cell_angle_gamma 90.000000
_cell_volume 685.097999
_symmetry_space_group_name_H-M "P 21"
_symmetry_group_IT_number 4
_symmetry_cell_setting 'monoclinic'
loop_
_space_group_symop_operation_xyz
x,y,z
-x,1/2+y,-z
loop_
_atom_site_type_symbol
_atom_site_label
_atom_site_fract_x
_atom_site_fract_y
_atom_site_fract_z
Si Si1 0.615739 0.229910 0.820785
Si Si2 0.809142 0.775475 0.180575
Si Si3 0.389821 0.423037 0.304953
Si Si4 0.939646 0.763610 0.661754
Si Si5 0.299100 0.073846 0.455700
Si Si6 0.239254 0.069839 0.208685
Si Si7 0.741522 0.346668 0.351925
Si Si8 0.955716 0.426246 0.750023
O O1 0.631278 0.250675 0.607183
O O2 0.845180 0.221846 0.569255
O O3 0.517613 0.342691 0.012821
O O4 0.482748 0.140041 0.104995
O O5 0.643280 0.853950 0.491965
O O6 0.798719 0.661266 0.285828
O O7 0.785795 0.772740 0.027365
O O8 0.027904 0.831275 0.904769
O O9 0.167828 0.446057 0.542877
O O10 0.529861 0.524492 0.136473
O O11 0.823604 0.692171 0.698326
O O12 0.996672 0.867056 0.481905
O O13 0.167317 0.036254 0.488622
O O14 0.347733 0.963875 0.476207
O O15 0.138945 0.033173 0.185819
O O16 0.799594 0.357211 0.082394
#
# Coordination Sequence:
#
# PCOD9115688 Si02
#       8
#     2   2   2   2   2   2   2   2
#     4  10  21  42  70  97 137 181 225 281 351 409
#     4   9  21  42  70  96 137 182 227 287 350 408
#     4  10  21  44  67  93 139 180 219 286 349 405
#     4  11  22  42  70 103 133 178 231 290 333 418
#     4  11  22  42  70  99 135 184 228 283 349 417
#     4  12  23  40  67 101 134 172 236 272 343 413
#     4  10  20  42  68  96 137 185 222 285 353 407
#     4  11  24  44  70  97 136 182 228 286 348 399
#
# _framework density 23.354322
#
# number of rings (size 3 to 8) (size 9 to 14) (size 15 to 20)
#    0.000    1.500    2.500    3.750    1.750    0.000 
#    6.750    1.250   16.500    0.000    0.000    0.000 
#    0.000    0.000    0.000    0.000    0.000    0.000 
#
# Total GULP energy -89127.193788 kJ/mol
# GULP energy per Si atom -5570.449612 kJ/mol
# Density = 2.330117 g / cm^3
# Si number density = 23.354322 Si / 1000 Ang^3
#
#
#
# Elastic Constant Matrix: (Units=GPa)
#
#
# Indices 1 2 3 4 5 6 
#
# 1 99.2546 10.3588 32.1424 0.0000 4.2066 0.0000
# 2 10.3588 87.8270 30.4721 0.0000 -0.7770 0.0000
# 3 32.1424 30.4721 89.4453 0.0000 14.8572 0.0000
# 4 0.0000 0.0000 0.0000 30.3005 0.0000 8.7080
# 5 4.2066 -0.7770 14.8572 0.0000 38.0666 0.0000
# 6 0.0000 0.0000 0.0000 8.7080 0.0000 41.1125
#
#
#
# Elastic Compliance Matrix: (Units=1/GPa)
#
#
# Indices 1 2 3 4 5 6 
#
# 1 0.011408 0.000116 -0.004202 0.000000 0.000382 0.000000
# 2 0.000116 0.013075 -0.004853 0.000000 0.002148 0.000000
# 3 -0.004202 -0.004853 0.015273 0.000000 -0.005596 0.000000
# 4 0.000000 0.000000 0.000000 0.035142 0.000000 -0.007443
# 5 0.000382 0.002148 -0.005596 0.000000 0.028455 0.000000
# 6 0.000000 0.000000 0.000000 -0.007443 0.000000 0.025900
#
#
# Mechanical properties :
#
#
# Convention : Reuss Voigt Hill
#
# Bulk Modulus (GPa) = 45.70993 46.94152 46.32573
# Shear Modulus (GPa) = 32.37841 35.46615 33.92228
#
# Velocity S-wave (km/s) = 3.72748 3.90116 3.81531
# Velocity P-wave (km/s) = 6.17578 6.35889 6.26800
#
# Compressibility (1/GPa) = 0.02187708
#
# Stress axis : x y z
#
# Youngs Moduli (GPa) = 87.66023 76.48132 65.47563
#
# Poissons Ratio (x) = -0.00886 0.27515
# Poissons Ratio (y) = -0.01016 0.31774
# Poissons Ratio (z) = 0.36838 0.37115
#
# Static dielectric constant tensor:
#      x y z
#    x 1.937620 0.000000 -0.003630 
#    y 0.000000 1.923820 0.000000 
#    z -0.003630 0.000000 1.936880 
# 
# From -- ./inp_files/9293.got.cif
#   From: 2010.05.17/outbox.cif.g08.bks.cpg/sg4_5_cif.got.tgz:9293.got - 2010.06.03 18:43:04.
