data_PCOD9115045
_publ_section_title
;
Structure prediction by ZEFSAII (Michael W. Deem and Ramdas Pophale) SiO2 
 PCOD9115045
Probable space group: P 21
;
_chemical_formula_sum "Si O2"
_cell_formula_units_Z 16
_cell_length_a 7.867061
_cell_length_b 6.857963
_cell_length_c 15.331315
_cell_angle_alpha 90.000000
_cell_angle_beta 133.003725
_cell_angle_gamma 90.000000
_cell_volume 604.906421
_symmetry_space_group_name_H-M "P 21"
_symmetry_group_IT_number 4
_symmetry_cell_setting 'monoclinic'
loop_
_space_group_symop_operation_xyz
x,y,z
-x,1/2+y,-z
loop_
_atom_site_type_symbol
_atom_site_label
_atom_site_fract_x
_atom_site_fract_y
_atom_site_fract_z
Si Si1 0.726814 0.948470 0.476165
Si Si2 0.541137 0.169381 0.732897
Si Si3 0.972245 0.885840 0.073994
Si Si4 0.563324 0.819075 0.607937
Si Si5 0.811184 0.450189 0.274667
Si Si6 0.350545 0.070950 0.026952
Si Si7 0.064240 0.720208 0.852790
Si Si8 0.731164 0.804402 0.159315
O O1 0.637534 0.835706 0.360499
O O2 0.598756 0.864486 0.518240
O O3 0.998735 0.906149 0.586157
O O4 0.648971 0.173885 0.446495
O O5 0.786376 0.277213 0.834409
O O6 0.553264 0.020218 0.656687
O O7 0.426973 0.037611 0.769404
O O8 0.759212 0.758184 0.967972
O O9 0.203281 0.219107 0.273910
O O10 0.957422 0.111042 0.055834
O O11 0.808104 0.285434 0.199112
O O12 0.901706 0.654781 0.263316
O O13 0.426325 0.164817 0.959487
O O14 0.141143 0.930208 0.926158
O O15 0.545358 0.941643 0.139308
O O16 0.119076 0.440841 0.853602
#
# Coordination Sequence:
#
# PCOD9115045 Si02
#       8
#     2   2   2   2   2   2   2   2
#     4  11  23  40  64  95 126 182 228 282 333 418
#     4  12  23  42  62  95 137 177 230 293 347 417
#     4  10  20  36  68  90 124 175 226 277 329 407
#     4  11  21  38  64  89 125 172 234 282 333 401
#     4  10  25  41  61  96 142 174 224 284 363 409
#     4   9  18  34  66  95 122 165 224 282 321 414
#     4  10  19  40  62  95 125 170 223 280 338 406
#     4   9  19  39  65  91 131 165 221 278 340 400
#
# _framework density 26.450372999999999
#
# number of rings (size 3 to 8) (size 9 to 14) (size 15 to 20)
#    0.750    1.000    3.750    1.500    1.750    0.000 
#    2.250    0.000    8.250    0.000    0.000    0.000 
#    0.000    0.000    0.000    0.000    0.000    0.000 
#
# Total GULP energy -89133.395743 kJ/mol
# GULP energy per Si atom -5570.837234 kJ/mol
# Density = 2.639017 g / cm^3
# Si number density = 26.450373 Si / 1000 Ang^3
#
#
#
# Elastic Constant Matrix: (Units=GPa)
#
#
# Indices 1 2 3 4 5 6 
#
# 1 111.5376 53.5459 19.4586 0.0000 -3.4327 0.0000
# 2 53.5459 131.1832 57.4643 0.0000 11.5869 0.0000
# 3 19.4586 57.4643 110.8741 0.0000 10.6212 0.0000
# 4 0.0000 0.0000 0.0000 31.1528 0.0000 20.8680
# 5 -3.4327 11.5869 10.6212 0.0000 29.1529 0.0000
# 6 0.0000 0.0000 0.0000 20.8680 0.0000 20.9230
#
#
#
# Elastic Compliance Matrix: (Units=1/GPa)
#
#
# Indices 1 2 3 4 5 6 
#
# 1 0.011462 -0.005108 0.000323 0.000000 0.003262 0.000000
# 2 -0.005108 0.012268 -0.005116 0.000000 -0.003614 0.000000
# 3 0.000323 -0.005116 0.011828 0.000000 -0.002238 0.000000
# 4 0.000000 0.000000 0.000000 0.096716 0.000000 -0.096462
# 5 0.003262 -0.003614 -0.002238 0.000000 0.036938 0.000000
# 6 0.000000 0.000000 0.000000 -0.096462 0.000000 0.144003
#
#
# Mechanical properties :
#
#
# Convention : Reuss Voigt Hill
#
# Bulk Modulus (GPa) = 63.46289 68.28139 65.87214
# Shear Modulus (GPa) = 14.78118 31.12080 22.95099
#
# Velocity S-wave (km/s) = 2.36652 3.43384 2.94887
# Velocity P-wave (km/s) = 5.61360 6.44924 6.04587
#
# Compressibility (1/GPa) = 0.01575724
#
# Stress axis : x y z
#
# Youngs Moduli (GPa) = 87.24559 81.51217 84.54341
#
# Poissons Ratio (x) = 0.41639 -0.02735
# Poissons Ratio (y) = 0.44568 0.43250
# Poissons Ratio (z) = -0.02822 0.41699
#
# Static dielectric constant tensor:
#      x y z
#    x 2.377980 0.000000 -0.126040 
#    y 0.000000 2.202660 0.000000 
#    z -0.126040 0.000000 2.010280 
# 
# From -- ./inp_files/14855.got.cif
#   From: 2010.05.17/outbox.cif.g08.bks.cpg/sg4_8_cif.got.tgz:14855.got - 2010.06.03 18:43:04.
