data_PCOD9115474
_publ_section_title
;
Structure prediction by ZEFSAII (Michael W. Deem and Ramdas Pophale) SiO2 
 PCOD9115474
Probable space group: P 21
;
_chemical_formula_sum "Si O2"
_cell_formula_units_Z 16
_cell_length_a 19.865346
_cell_length_b 9.151220
_cell_length_c 8.252918
_cell_angle_alpha 90.000000
_cell_angle_beta 30.526246
_cell_angle_gamma 90.000000
_cell_volume 762.059871
_symmetry_space_group_name_H-M "P 21"
_symmetry_group_IT_number 4
_symmetry_cell_setting 'monoclinic'
loop_
_space_group_symop_operation_xyz
x,y,z
-x,1/2+y,-z
loop_
_atom_site_type_symbol
_atom_site_label
_atom_site_fract_x
_atom_site_fract_y
_atom_site_fract_z
Si Si1 0.864025 0.986970 0.644597
Si Si2 0.793720 0.313940 0.777443
Si Si3 0.371872 0.098065 0.335837
Si Si4 0.883967 0.206832 0.115586
Si Si5 0.908171 0.921919 0.896289
Si Si6 0.164440 0.286399 0.616390
Si Si7 0.835208 0.485746 0.010731
Si Si8 0.370368 0.790166 0.180982
O O1 0.848901 0.892152 0.840897
O O2 0.838313 0.889893 0.537027
O O3 0.785432 0.138358 0.809039
O O4 0.018248 0.040789 0.334094
O O5 0.684336 0.354621 0.872981
O O6 0.940452 0.364751 0.413614
O O7 0.777547 0.396342 0.980102
O O8 0.288075 0.177792 0.367900
O O9 0.271025 0.095320 0.696934
O O10 0.401073 0.929909 0.230192
O O11 0.502869 0.188717 0.097650
O O12 0.868193 0.370495 0.083750
O O13 0.752704 0.193313 0.494863
O O14 0.025793 0.196323 0.907939
O O15 0.897356 0.097267 0.938400
O O16 0.838410 0.872593 0.207367
#
# Coordination Sequence:
#
# PCOD9115474 Si02
#       8
#     2   2   2   2   2   2   2   2
#     4  10  22  38  66 108 135 173 222 286 350 408
#     4  11  20  40  65  99 135 178 221 284 346 408
#     4  11  26  47  63  99 133 184 229 286 335 409
#     4  10  20  39  63  94 130 171 221 283 344 400
#     4  11  21  36  66 103 136 166 220 284 346 403
#     4  11  23  39  69  98 135 174 228 282 341 411
#     4   9  21  40  62  95 139 170 219 288 341 405
#     4  11  25  43  70  92 133 184 234 277 341 410
#
# _framework density 20.995726999999999
#
# number of rings (size 3 to 8) (size 9 to 14) (size 15 to 20)
#    0.000    1.500    2.500    2.250    7.000    0.000 
#    2.250    3.750    0.000    0.000    0.000    0.000 
#    0.000    0.000    0.000    0.000    0.000    0.000 
#
# Total GULP energy -89291.486342 kJ/mol
# GULP energy per Si atom -5580.717896 kJ/mol
# Density = 2.094794 g / cm^3
# Si number density = 20.995727 Si / 1000 Ang^3
#
#
#
# Elastic Constant Matrix: (Units=GPa)
#
#
# Indices 1 2 3 4 5 6 
#
# 1 100.7098 30.1505 37.0679 0.0000 15.5288 0.0000
# 2 30.1505 69.1453 27.1112 0.0000 -0.9703 0.0000
# 3 37.0679 27.1112 29.5778 0.0000 0.4931 0.0000
# 4 0.0000 0.0000 0.0000 33.2344 0.0000 -0.3456
# 5 15.5288 -0.9703 0.4931 0.0000 29.5579 0.0000
# 6 0.0000 0.0000 0.0000 -0.3456 0.0000 33.2920
#
#
#
# Elastic Compliance Matrix: (Units=1/GPa)
#
#
# Indices 1 2 3 4 5 6 
#
# 1 0.021500 0.001511 -0.028149 0.000000 -0.010776 0.000000
# 2 0.001511 0.022717 -0.022722 0.000000 0.000331 0.000000
# 3 -0.028149 -0.022722 0.089705 0.000000 0.012546 0.000000
# 4 0.000000 0.000000 0.000000 0.030093 0.000000 0.000312
# 5 -0.010776 0.000331 0.012546 0.000000 0.039295 0.000000
# 6 0.000000 0.000000 0.000000 0.000312 0.000000 0.030041
#
#
# Mechanical properties :
#
#
# Convention : Reuss Voigt Hill
#
# Bulk Modulus (GPa) = 28.40829 43.12135 35.76482
# Shear Modulus (GPa) = 14.54318 26.22374 20.38346
#
# Velocity S-wave (km/s) = 2.63472 3.53796 3.11921
# Velocity P-wave (km/s) = 4.77657 6.10510 5.48123
#
# Compressibility (1/GPa) = 0.03520099
#
# Stress axis : x y z
#
# Youngs Moduli (GPa) = 46.51254 44.01965 11.14765
#
# Poissons Ratio (x) = -0.06652 0.31380
# Poissons Ratio (y) = -0.07029 0.25330
# Poissons Ratio (z) = 1.30930 1.00022
#
# Static dielectric constant tensor:
#      x y z
#    x 1.766050 0.000000 0.040990 
#    y 0.000000 1.814320 0.000000 
#    z 0.040990 0.000000 1.780820 
# 
# From -- ./inp_files/8064.got.cif
#   From: 2010.05.17/outbox.cif.g08.bks.cpg/sg4_5_cif.got.tgz:8064.got - 2010.06.03 18:43:04.
