data_PCOD9115205
_publ_section_title
;
Structure prediction by ZEFSAII (Michael W. Deem and Ramdas Pophale) SiO2 
 PCOD9115205
Probable space group: P 21
;
_chemical_formula_sum "Si O2"
_cell_formula_units_Z 16
_cell_length_a 16.177490
_cell_length_b 7.547966
_cell_length_c 7.498366
_cell_angle_alpha 90.000000
_cell_angle_beta 44.803781
_cell_angle_gamma 90.000000
_cell_volume 645.208816
_symmetry_space_group_name_H-M "P 21"
_symmetry_group_IT_number 4
_symmetry_cell_setting 'monoclinic'
loop_
_space_group_symop_operation_xyz
x,y,z
-x,1/2+y,-z
loop_
_atom_site_type_symbol
_atom_site_label
_atom_site_fract_x
_atom_site_fract_y
_atom_site_fract_z
Si Si1 0.637645 0.000000 0.486146
Si Si2 0.300276 0.277000 0.281375
Si Si3 0.898603 0.630751 0.203410
Si Si4 0.963417 0.234307 0.470102
Si Si5 0.381182 0.982893 0.900335
Si Si6 0.119413 0.474999 0.022476
Si Si7 0.285446 0.678101 0.288177
Si Si8 0.859301 0.433177 0.931033
O O1 0.742722 0.015928 0.184867
O O2 0.663806 0.156240 0.590060
O O3 0.648793 0.827349 0.600731
O O4 0.506797 0.994094 0.613858
O O5 0.179773 0.170406 0.502951
O O6 0.281710 0.472546 0.229039
O O7 0.375192 0.150538 0.042747
O O8 0.882064 0.804312 0.109985
O O9 0.858715 0.466034 0.142646
O O10 0.032593 0.602612 0.047749
O O11 0.044018 0.072141 0.288133
O O12 0.848935 0.242491 0.518686
O O13 0.902296 0.257867 0.757874
O O14 0.363105 0.808320 0.050170
O O15 0.268871 0.983665 0.944497
O O16 0.052111 0.395934 0.294398
#
# Coordination Sequence:
#
# PCOD9115205 Si02
#       8
#     2   2   2   2   2   2   2   2
#     4   9  19  35  59  91 118 154 209 252 284 355
#     4   9  21  35  65  87 113 163 197 260 293 348
#     4  10  20  37  59  92 118 152 202 254 310 356
#     4  10  21  38  58  89 123 155 198 254 311 366
#     4  11  20  38  61  89 124 161 197 243 308 368
#     4  10  20  35  62  86 117 157 201 260 292 357
#     4   9  20  36  59  92 116 147 205 259 290 349
#     4  10  23  34  59  88 125 157 191 248 318 375
#
# _framework density 24.798173999999999
#
# number of rings (size 3 to 8) (size 9 to 14) (size 15 to 20)
#    0.750    1.500    0.000    3.750    1.750    1.000 
#    0.000    0.000    0.000   30.000    0.000    0.000 
#    0.000    0.000    0.000    0.000    0.000    0.000 
#
# Total GULP energy -89350.606466 kJ/mol
# GULP energy per Si atom -5584.412904 kJ/mol
# Density = 2.474173 g / cm^3
# Si number density = 24.798174 Si / 1000 Ang^3
#
#
#
# Elastic Constant Matrix: (Units=GPa)
#
#
# Indices 1 2 3 4 5 6 
#
# 1 73.1103 -11.0374 40.3807 0.0000 -10.9518 0.0000
# 2 -11.0374 66.4313 15.2076 0.0000 6.6280 0.0000
# 3 40.3807 15.2076 164.6067 0.0000 -36.1156 0.0000
# 4 0.0000 0.0000 0.0000 0.2067 0.0000 -7.0106
# 5 -10.9518 6.6280 -36.1156 0.0000 39.0138 0.0000
# 6 0.0000 0.0000 0.0000 -7.0106 0.0000 15.8008
#
#
#
# Elastic Compliance Matrix: (Units=1/GPa)
#
#
# Indices 1 2 3 4 5 6 
#
# 1 0.016709 0.003809 -0.004472 0.000000 -0.000097 0.000000
# 2 0.003809 0.017041 -0.003651 0.000000 -0.005206 0.000000
# 3 -0.004472 -0.003651 0.009249 0.000000 0.007926 0.000000
# 4 0.000000 0.000000 0.000000 -0.344381 0.000000 -0.152797
# 5 -0.000097 -0.005206 0.007926 0.000000 0.033827 0.000000
# 6 0.000000 0.000000 0.000000 -0.152797 0.000000 -0.004506
#
#
# Mechanical properties :
#
#
# Convention : Reuss Voigt Hill
#
# Bulk Modulus (GPa) = 29.09411 43.69446 36.39429
# Shear Modulus (GPa) = -19.84307 28.31077 4.23385
#
# Velocity S-wave (km/s) = -2.83182 3.38249 1.30806
# Velocity P-wave (km/s) = 1.03226 5.73701 4.12182
#
# Compressibility (1/GPa) = 0.03437122
#
# Stress axis : x y z
#
# Youngs Moduli (GPa) = 59.84928 58.68108 108.12495
#
# Poissons Ratio (x) = -0.22354 0.48354
# Poissons Ratio (y) = -0.22799 0.39477
# Poissons Ratio (z) = 0.26765 0.21425
#
# Static dielectric constant tensor:
#      x y z
#    x 1.979830 0.000000 0.000020 
#    y 0.000000 2.128900 0.000000 
#    z 0.000020 0.000000 1.990060 
# 
# From -- ./inp_files/9134.got.cif
#   From: 2010.05.17/outbox.cif.g08.bks.cpg/sg4_5_cif.got.tgz:9134.got - 2010.06.03 18:43:04.
