data_PCOD9115144
_publ_section_title
;
Structure prediction by ZEFSAII (Michael W. Deem and Ramdas Pophale) SiO2 
 PCOD9115144
Probable space group: P 21
;
_chemical_formula_sum "Si O2"
_cell_formula_units_Z 14
_cell_length_a 9.860939
_cell_length_b 7.104141
_cell_length_c 11.493080
_cell_angle_alpha 90.000000
_cell_angle_beta 61.983856
_cell_angle_gamma 90.000000
_cell_volume 710.781498
_symmetry_space_group_name_H-M "P 21"
_symmetry_group_IT_number 4
_symmetry_cell_setting 'monoclinic'
loop_
_space_group_symop_operation_xyz
x,y,z
-x,1/2+y,-z
loop_
_atom_site_type_symbol
_atom_site_label
_atom_site_fract_x
_atom_site_fract_y
_atom_site_fract_z
Si Si1 0.520027 0.652490 0.823866
Si Si2 0.020254 0.341806 0.333184
Si Si3 0.083854 0.309736 0.047956
Si Si4 0.190199 0.034264 0.414161
Si Si5 0.410587 0.232571 0.940618
Si Si6 0.260879 0.678166 0.228920
Si Si7 0.802124 0.237506 0.004131
O O1 0.647134 0.640183 0.671801
O O2 0.463118 0.439802 0.877267
O O3 0.592525 0.718966 0.917753
O O4 0.359782 0.758136 0.864407
O O5 0.012323 0.269520 0.203718
O O6 0.066323 0.169222 0.399472
O O7 0.156696 0.495400 0.282598
O O8 0.874595 0.464069 0.436105
O O9 0.153692 0.517544 0.022580
O O10 0.238729 0.186229 0.966647
O O11 0.952234 0.316485 0.004906
O O12 0.215021 0.836762 0.338398
O O13 0.560280 0.118418 0.838931
O O14 0.233402 0.781797 0.115692
#
# Coordination Sequence:
#
# PCOD9115144 Si02
#       7
#     2   2   2   2   2   2   2
#     4   9  18  32  52  79 105 142 176 228 276 318
#     4  11  21  35  55  83 110 142 189 221 266 324
#     4  10  20  34  53  83 111 141 178 222 278 331
#     4  11  20  34  58  78 110 148 181 229 269 307
#     4   9  17  31  53  80 108 132 175 232 276 320
#     4   9  20  36  54  84 112 134 182 232 272 327
#     4   9  20  34  53  81 114 139 175 226 281 331
#
# _framework density 19.696629000000001
#
# number of rings (size 3 to 8) (size 9 to 14) (size 15 to 20)
#    0.000    2.286    2.857    0.857    2.000    1.143 
#    0.000    0.000    0.000   12.000    0.000    0.000 
#    0.000    0.000    0.000    0.000    0.000    0.000 
#
# Total GULP energy -77974.472455 kJ/mol
# GULP energy per Si atom -5569.605175 kJ/mol
# Density = 1.965180 g / cm^3
# Si number density = 19.696629 Si / 1000 Ang^3
#
#
#
# Elastic Constant Matrix: (Units=GPa)
#
#
# Indices 1 2 3 4 5 6 
#
# 1 109.2454 -1.6655 37.2201 0.0000 -24.6526 0.0000
# 2 -1.6655 32.6465 5.5780 0.0000 -5.1455 0.0000
# 3 37.2201 5.5780 96.2273 0.0000 -32.3270 0.0000
# 4 0.0000 0.0000 0.0000 28.8602 0.0000 -4.9905
# 5 -24.6526 -5.1455 -32.3270 0.0000 25.8289 0.0000
# 6 0.0000 0.0000 0.0000 -4.9905 0.0000 23.1854
#
#
#
# Elastic Compliance Matrix: (Units=1/GPa)
#
#
# Indices 1 2 3 4 5 6 
#
# 1 0.011953 0.002450 -0.001326 0.000000 0.010236 0.000000
# 2 0.002450 0.032140 0.000217 0.000000 0.009013 0.000000
# 3 -0.001326 0.000217 0.018086 0.000000 0.021414 0.000000
# 4 0.000000 0.000000 0.000000 0.035989 0.000000 0.007747
# 5 0.010236 0.009013 0.021414 0.000000 0.077083 0.000000
# 6 0.000000 0.000000 0.000000 0.007747 0.000000 0.044798
#
#
# Mechanical properties :
#
#
# Convention : Reuss Voigt Hill
#
# Bulk Modulus (GPa) = 15.41783 35.59826 25.50805
# Shear Modulus (GPa) = 20.92152 28.70734 24.81443
#
# Velocity S-wave (km/s) = 3.26266 3.82183 3.55326
# Velocity P-wave (km/s) = 4.69445 6.13088 5.46011
#
# Compressibility (1/GPa) = 0.06485997
#
# Stress axis : x y z
#
# Youngs Moduli (GPa) = 83.66127 31.11429 55.29020
#
# Poissons Ratio (x) = -0.07622 0.07334
# Poissons Ratio (y) = -0.20495 -0.01201
# Poissons Ratio (z) = 0.11097 -0.00676
#
# Static dielectric constant tensor:
#      x y z
#    x 1.779680 0.000000 -0.029350 
#    y 0.000000 1.796370 0.000000 
#    z -0.029350 0.000000 1.726700 
# 
# From -- ./inp_files/5363.got.cif
#   From: 2010.05.17/outbox.cif.g08.bks.cpg/sg4_3_cif.got.tgz:5363.got - 2010.06.03 18:43:04.
