data_PCOD9115690
_publ_section_title
;
Structure prediction by ZEFSAII (Michael W. Deem and Ramdas Pophale) SiO2 
 PCOD9115690
Probable space group: P 21
;
_chemical_formula_sum "Si O2"
_cell_formula_units_Z 16
_cell_length_a 9.189884
_cell_length_b 9.364511
_cell_length_c 10.659291
_cell_angle_alpha 90.000000
_cell_angle_beta 44.205314
_cell_angle_gamma 90.000000
_cell_volume 639.588297
_symmetry_space_group_name_H-M "P 21"
_symmetry_group_IT_number 4
_symmetry_cell_setting 'monoclinic'
loop_
_space_group_symop_operation_xyz
x,y,z
-x,1/2+y,-z
loop_
_atom_site_type_symbol
_atom_site_label
_atom_site_fract_x
_atom_site_fract_y
_atom_site_fract_z
Si Si1 0.543005 0.944520 0.672302
Si Si2 0.719887 0.232923 0.568035
Si Si3 0.166485 0.209670 0.393502
Si Si4 0.050092 0.745730 0.207981
Si Si5 0.816537 0.279991 0.234653
Si Si6 0.651854 0.441680 0.832511
Si Si7 0.243718 0.455019 0.731692
Si Si8 0.761215 0.954141 0.993036
O O1 0.707232 0.854902 0.653890
O O2 0.328824 0.857937 0.779816
O O3 0.633973 0.962986 0.474452
O O4 0.557371 0.108636 0.708507
O O5 0.688570 0.281691 0.445214
O O6 0.727205 0.355323 0.665078
O O7 0.962979 0.185133 0.431117
O O8 0.075165 0.184641 0.592219
O O9 0.325852 0.103088 0.226953
O O10 0.197823 0.878384 0.155596
O O11 0.177321 0.614750 0.076283
O O12 0.895739 0.814978 0.202889
O O13 0.027589 0.365405 0.128654
O O14 0.861169 0.111811 0.187671
O O15 0.409926 0.406036 0.001181
O O16 0.346786 0.440433 0.803662
#
# Coordination Sequence:
#
# PCOD9115690 Si02
#       8
#     2   2   2   2   2   2   2   2
#     4  10  22  39  65  95 123 159 212 267 318 374
#     4  10  21  40  65  93 121 159 209 268 320 374
#     4  10  20  42  69  92 117 156 212 269 320 371
#     4  10  24  43  65  93 126 164 213 265 315 376
#     4  11  23  39  61  91 125 167 211 259 315 378
#     4  11  23  41  64  93 126 164 209 262 320 378
#     4  10  22  42  63  89 122 163 211 264 315 371
#     4  12  25  40  60  90 130 174 209 254 315 380
#
# _framework density 25.016093000000001
#
# number of rings (size 3 to 8) (size 9 to 14) (size 15 to 20)
#    0.000    1.500    0.000    6.000    0.000   10.000 
#    0.000    3.750    0.000    0.000    0.000    0.000 
#    0.000    0.000    0.000    0.000    0.000    0.000 
#
# Total GULP energy -89358.369004 kJ/mol
# GULP energy per Si atom -5584.898063 kJ/mol
# Density = 2.495915 g / cm^3
# Si number density = 25.016093 Si / 1000 Ang^3
#
#
#
# Elastic Constant Matrix: (Units=GPa)
#
#
# Indices 1 2 3 4 5 6 
#
# 1 78.3760 4.5604 14.9957 0.0000 4.1931 0.0000
# 2 4.5604 57.8785 5.7868 0.0000 3.4001 0.0000
# 3 14.9957 5.7868 54.8103 0.0000 12.4540 0.0000
# 4 0.0000 0.0000 0.0000 20.2554 0.0000 2.2359
# 5 4.1931 3.4001 12.4540 0.0000 49.2608 0.0000
# 6 0.0000 0.0000 0.0000 2.2359 0.0000 24.8505
#
#
#
# Elastic Compliance Matrix: (Units=1/GPa)
#
#
# Indices 1 2 3 4 5 6 
#
# 1 0.013494 -0.000694 -0.003574 0.000000 -0.000197 0.000000
# 2 -0.000694 0.017526 -0.001484 0.000000 -0.000775 0.000000
# 3 -0.003574 -0.001484 0.020462 0.000000 -0.004767 0.000000
# 4 0.000000 0.000000 0.000000 0.049865 0.000000 -0.004487
# 5 -0.000197 -0.000775 -0.004767 0.000000 0.021575 0.000000
# 6 0.000000 0.000000 0.000000 -0.004487 0.000000 0.040644
#
#
# Mechanical properties :
#
#
# Convention : Reuss Voigt Hill
#
# Bulk Modulus (GPa) = 25.01395 26.86117 25.93756
# Shear Modulus (GPa) = 26.53968 29.92147 28.23058
#
# Velocity S-wave (km/s) = 3.26069 3.46220 3.36295
# Velocity P-wave (km/s) = 4.91904 5.17140 5.04680
#
# Compressibility (1/GPa) = 0.03997769
#
# Stress axis : x y z
#
# Youngs Moduli (GPa) = 74.10867 57.05732 48.87053
#
# Poissons Ratio (x) = 0.03962 0.17465
# Poissons Ratio (y) = 0.05145 0.07254
# Poissons Ratio (z) = 0.26484 0.08469
#
# Static dielectric constant tensor:
#      x y z
#    x 1.970560 0.000000 0.003360 
#    y 0.000000 1.960440 0.000000 
#    z 0.003360 0.000000 2.022770 
# 
# From -- ./inp_files/11024.got.cif
#   From: 2010.05.17/outbox.cif.g08.bks.cpg/sg4_6_cif.got.tgz:11024.got - 2010.06.03 18:43:04.
