data_PCOD9115739
_publ_section_title
;
Structure prediction by ZEFSAII (Michael W. Deem and Ramdas Pophale) SiO2 
 PCOD9115739
Probable space group: P 21
;
_chemical_formula_sum "Si O2"
_cell_formula_units_Z 16
_cell_length_a 20.999942
_cell_length_b 5.129057
_cell_length_c 9.374435
_cell_angle_alpha 90.000000
_cell_angle_beta 140.552611
_cell_angle_gamma 90.000000
_cell_volume 641.544862
_symmetry_space_group_name_H-M "P 21"
_symmetry_group_IT_number 4
_symmetry_cell_setting 'monoclinic'
loop_
_space_group_symop_operation_xyz
x,y,z
-x,1/2+y,-z
loop_
_atom_site_type_symbol
_atom_site_label
_atom_site_fract_x
_atom_site_fract_y
_atom_site_fract_z
Si Si1 0.120798 0.511270 0.636185
Si Si2 0.435996 0.707176 0.922229
Si Si3 0.132572 0.210831 0.125535
Si Si4 0.588916 0.427635 0.514331
Si Si5 0.120027 0.993722 0.795159
Si Si6 0.899754 0.314544 0.696613
Si Si7 0.267177 0.604550 0.413678
Si Si8 0.546066 0.422692 0.753484
O O1 0.158129 0.225945 0.754527
O O2 0.132517 0.673151 0.506848
O O3 0.000362 0.482174 0.438279
O O4 0.160914 0.715276 0.820232
O O5 0.344406 0.584365 0.676961
O O6 0.485294 0.966442 0.935340
O O7 0.400893 0.825523 0.011990
O O8 0.136694 0.089024 0.294955
O O9 0.237767 0.354998 0.274619
O O10 0.129058 0.024587 0.979698
O O11 0.019215 0.324073 0.911604
O O12 0.682879 0.330871 0.588938
O O13 0.606877 0.400811 0.713906
O O14 0.502617 0.209960 0.326767
O O15 0.545025 0.714000 0.413602
O O16 0.844169 0.139664 0.717232
#
# Coordination Sequence:
#
# PCOD9115739 Si02
#       8
#     2   2   2   2   2   2   2   2
#     4   9  20  39  65  91 125 178 230 291 350 405
#     4  12  24  44  72 102 137 175 221 285 355 419
#     4  11  25  43  68  99 141 193 246 300 350 414
#     4  10  22  40  73  95 133 173 224 279 343 424
#     4   9  20  39  65  89 125 177 236 286 351 409
#     4  11  25  43  68  99 144 190 245 301 352 413
#     4  12  26  42  68 104 137 184 236 285 352 419
#     4  10  20  44  67 101 132 174 216 281 355 409
#
# _framework density 24.939800000000002
#
# number of rings (size 3 to 8) (size 9 to 14) (size 15 to 20)
#    0.000    1.500    3.750    0.000    7.000    1.000 
#    2.250    0.000    0.000    0.000    0.000    0.000 
#    0.000    0.000    0.000    0.000    0.000    0.000 
#
# Total GULP energy -89151.712089 kJ/mol
# GULP energy per Si atom -5571.982006 kJ/mol
# Density = 2.488304 g / cm^3
# Si number density = 24.939800 Si / 1000 Ang^3
#
#
#
# Elastic Constant Matrix: (Units=GPa)
#
#
# Indices 1 2 3 4 5 6 
#
# 1 51.5197 -21.5505 13.3818 0.0000 -16.2436 0.0000
# 2 -21.5505 70.2902 -11.6204 0.0000 1.7439 0.0000
# 3 13.3818 -11.6204 62.1568 0.0000 2.9683 0.0000
# 4 0.0000 0.0000 0.0000 33.2579 0.0000 -10.6308
# 5 -16.2436 1.7439 2.9683 0.0000 31.1711 0.0000
# 6 0.0000 0.0000 0.0000 -10.6308 0.0000 13.7552
#
#
#
# Elastic Compliance Matrix: (Units=1/GPa)
#
#
# Indices 1 2 3 4 5 6 
#
# 1 0.028743 0.007529 -0.005501 0.000000 0.015081 0.000000
# 2 0.007529 0.016689 0.001363 0.000000 0.002860 0.000000
# 3 -0.005501 0.001363 0.017749 0.000000 -0.004633 0.000000
# 4 0.000000 0.000000 0.000000 0.039933 0.000000 0.030863
# 5 0.015081 0.002860 -0.004633 0.000000 0.040221 0.000000
# 6 0.000000 0.000000 0.000000 0.030863 0.000000 0.096552
#
#
# Mechanical properties :
#
#
# Convention : Reuss Voigt Hill
#
# Bulk Modulus (GPa) = 14.29338 16.04317 15.16827
# Shear Modulus (GPa) = 19.49872 29.22054 24.35963
#
# Velocity S-wave (km/s) = 2.79916 3.42664 3.12867
# Velocity P-wave (km/s) = 4.02376 4.70133 4.37568
#
# Compressibility (1/GPa) = 0.06996245
#
# Stress axis : x y z
#
# Youngs Moduli (GPa) = 34.79108 59.91842 56.34243
#
# Poissons Ratio (x) = -0.45112 0.30993
# Poissons Ratio (y) = -0.26194 -0.07678
# Poissons Ratio (z) = 0.19138 -0.08165
#
# Static dielectric constant tensor:
#      x y z
#    x 2.042900 0.000000 -0.011270 
#    y 0.000000 2.663050 0.000000 
#    z -0.011270 0.000000 1.971810 
# 
# From -- ./inp_files/9810.got.cif
#   From: 2010.05.17/outbox.cif.g08.bks.cpg/sg4_5_cif.got.tgz:9810.got - 2010.06.03 18:43:04.
