data_PCOD9115301
_publ_section_title
;
Structure prediction by ZEFSAII (Michael W. Deem and Ramdas Pophale) SiO2 
 PCOD9115301
Probable space group: P 21
;
_chemical_formula_sum "Si O2"
_cell_formula_units_Z 12
_cell_length_a 20.438492
_cell_length_b 4.956041
_cell_length_c 11.278145
_cell_angle_alpha 90.000000
_cell_angle_beta 22.945681
_cell_angle_gamma 90.000000
_cell_volume 445.377392
_symmetry_space_group_name_H-M "P 21"
_symmetry_group_IT_number 4
_symmetry_cell_setting 'monoclinic'
loop_
_space_group_symop_operation_xyz
x,y,z
-x,1/2+y,-z
loop_
_atom_site_type_symbol
_atom_site_label
_atom_site_fract_x
_atom_site_fract_y
_atom_site_fract_z
Si Si1 0.030257 0.322410 0.917428
Si Si2 0.413541 0.764220 0.189712
Si Si3 0.738517 0.972043 0.158298
Si Si4 0.876282 0.793834 0.701735
Si Si5 0.870635 0.543496 0.470971
Si Si6 0.311567 0.988147 0.604391
O O1 0.108075 0.279783 0.659316
O O2 0.113971 0.581297 0.841211
O O3 0.870338 0.570024 0.159969
O O4 0.416773 0.883907 0.317434
O O5 0.240473 0.830521 0.412054
O O6 0.462747 0.455708 0.093684
O O7 0.644342 0.761714 0.399990
O O8 0.704658 0.271408 0.262136
O O9 0.728054 0.892211 0.036817
O O10 0.942022 0.933978 0.822671
O O11 0.802568 0.662768 0.705483
O O12 0.002951 0.549663 0.531226
#
# Coordination Sequence:
#
# PCOD9115301 Si02
#       6
#     2   2   2   2   2   2
#     4  11  20  31  56  88 117 148 188 242 315 357
#     4  12  28  41  58  86 128 174 210 244 298 366
#     4  10  21  37  66  95 116 155 192 260 322 362
#     4  10  20  37  59  98 131 154 194 246 327 382
#     4  10  23  38  63  90 132 157 198 253 307 368
#     4  11  22  38  60  87 126 150 206 253 307 367
#
# _framework density 26.943444
#
# number of rings (size 3 to 8) (size 9 to 14) (size 15 to 20)
#    0.000    1.333    1.667    6.000    2.333    5.333 
#    0.000    0.000    0.000    4.000    0.000    0.000 
#    0.000    0.000    0.000    0.000    0.000    0.000 
#
# Total GULP energy -67043.082255 kJ/mol
# GULP energy per Si atom -5586.923521 kJ/mol
# Density = 2.688212 g / cm^3
# Si number density = 26.943444 Si / 1000 Ang^3
#
#
#
# Elastic Constant Matrix: (Units=GPa)
#
#
# Indices 1 2 3 4 5 6 
#
# 1 72.0570 29.9186 22.8158 0.0000 48.7645 0.0000
# 2 29.9186 179.4167 7.0885 0.0000 10.0418 0.0000
# 3 22.8158 7.0885 56.6320 0.0000 17.1809 0.0000
# 4 0.0000 0.0000 0.0000 54.6328 0.0000 15.2571
# 5 48.7645 10.0418 17.1809 0.0000 51.1634 0.0000
# 6 0.0000 0.0000 0.0000 15.2571 0.0000 41.7373
#
#
#
# Elastic Compliance Matrix: (Units=1/GPa)
#
#
# Indices 1 2 3 4 5 6 
#
# 1 0.044378 -0.004979 -0.005256 0.000000 -0.039556 0.000000
# 2 -0.004979 0.006203 0.000177 0.000000 0.003468 0.000000
# 3 -0.005256 0.000177 0.020313 0.000000 -0.001847 0.000000
# 4 0.000000 0.000000 0.000000 0.020385 0.000000 -0.007452
# 5 -0.039556 0.003468 -0.001847 0.000000 0.057186 0.000000
# 6 0.000000 0.000000 0.000000 -0.007452 0.000000 0.026683
#
#
# Mechanical properties :
#
#
# Convention : Reuss Voigt Hill
#
# Bulk Modulus (GPa) = 19.69277 47.52797 33.61037
# Shear Modulus (GPa) = 23.56383 46.05890 34.81136
#
# Velocity S-wave (km/s) = 2.96051 4.13905 3.59836
# Velocity P-wave (km/s) = 4.36016 6.36558 5.45580
#
# Compressibility (1/GPa) = 0.05078006
#
# Stress axis : x y z
#
# Youngs Moduli (GPa) = 22.53347 161.21942 49.22870
#
# Poissons Ratio (x) = 0.80268 0.25873
# Poissons Ratio (y) = 0.11219 -0.00872
# Poissons Ratio (z) = 0.11843 -0.02857
#
# Static dielectric constant tensor:
#      x y z
#    x 2.275790 0.000000 -0.010140 
#    y 0.000000 2.145290 0.000000 
#    z -0.010140 0.000000 2.269760 
# 
# From -- ./inp_files/9537.got.cif
#   From: 2010.05.17/outbox.cif.g08.bks.cpg/sg4_5_cif.got.tgz:9537.got - 2010.06.03 18:43:04.
