data_PCOD9115154
_publ_section_title
;
Structure prediction by ZEFSAII (Michael W. Deem and Ramdas Pophale) SiO2 
 PCOD9115154
Probable space group: P 21
;
_chemical_formula_sum "Si O2"
_cell_formula_units_Z 14
_cell_length_a 12.681906
_cell_length_b 5.260209
_cell_length_c 28.410095
_cell_angle_alpha 90.000000
_cell_angle_beta 159.244814
_cell_angle_gamma 90.000000
_cell_volume 671.620778
_symmetry_space_group_name_H-M "P 21"
_symmetry_group_IT_number 4
_symmetry_cell_setting 'monoclinic'
loop_
_space_group_symop_operation_xyz
x,y,z
-x,1/2+y,-z
loop_
_atom_site_type_symbol
_atom_site_label
_atom_site_fract_x
_atom_site_fract_y
_atom_site_fract_z
Si Si1 0.325517 0.633890 0.914937
Si Si2 0.572668 0.610229 0.925786
Si Si3 0.156134 0.343057 0.616660
Si Si4 0.471159 0.846111 0.788478
Si Si5 0.591434 0.618654 0.368860
Si Si6 0.912367 0.810791 0.897192
Si Si7 0.903251 0.419327 0.811945
O O1 0.312228 0.557448 0.854219
O O2 0.034608 0.597100 0.825918
O O3 0.561305 0.423638 0.033043
O O4 0.477048 0.808549 0.846520
O O5 0.747761 0.391599 0.970331
O O6 0.835640 0.718510 0.068560
O O7 0.316383 0.599725 0.700621
O O8 0.215600 0.291324 0.586169
O O9 0.808038 0.401505 0.478317
O O10 0.295742 0.099729 0.700852
O O11 0.805634 0.828637 0.906433
O O12 0.330029 0.496446 0.228285
O O13 0.408835 0.786635 0.329492
O O14 0.867386 0.559107 0.847417
#
# Coordination Sequence:
#
# PCOD9115154 Si02
#       7
#     2   2   2   2   2   2   2
#     4  10  20  37  58  87 121 159 205 250 298 357
#     4  10  23  36  57  86 132 164 196 245 305 384
#     4  11  23  38  58  87 123 162 204 251 304 371
#     4  11  25  36  56  90 128 167 197 236 317 380
#     4  10  21  37  58  88 120 156 206 261 302 345
#     4  10  20  34  56  86 121 159 198 247 302 366
#     4  10  20  36  59  90 119 157 206 256 304 351
#
# _framework density 20.845095000000001
#
# number of rings (size 3 to 8) (size 9 to 14) (size 15 to 20)
#    0.000    1.714    2.857    1.714    6.000    0.000 
#    0.000    0.000    0.000    0.000    3.714    0.000 
#    0.000    0.000    0.000    0.000    0.000    0.000 
#
# Total GULP energy -78075.673338 kJ/mol
# GULP energy per Si atom -5576.833810 kJ/mol
# Density = 2.079765 g / cm^3
# Si number density = 20.845095 Si / 1000 Ang^3
#
#
#
# Elastic Constant Matrix: (Units=GPa)
#
#
# Indices 1 2 3 4 5 6 
#
# 1 91.8018 2.2905 29.1958 0.0000 11.3326 0.0000
# 2 2.2905 96.0320 33.7781 0.0000 0.5574 0.0001
# 3 29.1958 33.7781 55.2180 0.0002 4.7550 0.0005
# 4 0.0000 0.0000 0.0002 40.4860 0.0000 1.4460
# 5 11.3326 0.5574 4.7550 0.0000 15.3336 0.0000
# 6 0.0000 0.0001 0.0005 1.4460 0.0000 27.7456
#
#
#
# Elastic Compliance Matrix: (Units=1/GPa)
#
#
# Indices 1 2 3 4 5 6 
#
# 1 0.014604 0.002761 -0.008705 0.000000 -0.008194 0.000000
# 2 0.002761 0.013856 -0.009983 0.000000 0.000552 0.000000
# 3 -0.008705 -0.009983 0.029009 0.000000 -0.002199 0.000000
# 4 0.000000 0.000000 0.000000 0.024746 0.000000 -0.001290
# 5 -0.008194 0.000552 -0.002199 0.000000 0.071934 0.000000
# 6 0.000000 0.000000 0.000000 -0.001290 0.000000 0.036109
#
#
# Mechanical properties :
#
#
# Convention : Reuss Voigt Hill
#
# Bulk Modulus (GPa) = 39.04045 41.50897 40.27471
# Shear Modulus (GPa) = 21.67778 28.56553 25.12166
#
# Velocity S-wave (km/s) = 3.22832 3.70587 3.47531
# Velocity P-wave (km/s) = 5.71538 6.18608 5.95538
#
# Compressibility (1/GPa) = 0.02561446
#
# Stress axis : x y z
#
# Youngs Moduli (GPa) = 68.47337 72.17291 34.47187
#
# Poissons Ratio (x) = -0.19928 0.30009
# Poissons Ratio (y) = -0.18907 0.34414
# Poissons Ratio (z) = 0.59608 0.72052
#
# Static dielectric constant tensor:
#      x y z
#    x 1.833930 0.000000 0.053840 
#    y 0.000000 1.845710 0.000000 
#    z 0.053840 0.000000 1.781050 
# 
# From -- ./inp_files/12375.got.cif
#   From: 2010.05.17/outbox.cif.g08.bks.cpg/sg4_7_cif.got.tgz:12375.got - 2010.06.03 18:43:04.
