data_PCOD9115222
_publ_section_title
;
Structure prediction by ZEFSAII (Michael W. Deem and Ramdas Pophale) SiO2 
 PCOD9115222
Probable space group: P 21
;
_chemical_formula_sum "Si O2"
_cell_formula_units_Z 16
_cell_length_a 12.350695
_cell_length_b 8.684654
_cell_length_c 8.055828
_cell_angle_alpha 90.000000
_cell_angle_beta 89.892435
_cell_angle_gamma 90.000000
_cell_volume 864.078775
_symmetry_space_group_name_H-M "P 21"
_symmetry_group_IT_number 4
_symmetry_cell_setting 'monoclinic'
loop_
_space_group_symop_operation_xyz
x,y,z
-x,1/2+y,-z
loop_
_atom_site_type_symbol
_atom_site_label
_atom_site_fract_x
_atom_site_fract_y
_atom_site_fract_z
Si Si1 0.266437 0.912270 0.700485
Si Si2 0.279598 0.584910 0.829201
Si Si3 0.113971 0.393802 0.011520
Si Si4 0.503729 0.537799 0.684472
Si Si5 0.264726 0.906156 0.317994
Si Si6 0.279644 0.581870 0.193275
Si Si7 0.513798 0.906401 0.682840
Si Si8 0.873730 0.527657 0.989616
O O1 0.255010 0.726147 0.709069
O O2 0.246872 0.961386 0.508644
O O3 0.392491 0.946197 0.742635
O O4 0.191617 0.982666 0.843249
O O5 0.394608 0.509392 0.787741
O O6 0.184768 0.461306 0.856963
O O7 0.289861 0.659928 0.011977
O O8 0.177627 0.468863 0.168298
O O9 0.117825 0.211520 0.018083
O O10 0.992653 0.454236 0.001601
O O11 0.614695 0.457604 0.737552
O O12 0.480067 0.472619 0.502437
O O13 0.521853 0.721645 0.682149
O O14 0.263216 0.720420 0.318834
O O15 0.183056 0.967861 0.179044
O O16 0.387322 0.484016 0.222296
#
# Coordination Sequence:
#
# PCOD9115222 Si02
#       8
#     2   2   2   2   2   2   2   2
#     4  10  22  40  62  92 123 162 204 250 302 361
#     4   9  20  38  59  89 120 162 200 243 306 349
#     4  10  24  40  65  90 118 160 204 261 301 362
#     4  10  21  35  57  89 129 163 201 255 296 364
#     4  11  23  39  65  92 124 166 201 252 305 361
#     4  10  20  38  60  89 122 160 201 245 306 354
#     4  10  20  36  55  90 127 160 205 245 302 360
#     4  12  22  44  65  85 125 155 206 257 306 365
#
# _framework density 18.516829999999999
#
# number of rings (size 3 to 8) (size 9 to 14) (size 15 to 20)
#    0.750    1.000    1.250    4.500    1.750    3.000 
#    0.000    7.500    0.000    0.000    0.000    0.000 
#    0.000    0.000    0.000    0.000    0.000    0.000 
#
# Total GULP energy -89163.735878 kJ/mol
# GULP energy per Si atom -5572.733492 kJ/mol
# Density = 1.847469 g / cm^3
# Si number density = 18.516830 Si / 1000 Ang^3
#
#
#
# Elastic Constant Matrix: (Units=GPa)
#
#
# Indices 1 2 3 4 5 6 
#
# 1 -1937.1079-1997.1719 -944.4935 0.0000 1181.3250 0.0000
# 2 -1997.1719-1942.2361 -965.3828 0.0000 1160.7129 0.0000
# 3 -944.4935 -965.3828 -406.4681 0.0000 566.5126 0.0000
# 4 0.0000 0.0000 0.0000 32.9665 0.0000 6.5685
# 5 1181.3250 1160.7129 566.5126 0.0000 -649.6336 0.0000
# 6 0.0000 0.0000 0.0000 6.5685 0.0000 45.0843
#
#
#
# Elastic Compliance Matrix: (Units=1/GPa)
#
#
# Indices 1 2 3 4 5 6 
#
# 1 0.011874 -0.007542 -0.007586 0.000000 0.001500 0.000000
# 2 -0.007542 0.014172 -0.000197 0.000000 0.011434 0.000000
# 3 -0.007586 -0.000197 0.018950 0.000000 0.002378 0.000000
# 4 0.000000 0.000000 0.000000 0.031241 0.000000 -0.004552
# 5 0.001500 0.011434 0.002378 0.000000 0.023692 0.000000
# 6 0.000000 0.000000 0.000000 -0.004552 0.000000 0.022844
#
#
# Mechanical properties :
#
#
# Convention : Reuss Voigt Hill
#
# Bulk Modulus (GPa) = 69.71441 -1344.43428 -637.35994
# Shear Modulus (GPa) = 31.60457 -139.56750 -53.98147
#
# Velocity S-wave (km/s) = 4.13583 -8.69120 -5.40518
# Velocity P-wave (km/s) = 7.78060 28.78112 19.59356
#
# Compressibility (1/GPa) = 0.01434424
#
# Stress axis : x y z
#
# Youngs Moduli (GPa) = 84.21724 70.56266 52.77087
#
# Poissons Ratio (x) = 0.53221 0.40035
# Poissons Ratio (y) = 0.63520 0.01039
# Poissons Ratio (z) = 0.63891 0.01389
#
# Static dielectric constant tensor:
#      x y z
#    x 1.623590 0.000000 0.036650 
#    y 0.000000 1.632100 0.000000 
#    z 0.036650 0.000000 1.552350 
# 
# From -- ./inp_files/7704.got.cif
#   From: 2010.05.17/outbox.cif.g08.bks.cpg/sg4_4_cif.got.tgz:7704.got - 2010.06.03 18:43:04.
