data_PCOD9115617
_publ_section_title
;
Structure prediction by ZEFSAII (Michael W. Deem and Ramdas Pophale) SiO2 
 PCOD9115617
Probable space group: P 21
;
_chemical_formula_sum "Si O2"
_cell_formula_units_Z 16
_cell_length_a 5.379742
_cell_length_b 15.611819
_cell_length_c 7.352984
_cell_angle_alpha 90.000000
_cell_angle_beta 99.470749
_cell_angle_gamma 90.000000
_cell_volume 609.141677
_symmetry_space_group_name_H-M "P 21"
_symmetry_group_IT_number 4
_symmetry_cell_setting 'monoclinic'
loop_
_space_group_symop_operation_xyz
x,y,z
-x,1/2+y,-z
loop_
_atom_site_type_symbol
_atom_site_label
_atom_site_fract_x
_atom_site_fract_y
_atom_site_fract_z
Si Si1 0.931100 0.172930 0.184627
Si Si2 0.987595 0.470695 0.370325
Si Si3 0.866535 0.326529 0.726834
Si Si4 0.227611 0.627442 0.195562
Si Si5 0.349730 0.140333 0.484947
Si Si6 0.526244 0.472531 0.605710
Si Si7 0.837297 0.846902 0.905053
Si Si8 0.604263 0.295596 0.344717
O O1 0.696707 0.230798 0.205913
O O2 0.061854 0.138762 0.382390
O O3 0.120308 0.245430 0.127020
O O4 0.841530 0.107756 0.021045
O O5 0.058131 0.562341 0.289588
O O6 0.243019 0.449714 0.515545
O O7 0.979758 0.404349 0.199518
O O8 0.741361 0.478616 0.468749
O O9 0.831131 0.228123 0.783207
O O10 0.647287 0.397131 0.740276
O O11 0.840868 0.319297 0.504009
O O12 0.100481 0.359202 0.875950
O O13 0.511644 0.619732 0.307277
O O14 0.434516 0.238974 0.461792
O O15 0.474527 0.073772 0.352498
O O16 0.564867 0.863503 0.783742
#
# Coordination Sequence:
#
# PCOD9115617 Si02
#       8
#     2   2   2   2   2   2   2   2
#     4  10  21  39  67  94 129 175 218 273 335 401
#     4  11  24  47  66  98 139 177 218 290 330 397
#     4  10  21  42  66  96 128 180 221 276 331 410
#     4   9  22  43  63  97 132 172 227 269 340 396
#     4   9  22  38  62  94 126 171 211 280 324 402
#     4  11  24  44  68  97 135 174 228 272 347 388
#     4  10  22  40  63  94 132 171 227 272 335 396
#     4  10  20  41  65  94 133 164 224 274 336 396
#
# _framework density 26.266466000000001
#
# number of rings (size 3 to 8) (size 9 to 14) (size 15 to 20)
#    0.000    2.000    1.250    0.750    7.000    1.000 
#   15.750    0.000    0.000    0.000    0.000    0.000 
#    0.000    0.000    0.000    0.000    0.000    0.000 
#
# Total GULP energy -89094.352874 kJ/mol
# GULP energy per Si atom -5568.397055 kJ/mol
# Density = 2.620668 g / cm^3
# Si number density = 26.266466 Si / 1000 Ang^3
#
#
#
# Elastic Constant Matrix: (Units=GPa)
#
#
# Indices 1 2 3 4 5 6 
#
# 1 116.1359 3.6577 66.0484 0.0000 27.5155 0.0000
# 2 3.6577 93.4874 27.9276 0.0000 19.6028 0.0000
# 3 66.0484 27.9276 180.5817 0.0000 22.5824 0.0000
# 4 0.0000 0.0000 0.0000 22.7889 0.0000 6.8309
# 5 27.5155 19.6028 22.5824 0.0000 29.6354 0.0000
# 6 0.0000 0.0000 0.0000 6.8309 0.0000 35.3786
#
#
#
# Elastic Compliance Matrix: (Units=1/GPa)
#
#
# Indices 1 2 3 4 5 6 
#
# 1 0.013511 0.003081 -0.003973 0.000000 -0.011555 0.000000
# 2 0.003081 0.013283 -0.001906 0.000000 -0.010194 0.000000
# 3 -0.003973 -0.001906 0.007369 0.000000 -0.000665 0.000000
# 4 0.000000 0.000000 0.000000 0.046577 0.000000 -0.008993
# 5 -0.011555 -0.010194 -0.000665 0.000000 0.051722 0.000000
# 6 0.000000 0.000000 0.000000 -0.008993 0.000000 0.030002
#
#
# Mechanical properties :
#
#
# Convention : Reuss Voigt Hill
#
# Bulk Modulus (GPa) = 35.00655 65.05247 50.02951
# Shear Modulus (GPa) = 28.15598 37.06533 32.61065
#
# Velocity S-wave (km/s) = 3.27760 3.76057 3.52736
# Velocity P-wave (km/s) = 5.26117 6.60878 5.97310
#
# Compressibility (1/GPa) = 0.02856609
#
# Stress axis : x y z
#
# Youngs Moduli (GPa) = 74.01487 75.28311 135.70599
#
# Poissons Ratio (x) = -0.23196 0.53918
# Poissons Ratio (y) = -0.22805 0.25871
# Poissons Ratio (z) = 0.29407 0.14352
#
# Static dielectric constant tensor:
#      x y z
#    x 2.107950 0.000000 -0.004870 
#    y 0.000000 2.395730 0.000000 
#    z -0.004870 0.000000 2.055660 
# 
# From -- ./inp_files/2093.got.cif
#   From: 2010.05.17/outbox.cif.g08.bks.cpg/sg4_2_cif.got.tgz:2093.got - 2010.06.03 18:43:04.
