data_PCOD9115983
_publ_section_title
;
Structure prediction by ZEFSAII (Michael W. Deem and Ramdas Pophale) SiO2 
 PCOD9115983
Probable space group: P 21
;
_chemical_formula_sum "Si O2"
_cell_formula_units_Z 12
_cell_length_a 16.290119
_cell_length_b 5.505842
_cell_length_c 7.009371
_cell_angle_alpha 90.000000
_cell_angle_beta 42.576305
_cell_angle_gamma 90.000000
_cell_volume 425.344425
_symmetry_space_group_name_H-M "P 21"
_symmetry_group_IT_number 4
_symmetry_cell_setting 'monoclinic'
loop_
_space_group_symop_operation_xyz
x,y,z
-x,1/2+y,-z
loop_
_atom_site_type_symbol
_atom_site_label
_atom_site_fract_x
_atom_site_fract_y
_atom_site_fract_z
Si Si1 0.460297 0.781670 0.387590
Si Si2 0.952554 0.274871 0.991932
Si Si3 0.248834 0.265377 0.124036
Si Si4 0.762034 0.401986 0.566809
Si Si5 0.517651 0.279810 0.208067
Si Si6 0.865012 0.268424 0.756690
O O1 0.564663 0.539591 0.669754
O O2 0.437067 0.522152 0.332035
O O3 0.433293 0.779109 0.657627
O O4 0.807414 0.318868 0.283723
O O5 0.970489 0.272238 0.731533
O O6 0.009795 0.515393 0.987698
O O7 0.193985 0.503550 0.124485
O O8 0.231628 0.184273 0.377159
O O9 0.202155 0.026351 0.094790
O O10 0.392758 0.287061 0.865590
O O11 0.868435 0.286329 0.521723
O O12 0.636770 0.298001 0.871938
#
# Coordination Sequence:
#
# PCOD9115983 Si02
#       6
#     2   2   2   2   2   2
#     4   9  14  26  49  87 112 142 190 222 271 326
#     4  12  28  42  61  86 114 149 197 250 299 351
#     4   9  17  35  60  84 115 152 184 227 284 337
#     4   9  22  38  63  81 116 153 193 228 297 340
#     4   9  16  26  51  84 112 144 187 230 263 339
#     4  10  21  39  60  84 111 152 185 243 286 349
#
# _framework density 28.212427999999999
#
# number of rings (size 3 to 8) (size 9 to 14) (size 15 to 20)
#    1.000    1.333    1.667    1.000    2.333    1.333 
#    0.000    0.000    0.000    2.000    0.000    0.000 
#    0.000    0.000    0.000    0.000    0.000    0.000 
#
# Total GULP energy -66984.026362 kJ/mol
# GULP energy per Si atom -5582.002197 kJ/mol
# Density = 2.814821 g / cm^3
# Si number density = 28.212428 Si / 1000 Ang^3
#
#
#
# Elastic Constant Matrix: (Units=GPa)
#
#
# Indices 1 2 3 4 5 6 
#
# 1 57.3767 41.6366 1.5747 0.0000 38.1296 0.0000
# 2 41.6366 263.5788 35.1899 0.0000 -4.2377 0.0000
# 3 1.5747 35.1899 110.2837 0.0000 8.8546 0.0000
# 4 0.0000 0.0000 0.0000 44.3940 0.0000 -3.9954
# 5 38.1296 -4.2377 8.8546 0.0000 37.1719 0.0000
# 6 0.0000 0.0000 0.0000 -3.9954 0.0000 51.7515
#
#
#
# Elastic Compliance Matrix: (Units=1/GPa)
#
#
# Indices 1 2 3 4 5 6 
#
# 1 0.119431 -0.023077 0.016012 0.000000 -0.128952 0.000000
# 2 -0.023077 0.008443 -0.004427 0.000000 0.025689 0.000000
# 3 0.016012 -0.004427 0.011837 0.000000 -0.019749 0.000000
# 4 0.000000 0.000000 0.000000 0.022683 0.000000 0.001751
# 5 -0.128952 0.025689 -0.019749 0.000000 0.166809 0.000000
# 6 0.000000 0.000000 0.000000 0.001751 0.000000 0.019458
#
#
# Mechanical properties :
#
#
# Convention : Reuss Voigt Hill
#
# Bulk Modulus (GPa) = 8.56705 65.33794 36.95250
# Shear Modulus (GPa) = 12.17862 50.18604 31.18233
#
# Velocity S-wave (km/s) = 2.07993 4.22223 3.32817
# Velocity P-wave (km/s) = 2.96840 6.85414 5.28160
#
# Compressibility (1/GPa) = 0.11672623
#
# Stress axis : x y z
#
# Youngs Moduli (GPa) = 8.37307 118.43576 84.47978
#
# Poissons Ratio (x) = 2.73314 -1.35267
# Poissons Ratio (y) = 0.19322 0.37401
# Poissons Ratio (z) = -0.13407 0.52434
#
# Static dielectric constant tensor:
#      x y z
#    x 2.309010 0.000000 -0.050690 
#    y 0.000000 2.211990 0.000000 
#    z -0.050690 0.000000 2.216600 
# 
# From -- ./inp_files/9961.got.cif
#   From: 2010.05.17/outbox.cif.g08.bks.cpg/sg4_5_cif.got.tgz:9961.got - 2010.06.03 18:43:04.
