data_PCOD9115772
_publ_section_title
;
Structure prediction by ZEFSAII (Michael W. Deem and Ramdas Pophale) SiO2 
 PCOD9115772
Probable space group: P 21
;
_chemical_formula_sum "Si O2"
_cell_formula_units_Z 14
_cell_length_a 10.194658
_cell_length_b 5.185652
_cell_length_c 17.788324
_cell_angle_alpha 90.000000
_cell_angle_beta 45.812346
_cell_angle_gamma 90.000000
_cell_volume 674.321569
_symmetry_space_group_name_H-M "P 21"
_symmetry_group_IT_number 4
_symmetry_cell_setting 'monoclinic'
loop_
_space_group_symop_operation_xyz
x,y,z
-x,1/2+y,-z
loop_
_atom_site_type_symbol
_atom_site_label
_atom_site_fract_x
_atom_site_fract_y
_atom_site_fract_z
Si Si1 0.930983 0.403160 0.776268
Si Si2 0.401868 0.598306 0.067900
Si Si3 0.280348 0.933626 0.375351
Si Si4 0.972796 0.646295 0.410152
Si Si5 0.474349 0.625325 0.409989
Si Si6 0.285117 0.272743 0.246919
Si Si7 0.296728 0.627052 0.640091
O O1 0.787797 0.576535 0.786988
O O2 0.040128 0.235176 0.670494
O O3 0.084952 0.591010 0.747126
O O4 0.799872 0.207683 0.873333
O O5 0.387281 0.498501 0.160367
O O6 0.534430 0.843036 0.002228
O O7 0.379493 0.682230 0.368089
O O8 0.093081 0.848833 0.408995
O O9 0.216657 0.094408 0.473522
O O10 0.381905 0.108920 0.273469
O O11 0.103176 0.397485 0.355302
O O12 0.327185 0.633244 0.537192
O O13 0.599597 0.374713 0.368570
O O14 0.601000 0.873278 0.372563
#
# Coordination Sequence:
#
# PCOD9115772 Si02
#       7
#     2   2   2   2   2   2   2
#     4  10  22  37  62  85 125 163 217 261 314 385
#     4  11  22  40  62  91 128 156 202 270 338 389
#     4  11  21  34  53  86 129 175 217 255 306 370
#     4  10  21  31  55  85 123 173 213 258 305 376
#     4  10  24  36  55  78 127 176 223 255 286 353
#     4  10  21  36  57  90 123 165 203 257 316 388
#     4  10  23  38  54  83 117 180 223 256 293 349
#
# _framework density 20.761607999999999
#
# number of rings (size 3 to 8) (size 9 to 14) (size 15 to 20)
#    0.000    1.714    2.857    0.857   14.000    0.000 
#    0.000    0.000    0.000    0.000    0.000    0.000 
#   17.143    0.000    0.000    0.000    0.000    0.000 
#
# Total GULP energy -78159.168011 kJ/mol
# GULP energy per Si atom -5582.797715 kJ/mol
# Density = 2.071435 g / cm^3
# Si number density = 20.761608 Si / 1000 Ang^3
#
#
#
# Elastic Constant Matrix: (Units=GPa)
#
#
# Indices 1 2 3 4 5 6 
#
# 1 61.5239 35.5809 33.0668 0.0000 -8.6123 0.0000
# 2 35.5809 151.6616 54.9205 0.0000 -9.1133 0.0000
# 3 33.0668 54.9205 95.9098 0.0000 -13.0115 0.0000
# 4 0.0000 0.0000 0.0000 39.4053 0.0000 1.0535
# 5 -8.6123 -9.1133 -13.0115 0.0000 9.5705 0.0000
# 6 0.0000 0.0000 0.0000 1.0535 0.0000 27.4466
#
#
#
# Elastic Compliance Matrix: (Units=1/GPa)
#
#
# Indices 1 2 3 4 5 6 
#
# 1 0.021802 -0.002868 -0.004394 0.000000 0.010915 0.000000
# 2 -0.002868 0.008720 -0.003958 0.000000 0.000341 0.000000
# 3 -0.004394 -0.003958 0.016136 0.000000 0.014215 0.000000
# 4 0.000000 0.000000 0.000000 0.025403 0.000000 -0.000975
# 5 0.010915 0.000341 0.014215 0.000000 0.133961 0.000000
# 6 0.000000 0.000000 0.000000 -0.000975 0.000000 0.036472
#
#
# Mechanical properties :
#
#
# Convention : Reuss Voigt Hill
#
# Bulk Modulus (GPa) = 41.29059 61.80351 51.54705
# Shear Modulus (GPa) = 18.31453 27.65295 22.98374
#
# Velocity S-wave (km/s) = 2.97330 3.65352 3.33082
# Velocity P-wave (km/s) = 5.63191 6.90148 6.29876
#
# Compressibility (1/GPa) = 0.02421859
#
# Stress axis : x y z
#
# Youngs Moduli (GPa) = 45.86805 114.67317 61.97148
#
# Poissons Ratio (x) = 0.32888 0.27228
# Poissons Ratio (y) = 0.13155 0.24531
# Poissons Ratio (z) = 0.20152 0.45393
#
# Static dielectric constant tensor:
#      x y z
#    x 1.784830 0.000000 0.020490 
#    y 0.000000 1.853200 0.000000 
#    z 0.020490 0.000000 1.787730 
# 
# From -- ./inp_files/15097.got.cif
#   From: 2010.05.17/outbox.cif.g08.bks.cpg/sg4_8_cif.got.tgz:15097.got - 2010.06.03 18:43:04.
