data_PCOD9115104
_publ_section_title
;
Structure prediction by ZEFSAII (Michael W. Deem and Ramdas Pophale) SiO2 
 PCOD9115104
Probable space group: P 21
;
_chemical_formula_sum "Si O2"
_cell_formula_units_Z 12
_cell_length_a 14.525407
_cell_length_b 5.642801
_cell_length_c 7.314343
_cell_angle_alpha 90.000000
_cell_angle_beta 47.533829
_cell_angle_gamma 90.000000
_cell_volume 442.246167
_symmetry_space_group_name_H-M "P 21"
_symmetry_group_IT_number 4
_symmetry_cell_setting 'monoclinic'
loop_
_space_group_symop_operation_xyz
x,y,z
-x,1/2+y,-z
loop_
_atom_site_type_symbol
_atom_site_label
_atom_site_fract_x
_atom_site_fract_y
_atom_site_fract_z
Si Si1 0.167417 0.493400 0.104326
Si Si2 0.926132 0.976564 0.136332
Si Si3 0.891082 0.681487 0.520291
Si Si4 0.379486 0.962000 0.560118
Si Si5 0.425393 0.462876 0.394416
Si Si6 0.691440 0.378362 0.938157
O O1 0.130550 0.250063 0.242701
O O2 0.277077 0.602482 0.076623
O O3 0.036986 0.630909 0.305299
O O4 0.181926 0.485243 0.870405
O O5 0.875086 0.895970 0.399960
O O6 0.992159 0.238534 0.037880
O O7 0.788217 0.475627 0.657238
O O8 0.371188 0.726347 0.449888
O O9 0.516678 0.965541 0.473914
O O10 0.364078 0.203434 0.469511
O O11 0.295187 0.949758 0.858489
O O12 0.548475 0.445549 0.099859
#
# Coordination Sequence:
#
# PCOD9115104 Si02
#       6
#     2   2   2   2   2   2
#     4  11  22  36  56  84 118 159 198 240 287 348
#     4  10  24  42  58  76 120 166 198 244 290 338
#     4  11  22  36  56  84 118 159 198 240 287 348
#     4   8  16  30  47  76 117 142 180 242 287 342
#     4   8  16  30  47  76 117 142 180 242 287 342
#     4  10  20  30  54  84 118 146 194 246 282 344
#
# _framework density 27.134207
#
# number of rings (size 3 to 8) (size 9 to 14) (size 15 to 20)
#    1.000    1.333    1.667    1.000    9.333    0.000 
#    0.000    0.000    0.000    0.000    0.000    0.000 
#   40.000    0.000    0.000    0.000    0.000    0.000 
#
# Total GULP energy -66835.152583 kJ/mol
# GULP energy per Si atom -5569.596049 kJ/mol
# Density = 2.707245 g / cm^3
# Si number density = 27.134207 Si / 1000 Ang^3
#
#
#
# Elastic Constant Matrix: (Units=GPa)
#
#
# Indices 1 2 3 4 5 6 
#
# 1 43.3801 29.9181 -4.8208 0.0000 6.4112 0.0000
# 2 29.9181 152.1673 47.6316 0.0000 -21.6816 0.0000
# 3 -4.8208 47.6316 115.8846 0.0000 -20.5999 0.0000
# 4 0.0000 0.0000 0.0000 52.0561 0.0000 -1.7833
# 5 6.4112 -21.6816 -20.5999 0.0000 16.3987 0.0000
# 6 0.0000 0.0000 0.0000 -1.7833 0.0000 31.6276
#
#
#
# Elastic Compliance Matrix: (Units=1/GPa)
#
#
# Indices 1 2 3 4 5 6 
#
# 1 0.034691 -0.010991 0.001244 0.000000 -0.026531 0.000000
# 2 -0.010991 0.011894 -0.002300 0.000000 0.017133 0.000000
# 3 0.001244 -0.002300 0.011587 0.000000 0.011027 0.000000
# 4 0.000000 0.000000 0.000000 0.019247 0.000000 0.001085
# 5 -0.026531 0.017133 0.011027 0.000000 0.107858 0.000000
# 6 0.000000 0.000000 0.000000 0.001085 0.000000 0.031679
#
#
# Mechanical properties :
#
#
# Convention : Reuss Voigt Hill
#
# Bulk Modulus (GPa) = 29.34374 50.76554 40.05464
# Shear Modulus (GPa) = 19.80915 35.93000 27.86957
#
# Velocity S-wave (km/s) = 2.70486 3.64285 3.20832
# Velocity P-wave (km/s) = 4.53793 6.03684 5.34024
#
# Compressibility (1/GPa) = 0.03407882
#
# Stress axis : x y z
#
# Youngs Moduli (GPa) = 28.82564 84.07736 86.30532
#
# Poissons Ratio (x) = 0.92406 -0.10739
# Poissons Ratio (y) = 0.31681 0.19853
# Poissons Ratio (z) = -0.03587 0.19341
#
# Static dielectric constant tensor:
#      x y z
#    x 2.298950 0.000000 -0.269420 
#    y 0.000000 2.330040 0.000000 
#    z -0.269420 0.000000 2.411400 
# 
# From -- ./inp_files/9761.got.cif
#   From: 2010.05.17/outbox.cif.g08.bks.cpg/sg4_5_cif.got.tgz:9761.got - 2010.06.03 18:43:04.
