data_PCOD9115022
_publ_section_title
;
Structure prediction by ZEFSAII (Michael W. Deem and Ramdas Pophale) SiO2 
 PCOD9115022
Probable space group: P 21
;
_chemical_formula_sum "Si O2"
_cell_formula_units_Z 16
_cell_length_a 10.659371
_cell_length_b 8.518291
_cell_length_c 8.267764
_cell_angle_alpha 90.000000
_cell_angle_beta 56.776063
_cell_angle_gamma 90.000000
_cell_volume 627.995435
_symmetry_space_group_name_H-M "P 21"
_symmetry_group_IT_number 4
_symmetry_cell_setting 'monoclinic'
loop_
_space_group_symop_operation_xyz
x,y,z
-x,1/2+y,-z
loop_
_atom_site_type_symbol
_atom_site_label
_atom_site_fract_x
_atom_site_fract_y
_atom_site_fract_z
Si Si1 0.009423 0.910380 0.368706
Si Si2 0.960017 0.695603 0.111098
Si Si3 0.312308 0.301371 0.394686
Si Si4 0.479953 0.263611 0.942557
Si Si5 0.174490 0.963361 0.571396
Si Si6 0.305195 0.949080 0.032663
Si Si7 0.267178 0.743732 0.743088
Si Si8 0.654853 0.891580 0.287247
O O1 0.025351 0.762495 0.235715
O O2 0.829188 0.922857 0.497920
O O3 0.060298 0.900881 0.518064
O O4 0.139793 0.017320 0.194740
O O5 0.903515 0.526070 0.207704
O O6 0.819537 0.805806 0.163291
O O7 0.091616 0.694424 0.890431
O O8 0.254221 0.121008 0.449900
O O9 0.401746 0.331192 0.497878
O O10 0.393434 0.312843 0.167891
O O11 0.424529 0.348307 0.821872
O O12 0.428502 0.085175 0.953172
O O13 0.648102 0.317811 0.867228
O O14 0.282033 0.828735 0.561529
O O15 0.302637 0.861888 0.864130
O O16 0.347224 0.578369 0.701753
#
# Coordination Sequence:
#
# PCOD9115022 Si02
#       8
#     2   2   2   2   2   2   2   2
#     4   9  20  39  66  99 132 167 220 280 339 392
#     4   9  21  36  61  97 134 174 225 270 341 402
#     4  10  24  44  70 104 133 176 230 279 341 405
#     4  12  25  48  73  94 141 180 229 282 339 409
#     4  10  19  39  62  96 134 175 216 283 338 396
#     4  11  24  47  67  99 132 183 225 280 340 406
#     4  11  22  39  64  96 137 175 224 276 341 406
#     4  10  23  42  63 101 133 176 223 280 337 402
#
# _framework density 25.477889999999999
#
# number of rings (size 3 to 8) (size 9 to 14) (size 15 to 20)
#    0.000    2.000    1.250    3.000    3.500    6.000 
#    9.000    0.000    0.000    0.000    0.000    0.000 
#    0.000    0.000    0.000    0.000    0.000    0.000 
#
# Total GULP energy -89433.616728 kJ/mol
# GULP energy per Si atom -5589.601045 kJ/mol
# Density = 2.541990 g / cm^3
# Si number density = 25.477890 Si / 1000 Ang^3
#
#
#
# Elastic Constant Matrix: (Units=GPa)
#
#
# Indices 1 2 3 4 5 6 
#
# 1 132.6759 21.1523 47.1343 0.0000 35.6491 0.0000
# 2 21.1523 72.5798 26.8450 0.0000 4.4722 0.0000
# 3 47.1343 26.8450 127.5841 0.0000 11.2928 0.0000
# 4 0.0000 0.0000 0.0000 15.9023 0.0000 7.0956
# 5 35.6491 4.4722 11.2928 0.0000 54.5561 0.0000
# 6 0.0000 0.0000 0.0000 7.0956 0.0000 42.3235
#
#
#
# Elastic Compliance Matrix: (Units=1/GPa)
#
#
# Indices 1 2 3 4 5 6 
#
# 1 0.010497 -0.001571 -0.003007 0.000000 -0.006108 0.000000
# 2 -0.001571 0.015194 -0.002646 0.000000 0.000328 0.000000
# 3 -0.003007 -0.002646 0.009486 0.000000 0.000218 0.000000
# 4 0.000000 0.000000 0.000000 0.067969 0.000000 -0.011395
# 5 -0.006108 0.000328 0.000218 0.000000 0.022249 0.000000
# 6 0.000000 0.000000 0.000000 -0.011395 0.000000 0.025538
#
#
# Mechanical properties :
#
#
# Convention : Reuss Voigt Hill
#
# Bulk Modulus (GPa) = 48.23795 58.12256 53.18025
# Shear Modulus (GPa) = 29.02093 38.40360 33.71226
#
# Velocity S-wave (km/s) = 3.37866 3.88665 3.64152
# Velocity P-wave (km/s) = 5.84764 6.55773 6.21284
#
# Compressibility (1/GPa) = 0.02073056
#
# Stress axis : x y z
#
# Youngs Moduli (GPa) = 95.26581 65.81531 105.41630
#
# Poissons Ratio (x) = 0.10337 0.31697
# Poissons Ratio (y) = 0.14963 0.27891
# Poissons Ratio (z) = 0.28645 0.17413
#
# Static dielectric constant tensor:
#      x y z
#    x 2.070520 0.000000 -0.098750 
#    y 0.000000 1.994090 0.000000 
#    z -0.098750 0.000000 2.063880 
# 
# From -- ./inp_files/7829.got.cif
#   From: 2010.05.17/outbox.cif.g08.bks.cpg/sg4_4_cif.got.tgz:7829.got - 2010.06.03 18:43:04.
