data_PCOD9115307
_publ_section_title
;
Structure prediction by ZEFSAII (Michael W. Deem and Ramdas Pophale) SiO2 
 PCOD9115307
Probable space group: P 21
;
_chemical_formula_sum "Si O2"
_cell_formula_units_Z 16
_cell_length_a 8.763785
_cell_length_b 9.948995
_cell_length_c 11.688214
_cell_angle_alpha 90.000000
_cell_angle_beta 35.607530
_cell_angle_gamma 90.000000
_cell_volume 593.353530
_symmetry_space_group_name_H-M "P 21"
_symmetry_group_IT_number 4
_symmetry_cell_setting 'monoclinic'
loop_
_space_group_symop_operation_xyz
x,y,z
-x,1/2+y,-z
loop_
_atom_site_type_symbol
_atom_site_label
_atom_site_fract_x
_atom_site_fract_y
_atom_site_fract_z
Si Si1 0.959651 0.437280 0.322257
Si Si2 0.189787 0.537144 0.787826
Si Si3 0.149947 0.723936 0.193694
Si Si4 0.278647 0.178016 0.168317
Si Si5 0.406254 0.064612 0.875316
Si Si6 0.493538 0.820947 0.283564
Si Si7 0.878784 0.975813 0.443524
Si Si8 0.358661 0.139352 0.599069
O O1 0.767945 0.403170 0.542355
O O2 0.761176 0.487930 0.342718
O O3 0.120810 0.569921 0.253455
O O4 0.127686 0.304444 0.203217
O O5 0.279849 0.426306 0.824991
O O6 0.196942 0.498775 0.646353
O O7 0.428143 0.646116 0.634953
O O8 0.888252 0.569888 0.997877
O O9 0.384401 0.475665 0.318725
O O10 0.039873 0.837616 0.344518
O O11 0.439422 0.731061 0.962509
O O12 0.342255 0.048503 0.047482
O O13 0.053640 0.103586 0.377869
O O14 0.498705 0.221129 0.826242
O O15 0.504799 0.707988 0.376945
O O16 0.912927 0.721700 0.245621
#
# Coordination Sequence:
#
# PCOD9115307 Si02
#       8
#     2   2   2   2   2   2   2   2
#     4   9  20  38  67  88 117 171 205 261 306 365
#     4  10  20  37  61  89 123 158 201 253 314 382
#     4  10  22  38  67  91 120 170 215 254 319 370
#     4  11  22  43  64  90 123 169 218 256 314 377
#     4  11  24  36  62  95 120 169 203 253 324 376
#     4  11  18  39  59  91 125 153 203 256 311 371
#     4  11  21  42  65  89 126 165 208 266 316 371
#     4   9  19  35  65  89 118 161 203 257 312 366
#
# _framework density 26.965373
#
# number of rings (size 3 to 8) (size 9 to 14) (size 15 to 20)
#    0.750    1.000    3.750    1.500    0.000    2.000 
#    2.250    1.250    5.500    0.000    0.000    0.000 
#    0.000    0.000    0.000    0.000    0.000    0.000 
#
# Total GULP energy -89116.043349 kJ/mol
# GULP energy per Si atom -5569.752709 kJ/mol
# Density = 2.690400 g / cm^3
# Si number density = 26.965373 Si / 1000 Ang^3
#
#
#
# Elastic Constant Matrix: (Units=GPa)
#
#
# Indices 1 2 3 4 5 6 
#
# 1 52.6883 6.9779 20.1678 0.0000 -11.3977 0.0000
# 2 6.9779 108.7960 45.9188 0.0000 -12.9805 0.0000
# 3 20.1678 45.9188 181.3552 0.0000 -42.9418 0.0000
# 4 0.0000 0.0000 0.0000 51.9230 0.0000 -16.2786
# 5 -11.3977 -12.9805 -42.9418 0.0000 46.1083 0.0000
# 6 0.0000 0.0000 0.0000 -16.2786 0.0000 32.8835
#
#
#
# Elastic Compliance Matrix: (Units=1/GPa)
#
#
# Indices 1 2 3 4 5 6 
#
# 1 0.020324 -0.000311 -0.001299 0.000000 0.003727 0.000000
# 2 -0.000311 0.010309 -0.002446 0.000000 0.000547 0.000000
# 3 -0.001299 -0.002446 0.007747 0.000000 0.006205 0.000000
# 4 0.000000 0.000000 0.000000 0.022797 0.000000 0.011286
# 5 0.003727 0.000547 0.006205 0.000000 0.028543 0.000000
# 6 0.000000 0.000000 0.000000 0.011286 0.000000 0.035997
#
#
# Mechanical properties :
#
#
# Convention : Reuss Voigt Hill
#
# Bulk Modulus (GPa) = 33.03729 54.32982 43.68356
# Shear Modulus (GPa) = 34.74177 44.16797 39.45487
#
# Velocity S-wave (km/s) = 3.59330 4.05155 3.82929
# Velocity P-wave (km/s) = 5.43085 6.48679 5.98217
#
# Compressibility (1/GPa) = 0.03026883
#
# Stress axis : x y z
#
# Youngs Moduli (GPa) = 49.20260 97.00113 129.07909
#
# Poissons Ratio (x) = 0.03013 0.16769
# Poissons Ratio (y) = 0.01528 0.31574
# Poissons Ratio (z) = 0.06392 0.23728
#
# Static dielectric constant tensor:
#      x y z
#    x 2.374300 0.000000 -0.021380 
#    y 0.000000 2.134730 0.000000 
#    z -0.021380 0.000000 2.226380 
# 
# From -- ./inp_files/15123.got.cif
#   From: 2010.05.17/outbox.cif.g08.bks.cpg/sg4_8_cif.got.tgz:15123.got - 2010.06.03 18:43:04.
