data_PCOD9115491
_publ_section_title
;
Structure prediction by ZEFSAII (Michael W. Deem and Ramdas Pophale) SiO2 
 PCOD9115491
Probable space group: P 21
;
_chemical_formula_sum "Si O2"
_cell_formula_units_Z 12
_cell_length_a 17.717392
_cell_length_b 5.304724
_cell_length_c 7.551429
_cell_angle_alpha 90.000000
_cell_angle_beta 139.356782
_cell_angle_gamma 90.000000
_cell_volume 462.278802
_symmetry_space_group_name_H-M "P 21"
_symmetry_group_IT_number 4
_symmetry_cell_setting 'monoclinic'
loop_
_space_group_symop_operation_xyz
x,y,z
-x,1/2+y,-z
loop_
_atom_site_type_symbol
_atom_site_label
_atom_site_fract_x
_atom_site_fract_y
_atom_site_fract_z
Si Si1 0.137012 0.228310 0.380779
Si Si2 0.795526 0.703042 0.906633
Si Si3 0.441649 0.736829 0.822534
Si Si4 0.650673 0.205939 0.713433
Si Si5 0.046567 0.724690 0.372789
Si Si6 0.714479 0.080067 0.175119
O O1 0.175637 0.184120 0.250205
O O2 0.249506 0.296043 0.705601
O O3 0.061757 0.997674 0.315578
O O4 0.935342 0.988558 0.728724
O O5 0.712795 0.475086 0.810984
O O6 0.733147 0.968329 0.819418
O O7 0.919766 0.697853 0.227624
O O8 0.439377 0.704975 0.608119
O O9 0.315432 0.711975 0.691454
O O10 0.506286 0.500562 0.025251
O O11 0.618210 0.146521 0.858957
O O12 0.165563 0.689157 0.691949
#
# Coordination Sequence:
#
# PCOD9115491 Si02
#       6
#     2   2   2   2   2   2
#     4  10  20  39  65  96 142 191 231 281 333 403
#     4  12  22  41  69 107 146 192 237 271 350 433
#     4  12  28  50  76 101 133 182 244 311 375 433
#     4  12  27  44  73 104 143 187 235 296 359 431
#     4  10  22  37  70 101 147 192 228 279 339 421
#     4  10  27  45  71 103 147 182 235 300 354 423
#
# _framework density 25.958361
#
# number of rings (size 3 to 8) (size 9 to 14) (size 15 to 20)
#    1.000    0.000    1.667    5.000    4.667    2.667 
#    0.000    0.000    0.000    0.000    0.000    0.000 
#    0.000    0.000    0.000    0.000    0.000    0.000 
#
# Total GULP energy -67111.330424 kJ/mol
# GULP energy per Si atom -5592.610869 kJ/mol
# Density = 2.589928 g / cm^3
# Si number density = 25.958361 Si / 1000 Ang^3
#
#
#
# Elastic Constant Matrix: (Units=GPa)
#
#
# Indices 1 2 3 4 5 6 
#
# 1 43.7080 46.6835 15.7666 0.0000 -11.3117 0.0000
# 2 46.6835 156.1419 43.4416 0.0000 4.9984 0.0000
# 3 15.7666 43.4416 93.3279 0.0000 -21.9528 0.0000
# 4 0.0000 0.0000 0.0000 30.6322 0.0000 10.8582
# 5 -11.3117 4.9984 -21.9528 0.0000 42.5425 0.0000
# 6 0.0000 0.0000 0.0000 10.8582 0.0000 43.7501
#
#
#
# Elastic Compliance Matrix: (Units=1/GPa)
#
#
# Indices 1 2 3 4 5 6 
#
# 1 0.039041 -0.012772 0.002441 0.000000 0.013141 0.000000
# 2 -0.012772 0.011887 -0.005125 0.000000 -0.007437 0.000000
# 3 0.002441 -0.005125 0.014776 0.000000 0.008876 0.000000
# 4 0.000000 0.000000 0.000000 0.035794 0.000000 -0.008884
# 5 0.013141 -0.007437 0.008876 0.000000 0.032454 0.000000
# 6 0.000000 0.000000 0.000000 -0.008884 0.000000 0.025062
#
#
# Mechanical properties :
#
#
# Convention : Reuss Voigt Hill
#
# Bulk Modulus (GPa) = 28.74282 56.10680 42.42481
# Shear Modulus (GPa) = 24.81089 35.87068 30.34079
#
# Velocity S-wave (km/s) = 3.09495 3.72136 3.42252
# Velocity P-wave (km/s) = 4.88552 6.33449 5.65659
#
# Compressibility (1/GPa) = 0.03479130
#
# Stress axis : x y z
#
# Youngs Moduli (GPa) = 25.61379 84.12554 67.67840
#
# Poissons Ratio (x) = 1.07448 -0.16518
# Poissons Ratio (y) = 0.32715 0.34683
# Poissons Ratio (z) = -0.06251 0.43112
#
# Static dielectric constant tensor:
#      x y z
#    x 2.081230 0.000000 0.012400 
#    y 0.000000 1.979090 0.000000 
#    z 0.012400 0.000000 2.232340 
# 
# From -- ./inp_files/9818.got.cif
#   From: 2010.05.17/outbox.cif.g08.bks.cpg/sg4_5_cif.got.tgz:9818.got - 2010.06.03 18:43:04.
