data_PCOD9115814
_publ_section_title
;
Structure prediction by ZEFSAII (Michael W. Deem and Ramdas Pophale) SiO2 
 PCOD9115814
Probable space group: P 21
;
_chemical_formula_sum "Si O2"
_cell_formula_units_Z 16
_cell_length_a 7.935416
_cell_length_b 12.563425
_cell_length_c 12.186759
_cell_angle_alpha 90.000000
_cell_angle_beta 35.143463
_cell_angle_gamma 90.000000
_cell_volume 699.368646
_symmetry_space_group_name_H-M "P 21"
_symmetry_group_IT_number 4
_symmetry_cell_setting 'monoclinic'
loop_
_space_group_symop_operation_xyz
x,y,z
-x,1/2+y,-z
loop_
_atom_site_type_symbol
_atom_site_label
_atom_site_fract_x
_atom_site_fract_y
_atom_site_fract_z
Si Si1 0.361982 0.706730 0.534533
Si Si2 0.892300 0.576258 0.270392
Si Si3 0.912752 0.671422 0.492972
Si Si4 0.100584 0.043065 0.134199
Si Si5 0.196805 0.362627 0.580598
Si Si6 0.126120 0.368542 0.237391
Si Si7 0.598301 0.012723 0.715149
Si Si8 0.489892 0.177341 0.083489
O O1 0.611828 0.625313 0.356750
O O2 0.560044 0.788766 0.495731
O O3 0.151170 0.631676 0.720116
O O4 0.139149 0.787098 0.590777
O O5 0.821481 0.598071 0.437540
O O6 0.002833 0.453322 0.213161
O O7 0.169682 0.650660 0.094387
O O8 0.987595 0.784533 0.399177
O O9 0.655250 0.681753 0.718825
O O10 0.192735 0.615440 0.397291
O O11 0.338702 0.080916 0.097592
O O12 0.975691 0.929779 0.237616
O O13 0.271372 0.036182 0.929580
O O14 0.354875 0.445017 0.417405
O O15 0.257712 0.438552 0.265435
O O16 0.387836 0.284277 0.073982
#
# Coordination Sequence:
#
# PCOD9115814 Si02
#       8
#     2   2   2   2   2   2   2   2
#     4  10  24  41  64  92 136 171 216 266 341 397
#     4  10  22  40  60  90 132 167 207 271 326 389
#     4  10  21  36  61  99 124 156 219 270 314 385
#     4  11  23  41  67  94 131 173 219 272 329 394
#     4  11  23  40  68  92 134 178 210 274 336 387
#     4  10  21  39  64  96 124 169 220 267 322 394
#     4  11  22  40  68  97 130 164 228 276 318 396
#     4  11  20  37  66  94 123 164 219 270 316 386
#
# _framework density 22.877776999999998
#
# number of rings (size 3 to 8) (size 9 to 14) (size 15 to 20)
#    0.000    1.500    5.000    0.750    3.500    0.000 
#    0.000    6.250    2.750    1.500    0.000    0.000 
#    0.000    0.000    0.000    0.000    0.000    0.000 
#
# Total GULP energy -89309.032777 kJ/mol
# GULP energy per Si atom -5581.814549 kJ/mol
# Density = 2.282571 g / cm^3
# Si number density = 22.877777 Si / 1000 Ang^3
#
#
#
# Elastic Constant Matrix: (Units=GPa)
#
#
# Indices 1 2 3 4 5 6 
#
# 1 23.7574 15.0424 16.6081 0.0000 -9.3227 0.0000
# 2 15.0424 154.6560 50.9413 0.0000 -13.5919 0.0000
# 3 16.6081 50.9413 147.5883 0.0000 -5.3952 0.0000
# 4 0.0000 0.0000 0.0000 28.7193 0.0000 -11.1038
# 5 -9.3227 -13.5919 -5.3952 0.0000 43.5515 0.0000
# 6 0.0000 0.0000 0.0000 -11.1038 0.0000 52.8531
#
#
#
# Elastic Compliance Matrix: (Units=1/GPa)
#
#
# Indices 1 2 3 4 5 6 
#
# 1 0.050568 -0.002625 -0.004439 0.000000 0.009455 0.000000
# 2 -0.002625 0.007605 -0.002273 0.000000 0.001530 0.000000
# 3 -0.004439 -0.002273 0.008035 0.000000 -0.000664 0.000000
# 4 0.000000 0.000000 0.000000 0.037898 0.000000 0.007962
# 5 0.009455 0.001530 -0.000664 0.000000 0.025380 0.000000
# 6 0.000000 0.000000 0.000000 0.007962 0.000000 0.020593
#
#
# Mechanical properties :
#
#
# Convention : Reuss Voigt Hill
#
# Bulk Modulus (GPa) = 21.03803 54.57615 37.80709
# Shear Modulus (GPa) = 27.08581 41.25210 34.16896
#
# Velocity S-wave (km/s) = 3.44457 4.25096 3.86883
# Velocity P-wave (km/s) = 5.00359 6.92831 6.04307
#
# Compressibility (1/GPa) = 0.04753296
#
# Stress axis : x y z
#
# Youngs Moduli (GPa) = 19.77547 131.49952 124.44799
#
# Poissons Ratio (x) = 0.34524 0.55237
# Poissons Ratio (y) = 0.05192 0.28292
# Poissons Ratio (z) = 0.08777 0.29895
#
# Static dielectric constant tensor:
#      x y z
#    x 1.937830 0.000000 -0.027800 
#    y 0.000000 1.911220 0.000000 
#    z -0.027800 0.000000 1.868130 
# 
# From -- ./inp_files/8247.got.cif
#   From: 2010.05.17/outbox.cif.g08.bks.cpg/sg4_5_cif.got.tgz:8247.got - 2010.06.03 18:43:04.
