data_PCOD9115929
_publ_section_title
;
Structure prediction by ZEFSAII (Michael W. Deem and Ramdas Pophale) SiO2 
 PCOD9115929
Probable space group: P 21
;
_chemical_formula_sum "Si O2"
_cell_formula_units_Z 14
_cell_length_a 20.992982
_cell_length_b 5.208547
_cell_length_c 15.625683
_cell_angle_alpha 90.000000
_cell_angle_beta 160.868535
_cell_angle_gamma 90.000000
_cell_volume 559.957311
_symmetry_space_group_name_H-M "P 21"
_symmetry_group_IT_number 4
_symmetry_cell_setting 'monoclinic'
loop_
_space_group_symop_operation_xyz
x,y,z
-x,1/2+y,-z
loop_
_atom_site_type_symbol
_atom_site_label
_atom_site_fract_x
_atom_site_fract_y
_atom_site_fract_z
Si Si1 0.713185 0.102570 0.984246
Si Si2 0.122976 0.697892 0.147693
Si Si3 0.596601 0.449461 0.162326
Si Si4 0.945372 0.320774 0.118408
Si Si5 0.087821 0.490069 0.593842
Si Si6 0.678643 0.479845 0.456149
Si Si7 0.986206 0.207076 0.669652
O O1 0.484348 0.136395 0.698118
O O2 0.781774 0.138903 0.169983
O O3 0.820174 0.254450 0.044072
O O4 0.799394 0.818715 0.072326
O O5 0.265472 0.759102 0.405964
O O6 0.052577 0.404436 0.058678
O O7 0.185324 0.785864 0.131702
O O8 0.576546 0.393633 0.238231
O O9 0.830451 0.430671 0.449926
O O10 0.505807 0.720148 0.020069
O O11 0.134230 0.147956 0.335210
O O12 0.023859 0.598907 0.247338
O O13 0.101700 0.504048 0.509417
O O14 0.089895 0.193978 0.621817
#
# Coordination Sequence:
#
# PCOD9115929 Si02
#       7
#     2   2   2   2   2   2   2
#     4  11  24  44  69 105 142 190 237 301 361 436
#     4  10  24  48  78 104 143 192 238 302 366 424
#     4  12  26  43  72 108 143 194 242 290 360 441
#     4  11  23  49  73 103 144 195 242 300 370 429
#     4  10  21  38  62  95 139 184 230 283 352 419
#     4  11  25  49  71 109 145 188 245 302 365 435
#     4  11  23  43  71  98 152 189 240 298 366 424
#
# _framework density 25.001906999999999
#
# number of rings (size 3 to 8) (size 9 to 14) (size 15 to 20)
#    0.000    1.143    2.857    2.571    2.000    5.714 
#   12.857    0.000    0.000    0.000    0.000    0.000 
#    0.000    0.000    0.000    0.000    0.000    0.000 
#
# Total GULP energy -77983.514691 kJ/mol
# GULP energy per Si atom -5570.251049 kJ/mol
# Density = 2.494500 g / cm^3
# Si number density = 25.001907 Si / 1000 Ang^3
#
#
#
# Elastic Constant Matrix: (Units=GPa)
#
#
# Indices 1 2 3 4 5 6 
#
# 1 122.5748 24.3119 53.1773 0.0000 -29.0095 0.0000
# 2 24.3119 96.1710 14.7026 0.0000 -1.2155 0.0000
# 3 53.1773 14.7026 62.9080 0.0000 -3.6024 0.0000
# 4 0.0000 0.0000 0.0000 23.9998 0.0000 -10.6848
# 5 -29.0095 -1.2155 -3.6024 0.0000 52.7683 0.0000
# 6 0.0000 0.0000 0.0000 -10.6848 0.0000 42.3425
#
#
#
# Elastic Compliance Matrix: (Units=1/GPa)
#
#
# Indices 1 2 3 4 5 6 
#
# 1 0.015792 -0.001992 -0.012438 0.000000 0.007787 0.000000
# 2 -0.001992 0.011035 -0.000947 0.000000 -0.000906 0.000000
# 3 -0.012438 -0.000947 0.026342 0.000000 -0.005061 0.000000
# 4 0.000000 0.000000 0.000000 0.046940 0.000000 0.011845
# 5 0.007787 -0.000906 -0.005061 0.000000 0.022865 0.000000
# 6 0.000000 0.000000 0.000000 0.011845 0.000000 0.026606
#
#
# Mechanical properties :
#
#
# Convention : Reuss Voigt Hill
#
# Bulk Modulus (GPa) = 44.61313 51.78193 48.19753
# Shear Modulus (GPa) = 26.62306 36.45292 31.53799
#
# Velocity S-wave (km/s) = 3.26673 3.82253 3.55551
# Velocity P-wave (km/s) = 5.66669 6.34338 6.01456
#
# Compressibility (1/GPa) = 0.02241492
#
# Stress axis : x y z
#
# Youngs Moduli (GPa) = 63.32136 90.61987 37.96247
#
# Poissons Ratio (x) = 0.18055 0.47218
# Poissons Ratio (y) = 0.12616 0.03594
# Poissons Ratio (z) = 0.78760 0.08580
#
# Static dielectric constant tensor:
#      x y z
#    x 2.147670 0.000000 0.072550 
#    y 0.000000 2.189190 0.000000 
#    z 0.072550 0.000000 2.063180 
# 
# From -- ./inp_files/7117.got.cif
#   From: 2010.05.17/outbox.cif.g08.bks.cpg/sg4_4_cif.got.tgz:7117.got - 2010.06.03 18:43:04.
