data_PCOD9115892
_publ_section_title
;
Structure prediction by ZEFSAII (Michael W. Deem and Ramdas Pophale) SiO2 
 PCOD9115892
Probable space group: P 21
;
_chemical_formula_sum "Si O2"
_cell_formula_units_Z 12
_cell_length_a 14.309281
_cell_length_b 8.041618
_cell_length_c 9.145166
_cell_angle_alpha 90.000000
_cell_angle_beta 31.032271
_cell_angle_gamma 90.000000
_cell_volume 542.499098
_symmetry_space_group_name_H-M "P 21"
_symmetry_group_IT_number 4
_symmetry_cell_setting 'monoclinic'
loop_
_space_group_symop_operation_xyz
x,y,z
-x,1/2+y,-z
loop_
_atom_site_type_symbol
_atom_site_label
_atom_site_fract_x
_atom_site_fract_y
_atom_site_fract_z
Si Si1 0.089306 0.243720 0.269514
Si Si2 0.549336 0.919054 0.665096
Si Si3 0.546521 0.759031 0.377282
Si Si4 0.766422 0.429430 0.372918
Si Si5 0.766990 0.505462 0.696779
Si Si6 0.919760 0.065711 0.251461
O O1 0.181031 0.177566 0.294152
O O2 0.938657 0.383682 0.486308
O O3 0.997002 0.086134 0.310935
O O4 0.249689 0.300779 0.946068
O O5 0.504514 0.082230 0.625644
O O6 0.751286 0.942728 0.455656
O O7 0.532621 0.771312 0.570704
O O8 0.402916 0.924733 0.990398
O O9 0.408454 0.887098 0.487641
O O10 0.727814 0.520313 0.577554
O O11 0.847291 0.248993 0.308655
O O12 0.917426 0.518916 0.073977
#
# Coordination Sequence:
#
# PCOD9115892 Si02
#       6
#     2   2   2   2   2   2
#     4  10  22  40  58  84 116 152 192 234 284 340
#     4  10  21  38  60  86 116 151 191 235 282 336
#     4  10  21  39  60  84 115 151 192 231 282 348
#     4  10  21  38  60  86 116 151 191 235 282 336
#     4  10  22  38  58  88 118 148 190 240 284 328
#     4  10  21  39  60  84 115 151 192 231 282 348
#
# _framework density 22.119852999999999
#
# number of rings (size 3 to 8) (size 9 to 14) (size 15 to 20)
#    0.000    2.000    0.000    4.000    0.000    6.667 
#    0.000   16.667    0.000    0.000    0.000    0.000 
#    0.000    0.000    0.000    0.000    0.000    0.000 
#
# Total GULP energy -67116.509730 kJ/mol
# GULP energy per Si atom -5593.042478 kJ/mol
# Density = 2.206951 g / cm^3
# Si number density = 22.119853 Si / 1000 Ang^3
#
#
#
# Elastic Constant Matrix: (Units=GPa)
#
#
# Indices 1 2 3 4 5 6 
#
# 1 96.9806 2.7024 26.9255 0.0000 -7.5859 0.0000
# 2 2.7024 27.7238 6.0026 0.0000 2.1568 0.0000
# 3 26.9255 6.0026 113.1674 0.0000 -19.8585 0.0000
# 4 0.0000 0.0000 0.0000 29.2337 0.0000 7.4319
# 5 -7.5859 2.1568 -19.8585 0.0000 29.2216 0.0000
# 6 0.0000 0.0000 0.0000 7.4319 0.0000 15.9124
#
#
#
# Elastic Compliance Matrix: (Units=1/GPa)
#
#
# Indices 1 2 3 4 5 6 
#
# 1 0.011092 -0.000670 -0.002372 0.000000 0.001317 0.000000
# 2 -0.000670 0.037071 -0.002631 0.000000 -0.004698 0.000000
# 3 -0.002372 -0.002631 0.010748 0.000000 0.006883 0.000000
# 4 0.000000 0.000000 0.000000 0.038816 0.000000 -0.018129
# 5 0.001317 -0.004698 0.006883 0.000000 0.039587 0.000000
# 6 0.000000 0.000000 0.000000 -0.018129 0.000000 0.071311
#
#
# Mechanical properties :
#
#
# Convention : Reuss Voigt Hill
#
# Bulk Modulus (GPa) = 21.02467 34.34808 27.68637
# Shear Modulus (GPa) = 21.20198 28.35628 24.77913
#
# Velocity S-wave (km/s) = 3.09933 3.58430 3.35060
# Velocity P-wave (km/s) = 4.72582 5.71765 5.24523
#
# Compressibility (1/GPa) = 0.04756318
#
# Stress axis : x y z
#
# Youngs Moduli (GPa) = 90.15776 26.97553 93.03827
#
# Poissons Ratio (x) = 0.01807 0.22073
# Poissons Ratio (y) = 0.06040 0.24481
# Poissons Ratio (z) = 0.21389 0.07098
#
# Static dielectric constant tensor:
#      x y z
#    x 1.812130 0.000000 0.000120 
#    y 0.000000 1.839350 0.000000 
#    z 0.000120 0.000000 1.753980 
# 
# From -- ./inp_files/5205.got.cif
#   From: 2010.05.17/outbox.cif.g08.bks.cpg/sg4_3_cif.got.tgz:5205.got - 2010.06.03 18:43:04.
