data_PCOD9115546
_publ_section_title
;
Structure prediction by ZEFSAII (Michael W. Deem and Ramdas Pophale) SiO2 
 PCOD9115546
Probable space group: P 21
;
_chemical_formula_sum "Si O2"
_cell_formula_units_Z 14
_cell_length_a 11.097631
_cell_length_b 8.035511
_cell_length_c 14.505457
_cell_angle_alpha 90.000000
_cell_angle_beta 151.012361
_cell_angle_gamma 90.000000
_cell_volume 626.869807
_symmetry_space_group_name_H-M "P 21"
_symmetry_group_IT_number 4
_symmetry_cell_setting 'monoclinic'
loop_
_space_group_symop_operation_xyz
x,y,z
-x,1/2+y,-z
loop_
_atom_site_type_symbol
_atom_site_label
_atom_site_fract_x
_atom_site_fract_y
_atom_site_fract_z
Si Si1 0.654649 0.543520 0.229503
Si Si2 0.520696 0.548941 0.931498
Si Si3 0.107602 0.177470 0.952340
Si Si4 0.186166 0.394754 0.356263
Si Si5 0.967619 0.241433 0.399044
Si Si6 0.258421 0.918419 0.208787
Si Si7 0.760306 0.229911 0.988046
O O1 0.802883 0.375003 0.342219
O O2 0.373954 0.561092 0.076145
O O3 0.811971 0.677086 0.390987
O O4 0.643635 0.572433 0.112989
O O5 0.229973 0.591387 0.750882
O O6 0.614487 0.370451 0.954092
O O7 0.643522 0.676549 0.941658
O O8 0.963677 0.345244 0.878889
O O9 0.926832 0.059122 0.768686
O O10 0.180789 0.078975 0.095923
O O11 0.480189 0.421928 0.562617
O O12 0.082993 0.337060 0.387712
O O13 0.052636 0.251222 0.204964
O O14 0.292427 0.779435 0.151424
#
# Coordination Sequence:
#
# PCOD9115546 Si02
#       7
#     2   2   2   2   2   2   2
#     4  12  21  37  59  95 129 159 207 246 312 377
#     4  10  21  40  62  90 127 161 203 253 318 366
#     4  10  24  42  68  88 125 167 205 263 311 360
#     4  10  20  40  64  90 121 166 200 253 315 357
#     4  12  23  35  65  94 126 166 201 252 312 373
#     4  10  22  43  66  91 122 165 214 254 309 367
#     4  10  21  39  64  90 126 168 198 259 313 362
#
# _framework density 22.333186999999999
#
# number of rings (size 3 to 8) (size 9 to 14) (size 15 to 20)
#    0.000    1.714    5.714    0.857    2.000    3.429 
#    0.000    1.429    0.000    0.000    0.000    0.000 
#    0.000    0.000    0.000    0.000    0.000    0.000 
#
# Total GULP energy -78063.175748 kJ/mol
# GULP energy per Si atom -5575.941125 kJ/mol
# Density = 2.228236 g / cm^3
# Si number density = 22.333187 Si / 1000 Ang^3
#
#
#
# Elastic Constant Matrix: (Units=GPa)
#
#
# Indices 1 2 3 4 5 6 
#
# 1 65.9994 14.9912 49.3231 0.0000 9.0124 0.0000
# 2 14.9912 42.5924 36.0851 0.0000 7.0181 0.0000
# 3 49.3231 36.0851 167.6997 0.0000 5.8320 0.0000
# 4 0.0000 0.0000 0.0000 26.3457 0.0000 9.1173
# 5 9.0124 7.0181 5.8320 0.0000 36.5823 0.0000
# 6 0.0000 0.0000 0.0000 9.1173 0.0000 31.6487
#
#
#
# Elastic Compliance Matrix: (Units=1/GPa)
#
#
# Indices 1 2 3 4 5 6 
#
# 1 0.020111 -0.001911 -0.005374 0.000000 -0.003731 0.000000
# 2 -0.001911 0.029667 -0.005672 0.000000 -0.004317 0.000000
# 3 -0.005374 -0.005672 0.008729 0.000000 0.001021 0.000000
# 4 0.000000 0.000000 0.000000 0.042160 0.000000 -0.012145
# 5 -0.003731 -0.004317 0.001021 0.000000 0.028920 0.000000
# 6 0.000000 0.000000 0.000000 -0.012145 0.000000 0.035096
#
#
# Mechanical properties :
#
#
# Convention : Reuss Voigt Hill
#
# Bulk Modulus (GPa) = 30.68023 53.01005 41.84514
# Shear Modulus (GPa) = 24.81871 30.64149 27.73010
#
# Velocity S-wave (km/s) = 3.33722 3.70809 3.52753
# Velocity P-wave (km/s) = 5.34946 6.49005 5.94716
#
# Compressibility (1/GPa) = 0.03259428
#
# Stress axis : x y z
#
# Youngs Moduli (GPa) = 49.72293 33.70725 114.56606
#
# Poissons Ratio (x) = 0.06440 0.61570
# Poissons Ratio (y) = 0.09500 0.64978
# Poissons Ratio (z) = 0.26722 0.19117
#
# Static dielectric constant tensor:
#      x y z
#    x 1.846250 0.000000 0.035230 
#    y 0.000000 1.897700 0.000000 
#    z 0.035230 0.000000 1.820530 
# 
# From -- ./inp_files/12608.got.cif
#   From: 2010.05.17/outbox.cif.g08.bks.cpg/sg4_7_cif.got.tgz:12608.got - 2010.06.03 18:43:04.
