data_PCOD9115999
_publ_section_title
;
Structure prediction by ZEFSAII (Michael W. Deem and Ramdas Pophale) SiO2 
 PCOD9115999
Probable space group: P 21
;
_chemical_formula_sum "Si O2"
_cell_formula_units_Z 14
_cell_length_a 14.099419
_cell_length_b 5.337609
_cell_length_c 18.309274
_cell_angle_alpha 90.000000
_cell_angle_beta 25.808779
_cell_angle_gamma 90.000000
_cell_volume 599.896935
_symmetry_space_group_name_H-M "P 21"
_symmetry_group_IT_number 4
_symmetry_cell_setting 'monoclinic'
loop_
_space_group_symop_operation_xyz
x,y,z
-x,1/2+y,-z
loop_
_atom_site_type_symbol
_atom_site_label
_atom_site_fract_x
_atom_site_fract_y
_atom_site_fract_z
Si Si1 0.291102 0.043660 0.807294
Si Si2 0.156414 0.043793 0.700436
Si Si3 0.293823 0.540288 0.583441
Si Si4 0.140840 0.453008 0.416305
Si Si5 0.611613 0.069899 0.894774
Si Si6 0.919164 0.780351 0.385256
Si Si7 0.167529 0.543494 0.964500
O O1 0.498250 0.039685 0.611505
O O2 0.064560 0.042570 0.918415
O O3 0.289188 0.292810 0.857380
O O4 0.287535 0.793475 0.857792
O O5 0.271243 0.295179 0.648683
O O6 0.192808 0.068844 0.587929
O O7 0.909040 0.048821 0.898467
O O8 0.257874 0.785911 0.654139
O O9 0.089448 0.502290 0.668849
O O10 0.341800 0.504503 0.222731
O O11 0.190931 0.371276 0.464342
O O12 0.997930 0.711278 0.517302
O O13 0.845398 0.175559 0.759020
O O14 0.455940 0.308892 0.019165
#
# Coordination Sequence:
#
# PCOD9115999 Si02
#       7
#     2   2   2   2   2   2   2
#     4  10  21  39  61  88 120 159 202 239 291 358
#     4  10  22  38  61  86 120 159 192 252 295 338
#     4  10  22  38  61  85 118 157 197 243 288 356
#     4  10  21  39  66  81 114 159 194 237 299 356
#     4  11  23  40  62  90 115 151 202 246 299 350
#     4   9  24  41  60  85 127 150 199 245 298 351
#     4  10  21  39  61  87 124 157 194 250 294 341
#
# _framework density 23.337340999999999
#
# number of rings (size 3 to 8) (size 9 to 14) (size 15 to 20)
#    0.857    1.143    0.000    3.429    6.000    1.143 
#    5.143    0.000    0.000    0.000    0.000    0.000 
#    0.000    0.000    0.000    0.000    0.000    0.000 
#
# Total GULP energy -78107.929370 kJ/mol
# GULP energy per Si atom -5579.137812 kJ/mol
# Density = 2.328422 g / cm^3
# Si number density = 23.337341 Si / 1000 Ang^3
#
#
#
# Elastic Constant Matrix: (Units=GPa)
#
#
# Indices 1 2 3 4 5 6 
#
# 1 68.6338 10.2500 9.0247 0.0000 18.8512 0.0000
# 2 10.2500 226.9955 89.8282 0.0000 24.1136 0.0000
# 3 9.0247 89.8282 137.5560 0.0000 33.9251 0.0000
# 4 0.0000 0.0000 0.0000 42.1298 0.0000 24.5109
# 5 18.8512 24.1136 33.9251 0.0000 33.1546 0.0000
# 6 0.0000 0.0000 0.0000 24.5109 0.0000 -11.2886
#
#
#
# Elastic Compliance Matrix: (Units=1/GPa)
#
#
# Indices 1 2 3 4 5 6 
#
# 1 0.017595 -0.000318 0.001958 0.000000 -0.011776 0.000000
# 2 -0.000318 0.005952 -0.003802 0.000000 -0.000257 0.000000
# 3 0.001958 -0.003802 0.012328 0.000000 -0.010962 0.000000
# 4 0.000000 0.000000 0.000000 0.010488 0.000000 0.022772
# 5 -0.011776 -0.000257 -0.010962 0.000000 0.048261 0.000000
# 6 0.000000 0.000000 0.000000 0.022772 0.000000 -0.039141
#
#
# Mechanical properties :
#
#
# Convention : Reuss Voigt Hill
#
# Bulk Modulus (GPa) = 31.69732 72.37677 52.03705
# Shear Modulus (GPa) = 71.09903 34.40466 52.75185
#
# Velocity S-wave (km/s) = 5.52557 3.84374 4.75953
# Velocity P-wave (km/s) = 7.37027 7.12599 7.24916
#
# Compressibility (1/GPa) = 0.03154841
#
# Stress axis : x y z
#
# Youngs Moduli (GPa) = 56.83572 168.01744 81.11645
#
# Poissons Ratio (x) = 0.05348 -0.15881
# Poissons Ratio (y) = 0.01809 0.30844
# Poissons Ratio (z) = -0.11127 0.63887
#
# Static dielectric constant tensor:
#      x y z
#    x 1.923740 0.000000 0.000010 
#    y 0.000000 1.750900 0.000000 
#    z 0.000010 0.000000 1.895310 
# 
# From -- ./inp_files/15857.got.cif
#   From: 2010.05.17/outbox.cif.g08.bks.cpg/sg4_8_cif.got.tgz:15857.got - 2010.06.03 18:43:04.
