data_PCOD9115968
_publ_section_title
;
Structure prediction by ZEFSAII (Michael W. Deem and Ramdas Pophale) SiO2 
 PCOD9115968
Probable space group: P 21
;
_chemical_formula_sum "Si O2"
_cell_formula_units_Z 16
_cell_length_a 12.626204
_cell_length_b 5.155142
_cell_length_c 11.389065
_cell_angle_alpha 90.000000
_cell_angle_beta 54.769617
_cell_angle_gamma 90.000000
_cell_volume 605.533298
_symmetry_space_group_name_H-M "P 21"
_symmetry_group_IT_number 4
_symmetry_cell_setting 'monoclinic'
loop_
_space_group_symop_operation_xyz
x,y,z
-x,1/2+y,-z
loop_
_atom_site_type_symbol
_atom_site_label
_atom_site_fract_x
_atom_site_fract_y
_atom_site_fract_z
Si Si1 0.396144 0.558830 0.324481
Si Si2 0.993617 0.669432 0.662663
Si Si3 0.816931 0.049902 0.883218
Si Si4 0.090212 0.741044 0.938263
Si Si5 0.578785 0.799285 0.932914
Si Si6 0.800329 0.382131 0.653935
Si Si7 0.426679 0.100079 0.598858
Si Si8 0.201175 0.413390 0.659018
O O1 0.382700 0.364680 0.225097
O O2 0.338250 0.829219 0.314856
O O3 0.538871 0.565488 0.286613
O O4 0.302058 0.479520 0.490878
O O5 0.101523 0.788141 0.509547
O O6 0.062293 0.420518 0.680249
O O7 0.941124 0.861061 0.794779
O O8 0.869256 0.637180 0.657920
O O9 0.688331 0.875895 0.955895
O O10 0.809297 0.215722 0.768222
O O11 0.827629 0.213113 0.994262
O O12 0.177203 0.628063 0.775344
O O13 0.026420 0.026071 0.975905
O O14 0.463582 0.005894 0.024325
O O15 0.517135 0.346903 0.502664
O O16 0.277951 0.172573 0.667268
#
# Coordination Sequence:
#
# PCOD9115968 Si02
#       8
#     2   2   2   2   2   2   2   2
#     4   9  23  46  71 106 138 187 240 295 347 426
#     4  11  20  40  68 104 140 177 232 288 362 416
#     4  11  25  44  68 101 142 183 233 288 357 427
#     4  12  27  47  69 103 145 189 233 288 358 426
#     4  11  28  49  73 105 142 188 234 295 359 421
#     4  10  21  38  68 104 136 182 225 297 354 419
#     4  10  23  45  70 104 140 184 239 295 349 409
#     4  10  23  45  69 103 141 186 238 290 348 422
#
# _framework density 26.422988
#
# number of rings (size 3 to 8) (size 9 to 14) (size 15 to 20)
#    0.000    1.500    2.500    0.750    5.250    5.000 
#    9.000    0.000    0.000    0.000    0.000    0.000 
#    0.000    0.000    0.000    0.000    0.000    0.000 
#
# Total GULP energy -89483.174013 kJ/mol
# GULP energy per Si atom -5592.698376 kJ/mol
# Density = 2.636285 g / cm^3
# Si number density = 26.422988 Si / 1000 Ang^3
#
#
#
# Elastic Constant Matrix: (Units=GPa)
#
#
# Indices 1 2 3 4 5 6 
#
# 1 132.3997 10.2144 16.5147 0.0000 23.3870 0.0000
# 2 10.2144 71.0721 0.5260 0.0000 -17.8762 0.0000
# 3 16.5147 0.5260 94.2719 0.0000 0.0234 0.0000
# 4 0.0000 0.0000 0.0000 34.6991 0.0000 -7.5221
# 5 23.3870 -17.8762 0.0234 0.0000 29.0923 0.0000
# 6 0.0000 0.0000 0.0000 -7.5221 0.0000 34.6235
#
#
#
# Elastic Compliance Matrix: (Units=1/GPa)
#
#
# Indices 1 2 3 4 5 6 
#
# 1 0.009927 -0.004046 -0.001714 0.000000 -0.010466 0.000000
# 2 -0.004046 0.018292 0.000603 0.000000 0.014492 0.000000
# 3 -0.001714 0.000603 0.010904 0.000000 0.001740 0.000000
# 4 0.000000 0.000000 0.000000 0.030244 0.000000 0.006571
# 5 -0.010466 0.014492 0.001740 0.000000 0.051690 0.000000
# 6 0.000000 0.000000 0.000000 0.006571 0.000000 0.030310
#
#
# Mechanical properties :
#
#
# Convention : Reuss Voigt Hill
#
# Bulk Modulus (GPa) = 34.71050 39.13932 36.92491
# Shear Modulus (GPa) = 29.19110 37.71554 33.45332
#
# Velocity S-wave (km/s) = 3.32740 3.78216 3.56205
# Velocity P-wave (km/s) = 5.28461 5.82390 5.56080
#
# Compressibility (1/GPa) = 0.02880973
#
# Stress axis : x y z
#
# Youngs Moduli (GPa) = 100.73046 54.66724 91.70889
#
# Poissons Ratio (x) = 0.22121 0.15718
# Poissons Ratio (y) = 0.40760 -0.05532
# Poissons Ratio (z) = 0.17265 -0.03298
#
# Static dielectric constant tensor:
#      x y z
#    x 2.087640 0.000000 -0.020930 
#    y 0.000000 2.173420 0.000000 
#    z -0.020930 0.000000 2.137890 
# 
# From -- ./inp_files/11608.got.cif
#   From: 2010.05.17/outbox.cif.g08.bks.cpg/sg4_6_cif.got.tgz:11608.got - 2010.06.03 18:43:04.
