data_PCOD9115437
_publ_section_title
;
Structure prediction by ZEFSAII (Michael W. Deem and Ramdas Pophale) SiO2 
 PCOD9115437
Probable space group: P 21
;
_chemical_formula_sum "Si O2"
_cell_formula_units_Z 14
_cell_length_a 7.237245
_cell_length_b 8.857500
_cell_length_c 17.170811
_cell_angle_alpha 90.000000
_cell_angle_beta 33.303252
_cell_angle_gamma 90.000000
_cell_volume 604.370366
_symmetry_space_group_name_H-M "P 21"
_symmetry_group_IT_number 4
_symmetry_cell_setting 'monoclinic'
loop_
_space_group_symop_operation_xyz
x,y,z
-x,1/2+y,-z
loop_
_atom_site_type_symbol
_atom_site_label
_atom_site_fract_x
_atom_site_fract_y
_atom_site_fract_z
Si Si1 0.964426 0.280510 0.198746
Si Si2 0.633706 0.906229 0.067613
Si Si3 0.604715 0.962746 0.667102
Si Si4 0.279033 0.453236 0.721713
Si Si5 0.134068 0.012512 0.356747
Si Si6 0.129722 0.846790 0.593936
Si Si7 0.920972 0.704615 0.104749
O O1 0.679718 0.336484 0.238528
O O2 0.890961 0.360123 0.306427
O O3 0.919712 0.104496 0.227709
O O4 0.306020 0.333765 0.037836
O O5 0.824575 0.792953 0.060172
O O6 0.266157 0.927831 0.233750
O O7 0.802861 0.074417 0.006549
O O8 0.854683 0.953913 0.651171
O O9 0.405552 0.117983 0.745832
O O10 0.829020 0.940385 0.511627
O O11 0.551742 0.500242 0.693468
O O12 0.029031 0.332991 0.848512
O O13 0.510265 0.387403 0.570664
O O14 0.003605 0.180298 0.383469
#
# Coordination Sequence:
#
# PCOD9115437 Si02
#       7
#     2   2   2   2   2   2   2
#     4  11  24  42  65  95 133 172 217 268 335 399
#     4  10  22  38  63  97 130 173 217 264 336 397
#     4  10  22  42  69  91 130 166 220 275 324 387
#     4  10  21  39  68  96 125 174 224 270 332 383
#     4  10  20  40  64  90 129 165 213 274 322 385
#     4  11  23  39  67 100 125 170 222 276 322 388
#     4  10  20  38  68  93 128 176 219 267 331 399
#
# _framework density 23.164601999999999
#
# number of rings (size 3 to 8) (size 9 to 14) (size 15 to 20)
#    0.000    1.714    2.857    1.714    4.000    0.000 
#    2.571    0.000    9.429    0.000    0.000    0.000 
#    0.000    0.000    0.000    0.000    0.000    0.000 
#
# Total GULP energy -78238.634549 kJ/mol
# GULP energy per Si atom -5588.473896 kJ/mol
# Density = 2.311188 g / cm^3
# Si number density = 23.164602 Si / 1000 Ang^3
#
#
#
# Elastic Constant Matrix: (Units=GPa)
#
#
# Indices 1 2 3 4 5 6 
#
# 1 59.1651 23.3150 48.1942 0.0000 3.2622 0.0000
# 2 23.3150 93.4254 61.9454 0.0000 4.2820 0.0000
# 3 48.1942 61.9454 171.0994 0.0000 21.9308 0.0000
# 4 0.0000 0.0000 0.0000 42.6385 0.0000 10.7691
# 5 3.2622 4.2820 21.9308 0.0000 36.5888 0.0000
# 6 0.0000 0.0000 0.0000 10.7691 0.0000 16.3465
#
#
#
# Elastic Compliance Matrix: (Units=1/GPa)
#
#
# Indices 1 2 3 4 5 6 
#
# 1 0.022271 -0.001751 -0.005861 0.000000 0.001732 0.000000
# 2 -0.001751 0.014301 -0.004864 0.000000 0.001398 0.000000
# 3 -0.005861 -0.004864 0.009875 0.000000 -0.004827 0.000000
# 4 0.000000 0.000000 0.000000 0.028134 0.000000 -0.018535
# 5 0.001732 0.001398 -0.004827 0.000000 0.029906 0.000000
# 6 0.000000 0.000000 0.000000 -0.018535 0.000000 0.073386
#
#
# Mechanical properties :
#
#
# Convention : Reuss Voigt Hill
#
# Bulk Modulus (GPa) = 46.52119 65.62211 56.07165
# Shear Modulus (GPa) = 23.81054 31.79711 27.80383
#
# Velocity S-wave (km/s) = 3.20954 3.70896 3.46825
# Velocity P-wave (km/s) = 5.81905 6.83608 6.34797
#
# Compressibility (1/GPa) = 0.02149558
#
# Stress axis : x y z
#
# Youngs Moduli (GPa) = 44.90200 69.92274 101.26471
#
# Poissons Ratio (x) = 0.12243 0.59353
# Poissons Ratio (y) = 0.07862 0.49252
# Poissons Ratio (z) = 0.26318 0.34008
#
# Static dielectric constant tensor:
#      x y z
#    x 1.887390 0.000000 0.006170 
#    y 0.000000 1.861560 0.000000 
#    z 0.006170 0.000000 1.866080 
# 
# From -- ./inp_files/7632.got.cif
#   From: 2010.05.17/outbox.cif.g08.bks.cpg/sg4_4_cif.got.tgz:7632.got - 2010.06.03 18:43:04.
