data_PCOD9115156
_publ_section_title
;
Structure prediction by ZEFSAII (Michael W. Deem and Ramdas Pophale) SiO2 
 PCOD9115156
Probable space group: P 21
;
_chemical_formula_sum "Si O2"
_cell_formula_units_Z 8
_cell_length_a 7.915336
_cell_length_b 4.857269
_cell_length_c 8.326923
_cell_angle_alpha 90.000000
_cell_angle_beta 110.337934
_cell_angle_gamma 90.000000
_cell_volume 300.186392
_symmetry_space_group_name_H-M "P 21"
_symmetry_group_IT_number 4
_symmetry_cell_setting 'monoclinic'
loop_
_space_group_symop_operation_xyz
x,y,z
-x,1/2+y,-z
loop_
_atom_site_type_symbol
_atom_site_label
_atom_site_fract_x
_atom_site_fract_y
_atom_site_fract_z
Si Si1 0.226182 0.982910 0.748011
Si Si2 0.872125 0.743922 0.958432
Si Si3 0.405721 0.722835 0.546330
Si Si4 0.869931 0.622287 0.615123
O O1 0.395524 0.819578 0.728385
O O2 0.064363 0.760570 0.699970
O O3 0.181888 0.194836 0.586644
O O4 0.232651 0.140664 0.918428
O O5 0.780646 0.704827 0.756153
O O6 0.050296 0.549270 0.007990
O O7 0.474096 0.427267 0.521886
O O8 0.199870 0.801591 0.418469
#
# Coordination Sequence:
#
# PCOD9115156 Si02
#       4
#     2   2   2   2
#     4   9  20  36  64  84 118 150 200 236 294 335
#     4  10  20  34  56  92 112 142 196 248 282 340
#     4  10  24  38  58  86 122 154 194 236 294 350
#     4   9  20  36  64  84 118 150 200 236 294 335
#
# _framework density 26.650112
#
# number of rings (size 3 to 8) (size 9 to 14) (size 15 to 20)
#    1.500    1.000    0.000    1.500    3.500    4.000 
#    0.000    2.500    0.000    0.000    0.000    0.000 
#    0.000    0.000    0.000    0.000    0.000    0.000 
#
# Total GULP energy -44539.869634 kJ/mol
# GULP energy per Si atom -5567.483704 kJ/mol
# Density = 2.658946 g / cm^3
# Si number density = 26.650112 Si / 1000 Ang^3
#
#
#
# Elastic Constant Matrix: (Units=GPa)
#
#
# Indices 1 2 3 4 5 6 
#
# 1 99.3799 -2.0410 40.3086 0.0000 -43.4455 0.0000
# 2 -2.0410 27.5073 11.1658 0.0000 7.7623 0.0000
# 3 40.3086 11.1658 220.1137 0.0000 -46.4585 0.0000
# 4 0.0000 0.0000 0.0000 50.7885 0.0000 -7.0396
# 5 -43.4455 7.7623 -46.4585 0.0000 54.9562 0.0000
# 6 0.0000 0.0000 0.0000 -7.0396 0.0000 60.8177
#
#
#
# Elastic Compliance Matrix: (Units=1/GPa)
#
#
# Indices 1 2 3 4 5 6 
#
# 1 0.015529 -0.002357 -0.000076 0.000000 0.012545 0.000000
# 2 -0.002357 0.040888 -0.003962 0.000000 -0.010987 0.000000
# 3 -0.000076 -0.003962 0.005920 0.000000 0.005503 0.000000
# 4 0.000000 0.000000 0.000000 0.020011 0.000000 0.002316
# 5 0.012545 -0.010987 0.005503 0.000000 0.034318 0.000000
# 6 0.000000 0.000000 0.000000 0.002316 0.000000 0.016711
#
#
# Mechanical properties :
#
#
# Convention : Reuss Voigt Hill
#
# Bulk Modulus (GPa) = 20.18291 49.54088 34.86190
# Shear Modulus (GPa) = 30.73500 53.15032 41.94266
#
# Velocity S-wave (km/s) = 3.39968 4.47069 3.97145
# Velocity P-wave (km/s) = 4.79585 6.72898 5.84291
#
# Compressibility (1/GPa) = 0.04954686
#
# Stress axis : x y z
#
# Youngs Moduli (GPa) = 64.39497 24.45722 168.92858
#
# Poissons Ratio (x) = 0.05764 0.01292
# Poissons Ratio (y) = 0.15176 0.66923
# Poissons Ratio (z) = 0.00492 0.09689
#
# Static dielectric constant tensor:
#      x y z
#    x 2.291560 0.000000 0.018960 
#    y 0.000000 2.096180 0.000000 
#    z 0.018960 0.000000 2.111390 
# 
# From -- ./inp_files/5062.got.cif
#   From: 2010.05.17/outbox.cif.g08.bks.cpg/sg4_3_cif.got.tgz:5062.got - 2010.06.03 18:43:04.
