data_PCOD9115917
_publ_section_title
;
Structure prediction by ZEFSAII (Michael W. Deem and Ramdas Pophale) SiO2 
 PCOD9115917
Probable space group: P 21
;
_chemical_formula_sum "Si O2"
_cell_formula_units_Z 12
_cell_length_a 6.018333
_cell_length_b 17.830764
_cell_length_c 5.126101
_cell_angle_alpha 90.000000
_cell_angle_beta 87.940660
_cell_angle_gamma 90.000000
_cell_volume 549.734184
_symmetry_space_group_name_H-M "P 21"
_symmetry_group_IT_number 4
_symmetry_cell_setting 'monoclinic'
loop_
_space_group_symop_operation_xyz
x,y,z
-x,1/2+y,-z
loop_
_atom_site_type_symbol
_atom_site_label
_atom_site_fract_x
_atom_site_fract_y
_atom_site_fract_z
Si Si1 0.633884 0.336240 0.324167
Si Si2 0.689510 0.161004 0.297219
Si Si3 0.074826 0.598699 0.205805
Si Si4 0.680643 0.557014 0.541170
Si Si5 0.282607 0.921377 0.171999
Si Si6 0.648270 0.957328 0.803557
O O1 0.641848 0.248675 0.278520
O O2 0.721275 0.360251 0.601942
O O3 0.385488 0.373116 0.304296
O O4 0.775511 0.380570 0.095620
O O5 0.776354 0.140060 0.581468
O O6 0.465790 0.112148 0.277821
O O7 0.865626 0.134446 0.073094
O O8 0.140186 0.510122 0.198057
O O9 0.829832 0.602655 0.332566
O O10 0.819979 0.498350 0.714395
O O11 0.524576 0.504581 0.367891
O O12 0.536198 0.948517 0.093072
#
# Coordination Sequence:
#
# PCOD9115917 Si02
#       6
#     2   2   2   2   2   2
#     4   9  18  34  59  78 116 154 180 235 292 330
#     4  11  22  38  56  86 121 150 184 239 290 340
#     4  11  23  35  63  87 111 153 197 231 283 343
#     4  10  21  38  62  85 115 150 195 239 279 336
#     4   9  17  35  60  79 106 152 191 226 283 325
#     4   8  19  38  58  81 109 149 193 234 277 326
#
# _framework density 21.828728999999999
#
# number of rings (size 3 to 8) (size 9 to 14) (size 15 to 20)
#    1.000    1.333    1.667    1.000    2.333    0.000 
#    0.000    5.000    7.333    0.000    0.000    0.000 
#    0.000    0.000    0.000    0.000    0.000    0.000 
#
# Total GULP energy -66840.004521 kJ/mol
# GULP energy per Si atom -5570.000377 kJ/mol
# Density = 2.177905 g / cm^3
# Si number density = 21.828729 Si / 1000 Ang^3
#
#
#
# Elastic Constant Matrix: (Units=GPa)
#
#
# Indices 1 2 3 4 5 6 
#
# 1 15.3797 15.9613 4.0672 0.0000 -2.2848 0.0000
# 2 15.9613 158.8781 40.2715 0.0000 -6.3619 0.0000
# 3 4.0672 40.2715 127.9726 0.0000 -6.2591 0.0000
# 4 0.0000 0.0000 0.0000 30.7574 0.0000 -3.4484
# 5 -2.2848 -6.3619 -6.2591 0.0000 27.9325 0.0000
# 6 0.0000 0.0000 0.0000 -3.4484 0.0000 9.3937
#
#
#
# Elastic Compliance Matrix: (Units=1/GPa)
#
#
# Indices 1 2 3 4 5 6 
#
# 1 0.073111 -0.007210 0.000159 0.000000 0.004374 0.000000
# 2 -0.007210 0.007584 -0.002125 0.000000 0.000661 0.000000
# 3 0.000159 -0.002125 0.008548 0.000000 0.001445 0.000000
# 4 0.000000 0.000000 0.000000 0.033908 0.000000 0.012447
# 5 0.004374 0.000661 0.001445 0.000000 0.036633 0.000000
# 6 0.000000 0.000000 0.000000 0.012447 0.000000 0.111024
#
#
# Mechanical properties :
#
#
# Convention : Reuss Voigt Hill
#
# Bulk Modulus (GPa) = 14.10603 46.98116 30.54359
# Shear Modulus (GPa) = 15.98516 29.74541 22.86529
#
# Velocity S-wave (km/s) = 2.70904 3.69544 3.24000
# Velocity P-wave (km/s) = 4.03254 6.30696 5.29335
#
# Compressibility (1/GPa) = 0.07089168
#
# Stress axis : x y z
#
# Youngs Moduli (GPa) = 13.67777 131.86361 116.98003
#
# Poissons Ratio (x) = 0.95076 -0.01863
# Poissons Ratio (y) = 0.09862 0.24858
# Poissons Ratio (z) = -0.00218 0.28021
#
# Static dielectric constant tensor:
#      x y z
#    x 1.891230 0.000000 0.019100 
#    y 0.000000 1.785130 0.000000 
#    z 0.019100 0.000000 1.829920 
# 
# From -- ./inp_files/346.got.cif
#   From: 2010.05.17/outbox.cif.g08.bks.cpg/sg4_1_cif.got.tgz:346.got - 2010.06.03 18:43:04.
