data_PCOD9115294
_publ_section_title
;
Structure prediction by ZEFSAII (Michael W. Deem and Ramdas Pophale) SiO2 
 PCOD9115294
Probable space group: P 21
;
_chemical_formula_sum "Si O2"
_cell_formula_units_Z 14
_cell_length_a 16.383493
_cell_length_b 4.889739
_cell_length_c 22.695596
_cell_angle_alpha 90.000000
_cell_angle_beta 20.948710
_cell_angle_gamma 90.000000
_cell_volume 650.053036
_symmetry_space_group_name_H-M "P 21"
_symmetry_group_IT_number 4
_symmetry_cell_setting 'monoclinic'
loop_
_space_group_symop_operation_xyz
x,y,z
-x,1/2+y,-z
loop_
_atom_site_type_symbol
_atom_site_label
_atom_site_fract_x
_atom_site_fract_y
_atom_site_fract_z
Si Si1 0.977210 0.038370 0.054844
Si Si2 0.765058 0.609082 0.607296
Si Si3 0.874903 0.334300 0.880949
Si Si4 0.712509 0.824375 0.060087
Si Si5 0.658737 0.022736 0.381332
Si Si6 0.345945 0.816970 0.095220
Si Si7 0.976754 0.609198 0.594555
O O1 0.767306 0.007375 0.242252
O O2 0.939038 0.249656 0.027099
O O3 0.171476 0.185560 0.962235
O O4 0.519979 0.475614 0.768063
O O5 0.799940 0.918026 0.563628
O O6 0.840605 0.593142 0.624687
O O7 0.940599 0.417229 0.453205
O O8 0.788142 0.260600 0.874765
O O9 0.129224 0.453698 0.718193
O O10 0.704728 0.572416 0.019317
O O11 0.862832 0.064614 0.929458
O O12 0.451785 0.814071 0.530783
O O13 0.178109 0.975324 0.252021
O O14 0.449852 0.537632 0.050937
#
# Coordination Sequence:
#
# PCOD9115294 Si02
#       7
#     2   2   2   2   2   2   2
#     4  11  23  43  67  98 130 164 227 278 323 399
#     4  10  20  37  58  82 120 159 197 245 317 359
#     4  11  23  41  66  94 126 167 224 255 310 410
#     4  11  22  41  67  89 123 168 213 257 322 382
#     4  11  23  44  69  96 132 181 215 274 345 396
#     4  12  24  40  63  91 128 166 212 263 315 365
#     4  10  21  36  56  86 121 153 200 254 296 373
#
# _framework density 21.536702999999999
#
# number of rings (size 3 to 8) (size 9 to 14) (size 15 to 20)
#    0.000    1.143    0.000    8.571    0.000    2.286 
#    7.714    0.000    0.000    0.000    0.000    0.000 
#    0.000    0.000    0.000    0.000    0.000    0.000 
#
# Total GULP energy -78290.357764 kJ/mol
# GULP energy per Si atom -5592.168412 kJ/mol
# Density = 2.148768 g / cm^3
# Si number density = 21.536703 Si / 1000 Ang^3
#
#
#
# Elastic Constant Matrix: (Units=GPa)
#
#
# Indices 1 2 3 4 5 6 
#
# 1 61.2037 7.4748 18.4012 0.0000 -2.5560 0.0000
# 2 7.4748 70.6440 -8.8365 0.0000 3.3483 0.0000
# 3 18.4012 -8.8365 77.0252 0.0000 2.2806 0.0000
# 4 0.0000 0.0000 0.0000 50.6063 0.0000 59.8990
# 5 -2.5560 3.3483 2.2806 0.0000 17.8604 0.0000
# 6 0.0000 0.0000 0.0000 59.8990 0.0000 264.4765
#
#
#
# Elastic Compliance Matrix: (Units=1/GPa)
#
#
# Indices 1 2 3 4 5 6 
#
# 1 0.018264 -0.002708 -0.004784 0.000000 0.003732 0.000000
# 2 -0.002708 0.014916 0.002462 0.000000 -0.003498 0.000000
# 3 -0.004784 0.002462 0.014497 0.000000 -0.002997 0.000000
# 4 0.000000 0.000000 0.000000 0.026998 0.000000 -0.006114
# 5 0.003732 -0.003498 -0.002997 0.000000 0.057562 0.000000
# 6 0.000000 0.000000 0.000000 -0.006114 0.000000 0.005166
#
#
# Mechanical properties :
#
#
# Convention : Reuss Voigt Hill
#
# Bulk Modulus (GPa) = 26.58491 26.99467 26.78979
# Shear Modulus (GPa) = 31.24961 79.37753 55.31357
#
# Velocity S-wave (km/s) = 3.81332 6.07757 5.07338
# Velocity P-wave (km/s) = 5.63555 7.86197 6.83996
#
# Compressibility (1/GPa) = 0.03761532
#
# Stress axis : x y z
#
# Youngs Moduli (GPa) = 54.75287 67.04343 68.98030
#
# Poissons Ratio (x) = 0.18154 0.33003
# Poissons Ratio (y) = 0.14826 -0.16980
# Poissons Ratio (z) = 0.26196 -0.16504
#
# Static dielectric constant tensor:
#      x y z
#    x 1.484700 0.000000 0.034730 
#    y 0.000000 1.773060 0.000000 
#    z 0.034730 0.000000 1.801300 
# 
# From -- ./inp_files/8945.got.cif
#   From: 2010.05.17/outbox.cif.g08.bks.cpg/sg4_5_cif.got.tgz:8945.got - 2010.06.03 18:43:04.
