data_PCOD9115913
_publ_section_title
;
Structure prediction by ZEFSAII (Michael W. Deem and Ramdas Pophale) SiO2 
 PCOD9115913
Probable space group: P 21
;
_chemical_formula_sum "Si O2"
_cell_formula_units_Z 12
_cell_length_a 5.537422
_cell_length_b 5.417212
_cell_length_c 15.338268
_cell_angle_alpha 90.000000
_cell_angle_beta 69.090229
_cell_angle_gamma 90.000000
_cell_volume 429.806946
_symmetry_space_group_name_H-M "P 21"
_symmetry_group_IT_number 4
_symmetry_cell_setting 'monoclinic'
loop_
_space_group_symop_operation_xyz
x,y,z
-x,1/2+y,-z
loop_
_atom_site_type_symbol
_atom_site_label
_atom_site_fract_x
_atom_site_fract_y
_atom_site_fract_z
Si Si1 0.844856 0.539540 0.380287
Si Si2 0.087005 0.547397 0.881405
Si Si3 0.310595 0.588850 0.216175
Si Si4 0.478509 0.091806 0.287327
Si Si5 0.720164 0.276801 0.550882
Si Si6 0.770150 0.046348 0.953230
O O1 0.807606 0.288254 0.439578
O O2 0.554713 0.638085 0.407393
O O3 0.002674 0.546090 0.270257
O O4 0.043488 0.679290 0.420975
O O5 0.218519 0.559183 0.770371
O O6 0.909963 0.785840 0.918430
O O7 0.940558 0.290343 0.912560
O O8 0.288842 0.559017 0.937023
O O9 0.370354 0.859146 0.245393
O O10 0.421052 0.563034 0.104163
O O11 0.417468 0.360663 0.258508
O O12 0.362778 0.041131 0.396909
#
# Coordination Sequence:
#
# PCOD9115913 Si02
#       6
#     2   2   2   2   2   2
#     4  11  24  43  68 101 138 181 228 282 340 405
#     4  10  21  38  61  90 127 173 224 279 338 402
#     4  11  24  41  64  95 131 174 224 279 338 403
#     4  11  24  41  64  95 131 174 224 279 338 403
#     4  11  24  43  68 101 138 181 228 282 340 405
#     4  10  21  38  61  90 127 173 224 279 338 402
#
# _framework density 27.919513999999999
#
# number of rings (size 3 to 8) (size 9 to 14) (size 15 to 20)
#    0.000    1.333    0.000    5.000    0.000    8.000 
#    0.000    0.000    0.000    0.000    0.000    0.000 
#    0.000    0.000    0.000    0.000    0.000    0.000 
#
# Total GULP energy -67116.683442 kJ/mol
# GULP energy per Si atom -5593.056953 kJ/mol
# Density = 2.785597 g / cm^3
# Si number density = 27.919514 Si / 1000 Ang^3
#
#
#
# Elastic Constant Matrix: (Units=GPa)
#
#
# Indices 1 2 3 4 5 6 
#
# 1 107.9344 67.9836 22.0341 0.0000 1.2507 0.0000
# 2 67.9836 149.2120 39.1245 0.0000 -6.0945 0.0000
# 3 22.0341 39.1245 92.5240 0.0000 1.9175 0.0000
# 4 0.0000 0.0000 0.0000 46.9361 0.0000 5.4607
# 5 1.2507 -6.0945 1.9175 0.0000 49.7993 0.0000
# 6 0.0000 0.0000 0.0000 5.4607 0.0000 146.7304
#
#
#
# Elastic Compliance Matrix: (Units=1/GPa)
#
#
# Indices 1 2 3 4 5 6 
#
# 1 0.013081 -0.005838 -0.000626 0.000000 -0.001019 0.000000
# 2 -0.005838 0.010198 -0.002953 0.000000 0.001508 0.000000
# 3 -0.000626 -0.002953 0.012223 0.000000 -0.000816 0.000000
# 4 0.000000 0.000000 0.000000 0.021398 0.000000 -0.000796
# 5 -0.001019 0.001508 -0.000816 0.000000 0.020322 0.000000
# 6 0.000000 0.000000 0.000000 -0.000796 0.000000 0.006845
#
#
# Mechanical properties :
#
#
# Convention : Reuss Voigt Hill
#
# Bulk Modulus (GPa) = 59.99285 67.55054 63.77169
# Shear Modulus (GPa) = 46.10165 63.39503 54.74834
#
# Velocity S-wave (km/s) = 4.06795 4.77029 4.43305
# Velocity P-wave (km/s) = 6.60293 7.38838 7.00667
#
# Compressibility (1/GPa) = 0.01666865
#
# Stress axis : x y z
#
# Youngs Moduli (GPa) = 76.44496 98.06275 81.81501
#
# Poissons Ratio (x) = 0.57245 0.05119
# Poissons Ratio (y) = 0.44626 0.24161
# Poissons Ratio (z) = 0.04783 0.28960
#
# Static dielectric constant tensor:
#      x y z
#    x 2.212790 0.000000 0.095640 
#    y 0.000000 2.172410 0.000000 
#    z 0.095640 0.000000 2.121900 
# 
# From -- ./inp_files/3335.got.cif
#   From: 2010.05.17/outbox.cif.g08.bks.cpg/sg4_2_cif.got.tgz:3335.got - 2010.06.03 18:43:04.
