data_PCOD9115599
_publ_section_title
;
Structure prediction by ZEFSAII (Michael W. Deem and Ramdas Pophale) SiO2 
 PCOD9115599
Probable space group: P 21
;
_chemical_formula_sum "Si O2"
_cell_formula_units_Z 16
_cell_length_a 5.541575
_cell_length_b 7.823232
_cell_length_c 15.784169
_cell_angle_alpha 90.000000
_cell_angle_beta 75.817938
_cell_angle_gamma 90.000000
_cell_volume 663.435737
_symmetry_space_group_name_H-M "P 21"
_symmetry_group_IT_number 4
_symmetry_cell_setting 'monoclinic'
loop_
_space_group_symop_operation_xyz
x,y,z
-x,1/2+y,-z
loop_
_atom_site_type_symbol
_atom_site_label
_atom_site_fract_x
_atom_site_fract_y
_atom_site_fract_z
Si Si1 0.732340 0.023770 0.516306
Si Si2 0.578490 0.816434 0.684707
Si Si3 0.708512 0.018955 0.238664
Si Si4 0.643705 0.161842 0.054873
Si Si5 0.165638 0.181159 0.171885
Si Si6 0.060163 0.976044 0.914438
Si Si7 0.290346 0.152377 0.750469
Si Si8 0.816657 0.700458 0.423892
O O1 0.463472 0.120235 0.535124
O O2 0.961333 0.134224 0.533926
O O3 0.699783 0.870356 0.587473
O O4 0.800314 0.907070 0.429796
O O5 0.369758 0.670708 0.691976
O O6 0.743504 0.738000 0.743998
O O7 0.472637 0.993137 0.729473
O O8 0.644817 0.083246 0.149637
O O9 0.006259 0.012541 0.204022
O O10 0.586983 0.838481 0.266891
O O11 0.346307 0.164164 0.074111
O O12 0.752748 0.355142 0.047987
O O13 0.819567 0.045241 0.983545
O O14 0.007110 0.343868 0.154682
O O15 0.173003 0.135330 0.853553
O O16 0.127080 0.143464 0.678335
#
# Coordination Sequence:
#
# PCOD9115599 Si02
#       8
#     2   2   2   2   2   2   2   2
#     4  11  25  45  73 103 148 179 238 289 359 425
#     4  10  22  44  67  93 136 180 217 287 347 410
#     4  10  22  41  64  96 131 176 228 282 344 411
#     4  10  22  39  59  92 126 180 218 283 341 398
#     4  10  20  41  61  90 130 170 227 275 348 396
#     4  11  21  39  61  84 136 167 223 280 336 404
#     4  11  22  43  68  96 133 178 229 279 349 417
#     4  11  26  46  73 108 140 190 234 291 364 423
#
# _framework density 24.116879000000001
#
# number of rings (size 3 to 8) (size 9 to 14) (size 15 to 20)
#    0.000    1.500    3.750    2.250    3.500    4.000 
#   15.750    0.000    0.000    0.000    0.000    0.000 
#    0.000    0.000    0.000    0.000    0.000    0.000 
#
# Total GULP energy -89185.299390 kJ/mol
# GULP energy per Si atom -5574.081212 kJ/mol
# Density = 2.406199 g / cm^3
# Si number density = 24.116879 Si / 1000 Ang^3
#
#
#
# Elastic Constant Matrix: (Units=GPa)
#
#
# Indices 1 2 3 4 5 6 
#
# 1 63.5738 29.1497 -1.5103 0.0000 -8.2981 0.0000
# 2 29.1497 127.7227 12.2267 0.0000 -7.2518 0.0000
# 3 -1.5103 12.2267 35.3735 0.0000 -7.1573 0.0000
# 4 0.0000 0.0000 0.0000 45.2718 0.0000 -1.1124
# 5 -8.2981 -7.2518 -7.1573 0.0000 26.8671 0.0000
# 6 0.0000 0.0000 0.0000 -1.1124 0.0000 27.1466
#
#
#
# Elastic Compliance Matrix: (Units=1/GPa)
#
#
# Indices 1 2 3 4 5 6 
#
# 1 0.018458 -0.004224 0.003351 0.000000 0.005454 0.000000
# 2 -0.004224 0.009123 -0.003276 0.000000 0.000285 0.000000
# 3 0.003351 -0.003276 0.031261 0.000000 0.008479 0.000000
# 4 0.000000 0.000000 0.000000 0.022111 0.000000 0.000906
# 5 0.005454 0.000285 0.008479 0.000000 0.041240 0.000000
# 6 0.000000 0.000000 0.000000 0.000906 0.000000 0.036874
#
#
# Mechanical properties :
#
#
# Convention : Reuss Voigt Hill
#
# Bulk Modulus (GPa) = 19.78432 34.04471 26.91451
# Shear Modulus (GPa) = 27.14259 32.31069 29.72664
#
# Velocity S-wave (km/s) = 3.35843 3.66424 3.51466
# Velocity P-wave (km/s) = 4.82287 5.66122 5.25877
#
# Compressibility (1/GPa) = 0.05054508
#
# Stress axis : x y z
#
# Youngs Moduli (GPa) = 54.17744 109.61014 31.98908
#
# Poissons Ratio (x) = 0.46297 -0.10721
# Poissons Ratio (y) = 0.22883 0.10480
# Poissons Ratio (z) = -0.18157 0.35909
#
# Static dielectric constant tensor:
#      x y z
#    x 2.295230 0.000000 -0.041300 
#    y 0.000000 1.929250 0.000000 
#    z -0.041300 0.000000 2.010110 
# 
# From -- ./inp_files/14696.got.cif
#   From: 2010.05.17/outbox.cif.g08.bks.cpg/sg4_8_cif.got.tgz:14696.got - 2010.06.03 18:43:04.
