data_PCOD9115469
_publ_section_title
;
Structure prediction by ZEFSAII (Michael W. Deem and Ramdas Pophale) SiO2 
 PCOD9115469
Probable space group: P 21
;
_chemical_formula_sum "Si O2"
_cell_formula_units_Z 14
_cell_length_a 16.690662
_cell_length_b 5.248678
_cell_length_c 5.616642
_cell_angle_alpha 90.000000
_cell_angle_beta 87.023916
_cell_angle_gamma 90.000000
_cell_volume 491.376185
_symmetry_space_group_name_H-M "P 21"
_symmetry_group_IT_number 4
_symmetry_cell_setting 'monoclinic'
loop_
_space_group_symop_operation_xyz
x,y,z
-x,1/2+y,-z
loop_
_atom_site_type_symbol
_atom_site_label
_atom_site_fract_x
_atom_site_fract_y
_atom_site_fract_z
Si Si1 0.615427 0.104450 0.359687
Si Si2 0.955199 0.370722 0.237567
Si Si3 0.470262 0.210053 0.117494
Si Si4 0.816602 0.703412 0.302206
Si Si5 0.756523 0.200834 0.050253
Si Si6 0.324940 0.105092 0.398640
Si Si7 0.102452 0.635712 0.256935
O O1 0.521042 0.128921 0.341750
O O2 0.662581 0.164126 0.105504
O O3 0.649941 0.321969 0.527575
O O4 0.639313 0.821984 0.432087
O O5 0.910502 0.643565 0.277964
O O6 0.921735 0.232375 0.478887
O O7 0.051094 0.377863 0.240165
O O8 0.930152 0.277108 0.978467
O O9 0.375419 0.170428 0.157099
O O10 0.496055 0.499084 0.068777
O O11 0.778481 0.482574 0.139427
O O12 0.770020 0.647585 0.556854
O O13 0.795293 0.981947 0.212840
O O14 0.802264 0.145221 0.798132
#
# Coordination Sequence:
#
# PCOD9115469 Si02
#       7
#     2   2   2   2   2   2   2
#     4  10  20  39  63  85 116 162 210 256 316 386
#     4  11  23  41  65  97 134 176 223 274 332 394
#     4  12  24  36  54  88 126 160 206 262 320 380
#     4   9  20  39  64  92 122 161 213 269 326 389
#     4   9  20  39  64  92 122 161 213 269 326 389
#     4  10  20  39  63  85 116 162 210 256 316 386
#     4  11  23  41  65  97 134 176 223 274 332 394
#
# _framework density 28.491409000000001
#
# number of rings (size 3 to 8) (size 9 to 14) (size 15 to 20)
#    0.000    1.714    0.000    4.286    0.000    3.429 
#    0.000    7.143    0.000    0.000    0.000    0.000 
#    0.000    0.000    0.000    0.000    0.000    0.000 
#
# Total GULP energy -78347.219735 kJ/mol
# GULP energy per Si atom -5596.229981 kJ/mol
# Density = 2.842656 g / cm^3
# Si number density = 28.491409 Si / 1000 Ang^3
#
#
#
# Elastic Constant Matrix: (Units=GPa)
#
#
# Indices 1 2 3 4 5 6 
#
# 1 89.3279 33.7917 45.1172 0.0000 -29.8253 0.0000
# 2 33.7917 124.2285 63.4866 0.0000 15.9894 0.0000
# 3 45.1172 63.4866 143.7996 0.0000 -19.9596 0.0000
# 4 0.0000 0.0000 0.0000 66.7669 0.0000 8.2563
# 5 -29.8253 15.9894 -19.9596 0.0000 55.3225 0.0000
# 6 0.0000 0.0000 0.0000 8.2563 0.0000 44.4652
#
#
#
# Elastic Compliance Matrix: (Units=1/GPa)
#
#
# Indices 1 2 3 4 5 6 
#
# 1 0.017478 -0.005170 -0.001775 0.000000 0.010277 0.000000
# 2 -0.005170 0.013364 -0.005475 0.000000 -0.008625 0.000000
# 3 -0.001775 -0.005475 0.010543 0.000000 0.004429 0.000000
# 4 0.000000 0.000000 0.000000 0.015329 0.000000 -0.002846
# 5 0.010277 -0.008625 0.004429 0.000000 0.027707 0.000000
# 6 0.000000 0.000000 0.000000 -0.002846 0.000000 0.023018
#
#
# Mechanical properties :
#
#
# Convention : Reuss Voigt Hill
#
# Bulk Modulus (GPa) = 60.44044 71.34965 65.89504
# Shear Modulus (GPa) = 36.28566 47.64161 41.96363
#
# Velocity S-wave (km/s) = 3.57258 4.09362 3.84194
# Velocity P-wave (km/s) = 6.18687 6.88770 6.54667
#
# Compressibility (1/GPa) = 0.01654521
#
# Stress axis : x y z
#
# Youngs Moduli (GPa) = 57.21445 74.82635 94.84841
#
# Poissons Ratio (x) = 0.38685 0.16834
# Poissons Ratio (y) = 0.29579 0.51933
# Poissons Ratio (z) = 0.10155 0.40970
#
# Static dielectric constant tensor:
#      x y z
#    x 2.190480 0.000000 -0.043080 
#    y 0.000000 2.195650 0.000000 
#    z -0.043080 0.000000 2.271140 
# 
# From -- ./inp_files/3887.got.cif
#   From: 2010.05.17/outbox.cif.g08.bks.cpg/sg4_2_cif.got.tgz:3887.got - 2010.06.03 18:43:04.
