data_PCOD9115989
_publ_section_title
;
Structure prediction by ZEFSAII (Michael W. Deem and Ramdas Pophale) SiO2 
 PCOD9115989
Probable space group: P 21
;
_chemical_formula_sum "Si O2"
_cell_formula_units_Z 16
_cell_length_a 8.647504
_cell_length_b 7.555858
_cell_length_c 23.198121
_cell_angle_alpha 90.000000
_cell_angle_beta 26.720514
_cell_angle_gamma 90.000000
_cell_volume 681.539729
_symmetry_space_group_name_H-M "P 21"
_symmetry_group_IT_number 4
_symmetry_cell_setting 'monoclinic'
loop_
_space_group_symop_operation_xyz
x,y,z
-x,1/2+y,-z
loop_
_atom_site_type_symbol
_atom_site_label
_atom_site_fract_x
_atom_site_fract_y
_atom_site_fract_z
Si Si1 0.824353 0.505380 0.358308
Si Si2 0.458809 0.856524 0.657450
Si Si3 0.659739 0.487807 0.874288
Si Si4 0.430983 0.382749 0.601820
Si Si5 0.575212 0.640438 0.112860
Si Si6 0.684944 0.623287 0.203973
Si Si7 0.085110 0.676770 0.476536
Si Si8 0.295500 0.849615 0.018218
O O1 0.755399 0.367110 0.329378
O O2 0.605635 0.466743 0.487516
O O3 0.714021 0.691683 0.368413
O O4 0.222116 0.530868 0.239898
O O5 0.679397 0.689192 0.602826
O O6 0.272454 0.939976 0.775296
O O7 0.776091 0.995884 0.541078
O O8 0.506607 0.685311 0.920277
O O9 0.077175 0.484730 0.735198
O O10 0.516446 0.339641 0.877243
O O11 0.545066 0.416104 0.975295
O O12 0.739212 0.329542 0.542970
O O13 0.766970 0.631872 0.109788
O O14 0.754094 0.521657 0.004712
O O15 0.290349 0.675716 0.347575
O O16 0.928434 0.762334 0.154393
#
# Coordination Sequence:
#
# PCOD9115989 Si02
#       8
#     2   2   2   2   2   2   2   2
#     4  10  22  38  63  92 133 164 214 272 329 392
#     4   9  20  38  61  90 126 170 207 266 328 389
#     4  11  24  44  69  97 133 179 226 275 329 397
#     4  10  21  39  60  96 129 168 215 269 334 394
#     4  11  25  44  68  98 134 180 220 280 332 399
#     4  10  23  43  63  92 140 172 221 277 329 403
#     4   9  19  38  60  86 129 167 203 265 331 383
#     4  12  24  46  70  97 136 178 228 274 334 397
#
# _framework density 23.476254999999998
#
# number of rings (size 3 to 8) (size 9 to 14) (size 15 to 20)
#    0.750    1.000    2.500    1.500    7.000    0.000 
#    0.000    1.250    0.000    0.000    0.000    0.000 
#    0.000    0.000    0.000    0.000    0.000    0.000 
#
# Total GULP energy -89299.159175 kJ/mol
# GULP energy per Si atom -5581.197448 kJ/mol
# Density = 2.342282 g / cm^3
# Si number density = 23.476255 Si / 1000 Ang^3
#
#
#
# Elastic Constant Matrix: (Units=GPa)
#
#
# Indices 1 2 3 4 5 6 
#
# 1 85.5778 11.3613 4.7222 0.0000 10.2848 0.0000
# 2 11.3613 93.2364 4.6418 0.0000 2.2774 0.0000
# 3 4.7222 4.6418 34.8129 0.0000 1.6636 0.0000
# 4 0.0000 0.0000 0.0000 47.2412 0.0000 4.0672
# 5 10.2848 2.2774 1.6636 0.0000 38.0843 0.0000
# 6 0.0000 0.0000 0.0000 4.0672 0.0000 16.0265
#
#
#
# Elastic Compliance Matrix: (Units=1/GPa)
#
#
# Indices 1 2 3 4 5 6 
#
# 1 0.012322 -0.001357 -0.001338 0.000000 -0.003188 0.000000
# 2 -0.001357 0.010960 -0.001266 0.000000 -0.000234 0.000000
# 3 -0.001338 -0.001266 0.029115 0.000000 -0.000835 0.000000
# 4 0.000000 0.000000 0.000000 0.021641 0.000000 -0.005492
# 5 -0.003188 -0.000234 -0.000835 0.000000 0.027169 0.000000
# 6 0.000000 0.000000 0.000000 -0.005492 0.000000 0.063791
#
#
# Mechanical properties :
#
#
# Convention : Reuss Voigt Hill
#
# Bulk Modulus (GPa) = 22.48473 28.34195 25.41334
# Shear Modulus (GPa) = 26.63189 33.13053 29.88121
#
# Velocity S-wave (km/s) = 3.37177 3.76072 3.57154
# Velocity P-wave (km/s) = 4.97563 5.56382 5.27792
#
# Compressibility (1/GPa) = 0.04447463
#
# Stress axis : x y z
#
# Youngs Moduli (GPa) = 81.15287 91.24485 34.34628
#
# Poissons Ratio (x) = 0.12382 0.04596
# Poissons Ratio (y) = 0.11013 0.04348
# Poissons Ratio (z) = 0.10860 0.11552
#
# Static dielectric constant tensor:
#      x y z
#    x 1.946490 0.000000 0.004180 
#    y 0.000000 1.966510 0.000000 
#    z 0.004180 0.000000 1.920160 
# 
# From -- ./inp_files/16088.got.cif
#   From: 2010.05.17/outbox.cif.g08.bks.cpg/sg4_9_cif.got.tgz:16088.got - 2010.06.03 18:43:04.
