data_PCOD9115622
_publ_section_title
;
Structure prediction by ZEFSAII (Michael W. Deem and Ramdas Pophale) SiO2 
 PCOD9115622
Probable space group: P 21
;
_chemical_formula_sum "Si O2"
_cell_formula_units_Z 16
_cell_length_a 13.593182
_cell_length_b 7.404665
_cell_length_c 18.092713
_cell_angle_alpha 90.000000
_cell_angle_beta 160.283225
_cell_angle_gamma 90.000000
_cell_volume 614.381095
_symmetry_space_group_name_H-M "P 21"
_symmetry_group_IT_number 4
_symmetry_cell_setting 'monoclinic'
loop_
_space_group_symop_operation_xyz
x,y,z
-x,1/2+y,-z
loop_
_atom_site_type_symbol
_atom_site_label
_atom_site_fract_x
_atom_site_fract_y
_atom_site_fract_z
Si Si1 0.178466 0.387920 0.405403
Si Si2 0.532189 0.061856 0.518820
Si Si3 0.274684 0.622683 0.856683
Si Si4 0.074444 0.235505 0.705380
Si Si5 0.701493 0.833040 0.756540
Si Si6 0.406876 0.345307 0.721353
Si Si7 0.130003 0.103314 0.994755
Si Si8 0.007025 0.638157 0.504080
O O1 0.340339 0.396431 0.442423
O O2 0.380793 0.317242 0.615350
O O3 0.886442 0.271765 0.207609
O O4 0.108194 0.596591 0.375549
O O5 0.468302 0.972983 0.554109
O O6 0.312431 0.162355 0.309208
O O7 0.835473 0.172556 0.748080
O O8 0.160442 0.426658 0.799197
O O9 0.180286 0.648549 0.703811
O O10 0.620260 0.639021 0.098500
O O11 0.926818 0.263939 0.520956
O O12 0.701124 0.752033 0.838104
O O13 0.993787 0.950247 0.952918
O O14 0.667368 0.486282 0.916551
O O15 0.334324 0.162778 0.713381
O O16 0.118636 0.454148 0.544171
#
# Coordination Sequence:
#
# PCOD9115622 Si02
#       8
#     2   2   2   2   2   2   2   2
#     4  10  22  41  61 100 135 179 228 291 345 415
#     4  10  24  44  72  95 139 177 227 307 361 416
#     4  11  22  37  61  91 135 183 227 280 332 412
#     4  11  22  37  61  92 135 176 239 273 334 412
#     4  10  24  44  73 102 137 179 234 297 368 421
#     4  10  20  41  66  93 139 181 228 275 350 413
#     4  10  24  42  73  99 135 184 229 288 356 439
#     4  10  22  38  61  90 137 179 222 275 334 394
#
# _framework density 26.042466000000001
#
# number of rings (size 3 to 8) (size 9 to 14) (size 15 to 20)
#    0.750    1.000    3.750    0.000    5.250    0.000 
#    2.250    2.500    0.000    0.000    0.000    0.000 
#    0.000    0.000    0.000    0.000    0.000    0.000 
#
# Total GULP energy -89188.669899 kJ/mol
# GULP energy per Si atom -5574.291869 kJ/mol
# Density = 2.598319 g / cm^3
# Si number density = 26.042466 Si / 1000 Ang^3
#
#
#
# Elastic Constant Matrix: (Units=GPa)
#
#
# Indices 1 2 3 4 5 6 
#
# 1 98.8511 7.3161 16.2450 0.0000 -10.7942 0.0000
# 2 7.3161 56.9169 -1.9652 0.0000 -1.6435 0.0000
# 3 16.2450 -1.9652 59.2250 0.0000 -0.1042 0.0000
# 4 0.0000 0.0000 0.0000 27.4062 0.0000 -8.1974
# 5 -10.7942 -1.6435 -0.1042 0.0000 38.5169 0.0000
# 6 0.0000 0.0000 0.0000 -8.1974 0.0000 53.5924
#
#
#
# Elastic Compliance Matrix: (Units=1/GPa)
#
#
# Indices 1 2 3 4 5 6 
#
# 1 0.011059 -0.001440 -0.003076 0.000000 0.003030 0.000000
# 2 -0.001440 0.017799 0.000986 0.000000 0.000359 0.000000
# 3 -0.003076 0.000986 0.017760 0.000000 -0.000772 0.000000
# 4 0.000000 0.000000 0.000000 0.038237 0.000000 0.005849
# 5 0.003030 0.000359 -0.000772 0.000000 0.026825 0.000000
# 6 0.000000 0.000000 0.000000 0.005849 0.000000 0.019554
#
#
# Mechanical properties :
#
#
# Convention : Reuss Voigt Hill
#
# Bulk Modulus (GPa) = 25.27920 28.68719 26.98319
# Shear Modulus (GPa) = 33.00766 36.79626 34.90196
#
# Velocity S-wave (km/s) = 3.56400 3.76298 3.66484
# Velocity P-wave (km/s) = 5.16373 5.46987 5.31900
#
# Compressibility (1/GPa) = 0.03955822
#
# Stress axis : x y z
#
# Youngs Moduli (GPa) = 90.42311 56.18294 56.30686
#
# Poissons Ratio (x) = 0.08092 0.17319
# Poissons Ratio (y) = 0.13023 -0.05554
# Poissons Ratio (z) = 0.27813 -0.05541
#
# Static dielectric constant tensor:
#      x y z
#    x 2.053420 0.000000 0.011370 
#    y 0.000000 2.300160 0.000000 
#    z 0.011370 0.000000 2.031870 
# 
# From -- ./inp_files/10794.got.cif
#   From: 2010.05.17/outbox.cif.g08.bks.cpg/sg4_6_cif.got.tgz:10794.got - 2010.06.03 18:43:04.
