data_PCOD9115900
_publ_section_title
;
Structure prediction by ZEFSAII (Michael W. Deem and Ramdas Pophale) SiO2 
 PCOD9115900
Probable space group: P 21
;
_chemical_formula_sum "Si O2"
_cell_formula_units_Z 12
_cell_length_a 7.913418
_cell_length_b 5.402830
_cell_length_c 19.682298
_cell_angle_alpha 90.000000
_cell_angle_beta 150.333557
_cell_angle_gamma 90.000000
_cell_volume 416.507094
_symmetry_space_group_name_H-M "P 21"
_symmetry_group_IT_number 4
_symmetry_cell_setting 'monoclinic'
loop_
_space_group_symop_operation_xyz
x,y,z
-x,1/2+y,-z
loop_
_atom_site_type_symbol
_atom_site_label
_atom_site_fract_x
_atom_site_fract_y
_atom_site_fract_z
Si Si1 0.971925 0.094010 0.425031
Si Si2 0.605417 0.801434 0.199673
Si Si3 0.394583 0.368350 0.300327
Si Si4 0.971926 0.575775 0.925031
Si Si5 0.287385 0.310511 0.413453
Si Si6 0.287385 0.359269 0.913453
O O1 0.873959 0.835141 0.353992
O O2 0.680758 0.170007 0.375400
O O3 0.996667 0.278206 0.368845
O O4 0.342204 0.086915 0.589343
O O5 0.319242 0.999777 0.124600
O O6 0.798752 0.848536 0.196438
O O7 0.342204 0.582870 0.089343
O O8 0.126042 0.334644 0.146008
O O9 0.201249 0.321246 0.303563
O O10 0.996668 0.391578 0.868846
O O11 0.487807 0.563099 0.498634
O O12 0.487804 0.106678 0.998632
#
# Coordination Sequence:
#
# PCOD9115900 Si02
#       6
#     2   2   2   2   2   2
#     4  10  21  38  60  90 126 165 210 259 313 372
#     4  10  21  38  60  90 126 165 210 259 313 372
#     4  10  21  38  60  90 126 165 210 259 313 372
#     4  10  21  38  60  90 126 165 210 259 313 372
#     4  10  21  40  65  94 127 164 209 258 311 370
#     4  10  21  40  65  94 127 164 209 258 311 370
#
# _framework density 28.811031
#
# number of rings (size 3 to 8) (size 9 to 14) (size 15 to 20)
#    0.000    2.000    0.000    3.000    0.000    1.333 
#    0.000   48.333    0.000    0.000    0.000    0.000 
#    0.000    0.000    0.000    0.000    0.000    0.000 
#
# Total GULP energy -67143.620049 kJ/mol
# GULP energy per Si atom -5595.301671 kJ/mol
# Density = 2.874546 g / cm^3
# Si number density = 28.811031 Si / 1000 Ang^3
#
#
#
# Elastic Constant Matrix: (Units=GPa)
#
#
# Indices 1 2 3 4 5 6 
#
# 1 155.5376 71.0608 51.0292 0.0000 -11.7039 0.0000
# 2 71.0608 94.4595 51.3637 0.0000 2.1159 0.0000
# 3 51.0292 51.3637 112.6147 0.0000 -10.3805 0.0000
# 4 0.0000 0.0000 0.0000 29.6471 0.0000 5.1064
# 5 -11.7039 2.1159 -10.3805 0.0000 60.5883 0.0000
# 6 0.0000 0.0000 0.0000 5.1064 0.0000 55.2355
#
#
#
# Elastic Compliance Matrix: (Units=1/GPa)
#
#
# Indices 1 2 3 4 5 6 
#
# 1 0.010206 -0.007060 -0.001220 0.000000 0.002009 0.000000
# 2 -0.007060 0.019119 -0.005800 0.000000 -0.003025 0.000000
# 3 -0.001220 -0.005800 0.012269 0.000000 0.002069 0.000000
# 4 0.000000 0.000000 0.000000 0.034276 0.000000 -0.003169
# 5 0.002009 -0.003025 0.002069 0.000000 0.017353 0.000000
# 6 0.000000 0.000000 0.000000 -0.003169 0.000000 0.018397
#
#
# Mechanical properties :
#
#
# Convention : Reuss Voigt Hill
#
# Bulk Modulus (GPa) = 74.43245 78.83545 76.63395
# Shear Modulus (GPa) = 34.66038 41.70473 38.18255
#
# Velocity S-wave (km/s) = 3.47223 3.80876 3.64438
# Velocity P-wave (km/s) = 6.47811 6.83846 6.66073
#
# Compressibility (1/GPa) = 0.01343500
#
# Stress axis : x y z
#
# Youngs Moduli (GPa) = 97.98179 52.30358 81.50898
#
# Poissons Ratio (x) = 0.36925 0.09940
# Poissons Ratio (y) = 0.69172 0.47276
# Poissons Ratio (z) = 0.11949 0.30337
#
# Static dielectric constant tensor:
#      x y z
#    x 2.268310 0.000000 -0.008100 
#    y 0.000000 2.320940 0.000000 
#    z -0.008100 0.000000 2.207910 
# 
# From -- ./inp_files/9065.got.cif
#   From: 2010.05.17/outbox.cif.g08.bks.cpg/sg4_5_cif.got.tgz:9065.got - 2010.06.03 18:43:04.
