data_PCOD9115849
_publ_section_title
;
Structure prediction by ZEFSAII (Michael W. Deem and Ramdas Pophale) SiO2 
 PCOD9115849
Probable space group: P 21
;
_chemical_formula_sum "Si O2"
_cell_formula_units_Z 12
_cell_length_a 13.368782
_cell_length_b 7.481458
_cell_length_c 14.266002
_cell_angle_alpha 90.000000
_cell_angle_beta 20.849195
_cell_angle_gamma 90.000000
_cell_volume 507.831842
_symmetry_space_group_name_H-M "P 21"
_symmetry_group_IT_number 4
_symmetry_cell_setting 'monoclinic'
loop_
_space_group_symop_operation_xyz
x,y,z
-x,1/2+y,-z
loop_
_atom_site_type_symbol
_atom_site_label
_atom_site_fract_x
_atom_site_fract_y
_atom_site_fract_z
Si Si1 0.903282 0.266640 0.511917
Si Si2 0.838004 0.469636 0.265019
Si Si3 0.132236 0.349943 0.505769
Si Si4 0.285240 0.695447 0.776345
Si Si5 0.289618 0.318907 0.012076
Si Si6 0.738944 0.396290 0.011577
O O1 0.951624 0.268984 0.580189
O O2 0.169676 0.339511 0.222066
O O3 0.879679 0.062101 0.501713
O O4 0.619063 0.363404 0.726932
O O5 0.567140 0.578051 0.536746
O O6 0.726769 0.289028 0.313903
O O7 0.077101 0.425202 0.131832
O O8 0.009167 0.577677 0.035980
O O9 0.001392 0.322662 0.722789
O O10 0.459289 0.306407 0.213653
O O11 0.270426 0.841534 0.872293
O O12 0.270642 0.110245 0.995731
#
# Coordination Sequence:
#
# PCOD9115849 Si02
#       6
#     2   2   2   2   2   2
#     4  10  21  37  60  90 126 169 212 259 312 369
#     4  12  26  44  68  98 128 167 212 264 322 384
#     4  10  21  37  60  90 126 169 212 259 312 369
#     4  12  26  44  68  98 128 167 212 264 322 384
#     4  10  22  41  63  90 128 170 212 261 316 373
#     4  10  22  41  63  90 128 170 212 261 316 373
#
# _framework density 23.629867000000001
#
# number of rings (size 3 to 8) (size 9 to 14) (size 15 to 20)
#    0.000    1.333    0.000    5.000    0.000    8.000 
#    0.000    0.000    0.000    0.000    0.000    0.000 
#    0.000    0.000    0.000    0.000    0.000    0.000 
#
# Total GULP energy -67156.577001 kJ/mol
# GULP energy per Si atom -5596.381417 kJ/mol
# Density = 2.357608 g / cm^3
# Si number density = 23.629867 Si / 1000 Ang^3
#
#
#
# Elastic Constant Matrix: (Units=GPa)
#
#
# Indices 1 2 3 4 5 6 
#
# 1 61.6199 2.5203 -3.6380 0.0000 -3.0436 0.0000
# 2 2.5203 51.0096 20.2005 0.0000 2.1634 0.0000
# 3 -3.6380 20.2005 127.2976 0.0000 -1.2730 0.0000
# 4 0.0000 0.0000 0.0000 24.5030 0.0000 0.1690
# 5 -3.0436 2.1634 -1.2730 0.0000 25.5084 0.0000
# 6 0.0000 0.0000 0.0000 0.1690 0.0000 30.8817
#
#
#
# Elastic Compliance Matrix: (Units=1/GPa)
#
#
# Indices 1 2 3 4 5 6 
#
# 1 0.016419 -0.001167 0.000675 0.000000 0.002092 0.000000
# 2 -0.001167 0.021098 -0.003402 0.000000 -0.002098 0.000000
# 3 0.000675 -0.003402 0.008423 0.000000 0.000789 0.000000
# 4 0.000000 0.000000 0.000000 0.040813 0.000000 -0.000223
# 5 0.002092 -0.002098 0.000789 0.000000 0.039670 0.000000
# 6 0.000000 0.000000 0.000000 -0.000223 0.000000 0.032383
#
#
# Mechanical properties :
#
#
# Convention : Reuss Voigt Hill
#
# Bulk Modulus (GPa) = 26.21123 30.89920 28.55522
# Shear Modulus (GPa) = 27.88438 30.90158 29.39298
#
# Velocity S-wave (km/s) = 3.43891 3.62018 3.53071
# Velocity P-wave (km/s) = 5.18504 5.52983 5.36021
#
# Compressibility (1/GPa) = 0.03815159
#
# Stress axis : x y z
#
# Youngs Moduli (GPa) = 60.90331 47.39734 118.72654
#
# Poissons Ratio (x) = 0.05534 -0.08019
# Poissons Ratio (y) = 0.07110 0.40395
# Poissons Ratio (z) = -0.04114 0.16126
#
# Static dielectric constant tensor:
#      x y z
#    x 1.874750 0.000000 0.004470 
#    y 0.000000 1.936740 0.000000 
#    z 0.004470 0.000000 1.841330 
# 
# From -- ./inp_files/2648.got.cif
#   From: 2010.05.17/outbox.cif.g08.bks.cpg/sg4_2_cif.got.tgz:2648.got - 2010.06.03 18:43:04.
