data_PCOD9115524
_publ_section_title
;
Structure prediction by ZEFSAII (Michael W. Deem and Ramdas Pophale) SiO2 
 PCOD9115524
Probable space group: P 21
;
_chemical_formula_sum "Si O2"
_cell_formula_units_Z 16
_cell_length_a 14.511893
_cell_length_b 8.315253
_cell_length_c 5.221631
_cell_angle_alpha 90.000000
_cell_angle_beta 101.996047
_cell_angle_gamma 90.000000
_cell_volume 616.334495
_symmetry_space_group_name_H-M "P 21"
_symmetry_group_IT_number 4
_symmetry_cell_setting 'monoclinic'
loop_
_space_group_symop_operation_xyz
x,y,z
-x,1/2+y,-z
loop_
_atom_site_type_symbol
_atom_site_label
_atom_site_fract_x
_atom_site_fract_y
_atom_site_fract_z
Si Si1 0.306561 0.993400 0.128020
Si Si2 0.256260 0.481895 0.905356
Si Si3 0.004283 0.848174 0.811371
Si Si4 0.951005 0.009750 0.294661
Si Si5 0.507499 0.098059 0.456711
Si Si6 0.208479 0.275599 0.288853
Si Si7 0.607742 0.796313 0.298513
Si Si8 0.321212 0.791750 0.633009
O O1 0.284343 0.861606 0.339303
O O2 0.409434 0.063616 0.257757
O O3 0.231086 0.135613 0.097042
O O4 0.314255 0.923242 0.850481
O O5 0.152898 0.430412 0.740228
O O6 0.354877 0.384113 0.932024
O O7 0.275495 0.640569 0.753066
O O8 0.232024 0.454249 0.189850
O O9 0.900917 0.768220 0.725218
O O10 0.068972 0.695358 0.790624
O O11 0.006235 0.982136 0.590694
O O12 0.005807 0.924514 0.092822
O O13 0.471876 0.160970 0.714370
O O14 0.572865 0.235088 0.371392
O O15 0.568076 0.937986 0.457255
O O16 0.290225 0.241340 0.538849
#
# Coordination Sequence:
#
# PCOD9115524 Si02
#       8
#     2   2   2   2   2   2   2   2
#     4  11  26  42  62  95 130 171 224 277 331 386
#     4  10  24  41  68  93 131 175 216 269 330 399
#     4  11  24  44  70 103 135 175 220 272 336 402
#     4  11  24  44  70 103 135 175 220 272 336 402
#     4  10  22  38  64  86 128 168 220 268 324 380
#     4  10  24  41  68  93 131 175 216 269 330 399
#     4  10  20  40  60  92 124 168 216 266 318 384
#     4  11  26  42  62  95 130 171 224 277 331 386
#
# _framework density 25.959928999999999
#
# number of rings (size 3 to 8) (size 9 to 14) (size 15 to 20)
#    0.000    1.500    2.500    0.750    7.000    7.000 
#    0.000    0.000    0.000    0.000    0.000    0.000 
#    0.000    0.000    0.000    0.000    0.000    0.000 
#
# Total GULP energy -89310.754806 kJ/mol
# GULP energy per Si atom -5581.922175 kJ/mol
# Density = 2.590084 g / cm^3
# Si number density = 25.959929 Si / 1000 Ang^3
#
#
#
# Elastic Constant Matrix: (Units=GPa)
#
#
# Indices 1 2 3 4 5 6 
#
# 1 69.2531 2.7548 22.2826 0.0000 -16.1124 0.0000
# 2 2.7548 76.9418 26.5677 0.0000 -17.9255 0.0000
# 3 22.2826 26.5677 87.8249 0.0000 -18.1285 0.0000
# 4 0.0000 0.0000 0.0000 44.7585 0.0000 -18.4710
# 5 -16.1124 -17.9255 -18.1285 0.0000 24.7455 0.0000
# 6 0.0000 0.0000 0.0000 -18.4710 0.0000 42.5593
#
#
#
# Elastic Compliance Matrix: (Units=1/GPa)
#
#
# Indices 1 2 3 4 5 6 
#
# 1 0.018053 0.003170 -0.003109 0.000000 0.011774 0.000000
# 2 0.003170 0.016808 -0.003475 0.000000 0.011694 0.000000
# 3 -0.003109 -0.003475 0.014478 0.000000 0.006065 0.000000
# 4 0.000000 0.000000 0.000000 0.027217 0.000000 0.011812
# 5 0.011774 0.011694 0.006065 0.000000 0.060992 0.000000
# 6 0.000000 0.000000 0.000000 0.011812 0.000000 0.028623
#
#
# Mechanical properties :
#
#
# Convention : Reuss Voigt Hill
#
# Bulk Modulus (GPa) = 23.52314 37.47000 30.49657
# Shear Modulus (GPa) = 26.71377 34.57363 30.64370
#
# Velocity S-wave (km/s) = 3.21134 3.65335 3.43946
# Velocity P-wave (km/s) = 4.77821 5.67989 5.24845
#
# Compressibility (1/GPa) = 0.04251134
#
# Stress axis : x y z
#
# Youngs Moduli (GPa) = 55.39147 59.49699 69.06904
#
# Poissons Ratio (x) = -0.18862 0.21474
# Poissons Ratio (y) = -0.17560 0.24001
# Poissons Ratio (z) = 0.17222 0.20675
#
# Static dielectric constant tensor:
#      x y z
#    x 1.973450 0.000000 -0.004050 
#    y 0.000000 2.221510 0.000000 
#    z -0.004050 0.000000 2.130180 
# 
# From -- ./inp_files/3426.got.cif
#   From: 2010.05.17/outbox.cif.g08.bks.cpg/sg4_2_cif.got.tgz:3426.got - 2010.06.03 18:43:04.
