data_PCOD9115388
_publ_section_title
;
Structure prediction by ZEFSAII (Michael W. Deem and Ramdas Pophale) SiO2 
 PCOD9115388
Probable space group: P 21
;
_chemical_formula_sum "Si O2"
_cell_formula_units_Z 16
_cell_length_a 6.546512
_cell_length_b 9.046882
_cell_length_c 11.729574
_cell_angle_alpha 90.000000
_cell_angle_beta 60.484257
_cell_angle_gamma 90.000000
_cell_volume 604.533503
_symmetry_space_group_name_H-M "P 21"
_symmetry_group_IT_number 4
_symmetry_cell_setting 'monoclinic'
loop_
_space_group_symop_operation_xyz
x,y,z
-x,1/2+y,-z
loop_
_atom_site_type_symbol
_atom_site_label
_atom_site_fract_x
_atom_site_fract_y
_atom_site_fract_z
Si Si1 0.235188 0.617220 0.855235
Si Si2 0.970396 0.943889 0.761318
Si Si3 0.046391 0.909736 0.215100
Si Si4 0.423807 0.354498 0.965316
Si Si5 0.606160 0.350171 0.508379
Si Si6 0.644484 0.672154 0.599016
Si Si7 0.863414 0.202935 0.614845
Si Si8 0.825122 0.670594 0.128586
O O1 0.329583 0.482097 0.906278
O O2 0.469210 0.698372 0.750820
O O3 0.077030 0.559131 0.792357
O O4 0.050735 0.698952 0.985189
O O5 0.126805 0.016781 0.820806
O O6 0.871177 0.074942 0.707047
O O7 0.155296 0.859363 0.631755
O O8 0.750855 0.861559 0.879385
O O9 0.304129 0.888768 0.087499
O O10 0.098366 0.859320 0.329700
O O11 0.863295 0.789667 0.217156
O O12 0.387427 0.206019 0.899040
O O13 0.570585 0.512015 0.569929
O O14 0.408239 0.298170 0.477994
O O15 0.639449 0.228555 0.598023
O O16 0.922056 0.670291 0.529616
#
# Coordination Sequence:
#
# PCOD9115388 Si02
#       8
#     2   2   2   2   2   2   2   2
#     4  10  21  36  58  88 118 154 207 261 315 383
#     4   9  21  40  61  93 128 169 226 269 320 399
#     4  10  21  37  59  86 119 158 207 258 319 391
#     4  10  20  38  62  88 124 166 205 268 335 375
#     4  11  24  42  65  93 130 174 222 272 325 391
#     4  11  24  42  66  93 125 172 221 271 331 387
#     4  10  23  41  59  88 129 169 214 266 320 389
#     4   9  20  38  58  87 123 158 206 267 325 385
#
# _framework density 26.466688999999999
#
# number of rings (size 3 to 8) (size 9 to 14) (size 15 to 20)
#    0.000    2.000    0.000    2.250    0.000   13.000 
#    0.000    6.250    0.000    0.000    0.000    0.000 
#    0.000    0.000    0.000    0.000    0.000    0.000 
#
# Total GULP energy -89529.304089 kJ/mol
# GULP energy per Si atom -5595.581506 kJ/mol
# Density = 2.640645 g / cm^3
# Si number density = 26.466689 Si / 1000 Ang^3
#
#
#
# Elastic Constant Matrix: (Units=GPa)
#
#
# Indices 1 2 3 4 5 6 
#
# 1 96.3766 21.9549 30.7653 0.0000 -19.5958 0.0000
# 2 21.9549 50.4188 7.1168 0.0000 6.9859 0.0000
# 3 30.7653 7.1168 128.8584 0.0000 -18.4374 0.0000
# 4 0.0000 0.0000 0.0000 36.5734 0.0000 4.6073
# 5 -19.5958 6.9859 -18.4374 0.0000 38.0786 0.0000
# 6 0.0000 0.0000 0.0000 4.6073 0.0000 38.4959
#
#
#
# Elastic Compliance Matrix: (Units=1/GPa)
#
#
# Indices 1 2 3 4 5 6 
#
# 1 0.014108 -0.006931 -0.001896 0.000000 0.007614 0.000000
# 2 -0.006931 0.024144 -0.000884 0.000000 -0.008424 0.000000
# 3 -0.001896 -0.000884 0.008752 0.000000 0.003424 0.000000
# 4 0.000000 0.000000 0.000000 0.027761 0.000000 -0.003322
# 5 0.007614 -0.008424 0.003424 0.000000 0.033383 0.000000
# 6 0.000000 0.000000 0.000000 -0.003322 0.000000 0.026374
#
#
# Mechanical properties :
#
#
# Convention : Reuss Voigt Hill
#
# Bulk Modulus (GPa) = 36.25552 43.92531 40.09041
# Shear Modulus (GPa) = 30.64890 37.01738 33.83314
#
# Velocity S-wave (km/s) = 3.40666 3.74390 3.57925
# Velocity P-wave (km/s) = 5.40389 5.94319 5.67994
#
# Compressibility (1/GPa) = 0.02758201
#
# Stress axis : x y z
#
# Youngs Moduli (GPa) = 70.88109 41.41838 114.26060
#
# Poissons Ratio (x) = 0.28706 0.21666
# Poissons Ratio (y) = 0.49125 0.10102
# Poissons Ratio (z) = 0.13440 0.03662
#
# Static dielectric constant tensor:
#      x y z
#    x 2.033180 0.000000 -0.004800 
#    y 0.000000 2.070020 0.000000 
#    z -0.004800 0.000000 2.098400 
# 
# From -- ./inp_files/2769.got.cif
#   From: 2010.05.17/outbox.cif.g08.bks.cpg/sg4_2_cif.got.tgz:2769.got - 2010.06.03 18:43:04.
