data_PCOD9115828
_publ_section_title
;
Structure prediction by ZEFSAII (Michael W. Deem and Ramdas Pophale) SiO2 
 PCOD9115828
Probable space group: P 21
;
_chemical_formula_sum "Si O2"
_cell_formula_units_Z 16
_cell_length_a 7.714132
_cell_length_b 7.980959
_cell_length_c 13.351630
_cell_angle_alpha 90.000000
_cell_angle_beta 132.162305
_cell_angle_gamma 90.000000
_cell_volume 609.310987
_symmetry_space_group_name_H-M "P 21"
_symmetry_group_IT_number 4
_symmetry_cell_setting 'monoclinic'
loop_
_space_group_symop_operation_xyz
x,y,z
-x,1/2+y,-z
loop_
_atom_site_type_symbol
_atom_site_label
_atom_site_fract_x
_atom_site_fract_y
_atom_site_fract_z
Si Si1 0.917392 0.446880 0.739999
Si Si2 0.248085 0.462022 0.377441
Si Si3 0.096365 0.275935 0.142229
Si Si4 0.586788 0.189844 0.246379
Si Si5 0.432159 0.340504 0.637396
Si Si6 0.584883 0.986872 0.056504
Si Si7 0.595944 0.194293 0.884379
Si Si8 0.257430 0.817340 0.503341
O O1 0.870504 0.631527 0.761526
O O2 0.696700 0.347440 0.696444
O O3 0.933661 0.427242 0.627014
O O4 0.171104 0.397352 0.875305
O O5 0.084407 0.434327 0.215555
O O6 0.253975 0.336459 0.476350
O O7 0.246066 0.638941 0.437430
O O8 0.501956 0.415884 0.428422
O O9 0.329327 0.271149 0.165064
O O10 0.879251 0.205339 0.991615
O O11 0.634119 0.146430 0.149408
O O12 0.758613 0.294239 0.384749
O O13 0.586679 0.012054 0.306368
O O14 0.449570 0.197516 0.726676
O O15 0.437980 0.864739 0.066112
O O16 0.494737 0.052497 0.916976
#
# Coordination Sequence:
#
# PCOD9115828 Si02
#       8
#     2   2   2   2   2   2   2   2
#     4   9  18  34  55  78 108 144 183 229 280 329
#     4   9  16  30  54  82 108 134 182 239 274 315
#     4   9  18  34  56  80 105 142 188 233 273 323
#     4   8  16  33  54  75 106 143 178 220 274 326
#     4   8  16  33  55  76 102 141 183 223 269 322
#     4  10  21  37  53  78 116 148 179 230 284 331
#     4  10  21  37  55  77 110 151 187 226 277 330
#     4   9  16  30  54  82 109 143 180 224 279 330
#
# _framework density 26.259169
#
# number of rings (size 3 to 8) (size 9 to 14) (size 15 to 20)
#    0.000    3.000    0.000    2.250    0.000    2.000 
#    0.000   22.500    0.000    1.500    0.000    0.000 
#    0.000    0.000    0.000    0.000    0.000    0.000 
#
# Total GULP energy -89176.245925 kJ/mol
# GULP energy per Si atom -5573.515370 kJ/mol
# Density = 2.619940 g / cm^3
# Si number density = 26.259169 Si / 1000 Ang^3
#
#
#
# Elastic Constant Matrix: (Units=GPa)
#
#
# Indices 1 2 3 4 5 6 
#
# 1 77.3717 5.7671 14.9884 0.0000 -10.9093 0.0000
# 2 5.7671 40.2357 15.9821 0.0000 -8.7803 0.0000
# 3 14.9884 15.9821 56.5595 0.0000 -27.5380 0.0000
# 4 0.0000 0.0000 0.0000 37.1960 0.0000 -16.0856
# 5 -10.9093 -8.7803 -27.5380 0.0000 25.6934 0.0000
# 6 0.0000 0.0000 0.0000 -16.0856 0.0000 28.3952
#
#
#
# Elastic Compliance Matrix: (Units=1/GPa)
#
#
# Indices 1 2 3 4 5 6 
#
# 1 0.013832 -0.000481 -0.001569 0.000000 0.004027 0.000000
# 2 -0.000481 0.028076 -0.006764 0.000000 0.002141 0.000000
# 3 -0.001569 -0.006764 0.038811 0.000000 0.038620 0.000000
# 4 0.000000 0.000000 0.000000 0.035608 0.000000 0.020172
# 5 0.004027 0.002141 0.038620 0.000000 0.082755 0.000000
# 6 0.000000 0.000000 0.000000 0.020172 0.000000 0.046644
#
#
# Mechanical properties :
#
#
# Convention : Reuss Voigt Hill
#
# Bulk Modulus (GPa) = 15.84959 27.51578 21.68269
# Shear Modulus (GPa) = 17.58190 27.41888 22.50039
#
# Velocity S-wave (km/s) = 2.59038 3.23486 2.93039
# Velocity P-wave (km/s) = 3.87243 4.94507 4.44125
#
# Compressibility (1/GPa) = 0.06309310
#
# Stress axis : x y z
#
# Youngs Moduli (GPa) = 72.29504 35.61726 25.76598
#
# Poissons Ratio (x) = 0.01712 0.04043
# Poissons Ratio (y) = 0.03474 0.17427
# Poissons Ratio (z) = 0.11343 0.24090
#
# Static dielectric constant tensor:
#      x y z
#    x 2.035060 0.000000 -0.003680 
#    y 0.000000 2.205440 0.000000 
#    z -0.003680 0.000000 2.163390 
# 
# From -- ./inp_files/13678.got.cif
#   From: 2010.05.17/outbox.cif.g08.bks.cpg/sg4_7_cif.got.tgz:13678.got - 2010.06.03 18:43:04.
