data_PCOD9115343
_publ_section_title
;
Structure prediction by ZEFSAII (Michael W. Deem and Ramdas Pophale) SiO2 
 PCOD9115343
Probable space group: P 21
;
_chemical_formula_sum "Si O2"
_cell_formula_units_Z 16
_cell_length_a 20.631405
_cell_length_b 8.038098
_cell_length_c 7.936158
_cell_angle_alpha 90.000000
_cell_angle_beta 29.079666
_cell_angle_gamma 90.000000
_cell_volume 639.663015
_symmetry_space_group_name_H-M "P 21"
_symmetry_group_IT_number 4
_symmetry_cell_setting 'monoclinic'
loop_
_space_group_symop_operation_xyz
x,y,z
-x,1/2+y,-z
loop_
_atom_site_type_symbol
_atom_site_label
_atom_site_fract_x
_atom_site_fract_y
_atom_site_fract_z
Si Si1 0.295783 0.992580 0.633591
Si Si2 0.148017 0.014588 0.517196
Si Si3 0.907278 0.870698 0.217339
Si Si4 0.437822 0.495443 0.815990
Si Si5 0.657530 0.853072 0.630456
Si Si6 0.178158 0.480962 0.221327
Si Si7 0.394385 0.856565 0.078765
Si Si8 0.061401 0.139518 0.356967
O O1 0.402123 0.973807 0.545349
O O2 0.322265 0.857921 0.427061
O O3 0.334943 0.166299 0.453907
O O4 0.146835 0.026549 0.033723
O O5 0.300277 0.962836 0.172916
O O6 0.086856 0.053968 0.477290
O O7 0.128807 0.180428 0.668670
O O8 0.056796 0.879900 0.815703
O O9 0.803943 0.932116 0.308870
O O10 0.876632 0.960796 0.462642
O O11 0.390429 0.364929 0.066685
O O12 0.338399 0.481734 0.882670
O O13 0.407931 0.675922 0.965663
O O14 0.540193 0.931788 0.786165
O O15 0.094499 0.634851 0.336474
O O16 0.129467 0.320020 0.225972
#
# Coordination Sequence:
#
# PCOD9115343 Si02
#       8
#     2   2   2   2   2   2   2   2
#     4  10  20  42  66  94 127 163 202 262 321 372
#     4  11  24  39  63  92 122 168 210 260 310 369
#     4  10  22  40  63  91 121 163 217 257 308 368
#     4   9  21  40  66  96 124 160 217 258 302 374
#     4   9  19  37  65  92 122 160 206 263 307 361
#     4  10  24  44  62  88 130 169 208 259 308 376
#     4  10  20  37  69  92 121 159 213 262 303 371
#     4  11  26  43  60  91 133 168 205 259 321 375
#
# _framework density 25.013169000000001
#
# number of rings (size 3 to 8) (size 9 to 14) (size 15 to 20)
#    0.000    2.000    1.250    0.750    7.000    0.000 
#    4.500    0.000    0.000    0.000    0.000    0.000 
#    0.000    0.000    0.000    0.000    0.000    0.000 
#
# Total GULP energy -89408.200306 kJ/mol
# GULP energy per Si atom -5588.012519 kJ/mol
# Density = 2.495624 g / cm^3
# Si number density = 25.013169 Si / 1000 Ang^3
#
#
#
# Elastic Constant Matrix: (Units=GPa)
#
#
# Indices 1 2 3 4 5 6 
#
# 1 130.8269 14.0647 47.7901 0.0000 -47.3365 0.0000
# 2 14.0647 48.8833 -0.7915 0.0000 -3.1968 0.0000
# 3 47.7901 -0.7915 42.5188 0.0000 -21.8772 0.0000
# 4 0.0000 0.0000 0.0000 21.6136 0.0000 -6.7223
# 5 -47.3365 -3.1968 -21.8772 0.0000 55.2959 0.0000
# 6 0.0000 0.0000 0.0000 -6.7223 0.0000 27.9510
#
#
#
# Elastic Compliance Matrix: (Units=1/GPa)
#
#
# Indices 1 2 3 4 5 6 
#
# 1 0.016172 -0.004359 -0.014144 0.000000 0.007997 0.000000
# 2 -0.004359 0.021762 0.005063 0.000000 -0.000471 0.000000
# 3 -0.014144 0.005063 0.041977 0.000000 0.004792 0.000000
# 4 0.000000 0.000000 0.000000 0.050008 0.000000 0.012027
# 5 0.007997 -0.000471 0.004792 0.000000 0.026799 0.000000
# 6 0.000000 0.000000 0.000000 0.012027 0.000000 0.038669
#
#
# Mechanical properties :
#
#
# Convention : Reuss Voigt Hill
#
# Bulk Modulus (GPa) = 18.85731 38.26173 28.55952
# Shear Modulus (GPa) = 20.83810 31.71649 26.27729
#
# Velocity S-wave (km/s) = 2.88945 3.56475 3.24472
# Velocity P-wave (km/s) = 4.32287 5.68094 5.04779
#
# Compressibility (1/GPa) = 0.05302984
#
# Stress axis : x y z
#
# Youngs Moduli (GPa) = 61.83377 45.95108 23.82285
#
# Poissons Ratio (x) = 0.20031 0.33695
# Poissons Ratio (y) = 0.26954 -0.12060
# Poissons Ratio (z) = 0.87458 -0.23263
#
# Static dielectric constant tensor:
#      x y z
#    x 2.035850 0.000000 -0.056670 
#    y 0.000000 1.997130 0.000000 
#    z -0.056670 0.000000 1.991140 
# 
# From -- ./inp_files/9144.got.cif
#   From: 2010.05.17/outbox.cif.g08.bks.cpg/sg4_5_cif.got.tgz:9144.got - 2010.06.03 18:43:04.
