data_PCOD9115537
_publ_section_title
;
Structure prediction by ZEFSAII (Michael W. Deem and Ramdas Pophale) SiO2 
 PCOD9115537
Probable space group: P 21
;
_chemical_formula_sum "Si O2"
_cell_formula_units_Z 14
_cell_length_a 8.511029
_cell_length_b 11.936777
_cell_length_c 7.003855
_cell_angle_alpha 90.000000
_cell_angle_beta 51.667708
_cell_angle_gamma 90.000000
_cell_volume 558.160111
_symmetry_space_group_name_H-M "P 21"
_symmetry_group_IT_number 4
_symmetry_cell_setting 'monoclinic'
loop_
_space_group_symop_operation_xyz
x,y,z
-x,1/2+y,-z
loop_
_atom_site_type_symbol
_atom_site_label
_atom_site_fract_x
_atom_site_fract_y
_atom_site_fract_z
Si Si1 0.935253 0.000000 0.698532
Si Si2 0.085740 0.784146 0.800950
Si Si3 0.695149 0.061657 0.511215
Si Si4 0.736100 0.653869 0.605952
Si Si5 0.524462 0.358480 0.298241
Si Si6 0.337907 0.216241 0.903771
Si Si7 0.489837 0.439151 0.883386
O O1 0.856295 0.010839 0.540702
O O2 0.054171 0.115694 0.641564
O O3 0.727824 0.996028 0.968947
O O4 0.039259 0.881930 0.676996
O O5 0.189911 0.666558 0.665212
O O6 0.246508 0.843264 0.816402
O O7 0.868146 0.747724 0.044511
O O8 0.485286 0.115052 0.746940
O O9 0.602102 0.950476 0.487520
O O10 0.593517 0.740307 0.605226
O O11 0.742297 0.700460 0.817605
O O12 0.641511 0.531407 0.701984
O O13 0.520047 0.401351 0.081555
O O14 0.485938 0.321510 0.781470
#
# Coordination Sequence:
#
# PCOD9115537 Si02
#       7
#     2   2   2   2   2   2   2
#     4  10  21  37  68  91 116 171 216 247 309 375
#     4  11  24  43  61  95 133 159 210 265 314 373
#     4  11  22  43  64  91 127 168 208 258 310 373
#     4  11  19  40  65  90 120 168 208 257 306 370
#     4  10  24  40  61  97 132 158 208 264 313 369
#     4  10  20  40  63  88 121 162 212 255 299 379
#     4   9  20  41  62  90 123 160 216 254 299 377
#
# _framework density 25.082408000000001
#
# number of rings (size 3 to 8) (size 9 to 14) (size 15 to 20)
#    0.000    1.714    4.286    1.714    2.000    0.000 
#    5.143    4.286    0.000    0.000    0.000    0.000 
#    0.000    0.000    0.000    0.000    0.000    0.000 
#
# Total GULP energy -78172.153826 kJ/mol
# GULP energy per Si atom -5583.725273 kJ/mol
# Density = 2.502532 g / cm^3
# Si number density = 25.082408 Si / 1000 Ang^3
#
#
#
# Elastic Constant Matrix: (Units=GPa)
#
#
# Indices 1 2 3 4 5 6 
#
# 1 145.5947 79.6552 39.8213 0.0000 -26.7018 0.0000
# 2 79.6552 141.9290 23.9587 0.0000 3.9391 0.0000
# 3 39.8213 23.9587 48.0648 0.0000 -4.4614 0.0000
# 4 0.0000 0.0000 0.0000 36.2095 0.0000 -14.6530
# 5 -26.7018 3.9391 -4.4614 0.0000 27.0901 0.0000
# 6 0.0000 0.0000 0.0000 -14.6530 0.0000 56.7831
#
#
#
# Elastic Compliance Matrix: (Units=1/GPa)
#
#
# Indices 1 2 3 4 5 6 
#
# 1 0.016729 -0.008474 -0.008115 0.000000 0.016385 0.000000
# 2 -0.008474 0.012070 0.000066 0.000000 -0.010096 0.000000
# 3 -0.008115 0.000066 0.027167 0.000000 -0.003534 0.000000
# 4 0.000000 0.000000 0.000000 0.030837 0.000000 0.007958
# 5 0.016385 -0.010096 -0.003534 0.000000 0.053950 0.000000
# 6 0.000000 0.000000 0.000000 0.007958 0.000000 0.019664
#
#
# Mechanical properties :
#
#
# Convention : Reuss Voigt Hill
#
# Bulk Modulus (GPa) = 43.62586 69.16208 56.39397
# Shear Modulus (GPa) = 24.86292 36.82675 30.84484
#
# Velocity S-wave (km/s) = 3.15183 3.83591 3.51057
# Velocity P-wave (km/s) = 5.53860 6.87406 6.24215
#
# Compressibility (1/GPa) = 0.02292218
#
# Stress axis : x y z
#
# Youngs Moduli (GPa) = 59.77753 82.84719 36.80898
#
# Poissons Ratio (x) = 0.70201 0.29870
# Poissons Ratio (y) = 0.50653 -0.00245
# Poissons Ratio (z) = 0.48509 -0.00550
#
# Static dielectric constant tensor:
#      x y z
#    x 2.053690 0.000000 0.060240 
#    y 0.000000 1.943910 0.000000 
#    z 0.060240 0.000000 2.014960 
# 
# From -- ./inp_files/6360.got.cif
#   From: 2010.05.17/outbox.cif.g08.bks.cpg/sg4_4_cif.got.tgz:6360.got - 2010.06.03 18:43:04.
