data_PCOD9115836
_publ_section_title
;
Structure prediction by ZEFSAII (Michael W. Deem and Ramdas Pophale) SiO2 
 PCOD9115836
Probable space group: P 21
;
_chemical_formula_sum "Si O2"
_cell_formula_units_Z 16
_cell_length_a 7.654395
_cell_length_b 5.536609
_cell_length_c 17.646740
_cell_angle_alpha 90.000000
_cell_angle_beta 114.724702
_cell_angle_gamma 90.000000
_cell_volume 679.300420
_symmetry_space_group_name_H-M "P 21"
_symmetry_group_IT_number 4
_symmetry_cell_setting 'monoclinic'
loop_
_space_group_symop_operation_xyz
x,y,z
-x,1/2+y,-z
loop_
_atom_site_type_symbol
_atom_site_label
_atom_site_fract_x
_atom_site_fract_y
_atom_site_fract_z
Si Si1 0.624199 0.988710 0.885849
Si Si2 0.814245 0.914557 0.536883
Si Si3 0.359216 0.198233 0.709064
Si Si4 0.016732 0.991127 0.719549
Si Si5 0.747402 0.417131 0.450813
Si Si6 0.034848 0.017278 0.897736
Si Si7 0.362875 0.602292 0.788992
Si Si8 0.738137 0.007153 0.060483
O O1 0.562990 0.725845 0.847308
O O2 0.501658 0.142217 0.804049
O O3 0.847204 0.026665 0.914972
O O4 0.576416 0.026323 0.965434
O O5 0.716345 0.156354 0.484079
O O6 0.842521 0.938145 0.632170
O O7 0.031456 0.910497 0.540500
O O8 0.731178 0.650881 0.502712
O O9 0.140060 0.202264 0.701705
O O10 0.373732 0.016235 0.643243
O O11 0.389990 0.482887 0.710929
O O12 0.969865 0.038432 0.797716
O O13 0.183060 0.785672 0.748054
O O14 0.155163 0.255992 0.938341
O O15 0.143181 0.759764 0.923714
O O16 0.316004 0.480423 0.861578
#
# Coordination Sequence:
#
# PCOD9115836 Si02
#       8
#     2   2   2   2   2   2   2   2
#     4  11  26  38  64  90 126 165 217 258 320 373
#     4   9  18  30  54  85 112 152 192 248 298 363
#     4  10  21  37  58  88 124 159 200 259 314 372
#     4   9  20  37  60  87 123 158 208 250 312 373
#     4   9  19  30  52  83 121 144 193 248 308 351
#     4  11  24  44  62  92 123 169 207 268 309 376
#     4  10  23  37  62  91 126 169 205 266 314 379
#     4  11  25  43  64  88 127 166 216 259 313 373
#
# _framework density 23.553644999999999
#
# number of rings (size 3 to 8) (size 9 to 14) (size 15 to 20)
#    0.000    2.000    1.250    0.750   15.750    0.000 
#    0.000    0.000    0.000    1.500    0.000    0.000 
#    0.000    0.000    0.000    0.000    0.000    0.000 
#
# Total GULP energy -89160.707103 kJ/mol
# GULP energy per Si atom -5572.544194 kJ/mol
# Density = 2.350004 g / cm^3
# Si number density = 23.553645 Si / 1000 Ang^3
#
#
#
# Elastic Constant Matrix: (Units=GPa)
#
#
# Indices 1 2 3 4 5 6 
#
# 1 39.3038 17.2429 -0.2172 0.0000 2.0829 0.0000
# 2 17.2429 79.2464 20.7864 0.0000 5.9381 0.0000
# 3 -0.2172 20.7864 129.5656 0.0000 -20.1265 0.0000
# 4 0.0000 0.0000 0.0000 31.4738 0.0000 -3.4845
# 5 2.0829 5.9381 -20.1265 0.0000 16.0241 0.0000
# 6 0.0000 0.0000 0.0000 -3.4845 0.0000 13.8919
#
#
#
# Elastic Compliance Matrix: (Units=1/GPa)
#
#
# Indices 1 2 3 4 5 6 
#
# 1 0.028272 -0.006446 0.001095 0.000000 0.000089 0.000000
# 2 -0.006446 0.015880 -0.004153 0.000000 -0.010262 0.000000
# 3 0.001095 -0.004153 0.010688 0.000000 0.014821 0.000000
# 4 0.000000 0.000000 0.000000 0.032680 0.000000 0.008197
# 5 0.000089 -0.010262 0.014821 0.000000 0.084813 0.000000
# 6 0.000000 0.000000 0.000000 0.008197 0.000000 0.074040
#
#
# Mechanical properties :
#
#
# Convention : Reuss Voigt Hill
#
# Bulk Modulus (GPa) = 27.90617 35.97112 31.93865
# Shear Modulus (GPa) = 18.02947 26.29819 22.16383
#
# Velocity S-wave (km/s) = 2.76970 3.34507 3.07089
# Velocity P-wave (km/s) = 4.70127 5.49768 5.11500
#
# Compressibility (1/GPa) = 0.03583437
#
# Stress axis : x y z
#
# Youngs Moduli (GPa) = 35.37082 62.97415 93.55906
#
# Poissons Ratio (x) = 0.40591 -0.10248
# Poissons Ratio (y) = 0.22799 0.38851
# Poissons Ratio (z) = -0.03874 0.26150
#
# Static dielectric constant tensor:
#      x y z
#    x 1.901490 0.000000 -0.043510 
#    y 0.000000 2.185890 0.000000 
#    z -0.043510 0.000000 1.944390 
# 
# From -- ./inp_files/9502.got.cif
#   From: 2010.05.17/outbox.cif.g08.bks.cpg/sg4_5_cif.got.tgz:9502.got - 2010.06.03 18:43:04.
