data_PCOD9115354
_publ_section_title
;
Structure prediction by ZEFSAII (Michael W. Deem and Ramdas Pophale) SiO2 
 PCOD9115354
Probable space group: P 21
;
_chemical_formula_sum "Si O2"
_cell_formula_units_Z 16
_cell_length_a 9.779389
_cell_length_b 9.396696
_cell_length_c 7.800859
_cell_angle_alpha 90.000000
_cell_angle_beta 56.177913
_cell_angle_gamma 90.000000
_cell_volume 595.538868
_symmetry_space_group_name_H-M "P 21"
_symmetry_group_IT_number 4
_symmetry_cell_setting 'monoclinic'
loop_
_space_group_symop_operation_xyz
x,y,z
-x,1/2+y,-z
loop_
_atom_site_type_symbol
_atom_site_label
_atom_site_fract_x
_atom_site_fract_y
_atom_site_fract_z
Si Si1 0.315072 0.940240 0.236045
Si Si2 0.141891 0.654004 0.744104
Si Si3 0.831153 0.987133 0.760329
Si Si4 0.509008 0.275114 0.393060
Si Si5 0.978777 0.902217 0.005915
Si Si6 0.013458 0.756748 0.465754
Si Si7 0.311110 0.035808 0.633120
Si Si8 0.489387 0.679874 0.003843
O O1 0.153148 0.858344 0.287949
O O2 0.301397 0.988407 0.441078
O O3 0.354454 0.076569 0.091483
O O4 0.460969 0.822881 0.129025
O O5 0.328863 0.698820 0.641664
O O6 0.081154 0.716693 0.607497
O O7 0.037805 0.739561 0.962913
O O8 0.104589 0.487933 0.783209
O O9 0.976973 0.104921 0.632175
O O10 0.854906 0.927666 0.933645
O O11 0.665615 0.076087 0.853315
O O12 0.856327 0.855072 0.613167
O O13 0.355713 0.201721 0.595351
O O14 0.539100 0.441657 0.394811
O O15 0.513163 0.231834 0.191197
O O16 0.150246 0.982745 0.842104
#
# Coordination Sequence:
#
# PCOD9115354 Si02
#       8
#     2   2   2   2   2   2   2   2
#     4  10  20  40  58  80 116 150 184 234 282 322
#     4  10  20  38  58  83 114 145 186 234 280 328
#     4  10  20  38  58  83 111 149 188 228 282 334
#     4  10  20  38  58  83 111 149 188 228 282 334
#     4  10  20  38  58  83 114 145 186 234 280 328
#     4  10  21  39  59  80 116 150 183 234 281 332
#     4  10  21  39  59  80 116 150 183 234 281 332
#     4  10  22  36  60  82 114 150 188 234 276 336
#
# _framework density 26.866423999999999
#
# number of rings (size 3 to 8) (size 9 to 14) (size 15 to 20)
#    0.000    2.000    5.000    0.000    0.000    4.000 
#    4.500    0.000    0.000    0.000    0.000    0.000 
#    0.000    0.000    0.000    0.000    0.000    0.000 
#
# Total GULP energy -89614.485430 kJ/mol
# GULP energy per Si atom -5600.905339 kJ/mol
# Density = 2.680527 g / cm^3
# Si number density = 26.866424 Si / 1000 Ang^3
#
#
#
# Elastic Constant Matrix: (Units=GPa)
#
#
# Indices 1 2 3 4 5 6 
#
# 1 44.8298 22.8911 17.9595 0.0000 1.7394 0.0000
# 2 22.8911 124.4949 28.9463 0.0000 -15.3439 0.0000
# 3 17.9595 28.9463 53.7639 0.0000 -2.8525 0.0000
# 4 0.0000 0.0000 0.0000 61.0706 0.0000 -20.7979
# 5 1.7394 -15.3439 -2.8525 0.0000 20.3969 0.0000
# 6 0.0000 0.0000 0.0000 -20.7979 0.0000 45.5488
#
#
#
# Elastic Compliance Matrix: (Units=1/GPa)
#
#
# Indices 1 2 3 4 5 6 
#
# 1 0.027629 -0.004182 -0.007324 0.000000 -0.006526 0.000000
# 2 -0.004182 0.010684 -0.003939 0.000000 0.007843 0.000000
# 3 -0.007324 -0.003939 0.023215 0.000000 0.000908 0.000000
# 4 0.000000 0.000000 0.000000 0.019390 0.000000 0.008853
# 5 -0.006526 0.007843 0.000908 0.000000 0.055610 0.000000
# 6 0.000000 0.000000 0.000000 0.008853 0.000000 0.025997
#
#
# Mechanical properties :
#
#
# Convention : Reuss Voigt Hill
#
# Bulk Modulus (GPa) = 32.63876 40.29805 36.46840
# Shear Modulus (GPa) = 24.55453 35.62271 30.08862
#
# Velocity S-wave (km/s) = 3.02644 3.64527 3.35017
# Velocity P-wave (km/s) = 4.93835 5.72270 5.34493
#
# Compressibility (1/GPa) = 0.03063842
#
# Stress axis : x y z
#
# Youngs Moduli (GPa) = 36.19358 93.59906 43.07469
#
# Poissons Ratio (x) = 0.39139 0.31549
# Poissons Ratio (y) = 0.15135 0.16968
# Poissons Ratio (z) = 0.26509 0.36871
#
# Static dielectric constant tensor:
#      x y z
#    x 2.077780 0.000000 -0.037450 
#    y 0.000000 2.081580 0.000000 
#    z -0.037450 0.000000 2.109240 
# 
# From -- ./inp_files/7810.got.cif
#   From: 2010.05.17/outbox.cif.g08.bks.cpg/sg4_4_cif.got.tgz:7810.got - 2010.06.03 18:43:04.
