data_PCOD9115721
_publ_section_title
;
Structure prediction by ZEFSAII (Michael W. Deem and Ramdas Pophale) SiO2 
 PCOD9115721
Probable space group: P 21
;
_chemical_formula_sum "Si O2"
_cell_formula_units_Z 16
_cell_length_a 13.942428
_cell_length_b 8.603453
_cell_length_c 10.989168
_cell_angle_alpha 90.000000
_cell_angle_beta 32.344366
_cell_angle_gamma 90.000000
_cell_volume 705.237240
_symmetry_space_group_name_H-M "P 21"
_symmetry_group_IT_number 4
_symmetry_cell_setting 'monoclinic'
loop_
_space_group_symop_operation_xyz
x,y,z
-x,1/2+y,-z
loop_
_atom_site_type_symbol
_atom_site_label
_atom_site_fract_x
_atom_site_fract_y
_atom_site_fract_z
Si Si1 0.672855 0.565250 0.071121
Si Si2 0.462023 0.121008 0.189006
Si Si3 0.597819 0.414135 0.401722
Si Si4 0.662935 0.922516 0.679386
Si Si5 0.040028 0.574407 0.782100
Si Si6 0.037905 0.926341 0.879732
Si Si7 0.551205 0.817183 0.029555
Si Si8 0.704284 0.089276 0.157950
O O1 0.611684 0.533583 0.274170
O O2 0.546484 0.456080 0.124985
O O3 0.635039 0.732592 0.054301
O O4 0.883300 0.535235 0.854233
O O5 0.315625 0.245470 0.391467
O O6 0.407385 0.944083 0.223560
O O7 0.512407 0.193337 0.002635
O O8 0.693854 0.908333 0.790497
O O9 0.403912 0.445047 0.665348
O O10 0.652129 0.245153 0.290099
O O11 0.749475 0.456561 0.337900
O O12 0.774381 0.046032 0.485347
O O13 0.025088 0.458667 0.913084
O O14 0.015059 0.749469 0.858310
O O15 0.911851 0.043538 0.940172
O O16 0.623082 0.113356 0.111801
#
# Coordination Sequence:
#
# PCOD9115721 Si02
#       8
#     2   2   2   2   2   2   2   2
#     4  11  22  44  71  93 138 181 216 284 343 391
#     4  10  22  39  72  98 132 180 227 275 342 399
#     4  11  26  41  69 103 140 178 224 280 339 406
#     4  10  21  43  66  96 136 171 224 283 326 399
#     4  11  25  41  69  97 141 177 224 281 337 408
#     4  11  25  43  64  99 141 180 219 277 342 403
#     4  10  20  43  71 100 132 178 229 280 339 399
#     4  12  25  42  68 104 136 181 229 274 338 413
#
# _framework density 22.6874
#
# number of rings (size 3 to 8) (size 9 to 14) (size 15 to 20)
#    0.750    0.500    3.750    1.500    5.250    0.000 
#    0.000    2.500    5.500    0.000    0.000    0.000 
#    0.000    0.000    0.000    0.000    0.000    0.000 
#
# Total GULP energy -89190.691567 kJ/mol
# GULP energy per Si atom -5574.418223 kJ/mol
# Density = 2.263576 g / cm^3
# Si number density = 22.687400 Si / 1000 Ang^3
#
#
#
# Elastic Constant Matrix: (Units=GPa)
#
#
# Indices 1 2 3 4 5 6 
#
# 1 104.3666 41.8344 35.6315 0.0000 -2.8158 0.0000
# 2 41.8344 117.9000 33.6999 0.0000 12.8741 0.0000
# 3 35.6315 33.6999 26.7895 0.0000 -0.8409 0.0000
# 4 0.0000 0.0000 0.0000 26.4070 0.0000 6.2563
# 5 -2.8158 12.8741 -0.8409 0.0000 25.8173 0.0000
# 6 0.0000 0.0000 0.0000 6.2563 0.0000 35.2517
#
#
#
# Elastic Compliance Matrix: (Units=1/GPa)
#
#
# Indices 1 2 3 4 5 6 
#
# 1 0.017606 0.000536 -0.024064 0.000000 0.000869 0.000000
# 2 0.000536 0.014726 -0.019487 0.000000 -0.007920 0.000000
# 3 -0.024064 -0.019487 0.094167 0.000000 0.010160 0.000000
# 4 0.000000 0.000000 0.000000 0.039531 0.000000 -0.007016
# 5 0.000869 -0.007920 0.010160 0.000000 0.043109 0.000000
# 6 0.000000 0.000000 0.000000 -0.007016 0.000000 0.029613
#
#
# Mechanical properties :
#
#
# Convention : Reuss Voigt Hill
#
# Bulk Modulus (GPa) = 24.70970 52.37642 38.54306
# Shear Modulus (GPa) = 14.78105 26.68787 20.73446
#
# Velocity S-wave (km/s) = 2.55524 3.43349 3.02639
# Velocity P-wave (km/s) = 4.42952 6.23335 5.40719
#
# Compressibility (1/GPa) = 0.04046994
#
# Stress axis : x y z
#
# Youngs Moduli (GPa) = 56.79985 67.90586 10.61938
#
# Poissons Ratio (x) = -0.03643 0.25555
# Poissons Ratio (y) = -0.03047 0.20694
# Poissons Ratio (z) = 1.36684 1.32329
#
# Static dielectric constant tensor:
#      x y z
#    x 1.831640 0.000000 0.017710 
#    y 0.000000 1.962900 0.000000 
#    z 0.017710 0.000000 1.838830 
# 
# From -- ./inp_files/12622.got.cif
#   From: 2010.05.17/outbox.cif.g08.bks.cpg/sg4_7_cif.got.tgz:12622.got - 2010.06.03 18:43:04.
