data_PCOD9115018
_publ_section_title
;
Structure prediction by ZEFSAII (Michael W. Deem and Ramdas Pophale) SiO2 
 PCOD9115018
Probable space group: P 21
;
_chemical_formula_sum "Si O2"
_cell_formula_units_Z 14
_cell_length_a 9.579174
_cell_length_b 7.753821
_cell_length_c 8.101890
_cell_angle_alpha 90.000000
_cell_angle_beta 67.310532
_cell_angle_gamma 90.000000
_cell_volume 555.197967
_symmetry_space_group_name_H-M "P 21"
_symmetry_group_IT_number 4
_symmetry_cell_setting 'monoclinic'
loop_
_space_group_symop_operation_xyz
x,y,z
-x,1/2+y,-z
loop_
_atom_site_type_symbol
_atom_site_label
_atom_site_fract_x
_atom_site_fract_y
_atom_site_fract_z
Si Si1 0.306324 0.263800 0.386531
Si Si2 0.239301 0.997519 0.957421
Si Si3 0.084307 0.993183 0.599162
Si Si4 0.965713 0.662849 0.698033
Si Si5 0.493131 0.547910 0.905190
Si Si6 0.169532 0.608605 0.033451
Si Si7 0.317592 0.337240 0.742363
O O1 0.456878 0.218773 0.218972
O O2 0.325835 0.374217 0.542981
O O3 0.173389 0.283538 0.310450
O O4 0.241651 0.086154 0.494825
O O5 0.371024 0.004000 0.035969
O O6 0.094266 0.088002 0.107449
O O7 0.189757 0.800898 0.952220
O O8 0.290877 0.136847 0.798953
O O9 0.100742 0.795613 0.637910
O O10 0.013050 0.017081 0.448016
O O11 0.976217 0.085388 0.783411
O O12 0.461640 0.400778 0.783066
O O13 0.329287 0.580635 0.060726
O O14 0.189531 0.458598 0.886607
#
# Coordination Sequence:
#
# PCOD9115018 Si02
#       7
#     2   2   2   2   2   2   2
#     4   9  22  39  63  89 130 160 202 263 313 371
#     4  11  19  40  63  94 124 166 206 267 298 380
#     4  10  19  39  61  93 121 164 209 254 312 377
#     4   9  19  36  66  88 127 161 208 256 314 369
#     4   9  21  39  64  91 123 165 214 245 317 370
#     4  10  22  36  65  92 121 160 218 246 314 369
#     4  10  22  41  62  89 132 160 209 259 314 364
#
# _framework density 25.216231000000001
#
# number of rings (size 3 to 8) (size 9 to 14) (size 15 to 20)
#    1.714    0.571    1.429    1.714    0.000    1.143 
#    2.571    2.857    0.000    0.000    0.000    0.000 
#    0.000    0.000    0.000    0.000    0.000    0.000 
#
# Total GULP energy -78040.866229 kJ/mol
# GULP energy per Si atom -5574.347588 kJ/mol
# Density = 2.515884 g / cm^3
# Si number density = 25.216231 Si / 1000 Ang^3
#
#
#
# Elastic Constant Matrix: (Units=GPa)
#
#
# Indices 1 2 3 4 5 6 
#
# 1 64.3062 -15.4570 5.2911 0.0000 4.0513 0.0000
# 2 -15.4570 82.8246 -11.9045 0.0000 -1.3211 0.0000
# 3 5.2911 -11.9045 68.3193 0.0000 -4.9054 0.0000
# 4 0.0000 0.0000 0.0000 33.0408 0.0000 -15.0352
# 5 4.0513 -1.3211 -4.9054 0.0000 44.7976 0.0000
# 6 0.0000 0.0000 0.0000 -15.0352 0.0000 24.3555
#
#
#
# Elastic Compliance Matrix: (Units=1/GPa)
#
#
# Indices 1 2 3 4 5 6 
#
# 1 0.016417 0.002915 -0.000871 0.000000 -0.001494 0.000000
# 2 0.002915 0.012918 0.002050 0.000000 0.000342 0.000000
# 3 -0.000871 0.002050 0.015191 0.000000 0.001803 0.000000
# 4 0.000000 0.000000 0.000000 0.042089 0.000000 0.025983
# 5 -0.001494 0.000342 0.001803 0.000000 0.022665 0.000000
# 6 0.000000 0.000000 0.000000 0.025983 0.000000 0.057098
#
#
# Mechanical properties :
#
#
# Convention : Reuss Voigt Hill
#
# Bulk Modulus (GPa) = 18.97057 19.03437 19.00247
# Shear Modulus (GPa) = 28.44755 36.27347 32.36051
#
# Velocity S-wave (km/s) = 3.36243 3.79687 3.58623
# Velocity P-wave (km/s) = 4.75543 5.17556 4.96994
#
# Compressibility (1/GPa) = 0.05271323
#
# Stress axis : x y z
#
# Youngs Moduli (GPa) = 60.91250 77.41293 65.82769
#
# Poissons Ratio (x) = -0.22564 0.05732
# Poissons Ratio (y) = -0.17755 -0.13493
# Poissons Ratio (z) = 0.05304 -0.15867
#
# Static dielectric constant tensor:
#      x y z
#    x 2.095270 0.000000 0.077250 
#    y 0.000000 2.064560 0.000000 
#    z 0.077250 0.000000 1.976520 
# 
# From -- ./inp_files/7629.got.cif
#   From: 2010.05.17/outbox.cif.g08.bks.cpg/sg4_4_cif.got.tgz:7629.got - 2010.06.03 18:43:04.
