data_PCOD9115408
_publ_section_title
;
Structure prediction by ZEFSAII (Michael W. Deem and Ramdas Pophale) SiO2 
 PCOD9115408
Probable space group: P 21
;
_chemical_formula_sum "Si O2"
_cell_formula_units_Z 14
_cell_length_a 32.646167
_cell_length_b 4.791936
_cell_length_c 25.455679
_cell_angle_alpha 90.000000
_cell_angle_beta 170.529843
_cell_angle_gamma 90.000000
_cell_volume 655.214049
_symmetry_space_group_name_H-M "P 21"
_symmetry_group_IT_number 4
_symmetry_cell_setting 'monoclinic'
loop_
_space_group_symop_operation_xyz
x,y,z
-x,1/2+y,-z
loop_
_atom_site_type_symbol
_atom_site_label
_atom_site_fract_x
_atom_site_fract_y
_atom_site_fract_z
Si Si1 0.300952 0.614930 0.584124
Si Si2 0.858491 0.599880 0.299993
Si Si3 0.377297 0.354199 0.094797
Si Si4 0.496481 0.384205 0.461712
Si Si5 0.019291 0.605739 0.795741
Si Si6 0.364370 0.853792 0.146191
Si Si7 0.159977 0.125645 0.190573
O O1 0.372946 0.763168 0.620055
O O2 0.124412 0.350188 0.355269
O O3 0.170283 0.852667 0.453426
O O4 0.570406 0.527487 0.947657
O O5 0.027222 0.328484 0.516439
O O6 0.836167 0.750460 0.215061
O O7 0.366699 0.677728 0.095061
O O8 0.359348 0.178016 0.125600
O O9 0.502140 0.558832 0.523059
O O10 0.727911 0.482199 0.719429
O O11 0.246401 0.472565 0.115541
O O12 0.135297 0.751735 0.891427
O O13 0.613806 0.768745 0.492144
O O14 0.035259 0.874121 0.065446
#
# Coordination Sequence:
#
# PCOD9115408 Si02
#       7
#     2   2   2   2   2   2   2
#     4  10  22  36  62  91 108 154 199 231 293 340
#     4  10  20  38  64  90 120 146 192 244 294 350
#     4  10  22  36  62  91 108 154 199 231 293 340
#     4  11  24  39  57  83 115 161 197 246 299 341
#     4  11  22  39  58  84 123 153 193 246 297 347
#     4  11  22  39  58  84 123 153 193 246 297 347
#     4  11  24  39  57  83 115 161 197 246 299 341
#
# _framework density 21.367066000000001
#
# number of rings (size 3 to 8) (size 9 to 14) (size 15 to 20)
#    0.857    0.571    0.000    6.000    0.000   11.429 
#    0.000    0.000    0.000   17.143    0.000    0.000 
#    0.000    0.000    0.000    0.000    0.000    0.000 
#
# Total GULP energy -78251.516831 kJ/mol
# GULP energy per Si atom -5589.394059 kJ/mol
# Density = 2.131843 g / cm^3
# Si number density = 21.367066 Si / 1000 Ang^3
#
#
#
# Elastic Constant Matrix: (Units=GPa)
#
#
# Indices 1 2 3 4 5 6 
#
# 1 39.7630 -5.9034 18.0103 0.0000 4.1524 0.0000
# 2 -5.9034 65.1245 0.6557 0.0000 3.0318 0.0000
# 3 18.0103 0.6557 59.8157 0.0000 12.6897 0.0000
# 4 0.0000 0.0000 0.0000 -15.1304 0.0000 -7.0186
# 5 4.1524 3.0318 12.6897 0.0000 18.7537 0.0000
# 6 0.0000 0.0000 0.0000 -7.0186 0.0000 42.1082
#
#
#
# Elastic Compliance Matrix: (Units=1/GPa)
#
#
# Indices 1 2 3 4 5 6 
#
# 1 0.029633 0.002826 -0.008716 0.000000 -0.001121 0.000000
# 2 0.002826 0.015750 -0.000409 0.000000 -0.002895 0.000000
# 3 -0.008716 -0.000409 0.022095 0.000000 -0.012955 0.000000
# 4 0.000000 0.000000 0.000000 -0.061349 0.000000 -0.010226
# 5 -0.001121 -0.002895 -0.012955 0.000000 0.062805 0.000000
# 6 0.000000 0.000000 0.000000 -0.010226 0.000000 0.022044
#
#
# Mechanical properties :
#
#
# Convention : Reuss Voigt Hill
#
# Bulk Modulus (GPa) = 18.22138 21.13650 19.67894
# Shear Modulus (GPa) = 41.02720 19.27567 30.15143
#
# Velocity S-wave (km/s) = 4.38666 3.00679 3.76056
# Velocity P-wave (km/s) = 5.84837 4.68700 5.29959
#
# Compressibility (1/GPa) = 0.05488059
#
# Stress axis : x y z
#
# Youngs Moduli (GPa) = 33.74580 63.49096 45.25887
#
# Poissons Ratio (x) = -0.17943 0.39447
# Poissons Ratio (y) = -0.09537 0.01853
# Poissons Ratio (z) = 0.29412 0.02599
#
# Static dielectric constant tensor:
#      x y z
#    x 1.796400 0.000000 0.008850 
#    y 0.000000 1.742740 0.000000 
#    z 0.008850 0.000000 1.763520 
# 
# From -- ./inp_files/10127.got.cif
#   From: 2010.05.17/outbox.cif.g08.bks.cpg/sg4_6_cif.got.tgz:10127.got - 2010.06.03 18:43:04.
