data_PCOD9115000
_publ_section_title
;
Structure prediction by ZEFSAII (Michael W. Deem and Ramdas Pophale) SiO2 
 PCOD9115000
Probable space group: P 21
;
_chemical_formula_sum "Si O2"
_cell_formula_units_Z 16
_cell_length_a 9.748801
_cell_length_b 5.148185
_cell_length_c 14.980615
_cell_angle_alpha 90.000000
_cell_angle_beta 85.920162
_cell_angle_gamma 90.000000
_cell_volume 749.951265
_symmetry_space_group_name_H-M "P 21"
_symmetry_group_IT_number 4
_symmetry_cell_setting 'monoclinic'
loop_
_space_group_symop_operation_xyz
x,y,z
-x,1/2+y,-z
loop_
_atom_site_type_symbol
_atom_site_label
_atom_site_fract_x
_atom_site_fract_y
_atom_site_fract_z
Si Si1 0.167388 0.087420 0.537379
Si Si2 0.077927 0.442835 0.026833
Si Si3 0.352374 0.835491 0.289958
Si Si4 0.462015 0.278656 0.554196
Si Si5 0.758696 0.681453 0.847316
Si Si6 0.504629 0.066779 0.876221
Si Si7 0.861847 0.080337 0.583835
Si Si8 0.315180 0.797522 0.992168
O O1 0.308180 0.171113 0.579874
O O2 0.155099 0.299946 0.459361
O O3 0.024411 0.108039 0.598106
O O4 0.171252 0.806067 0.488751
O O5 0.220635 0.549691 0.979509
O O6 0.115988 0.363237 0.126853
O O7 0.979088 0.689938 0.020412
O O8 0.449910 0.898117 0.368672
O O9 0.253777 0.044992 0.247149
O O10 0.459637 0.744347 0.209180
O O11 0.244325 0.623430 0.331138
O O12 0.461186 0.518403 0.484735
O O13 0.618573 0.843179 0.861078
O O14 0.755534 0.465809 0.926305
O O15 0.544918 0.215180 0.964902
O O16 0.355997 0.948450 0.901287
#
# Coordination Sequence:
#
# PCOD9115000 Si02
#       8
#     2   2   2   2   2   2   2   2
#     4  10  20  40  64  94 123 176 222 265 327 409
#     4  11  22  40  67  94 125 174 232 276 332 416
#     4  11  24  37  65 104 137 177 230 291 337 396
#     4  12  23  40  67  98 135 176 223 278 338 401
#     4  10  22  39  66  97 132 172 222 283 334 397
#     4  10  21  36  64  98 130 169 225 282 337 399
#     4  10  21  38  67  93 126 171 224 268 327 401
#     4  10  19  38  66  94 126 173 224 273 338 409
#
# _framework density 21.334719
#
# number of rings (size 3 to 8) (size 9 to 14) (size 15 to 20)
#    0.000    1.500    5.000    0.000    3.500    0.000 
#    0.000    0.000   13.750    0.000    0.000    0.000 
#    0.000    0.000    0.000    0.000    0.000    0.000 
#
# Total GULP energy -89192.730821 kJ/mol
# GULP energy per Si atom -5574.545676 kJ/mol
# Density = 2.128616 g / cm^3
# Si number density = 21.334719 Si / 1000 Ang^3
#
#
#
# Elastic Constant Matrix: (Units=GPa)
#
#
# Indices 1 2 3 4 5 6 
#
# 1 100.3724 9.1585 28.2372 0.0000 15.3551 0.0000
# 2 9.1585 91.3583 15.9101 0.0000 13.2909 0.0000
# 3 28.2372 15.9101 57.0149 0.0000 3.3646 0.0000
# 4 0.0000 0.0000 0.0000 19.4360 0.0000 -3.1027
# 5 15.3551 13.2909 3.3646 0.0000 21.9426 0.0000
# 6 0.0000 0.0000 0.0000 -3.1027 0.0000 39.1971
#
#
#
# Elastic Compliance Matrix: (Units=1/GPa)
#
#
# Indices 1 2 3 4 5 6 
#
# 1 0.012946 0.001053 -0.006189 0.000000 -0.008748 0.000000
# 2 0.001053 0.012601 -0.003576 0.000000 -0.007821 0.000000
# 3 -0.006189 -0.003576 0.021413 0.000000 0.003214 0.000000
# 4 0.000000 0.000000 0.000000 0.052110 0.000000 0.004125
# 5 -0.008748 -0.007821 0.003214 0.000000 0.055940 0.000000
# 6 0.000000 0.000000 0.000000 0.004125 0.000000 0.025839
#
#
# Mechanical properties :
#
#
# Convention : Reuss Voigt Hill
#
# Bulk Modulus (GPa) = 33.85850 39.48415 36.67132
# Shear Modulus (GPa) = 24.02478 29.14445 26.58462
#
# Velocity S-wave (km/s) = 3.35936 3.70003 3.53381
# Velocity P-wave (km/s) = 5.56343 6.06637 5.82033
#
# Compressibility (1/GPa) = 0.02953468
#
# Stress axis : x y z
#
# Youngs Moduli (GPa) = 77.24175 79.35896 46.70088
#
# Poissons Ratio (x) = -0.08354 0.28905
# Poissons Ratio (y) = -0.08131 0.16701
# Poissons Ratio (z) = 0.47807 0.28380
#
# Static dielectric constant tensor:
#      x y z
#    x 1.838190 0.000000 -0.007330 
#    y 0.000000 1.856750 0.000000 
#    z -0.007330 0.000000 1.774870 
# 
# From -- ./inp_files/13508.got.cif
#   From: 2010.05.17/outbox.cif.g08.bks.cpg/sg4_7_cif.got.tgz:13508.got - 2010.06.03 18:43:04.
