data_PCOD9115898
_publ_section_title
;
Structure prediction by ZEFSAII (Michael W. Deem and Ramdas Pophale) SiO2 
 PCOD9115898
Probable space group: P 21
;
_chemical_formula_sum "Si O2"
_cell_formula_units_Z 14
_cell_length_a 9.113353
_cell_length_b 7.829329
_cell_length_c 19.883718
_cell_angle_alpha 90.000000
_cell_angle_beta 156.355942
_cell_angle_gamma 90.000000
_cell_volume 568.987472
_symmetry_space_group_name_H-M "P 21"
_symmetry_group_IT_number 4
_symmetry_cell_setting 'monoclinic'
loop_
_space_group_symop_operation_xyz
x,y,z
-x,1/2+y,-z
loop_
_atom_site_type_symbol
_atom_site_label
_atom_site_fract_x
_atom_site_fract_y
_atom_site_fract_z
Si Si1 0.244780 0.650210 0.854228
Si Si2 0.630934 0.980514 0.960478
Si Si3 0.380278 0.663307 0.513173
Si Si4 0.510936 0.372203 0.665013
Si Si5 0.674281 0.186440 0.857018
Si Si6 0.605670 0.031697 0.620349
Si Si7 0.827508 0.465261 0.026065
O O1 0.402572 0.820611 0.889188
O O2 0.811838 0.643744 0.675203
O O3 0.394639 0.623683 0.992399
O O4 0.425214 0.505405 0.883431
O O5 0.516461 0.037026 0.837695
O O6 0.062668 0.927744 0.145828
O O7 0.325237 0.539395 0.554184
O O8 0.334403 0.867572 0.501445
O O9 0.217096 0.582961 0.376699
O O10 0.414838 0.294897 0.698239
O O11 0.472830 0.210909 0.597858
O O12 0.842742 0.304223 0.985008
O O13 0.996326 0.111652 0.946555
O O14 0.909945 0.962196 0.799665
#
# Coordination Sequence:
#
# PCOD9115898 Si02
#       7
#     2   2   2   2   2   2   2
#     4  11  22  36  59  94 129 152 206 266 319 358
#     4  11  20  36  57  92 127 160 200 263 315 367
#     4  11  23  39  62  92 128 161 210 260 314 364
#     4  10  21  38  60  90 122 160 212 247 303 372
#     4  11  20  37  63  93 126 164 204 259 308 384
#     4  11  21  38  61  90 122 165 208 254 304 377
#     4  11  21  38  62  95 122 158 210 253 319 368
#
# _framework density 24.605111999999998
#
# number of rings (size 3 to 8) (size 9 to 14) (size 15 to 20)
#    0.000    1.143    5.714    3.429    0.000    0.000 
#    0.000    0.000    0.000   10.286    0.000    0.000 
#    0.000    0.000    0.000    0.000    0.000    0.000 
#
# Total GULP energy -78273.010373 kJ/mol
# GULP energy per Si atom -5590.929312 kJ/mol
# Density = 2.454911 g / cm^3
# Si number density = 24.605112 Si / 1000 Ang^3
#
#
#
# Elastic Constant Matrix: (Units=GPa)
#
#
# Indices 1 2 3 4 5 6 
#
# 1 116.7201 35.0713 40.2595 0.0000 -31.3126 0.0000
# 2 35.0713 141.4303 31.8204 0.0000 -20.3558 0.0000
# 3 40.2595 31.8204 85.9401 0.0000 -18.9350 0.0000
# 4 0.0000 0.0000 0.0000 29.2178 0.0000 -20.9204
# 5 -31.3126 -20.3558 -18.9350 0.0000 34.5643 0.0000
# 6 0.0000 0.0000 0.0000 -20.9204 0.0000 55.5251
#
#
#
# Elastic Compliance Matrix: (Units=1/GPa)
#
#
# Indices 1 2 3 4 5 6 
#
# 1 0.012433 -0.001036 -0.003518 0.000000 0.008726 0.000000
# 2 -0.001036 0.008165 -0.001917 0.000000 0.002820 0.000000
# 3 -0.003518 -0.001917 0.014833 0.000000 0.003810 0.000000
# 4 0.000000 0.000000 0.000000 0.046870 0.000000 0.017659
# 5 0.008726 0.002820 0.003810 0.000000 0.040585 0.000000
# 6 0.000000 0.000000 0.000000 0.017659 0.000000 0.024664
#
#
# Mechanical properties :
#
#
# Convention : Reuss Voigt Hill
#
# Bulk Modulus (GPa) = 44.46418 62.04366 53.25392
# Shear Modulus (GPa) = 29.76414 39.65739 34.71076
#
# Velocity S-wave (km/s) = 3.48181 4.01902 3.76002
# Velocity P-wave (km/s) = 5.85443 6.84158 6.36716
#
# Compressibility (1/GPa) = 0.02249001
#
# Stress axis : x y z
#
# Youngs Moduli (GPa) = 80.42954 122.48106 67.41605
#
# Poissons Ratio (x) = 0.12684 0.23720
# Poissons Ratio (y) = 0.08329 0.12920
# Poissons Ratio (z) = 0.28298 0.23474
#
# Static dielectric constant tensor:
#      x y z
#    x 1.950470 0.000000 0.001010 
#    y 0.000000 2.091040 0.000000 
#    z 0.001010 0.000000 1.986730 
# 
# From -- ./inp_files/7633.got.cif
#   From: 2010.05.17/outbox.cif.g08.bks.cpg/sg4_4_cif.got.tgz:7633.got - 2010.06.03 18:43:04.
