data_PCOD9115024
_publ_section_title
;
Structure prediction by ZEFSAII (Michael W. Deem and Ramdas Pophale) SiO2 
 PCOD9115024
Probable space group: P 21
;
_chemical_formula_sum "Si O2"
_cell_formula_units_Z 12
_cell_length_a 10.851902
_cell_length_b 9.332082
_cell_length_c 6.797629
_cell_angle_alpha 90.000000
_cell_angle_beta 41.199671
_cell_angle_gamma 90.000000
_cell_volume 453.439900
_symmetry_space_group_name_H-M "P 21"
_symmetry_group_IT_number 4
_symmetry_cell_setting 'monoclinic'
loop_
_space_group_symop_operation_xyz
x,y,z
-x,1/2+y,-z
loop_
_atom_site_type_symbol
_atom_site_label
_atom_site_fract_x
_atom_site_fract_y
_atom_site_fract_z
Si Si1 0.862671 0.200990 0.981599
Si Si2 0.702337 0.123629 0.793814
Si Si3 0.011244 0.762467 0.774273
Si Si4 0.182104 0.374265 0.628086
Si Si5 0.604046 0.698116 0.127699
Si Si6 0.544660 0.414852 0.416881
O O1 0.748893 0.107152 0.966211
O O2 0.074580 0.237132 0.668400
O O3 0.745900 0.349860 0.125186
O O4 0.887238 0.162110 0.180841
O O5 0.496214 0.146404 0.951765
O O6 0.824310 0.265218 0.582155
O O7 0.796053 0.987457 0.573245
O O8 0.933608 0.882514 0.020574
O O9 0.825748 0.707151 0.889884
O O10 0.390548 0.349748 0.454439
O O11 0.543281 0.581493 0.366891
O O12 0.511510 0.848685 0.305505
#
# Coordination Sequence:
#
# PCOD9115024 Si02
#       6
#     2   2   2   2   2   2
#     4  10  21  38  59  86 120 154 200 247 297 349
#     4  11  20  38  61  84 118 158 198 242 303 351
#     4   9  20  38  59  85 120 153 195 244 299 350
#     4   8  20  38  56  84 122 150 194 256 286 354
#     4  10  20  39  64  87 121 162 194 247 299 354
#     4  10  19  39  63  88 123 157 201 244 298 356
#
# _framework density 26.464365000000001
#
# number of rings (size 3 to 8) (size 9 to 14) (size 15 to 20)
#    1.000    1.333    1.667    1.000    0.000    1.333 
#    6.000    3.333    0.000    0.000    0.000    0.000 
#    0.000    0.000    0.000    0.000    0.000    0.000 
#
# Total GULP energy -66841.614345 kJ/mol
# GULP energy per Si atom -5570.134529 kJ/mol
# Density = 2.640413 g / cm^3
# Si number density = 26.464365 Si / 1000 Ang^3
#
#
#
# Elastic Constant Matrix: (Units=GPa)
#
#
# Indices 1 2 3 4 5 6 
#
# 1 150.5267 4.3902 45.0124 0.0000 -15.2865 0.0000
# 2 4.3902 43.2890 2.6697 0.0000 -1.7825 0.0000
# 3 45.0124 2.6697 69.3588 0.0000 -15.6834 0.0000
# 4 0.0000 0.0000 0.0000 19.2599 0.0000 1.6723
# 5 -15.2865 -1.7825 -15.6834 0.0000 51.1359 0.0000
# 6 0.0000 0.0000 0.0000 1.6723 0.0000 25.9079
#
#
#
# Elastic Compliance Matrix: (Units=1/GPa)
#
#
# Indices 1 2 3 4 5 6 
#
# 1 0.008291 -0.000486 -0.005163 0.000000 0.000878 0.000000
# 2 -0.000486 0.023200 -0.000459 0.000000 0.000522 0.000000
# 3 -0.005163 -0.000459 0.018733 0.000000 0.004186 0.000000
# 4 0.000000 0.000000 0.000000 0.052214 0.000000 -0.003370
# 5 0.000878 0.000522 0.004186 0.000000 0.021120 0.000000
# 6 0.000000 0.000000 0.000000 -0.003370 0.000000 0.038816
#
#
# Mechanical properties :
#
#
# Convention : Reuss Voigt Hill
#
# Bulk Modulus (GPa) = 26.31187 40.81324 33.56255
# Shear Modulus (GPa) = 26.70097 33.33422 30.01759
#
# Velocity S-wave (km/s) = 3.17983 3.55292 3.37154
# Velocity P-wave (km/s) = 4.84208 5.68211 5.27883
#
# Compressibility (1/GPa) = 0.03800565
#
# Stress axis : x y z
#
# Youngs Moduli (GPa) = 120.61786 43.10395 53.38236
#
# Poissons Ratio (x) = 0.02096 0.27563
# Poissons Ratio (y) = 0.05865 0.02452
# Poissons Ratio (z) = 0.62278 0.01980
#
# Static dielectric constant tensor:
#      x y z
#    x 2.017980 0.000000 0.057260 
#    y 0.000000 2.191870 0.000000 
#    z 0.057260 0.000000 2.067930 
# 
# From -- ./inp_files/4582.got.cif
#   From: 2010.05.17/outbox.cif.g08.bks.cpg/sg4_3_cif.got.tgz:4582.got - 2010.06.03 18:43:04.
