data_PCOD9115143
_publ_section_title
;
Structure prediction by ZEFSAII (Michael W. Deem and Ramdas Pophale) SiO2 
 PCOD9115143
Probable space group: P 21
;
_chemical_formula_sum "Si O2"
_cell_formula_units_Z 16
_cell_length_a 14.261567
_cell_length_b 8.040385
_cell_length_c 12.223678
_cell_angle_alpha 90.000000
_cell_angle_beta 148.527551
_cell_angle_gamma 90.000000
_cell_volume 731.796159
_symmetry_space_group_name_H-M "P 21"
_symmetry_group_IT_number 4
_symmetry_cell_setting 'monoclinic'
loop_
_space_group_symop_operation_xyz
x,y,z
-x,1/2+y,-z
loop_
_atom_site_type_symbol
_atom_site_label
_atom_site_fract_x
_atom_site_fract_y
_atom_site_fract_z
Si Si1 0.203293 0.885630 0.384652
Si Si2 0.823939 0.275538 0.138260
Si Si3 0.633132 0.495617 0.124487
Si Si4 0.206814 0.413502 0.002900
Si Si5 0.511652 0.367363 0.682173
Si Si6 0.500145 0.533505 0.463717
Si Si7 0.510923 0.247467 0.179427
Si Si8 0.777007 0.719212 0.449852
O O1 0.323562 0.928593 0.398505
O O2 0.314730 0.757169 0.570148
O O3 0.991985 0.853407 0.162158
O O4 0.210266 0.056174 0.461296
O O5 0.742351 0.352395 0.168667
O O6 0.034410 0.311072 0.352636
O O7 0.803619 0.078160 0.087244
O O8 0.711333 0.361496 0.929333
O O9 0.527806 0.405257 0.115927
O O10 0.743348 0.643139 0.295640
O O11 0.507057 0.588286 0.913640
O O12 0.325284 0.465523 0.225727
O O13 0.326885 0.276178 0.061904
O O14 0.480071 0.524250 0.573487
O O15 0.381754 0.324954 0.653969
O O16 0.478520 0.216715 0.564095
#
# Coordination Sequence:
#
# PCOD9115143 Si02
#       8
#     2   2   2   2   2   2   2   2
#     4   8  17  35  56  79 109 147 188 238 294 347
#     4  10  21  38  58  81 114 155 199 247 297 349
#     4  11  21  37  60  84 116 160 199 244 301 352
#     4   9  18  37  59  81 113 152 195 245 297 351
#     4  10  20  38  59  85 118 152 191 242 296 352
#     4   9  19  34  58  83 111 151 191 235 293 352
#     4  10  20  34  53  81 114 149 194 243 292 350
#     4   9  20  37  55  80 115 150 193 242 288 343
#
# _framework density 21.864011999999999
#
# number of rings (size 3 to 8) (size 9 to 14) (size 15 to 20)
#    0.000    2.500    0.000    3.750    0.000    6.000 
#    0.000    7.500    0.000    0.000    0.000    0.000 
#    0.000    0.000    0.000    0.000    0.000    0.000 
#
# Total GULP energy -89275.321328 kJ/mol
# GULP energy per Si atom -5579.707583 kJ/mol
# Density = 2.181425 g / cm^3
# Si number density = 21.864012 Si / 1000 Ang^3
#
#
#
# Elastic Constant Matrix: (Units=GPa)
#
#
# Indices 1 2 3 4 5 6 
#
# 1 93.9565 41.2804 69.3466 0.0000 11.4252 0.0000
# 2 41.2804 47.4104 46.8740 0.0000 -0.7211 0.0000
# 3 69.3466 46.8740 112.0062 0.0000 24.9942 0.0000
# 4 0.0000 0.0000 0.0000 31.9080 0.0000 -17.7923
# 5 11.4252 -0.7211 24.9942 0.0000 31.0787 0.0000
# 6 0.0000 0.0000 0.0000 -17.7923 0.0000 44.7779
#
#
#
# Elastic Compliance Matrix: (Units=1/GPa)
#
#
# Indices 1 2 3 4 5 6 
#
# 1 0.021941 -0.010048 -0.009173 0.000000 -0.000922 0.000000
# 2 -0.010048 0.048286 -0.018355 0.000000 0.019575 0.000000
# 3 -0.009173 -0.018355 0.026362 0.000000 -0.018255 0.000000
# 4 0.000000 0.000000 0.000000 0.040260 0.000000 0.015997
# 5 -0.000922 0.019575 -0.018255 0.000000 0.047650 0.000000
# 6 0.000000 0.000000 0.000000 0.015997 0.000000 0.028689
#
#
# Mechanical properties :
#
#
# Convention : Reuss Voigt Hill
#
# Bulk Modulus (GPa) = 46.64857 63.15277 54.90067
# Shear Modulus (GPa) = 16.92124 27.94439 22.43281
#
# Velocity S-wave (km/s) = 2.78498 3.57893 3.20662
# Velocity P-wave (km/s) = 5.63237 6.78420 6.23494
#
# Compressibility (1/GPa) = 0.02143688
#
# Stress axis : x y z
#
# Youngs Moduli (GPa) = 45.57758 20.70991 37.93275
#
# Poissons Ratio (x) = 0.20810 0.34797
# Poissons Ratio (y) = 0.45797 0.69624
# Poissons Ratio (z) = 0.41810 0.38012
#
# Static dielectric constant tensor:
#      x y z
#    x 1.815030 0.000000 -0.014110 
#    y 0.000000 1.854150 0.000000 
#    z -0.014110 0.000000 1.783010 
# 
# From -- ./inp_files/12619.got.cif
#   From: 2010.05.17/outbox.cif.g08.bks.cpg/sg4_7_cif.got.tgz:12619.got - 2010.06.03 18:43:04.
