data_PCOD9115206
_publ_section_title
;
Structure prediction by ZEFSAII (Michael W. Deem and Ramdas Pophale) SiO2 
 PCOD9115206
Probable space group: P 21
;
_chemical_formula_sum "Si O2"
_cell_formula_units_Z 10
_cell_length_a 6.415999
_cell_length_b 5.039935
_cell_length_c 13.749238
_cell_angle_alpha 90.000000
_cell_angle_beta 128.853693
_cell_angle_gamma 90.000000
_cell_volume 346.231157
_symmetry_space_group_name_H-M "P 21"
_symmetry_group_IT_number 4
_symmetry_cell_setting 'monoclinic'
loop_
_space_group_symop_operation_xyz
x,y,z
-x,1/2+y,-z
loop_
_atom_site_type_symbol
_atom_site_label
_atom_site_fract_x
_atom_site_fract_y
_atom_site_fract_z
Si Si1 0.563337 0.439870 0.892113
Si Si2 0.322244 0.822837 0.338843
Si Si3 0.701428 0.320918 0.454546
Si Si4 0.728333 0.425467 0.259477
Si Si5 0.106762 0.648545 0.878065
O O1 0.517697 0.714330 0.822684
O O2 0.384275 0.492983 0.937551
O O3 0.402787 0.211257 0.789028
O O4 0.842090 0.325796 0.012659
O O5 0.555740 0.040199 0.409923
O O6 0.177395 0.845854 0.402373
O O7 0.119395 0.926136 0.197582
O O8 0.468216 0.542933 0.375682
O O9 0.864154 0.370389 0.403271
O O10 0.911606 0.344536 0.221345
#
# Coordination Sequence:
#
# PCOD9115206 Si02
#       5
#     2   2   2   2   2
#     4  10  20  35  62  86 123 151 198 256 300 355
#     4  10  23  39  64  82 125 168 198 242 312 369
#     4  10  22  43  56  89 125 161 202 251 300 363
#     4  10  20  37  61  86 123 154 197 261 291 350
#     4  10  21  38  63  91 116 162 201 246 307 363
#
# _framework density 28.882434
#
# number of rings (size 3 to 8) (size 9 to 14) (size 15 to 20)
#    1.200    0.800    2.000    1.200    2.800    0.000 
#    3.600    4.000    0.000    0.000    0.000    0.000 
#    0.000    0.000    0.000    0.000    0.000    0.000 
#
# Total GULP energy -56046.294257 kJ/mol
# GULP energy per Si atom -5604.629426 kJ/mol
# Density = 2.881670 g / cm^3
# Si number density = 28.882434 Si / 1000 Ang^3
#
#
#
# Elastic Constant Matrix: (Units=GPa)
#
#
# Indices 1 2 3 4 5 6 
#
# 1 68.3912 33.0473 41.9252 0.0000 -4.1866 0.0000
# 2 33.0473 168.8589 33.5874 0.0000 18.5229 0.0000
# 3 41.9252 33.5874 146.9994 0.0000 -9.0535 0.0000
# 4 0.0000 0.0000 0.0000 48.0701 0.0000 -5.4049
# 5 -4.1866 18.5229 -9.0535 0.0000 59.9627 0.0000
# 6 0.0000 0.0000 0.0000 -5.4049 0.0000 42.3242
#
#
#
# Elastic Compliance Matrix: (Units=1/GPa)
#
#
# Indices 1 2 3 4 5 6 
#
# 1 0.018996 -0.002962 -0.004646 0.000000 0.001540 0.000000
# 2 -0.002962 0.006954 -0.000897 0.000000 -0.002490 0.000000
# 3 -0.004646 -0.000897 0.008408 0.000000 0.001222 0.000000
# 4 0.000000 0.000000 0.000000 0.021106 0.000000 0.002695
# 5 0.001540 -0.002490 0.001222 0.000000 0.017738 0.000000
# 6 0.000000 0.000000 0.000000 0.002695 0.000000 0.023971
#
#
# Mechanical properties :
#
#
# Convention : Reuss Voigt Hill
#
# Bulk Modulus (GPa) = 57.65040 66.81881 62.23460
# Shear Modulus (GPa) = 41.67844 48.45071 45.06457
#
# Velocity S-wave (km/s) = 3.80285 4.10019 3.95432
# Velocity P-wave (km/s) = 6.26785 6.75281 6.51484
#
# Compressibility (1/GPa) = 0.01734593
#
# Stress axis : x y z
#
# Youngs Moduli (GPa) = 52.64387 143.81205 118.93297
#
# Poissons Ratio (x) = 0.42603 0.55256
# Poissons Ratio (y) = 0.15595 0.10671
# Poissons Ratio (z) = 0.24458 0.12904
#
# Static dielectric constant tensor:
#      x y z
#    x 2.400670 0.000000 -0.076320 
#    y 0.000000 2.178510 0.000000 
#    z -0.076320 0.000000 2.187130 
# 
# From -- ./inp_files/5072.got.cif
#   From: 2010.05.17/outbox.cif.g08.bks.cpg/sg4_3_cif.got.tgz:5072.got - 2010.06.03 18:43:04.
