data_PCOD9115257
_publ_section_title
;
Structure prediction by ZEFSAII (Michael W. Deem and Ramdas Pophale) SiO2 
 PCOD9115257
Probable space group: P 21
;
_chemical_formula_sum "Si O2"
_cell_formula_units_Z 16
_cell_length_a 18.096404
_cell_length_b 5.054296
_cell_length_c 8.736599
_cell_angle_alpha 90.000000
_cell_angle_beta 131.684495
_cell_angle_gamma 90.000000
_cell_volume 596.774472
_symmetry_space_group_name_H-M "P 21"
_symmetry_group_IT_number 4
_symmetry_cell_setting 'monoclinic'
loop_
_space_group_symop_operation_xyz
x,y,z
-x,1/2+y,-z
loop_
_atom_site_type_symbol
_atom_site_label
_atom_site_fract_x
_atom_site_fract_y
_atom_site_fract_z
Si Si1 0.353794 0.294460 0.697058
Si Si2 0.249512 0.819603 0.684233
Si Si3 0.768042 0.801658 0.767166
Si Si4 0.475523 0.046176 0.251514
Si Si5 0.895393 0.208484 0.741688
Si Si6 0.936419 0.410206 0.093425
Si Si7 0.608702 0.050169 0.747140
Si Si8 0.064438 0.616714 0.619914
O O1 0.296712 0.545843 0.689923
O O2 0.312316 0.204028 0.470935
O O3 0.459957 0.417841 0.795145
O O4 0.331734 0.051308 0.783408
O O5 0.171682 0.909093 0.444263
O O6 0.170271 0.732460 0.704523
O O7 0.710613 0.938841 0.826262
O O8 0.827516 0.016716 0.749214
O O9 0.837823 0.579783 0.935798
O O10 0.543002 0.055761 0.500598
O O11 0.389722 0.838724 0.177101
O O12 0.437930 0.346387 0.194185
O O13 0.964608 0.060405 0.717577
O O14 0.963480 0.351679 0.955917
O O15 0.924345 0.159199 0.181592
O O16 0.026881 0.318307 0.544442
#
# Coordination Sequence:
#
# PCOD9115257 Si02
#       8
#     2   2   2   2   2   2   2   2
#     4  10  20  36  61  86 121 151 203 242 294 355
#     4  11  22  40  58  88 117 160 197 250 291 348
#     4  10  22  34  54  89 118 159 194 248 294 358
#     4   9  17  31  52  82 115 159 178 237 296 360
#     4  11  23  37  60  85 120 160 204 246 299 350
#     4  12  24  39  60  84 122 164 204 247 298 352
#     4   9  18  30  50  80 125 148 187 227 306 354
#     4  12  28  43  61  84 122 165 207 247 296 349
#
# _framework density 26.810797999999998
#
# number of rings (size 3 to 8) (size 9 to 14) (size 15 to 20)
#    0.000    1.500    3.750    1.500    7.000    3.000 
#    0.000    0.000    0.000    0.000    0.000    3.500 
#    0.000    0.000    0.000    0.000    0.000    0.000 
#
# Total GULP energy -89427.276728 kJ/mol
# GULP energy per Si atom -5589.204795 kJ/mol
# Density = 2.674978 g / cm^3
# Si number density = 26.810798 Si / 1000 Ang^3
#
#
#
# Elastic Constant Matrix: (Units=GPa)
#
#
# Indices 1 2 3 4 5 6 
#
# 1 119.2222 9.1337 13.7931 0.0000 -12.6963 0.0000
# 2 9.1337 92.5323 6.1102 0.0000 -3.7067 0.0000
# 3 13.7931 6.1102 36.5965 0.0000 0.6714 0.0000
# 4 0.0000 0.0000 0.0000 34.8798 0.0000 -3.3477
# 5 -12.6963 -3.7067 0.6714 0.0000 31.6341 0.0000
# 6 0.0000 0.0000 0.0000 -3.3477 0.0000 52.2843
#
#
#
# Elastic Compliance Matrix: (Units=1/GPa)
#
#
# Indices 1 2 3 4 5 6 
#
# 1 0.009224 -0.000534 -0.003455 0.000000 0.003713 0.000000
# 2 -0.000534 0.011014 -0.001658 0.000000 0.001112 0.000000
# 3 -0.003455 -0.001658 0.028945 0.000000 -0.002195 0.000000
# 4 0.000000 0.000000 0.000000 0.028847 0.000000 0.001847
# 5 0.003713 0.001112 -0.002195 0.000000 0.033278 0.000000
# 6 0.000000 0.000000 0.000000 0.001847 0.000000 0.019244
#
#
# Mechanical properties :
#
#
# Convention : Reuss Voigt Hill
#
# Bulk Modulus (GPa) = 26.39380 34.04720 30.22050
# Shear Modulus (GPa) = 32.36759 38.38057 35.37408
#
# Velocity S-wave (km/s) = 3.47833 3.78767 3.63629
# Velocity P-wave (km/s) = 5.09878 5.64404 5.37833
#
# Compressibility (1/GPa) = 0.03788769
#
# Stress axis : x y z
#
# Youngs Moduli (GPa) = 108.41619 90.79575 34.54887
#
# Poissons Ratio (x) = 0.04844 0.11938
# Poissons Ratio (y) = 0.05785 0.05729
# Poissons Ratio (z) = 0.37462 0.15055
#
# Static dielectric constant tensor:
#      x y z
#    x 2.028720 0.000000 0.018960 
#    y 0.000000 2.076160 0.000000 
#    z 0.018960 0.000000 2.264580 
# 
# From -- ./inp_files/8858.got.cif
#   From: 2010.05.17/outbox.cif.g08.bks.cpg/sg4_5_cif.got.tgz:8858.got - 2010.06.03 18:43:04.
