data_PCOD9115456
_publ_section_title
;
Structure prediction by ZEFSAII (Michael W. Deem and Ramdas Pophale) SiO2 
 PCOD9115456
Probable space group: P 21
;
_chemical_formula_sum "Si O2"
_cell_formula_units_Z 16
_cell_length_a 7.094238
_cell_length_b 13.851420
_cell_length_c 8.531981
_cell_angle_alpha 90.000000
_cell_angle_beta 125.375238
_cell_angle_gamma 90.000000
_cell_volume 683.610870
_symmetry_space_group_name_H-M "P 21"
_symmetry_group_IT_number 4
_symmetry_cell_setting 'monoclinic'
loop_
_space_group_symop_operation_xyz
x,y,z
-x,1/2+y,-z
loop_
_atom_site_type_symbol
_atom_site_label
_atom_site_fract_x
_atom_site_fract_y
_atom_site_fract_z
Si Si1 0.300126 0.186390 0.306879
Si Si2 0.076050 0.756991 0.087164
Si Si3 0.456661 0.029650 0.847750
Si Si4 0.933340 0.967024 0.048560
Si Si5 0.100728 0.193952 0.666090
Si Si6 0.591728 0.827945 0.383218
Si Si7 0.888945 0.537723 0.547459
Si Si8 0.559662 0.521392 0.807453
O O1 0.381367 0.283572 0.430071
O O2 0.285781 0.107558 0.439713
O O3 0.454767 0.133141 0.251141
O O4 0.042298 0.198428 0.110868
O O5 0.032602 0.711782 0.237854
O O6 0.343407 0.787390 0.201568
O O7 0.919743 0.853849 0.012843
O O8 0.337468 0.133669 0.813226
O O9 0.265852 0.977146 0.647929
O O10 0.705369 0.023531 0.888911
O O11 0.491619 0.993344 0.039437
O O12 0.980661 0.981604 0.256599
O O13 0.165755 0.001763 0.077725
O O14 0.194241 0.286511 0.615970
O O15 0.974703 0.116458 0.490796
O O16 0.571538 0.943374 0.363407
#
# Coordination Sequence:
#
# PCOD9115456 Si02
#       8
#     2   2   2   2   2   2   2   2
#     4  10  20  39  61  87 121 155 200 248 293 358
#     4  11  22  39  59  89 120 155 202 245 294 363
#     4  10  20  39  63  83 121 161 191 251 301 347
#     4  10  22  37  62  85 118 161 194 245 303 346
#     4   9  20  39  59  85 121 153 199 249 290 356
#     4  10  23  40  60  89 122 160 196 253 302 340
#     4   8  20  37  58  87 115 149 202 244 283 362
#     4  10  21  40  62  89 122 156 208 243 292 374
#
# _framework density 23.405127
#
# number of rings (size 3 to 8) (size 9 to 14) (size 15 to 20)
#    0.750    1.500    1.250    0.750    3.500    4.000 
#    0.000    8.750    0.000    0.000    0.000    0.000 
#    0.000    0.000    0.000    0.000    0.000    0.000 
#
# Total GULP energy -89182.823899 kJ/mol
# GULP energy per Si atom -5573.926494 kJ/mol
# Density = 2.335186 g / cm^3
# Si number density = 23.405127 Si / 1000 Ang^3
#
#
#
# Elastic Constant Matrix: (Units=GPa)
#
#
# Indices 1 2 3 4 5 6 
#
# 1 68.7764 -12.2136 16.2692 0.0000 1.5292 0.0000
# 2 -12.2136 42.8229 3.0061 0.0000 -7.1474 0.0000
# 3 16.2692 3.0061 85.3038 0.0000 -3.7459 0.0000
# 4 0.0000 0.0000 0.0000 16.1031 0.0000 14.5343
# 5 1.5292 -7.1474 -3.7459 0.0000 18.1579 0.0000
# 6 0.0000 0.0000 0.0000 14.5343 0.0000 6.4778
#
#
#
# Elastic Compliance Matrix: (Units=1/GPa)
#
#
# Indices 1 2 3 4 5 6 
#
# 1 0.016170 0.004818 -0.003260 0.000000 -0.000138 0.000000
# 2 0.004818 0.026447 -0.001424 0.000000 0.009711 0.000000
# 3 -0.003260 -0.001424 0.012495 0.000000 0.002292 0.000000
# 4 0.000000 0.000000 0.000000 -0.060576 0.000000 0.135917
# 5 -0.000138 0.009711 0.002292 0.000000 0.059379 0.000000
# 6 0.000000 0.000000 0.000000 0.135917 0.000000 -0.150587
#
#
# Mechanical properties :
#
#
# Convention : Reuss Voigt Hill
#
# Bulk Modulus (GPa) = 18.05752 23.44739 20.75246
# Shear Modulus (GPa) = -63.71030 20.80384 -21.45323
#
# Velocity S-wave (km/s) = -5.22300 2.98461 -3.03083
# Velocity P-wave (km/s) = 5.35173 4.68156 1.83359
#
# Compressibility (1/GPa) = 0.05537858
#
# Stress axis : x y z
#
# Youngs Moduli (GPa) = 61.84466 37.81187 80.02992
#
# Poissons Ratio (x) = -0.18216 0.26087
# Poissons Ratio (y) = -0.29794 0.11399
# Poissons Ratio (z) = 0.20159 0.05386
#
# Static dielectric constant tensor:
#      x y z
#    x 1.996200 0.000000 -0.087130 
#    y 0.000000 1.936030 0.000000 
#    z -0.087130 0.000000 1.952160 
# 
# From -- ./inp_files/6787.got.cif
#   From: 2010.05.17/outbox.cif.g08.bks.cpg/sg4_4_cif.got.tgz:6787.got - 2010.06.03 18:43:04.
