data_PCOD9115943
_publ_section_title
;
Structure prediction by ZEFSAII (Michael W. Deem and Ramdas Pophale) SiO2 
 PCOD9115943
Probable space group: P 21
;
_chemical_formula_sum "Si O2"
_cell_formula_units_Z 16
_cell_length_a 17.356572
_cell_length_b 5.114880
_cell_length_c 9.083514
_cell_angle_alpha 90.000000
_cell_angle_beta 54.689615
_cell_angle_gamma 90.000000
_cell_volume 658.053085
_symmetry_space_group_name_H-M "P 21"
_symmetry_group_IT_number 4
_symmetry_cell_setting 'monoclinic'
loop_
_space_group_symop_operation_xyz
x,y,z
-x,1/2+y,-z
loop_
_atom_site_type_symbol
_atom_site_label
_atom_site_fract_x
_atom_site_fract_y
_atom_site_fract_z
Si Si1 0.911270 0.576720 0.626188
Si Si2 0.548572 0.702851 0.871908
Si Si3 0.114829 0.692907 0.545035
Si Si4 0.992595 0.968155 0.083542
Si Si5 0.543173 0.775581 0.523649
Si Si6 0.287412 0.398823 0.860831
Si Si7 0.265449 0.432937 0.206420
Si Si8 0.819714 0.382439 0.984374
O O1 0.901230 0.499839 0.466848
O O2 0.833084 0.797031 0.735344
O O3 0.018784 0.596823 0.560581
O O4 0.859606 0.345614 0.775683
O O5 0.657351 0.752447 0.799530
O O6 0.540019 0.733367 0.703514
O O7 0.512137 0.427616 0.977048
O O8 0.093113 0.577115 0.727018
O O9 0.220779 0.625418 0.377333
O O10 0.000259 0.157679 0.935617
O O11 0.092176 0.038735 0.047468
O O12 0.471095 0.998001 0.543942
O O13 0.639398 0.897053 0.352065
O O14 0.262617 0.094955 0.913687
O O15 0.206448 0.609394 0.914472
O O16 0.314385 0.508755 0.995858
#
# Coordination Sequence:
#
# PCOD9115943 Si02
#       8
#     2   2   2   2   2   2   2   2
#     4  10  21  38  65 103 134 181 238 290 345 417
#     4  12  29  51  76 112 151 191 246 314 373 435
#     4  11  22  39  68  96 142 184 237 293 348 423
#     4  11  26  42  59  89 136 189 229 282 348 410
#     4  12  26  50  78 106 144 192 240 302 382 452
#     4  11  22  41  68 103 133 180 230 288 349 438
#     4  11  24  40  71 105 145 185 240 300 364 423
#     4  10  22  39  65  92 135 176 230 279 339 416
#
# _framework density 24.314146000000001
#
# number of rings (size 3 to 8) (size 9 to 14) (size 15 to 20)
#    0.000    1.000    2.500    3.750    3.500    3.000 
#    0.000    0.000    0.000    0.000    0.000    0.000 
#    0.000    0.000    0.000    0.000    0.000    0.000 
#
# Total GULP energy -89094.672303 kJ/mol
# GULP energy per Si atom -5568.417019 kJ/mol
# Density = 2.425881 g / cm^3
# Si number density = 24.314146 Si / 1000 Ang^3
#
#
#
# Elastic Constant Matrix: (Units=GPa)
#
#
# Indices 1 2 3 4 5 6 
#
# 1 50.8237 -5.2216 24.6852 0.0000 2.4049 0.0000
# 2 -5.2216 83.5908 19.0064 0.0000 -5.1003 0.0000
# 3 24.6852 19.0064 142.7419 0.0000 4.3349 0.0000
# 4 0.0000 0.0000 0.0000 37.1242 0.0000 -4.2853
# 5 2.4049 -5.1003 4.3349 0.0000 31.6566 0.0000
# 6 0.0000 0.0000 0.0000 -4.2853 0.0000 24.4717
#
#
#
# Elastic Compliance Matrix: (Units=1/GPa)
#
#
# Indices 1 2 3 4 5 6 
#
# 1 0.021918 0.002248 -0.004067 0.000000 -0.000746 0.000000
# 2 0.002248 0.012725 -0.002149 0.000000 0.002174 0.000000
# 3 -0.004067 -0.002149 0.008030 0.000000 -0.001137 0.000000
# 4 0.000000 0.000000 0.000000 0.027492 0.000000 0.004814
# 5 -0.000746 0.002174 -0.001137 0.000000 0.032151 0.000000
# 6 0.000000 0.000000 0.000000 0.004814 0.000000 0.041707
#
#
# Mechanical properties :
#
#
# Convention : Reuss Voigt Hill
#
# Bulk Modulus (GPa) = 28.78837 39.34404 34.06621
# Shear Modulus (GPa) = 30.57414 34.56293 32.56854
#
# Velocity S-wave (km/s) = 3.54992 3.77439 3.66387
# Velocity P-wave (km/s) = 5.35429 5.93392 5.65154
#
# Compressibility (1/GPa) = 0.03473625
#
# Stress axis : x y z
#
# Youngs Moduli (GPa) = 45.62559 78.58685 124.53802
#
# Poissons Ratio (x) = -0.17669 0.50650
# Poissons Ratio (y) = -0.10258 0.26765
# Poissons Ratio (z) = 0.18556 0.16890
#
# Static dielectric constant tensor:
#      x y z
#    x 2.038270 0.000000 0.076520 
#    y 0.000000 2.075700 0.000000 
#    z 0.076520 0.000000 2.097440 
# 
# From -- ./inp_files/9485.got.cif
#   From: 2010.05.17/outbox.cif.g08.bks.cpg/sg4_5_cif.got.tgz:9485.got - 2010.06.03 18:43:04.
