data_PCOD9115935
_publ_section_title
;
Structure prediction by ZEFSAII (Michael W. Deem and Ramdas Pophale) SiO2 
 PCOD9115935
Probable space group: P 21
;
_chemical_formula_sum "Si O2"
_cell_formula_units_Z 14
_cell_length_a 12.144365
_cell_length_b 10.044752
_cell_length_c 5.741343
_cell_angle_alpha 90.000000
_cell_angle_beta 133.097305
_cell_angle_gamma 90.000000
_cell_volume 511.406249
_symmetry_space_group_name_H-M "P 21"
_symmetry_group_IT_number 4
_symmetry_cell_setting 'monoclinic'
loop_
_space_group_symop_operation_xyz
x,y,z
-x,1/2+y,-z
loop_
_atom_site_type_symbol
_atom_site_label
_atom_site_fract_x
_atom_site_fract_y
_atom_site_fract_z
Si Si1 0.248230 0.616290 0.999059
Si Si2 0.427579 0.420613 0.002220
Si Si3 0.938635 0.914927 0.021895
Si Si4 0.508558 0.334942 0.620346
Si Si5 0.254458 0.077244 0.507897
Si Si6 0.999807 0.341920 0.388395
Si Si7 0.239820 0.071557 0.986908
O O1 0.186381 0.529706 0.124724
O O2 0.121352 0.724447 0.770095
O O3 0.292175 0.526464 0.839718
O O4 0.397538 0.699282 0.267692
O O5 0.427048 0.350584 0.254869
O O6 0.590605 0.493979 0.245736
O O7 0.429031 0.343503 0.758991
O O8 0.926002 0.839857 0.250424
O O9 0.108153 0.979190 0.278417
O O10 0.928425 0.836392 0.765550
O O11 0.628739 0.458108 0.810337
O O12 0.244265 0.144706 0.745762
O O13 0.255572 0.143379 0.256237
O O14 0.913518 0.484739 0.248672
#
# Coordination Sequence:
#
# PCOD9115935 Si02
#       7
#     2   2   2   2   2   2   2
#     4  11  24  42  74  97 130 187 220 270 354 391
#     4  10  21  38  63  95 129 170 222 272 327 401
#     4  10  21  38  63  95 129 170 222 272 327 401
#     4   9  20  37  58  92 130 163 216 273 319 394
#     4   8  14  30  50  76 116 152 190 252 306 356
#     4   9  20  37  58  92 130 163 216 273 319 394
#     4   7  12  26  50  71 104 153 186 234 304 351
#
# _framework density 27.375495999999998
#
# number of rings (size 3 to 8) (size 9 to 14) (size 15 to 20)
#    0.000    2.857    0.000    1.714    0.000    5.714 
#    0.000    2.857    0.000    6.857    0.000    0.000 
#    0.000    0.000    0.000    0.000    0.000    0.000 
#
# Total GULP energy -78328.920275 kJ/mol
# GULP energy per Si atom -5594.922877 kJ/mol
# Density = 2.731319 g / cm^3
# Si number density = 27.375496 Si / 1000 Ang^3
#
#
#
# Elastic Constant Matrix: (Units=GPa)
#
#
# Indices 1 2 3 4 5 6 
#
# 1 213.7844 79.0060 102.8712 0.0000 -33.1324 0.0000
# 2 79.0060 77.7960 70.7551 0.0000 -15.5253 0.0000
# 3 102.8712 70.7551 210.8254 0.0000 -68.2873 0.0000
# 4 0.0000 0.0000 0.0000 58.9530 0.0000 -27.8260
# 5 -33.1324 -15.5253 -68.2873 0.0000 72.3979 0.0000
# 6 0.0000 0.0000 0.0000 -27.8260 0.0000 174.9023
#
#
#
# Elastic Compliance Matrix: (Units=1/GPa)
#
#
# Indices 1 2 3 4 5 6 
#
# 1 0.007919 -0.006647 -0.001326 0.000000 0.000948 0.000000
# 2 -0.006647 0.024460 -0.006123 0.000000 -0.003572 0.000000
# 3 -0.001326 -0.006123 0.009825 0.000000 0.007347 0.000000
# 4 0.000000 0.000000 0.000000 0.018340 0.000000 0.002918
# 5 0.000948 -0.003572 0.007347 0.000000 0.020410 0.000000
# 6 0.000000 0.000000 0.000000 0.002918 0.000000 0.006182
#
#
# Mechanical properties :
#
#
# Convention : Reuss Voigt Hill
#
# Bulk Modulus (GPa) = 71.36416 111.96338 91.66377
# Shear Modulus (GPa) = 41.66710 77.90220 59.78465
#
# Velocity S-wave (km/s) = 3.90559 5.34029 4.67826
# Velocity P-wave (km/s) = 6.81641 8.88892 7.92074
#
# Compressibility (1/GPa) = 0.01401264
#
# Stress axis : x y z
#
# Youngs Moduli (GPa) = 126.27655 40.88301 101.78027
#
# Poissons Ratio (x) = 0.27174 0.13500
# Poissons Ratio (y) = 0.83934 0.62316
# Poissons Ratio (z) = 0.16749 0.25031
#
# Static dielectric constant tensor:
#      x y z
#    x 2.087910 0.000000 0.063500 
#    y 0.000000 2.151480 0.000000 
#    z 0.063500 0.000000 2.058660 
# 
# From -- ./inp_files/3110.got.cif
#   From: 2010.05.17/outbox.cif.g08.bks.cpg/sg4_2_cif.got.tgz:3110.got - 2010.06.03 18:43:04.
