data_PCOD9115597
_publ_section_title
;
Structure prediction by ZEFSAII (Michael W. Deem and Ramdas Pophale) SiO2 
 PCOD9115597
Probable space group: P 21
;
_chemical_formula_sum "Si O2"
_cell_formula_units_Z 10
_cell_length_a 8.890253
_cell_length_b 11.375049
_cell_length_c 5.036907
_cell_angle_alpha 90.000000
_cell_angle_beta 121.793850
_cell_angle_gamma 90.000000
_cell_volume 432.936622
_symmetry_space_group_name_H-M "P 21"
_symmetry_group_IT_number 4
_symmetry_cell_setting 'monoclinic'
loop_
_space_group_symop_operation_xyz
x,y,z
-x,1/2+y,-z
loop_
_atom_site_type_symbol
_atom_site_label
_atom_site_fract_x
_atom_site_fract_y
_atom_site_fract_z
Si Si1 0.414071 0.428910 0.934485
Si Si2 0.519727 0.778662 0.503754
Si Si3 0.151735 0.840721 0.233738
Si Si4 0.287421 0.063864 0.069164
Si Si5 0.020672 0.434573 0.408834
O O1 0.456798 0.319176 0.776949
O O2 0.559973 0.525001 0.993376
O O3 0.216897 0.465670 0.675197
O O4 0.426768 0.383572 0.244599
O O5 0.310748 0.747495 0.355435
O O6 0.648644 0.675803 0.715067
O O7 0.072895 0.859129 0.447863
O O8 0.259162 0.958645 0.251904
O O9 0.998088 0.851477 0.869630
O O10 0.096990 0.052461 0.748240
#
# Coordination Sequence:
#
# PCOD9115597 Si02
#       5
#     2   2   2   2   2
#     4  11  23  40  62  88 119 159 194 246 295 348
#     4  11  21  39  65  85 119 163 194 238 301 350
#     4   9  19  39  59  82 120 155 185 255 280 337
#     4   9  23  39  62  85 125 151 204 235 298 345
#     4  10  20  41  58  82 123 152 189 252 286 334
#
# _framework density 23.098065999999999
#
# number of rings (size 3 to 8) (size 9 to 14) (size 15 to 20)
#    1.200    0.800    2.000    1.200    2.800    0.000 
#    7.200    0.000    0.000    0.000    0.000    0.000 
#    0.000    0.000    0.000    0.000    0.000    0.000 
#
# Total GULP energy -55768.556034 kJ/mol
# GULP energy per Si atom -5576.855603 kJ/mol
# Density = 2.304549 g / cm^3
# Si number density = 23.098066 Si / 1000 Ang^3
#
#
#
# Elastic Constant Matrix: (Units=GPa)
#
#
# Indices 1 2 3 4 5 6 
#
# 1 47.2243 -4.2626 -3.3842 0.0000 11.3162 0.0000
# 2 -4.2626 18.2062 -10.0018 0.0000 5.6054 0.0000
# 3 -3.3842 -10.0018 88.6677 0.0000 12.0192 0.0000
# 4 0.0000 0.0000 0.0000 17.5944 0.0000 -2.5521
# 5 11.3162 5.6054 12.0192 0.0000 50.0640 0.0000
# 6 0.0000 0.0000 0.0000 -2.5521 0.0000 5.7260
#
#
#
# Elastic Compliance Matrix: (Units=1/GPa)
#
#
# Indices 1 2 3 4 5 6 
#
# 1 0.023961 0.009444 0.002953 0.000000 -0.007182 0.000000
# 2 0.009444 0.065921 0.009392 0.000000 -0.011770 0.000000
# 3 0.002953 0.009392 0.013110 0.000000 -0.004866 0.000000
# 4 0.000000 0.000000 0.000000 0.060765 0.000000 0.027083
# 5 -0.007182 -0.011770 -0.004866 0.000000 0.024084 0.000000
# 6 0.000000 0.000000 0.000000 0.027083 0.000000 0.186711
#
#
# Mechanical properties :
#
#
# Convention : Reuss Voigt Hill
#
# Bulk Modulus (GPa) = 6.82270 13.20009 10.01139
# Shear Modulus (GPa) = 13.16379 26.12668 19.64523
#
# Velocity S-wave (km/s) = 2.38987 3.36686 2.91952
# Velocity P-wave (km/s) = 3.25200 4.56525 3.96340
#
# Compressibility (1/GPa) = 0.14656956
#
# Stress axis : x y z
#
# Youngs Moduli (GPa) = 41.73494 15.16971 76.27838
#
# Poissons Ratio (x) = -0.14326 -0.22528
# Poissons Ratio (y) = -0.39414 -0.71640
# Poissons Ratio (z) = -0.12326 -0.14247
#
# Static dielectric constant tensor:
#      x y z
#    x 1.882940 0.000000 0.047080 
#    y 0.000000 1.894450 0.000000 
#    z 0.047080 0.000000 1.893400 
# 
# From -- ./inp_files/299.got.cif
#   From: 2010.05.17/outbox.cif.g08.bks.cpg/sg4_1_cif.got.tgz:299.got - 2010.06.03 18:43:04.
