data_PCOD9115830
_publ_section_title
;
Structure prediction by ZEFSAII (Michael W. Deem and Ramdas Pophale) SiO2 
 PCOD9115830
Probable space group: P 21
;
_chemical_formula_sum "Si O2"
_cell_formula_units_Z 12
_cell_length_a 9.264896
_cell_length_b 4.955899
_cell_length_c 10.564460
_cell_angle_alpha 90.000000
_cell_angle_beta 73.903767
_cell_angle_gamma 90.000000
_cell_volume 466.060301
_symmetry_space_group_name_H-M "P 21"
_symmetry_group_IT_number 4
_symmetry_cell_setting 'monoclinic'
loop_
_space_group_symop_operation_xyz
x,y,z
-x,1/2+y,-z
loop_
_atom_site_type_symbol
_atom_site_label
_atom_site_fract_x
_atom_site_fract_y
_atom_site_fract_z
Si Si1 0.635491 0.109150 0.341147
Si Si2 0.353011 0.431949 0.387537
Si Si3 0.348353 0.755844 0.142022
Si Si4 0.062620 0.120523 0.546857
Si Si5 0.820906 0.607848 0.222590
Si Si6 0.705357 0.754338 0.995747
O O1 0.490402 0.240601 0.313570
O O2 0.769703 0.304991 0.265946
O O3 0.607757 0.108012 0.498006
O O4 0.683964 0.810938 0.291706
O O5 0.309226 0.627010 0.285041
O O6 0.222722 0.234605 0.465111
O O7 0.278713 0.560399 0.051773
O O8 0.291362 0.053531 0.124629
O O9 0.530586 0.733545 0.084470
O O10 0.053457 0.163260 0.700956
O O11 0.954757 0.313010 0.491269
O O12 0.825468 0.662603 0.072088
#
# Coordination Sequence:
#
# PCOD9115830 Si02
#       6
#     2   2   2   2   2   2
#     4  11  23  35  62  96 121 157 196 251 329 369
#     4  11  23  39  62  92 128 158 202 256 309 373
#     4  10  22  34  58  88 132 156 192 235 300 378
#     4  11  25  42  61  90 121 164 211 258 305 352
#     4  11  22  41  64  89 129 159 201 251 309 375
#     4  10  21  37  55  91 127 162 188 235 302 375
#
# _framework density 25.747738999999999
#
# number of rings (size 3 to 8) (size 9 to 14) (size 15 to 20)
#    0.000    1.333    1.667    5.000    4.667    5.333 
#    0.000    0.000    0.000    4.000    0.000    0.000 
#    0.000    0.000    0.000    0.000    0.000    0.000 
#
# Total GULP energy -67221.620345 kJ/mol
# GULP energy per Si atom -5601.801695 kJ/mol
# Density = 2.568914 g / cm^3
# Si number density = 25.747739 Si / 1000 Ang^3
#
#
#
# Elastic Constant Matrix: (Units=GPa)
#
#
# Indices 1 2 3 4 5 6 
#
# 1 48.0513 0.6109 10.9902 0.0000 25.6946 0.0000
# 2 0.6109 55.7292 10.7977 0.0000 -4.5268 0.0000
# 3 10.9902 10.7977 94.9213 0.0000 44.4132 0.0000
# 4 0.0000 0.0000 0.0000 38.2537 0.0000 4.3698
# 5 25.6946 -4.5268 44.4132 0.0000 36.1687 0.0000
# 6 0.0000 0.0000 0.0000 4.3698 0.0000 28.9581
#
#
#
# Elastic Compliance Matrix: (Units=1/GPa)
#
#
# Indices 1 2 3 4 5 6 
#
# 1 0.061405 -0.015377 0.037492 0.000000 -0.091585 0.000000
# 2 -0.015377 0.024453 -0.017733 0.000000 0.035759 0.000000
# 3 0.037492 -0.017733 0.051033 0.000000 -0.091520 0.000000
# 4 0.000000 0.000000 0.000000 0.026600 0.000000 -0.004014
# 5 -0.091585 0.035759 -0.091520 0.000000 0.209568 0.000000
# 6 0.000000 0.000000 0.000000 -0.004014 0.000000 0.035138
#
#
# Mechanical properties :
#
#
# Convention : Reuss Voigt Hill
#
# Bulk Modulus (GPa) = 6.86548 27.05548 16.96048
# Shear Modulus (GPa) = 11.16111 32.42961 21.79536
#
# Velocity S-wave (km/s) = 2.08428 3.55281 2.91262
# Velocity P-wave (km/s) = 2.90938 5.23074 4.23233
#
# Compressibility (1/GPa) = 0.14565622
#
# Stress axis : x y z
#
# Youngs Moduli (GPa) = 16.28524 40.89507 19.59525
#
# Poissons Ratio (x) = 0.62882 -0.73466
# Poissons Ratio (y) = 0.25041 0.34748
# Poissons Ratio (z) = -0.61056 0.72518
#
# Static dielectric constant tensor:
#      x y z
#    x 2.053110 0.000000 0.022560 
#    y 0.000000 1.928410 0.000000 
#    z 0.022560 0.000000 2.041570 
# 
# From -- ./inp_files/10651.got.cif
#   From: 2010.05.17/outbox.cif.g08.bks.cpg/sg4_6_cif.got.tgz:10651.got - 2010.06.03 18:43:04.
