data_PCOD9115415
_publ_section_title
;
Structure prediction by ZEFSAII (Michael W. Deem and Ramdas Pophale) SiO2 
 PCOD9115415
Probable space group: P 21
;
_chemical_formula_sum "Si O2"
_cell_formula_units_Z 12
_cell_length_a 16.274914
_cell_length_b 5.089264
_cell_length_c 8.338018
_cell_angle_alpha 90.000000
_cell_angle_beta 39.390351
_cell_angle_gamma 90.000000
_cell_volume 438.265043
_symmetry_space_group_name_H-M "P 21"
_symmetry_group_IT_number 4
_symmetry_cell_setting 'monoclinic'
loop_
_space_group_symop_operation_xyz
x,y,z
-x,1/2+y,-z
loop_
_atom_site_type_symbol
_atom_site_label
_atom_site_fract_x
_atom_site_fract_y
_atom_site_fract_z
Si Si1 0.320455 0.862910 0.219814
Si Si2 0.822565 0.770598 0.890162
Si Si3 0.419188 0.638285 0.756201
Si Si4 0.109378 0.766791 0.008983
Si Si5 0.368867 0.811693 0.475121
Si Si6 0.155058 0.358844 0.490544
O O1 0.203396 0.653334 0.395593
O O2 0.410372 0.755581 0.229895
O O3 0.269274 0.149394 0.346500
O O4 0.373779 0.845076 0.959344
O O5 0.881051 0.982330 0.924587
O O6 0.834719 0.486998 0.951974
O O7 0.894722 0.772817 0.611030
O O8 0.679011 0.890806 0.071222
O O9 0.566883 0.590063 0.583188
O O10 0.412016 0.674362 0.575835
O O11 0.214216 0.785838 0.710814
O O12 0.960096 0.833263 0.208671
#
# Coordination Sequence:
#
# PCOD9115415 Si02
#       6
#     2   2   2   2   2   2
#     4  11  27  45  70 102 137 183 230 280 343 409
#     4  10  20  38  65 100 135 181 231 278 340 408
#     4  10  24  45  70 101 140 182 233 286 342 411
#     4  11  22  38  68 101 136 180 228 282 346 408
#     4  11  25  44  71 103 137 181 229 285 347 407
#     4  11  22  42  66  99 141 179 227 285 340 409
#
# _framework density 27.380687999999999
#
# number of rings (size 3 to 8) (size 9 to 14) (size 15 to 20)
#    0.000    1.333    0.000    6.000    0.000   10.667 
#    0.000    0.000    0.000    0.000    0.000    0.000 
#    0.000    0.000    0.000    0.000    0.000    0.000 
#
# Total GULP energy -67108.762328 kJ/mol
# GULP energy per Si atom -5592.396861 kJ/mol
# Density = 2.731837 g / cm^3
# Si number density = 27.380688 Si / 1000 Ang^3
#
#
#
# Elastic Constant Matrix: (Units=GPa)
#
#
# Indices 1 2 3 4 5 6 
#
# 1 104.4406 20.8995 38.1415 0.0000 30.6151 0.0000
# 2 20.8995 69.3059 12.5580 0.0000 10.5518 0.0000
# 3 38.1415 12.5580 113.2579 0.0000 3.0633 0.0000
# 4 0.0000 0.0000 0.0000 28.2376 0.0000 -5.7925
# 5 30.6151 10.5518 3.0633 0.0000 48.8798 0.0000
# 6 0.0000 0.0000 0.0000 -5.7925 0.0000 35.4110
#
#
#
# Elastic Compliance Matrix: (Units=1/GPa)
#
#
# Indices 1 2 3 4 5 6 
#
# 1 0.013891 -0.002213 -0.004217 0.000000 -0.007958 0.000000
# 2 -0.002213 0.015556 -0.000928 0.000000 -0.001914 0.000000
# 3 -0.004217 -0.000928 0.010293 0.000000 0.002197 0.000000
# 4 0.000000 0.000000 0.000000 0.036643 0.000000 0.005994
# 5 -0.007958 -0.001914 0.002197 0.000000 0.025718 0.000000
# 6 0.000000 0.000000 0.000000 0.005994 0.000000 0.029220
#
#
# Mechanical properties :
#
#
# Convention : Reuss Voigt Hill
#
# Bulk Modulus (GPa) = 39.96285 47.80025 43.88155
# Shear Modulus (GPa) = 32.38793 36.86603 34.62698
#
# Velocity S-wave (km/s) = 3.44303 3.67335 3.56005
# Velocity P-wave (km/s) = 5.51660 5.95708 5.74107
#
# Compressibility (1/GPa) = 0.02502324
#
# Stress axis : x y z
#
# Youngs Moduli (GPa) = 71.99116 64.28548 97.15243
#
# Poissons Ratio (x) = 0.14226 0.40972
# Poissons Ratio (y) = 0.15932 0.09014
# Poissons Ratio (z) = 0.30361 0.05964
#
# Static dielectric constant tensor:
#      x y z
#    x 2.129700 0.000000 -0.088670 
#    y 0.000000 2.125980 0.000000 
#    z -0.088670 0.000000 2.216870 
# 
# From -- ./inp_files/9444.got.cif
#   From: 2010.05.17/outbox.cif.g08.bks.cpg/sg4_5_cif.got.tgz:9444.got - 2010.06.03 18:43:04.
