data_PCOD9115657
_publ_section_title
;
Structure prediction by ZEFSAII (Michael W. Deem and Ramdas Pophale) SiO2 
 PCOD9115657
Probable space group: P 21
;
_chemical_formula_sum "Si O2"
_cell_formula_units_Z 16
_cell_length_a 8.748544
_cell_length_b 11.715960
_cell_length_c 11.976981
_cell_angle_alpha 90.000000
_cell_angle_beta 145.395066
_cell_angle_gamma 90.000000
_cell_volume 697.178644
_symmetry_space_group_name_H-M "P 21"
_symmetry_group_IT_number 4
_symmetry_cell_setting 'monoclinic'
loop_
_space_group_symop_operation_xyz
x,y,z
-x,1/2+y,-z
loop_
_atom_site_type_symbol
_atom_site_label
_atom_site_fract_x
_atom_site_fract_y
_atom_site_fract_z
Si Si1 0.175750 0.095870 0.429085
Si Si2 0.484527 0.850750 0.922628
Si Si3 0.237248 0.551031 0.012374
Si Si4 0.481329 0.804333 0.169889
Si Si5 0.071511 0.705197 0.526603
Si Si6 0.772373 0.009782 0.758474
Si Si7 0.567949 0.841996 0.460739
Si Si8 0.931783 0.229135 0.727057
O O1 0.265254 0.225713 0.458086
O O2 0.013362 0.097725 0.447676
O O3 0.456547 0.031327 0.597022
O O4 0.985836 0.056166 0.216616
O O5 0.395587 0.854114 0.998886
O O6 0.778154 0.789330 0.095709
O O7 0.287103 0.776346 0.727245
O O8 0.522067 0.976565 0.895104
O O9 0.331454 0.681330 0.094514
O O10 0.125950 0.487602 0.055585
O O11 0.468659 0.876071 0.276631
O O12 0.797634 0.777289 0.349482
O O13 0.148730 0.684977 0.445168
O O14 0.756811 0.922220 0.647919
O O15 0.918718 0.122074 0.801982
O O16 0.304455 0.811919 0.373739
#
# Coordination Sequence:
#
# PCOD9115657 Si02
#       8
#     2   2   2   2   2   2   2   2
#     4  10  22  42  67  91 131 170 215 269 325 387
#     4  11  24  40  67  99 124 174 220 270 322 395
#     4  12  22  41  70  92 128 174 218 259 342 379
#     4  10  22  46  63  92 135 165 214 285 311 394
#     4  10  20  42  62  88 129 169 205 275 321 372
#     4  11  23  42  66  94 127 185 209 267 334 390
#     4  10  21  45  65  91 137 172 218 267 333 382
#     4  10  22  40  62  97 135 159 223 278 310 395
#
# _framework density 22.949641
#
# number of rings (size 3 to 8) (size 9 to 14) (size 15 to 20)
#    0.000    1.500    5.000    1.500    0.000    5.000 
#   11.250    0.000    0.000    0.000    0.000    0.000 
#    0.000    0.000    0.000    0.000    0.000    0.000 
#
# Total GULP energy -89390.850857 kJ/mol
# GULP energy per Si atom -5586.928179 kJ/mol
# Density = 2.289741 g / cm^3
# Si number density = 22.949641 Si / 1000 Ang^3
#
#
#
# Elastic Constant Matrix: (Units=GPa)
#
#
# Indices 1 2 3 4 5 6 
#
# 1 113.5448 9.3155 43.3520 0.0000 -36.9962 0.0000
# 2 9.3155 35.6896 3.0119 0.0000 -11.2509 0.0000
# 3 43.3520 3.0119 106.3250 0.0000 -23.1846 0.0000
# 4 0.0000 0.0000 0.0000 31.3297 0.0000 -5.9830
# 5 -36.9962 -11.2509 -23.1846 0.0000 54.4281 0.0000
# 6 0.0000 0.0000 0.0000 -5.9830 0.0000 16.1188
#
#
#
# Elastic Compliance Matrix: (Units=1/GPa)
#
#
# Indices 1 2 3 4 5 6 
#
# 1 0.012444 -0.000813 -0.003575 0.000000 0.006767 0.000000
# 2 -0.000813 0.030055 0.000787 0.000000 0.005996 0.000000
# 3 -0.003575 0.000787 0.011405 0.000000 0.002591 0.000000
# 4 0.000000 0.000000 0.000000 0.034354 0.000000 0.012751
# 5 0.006767 0.005996 0.002591 0.000000 0.025316 0.000000
# 6 0.000000 0.000000 0.000000 0.012751 0.000000 0.066773
#
#
# Mechanical properties :
#
#
# Convention : Reuss Voigt Hill
#
# Bulk Modulus (GPa) = 21.41171 40.76869 31.09020
# Shear Modulus (GPa) = 24.61655 33.70065 29.15860
#
# Velocity S-wave (km/s) = 3.27866 3.83621 3.56834
# Velocity P-wave (km/s) = 4.86651 6.11759 5.52756
#
# Compressibility (1/GPa) = 0.04670342
#
# Stress axis : x y z
#
# Youngs Moduli (GPa) = 80.36137 33.27218 87.67726
#
# Poissons Ratio (x) = 0.02705 0.31345
# Poissons Ratio (y) = 0.06533 -0.06904
# Poissons Ratio (z) = 0.28729 -0.02620
#
# Static dielectric constant tensor:
#      x y z
#    x 1.898580 0.000000 -0.030230 
#    y 0.000000 1.878880 0.000000 
#    z -0.030230 0.000000 1.865450 
# 
# From -- ./inp_files/11392.got.cif
#   From: 2010.05.17/outbox.cif.g08.bks.cpg/sg4_6_cif.got.tgz:11392.got - 2010.06.03 18:43:04.
