data_PCOD9115522
_publ_section_title
;
Structure prediction by ZEFSAII (Michael W. Deem and Ramdas Pophale) SiO2 
 PCOD9115522
Probable space group: P 21
;
_chemical_formula_sum "Si O2"
_cell_formula_units_Z 14
_cell_length_a 7.571429
_cell_length_b 8.174598
_cell_length_c 14.116084
_cell_angle_alpha 90.000000
_cell_angle_beta 38.904141
_cell_angle_gamma 90.000000
_cell_volume 548.695610
_symmetry_space_group_name_H-M "P 21"
_symmetry_group_IT_number 4
_symmetry_cell_setting 'monoclinic'
loop_
_space_group_symop_operation_xyz
x,y,z
-x,1/2+y,-z
loop_
_atom_site_type_symbol
_atom_site_label
_atom_site_fract_x
_atom_site_fract_y
_atom_site_fract_z
Si Si1 0.430143 0.606440 0.071408
Si Si2 0.764207 0.652031 0.211773
Si Si3 0.051381 0.961932 0.022351
Si Si4 0.287833 0.967040 0.207864
Si Si5 0.911897 0.500743 0.390600
Si Si6 0.846028 0.260665 0.571942
Si Si7 0.266734 0.458901 0.665601
O O1 0.389859 0.793716 0.119442
O O2 0.136907 0.515361 0.213468
O O3 0.667278 0.517967 0.037552
O O4 0.515015 0.596122 0.926202
O O5 0.429957 0.653382 0.332948
O O6 0.777826 0.762405 0.300666
O O7 0.888447 0.490797 0.113698
O O8 0.945482 0.775504 0.069333
O O9 0.814501 0.031205 0.196519
O O10 0.274519 0.921068 0.322527
O O11 0.971900 0.008958 0.307511
O O12 0.980494 0.338072 0.423319
O O13 0.583972 0.487463 0.502906
O O14 0.964283 0.658470 0.435863
#
# Coordination Sequence:
#
# PCOD9115522 Si02
#       7
#     2   2   2   2   2   2   2
#     4  10  21  38  62  86 121 153 198 243 289 347
#     4   9  17  34  56  86 115 149 188 244 277 342
#     4   9  17  34  56  86 115 149 188 244 277 342
#     4  10  20  40  60  86 121 155 192 247 290 348
#     4  10  20  40  60  86 121 155 192 247 290 348
#     4  10  21  38  62  86 121 153 198 243 289 347
#     4   8  20  34  56  80 122 150 184 240 292 334
#
# _framework density 25.515058
#
# number of rings (size 3 to 8) (size 9 to 14) (size 15 to 20)
#    0.857    1.714    2.857    0.000    0.000    3.429 
#    0.000   11.429    3.143    0.000    0.000    0.000 
#    0.000    0.000    0.000    0.000    0.000    0.000 
#
# Total GULP energy -78029.704322 kJ/mol
# GULP energy per Si atom -5573.550309 kJ/mol
# Density = 2.545698 g / cm^3
# Si number density = 25.515058 Si / 1000 Ang^3
#
#
#
# Elastic Constant Matrix: (Units=GPa)
#
#
# Indices 1 2 3 4 5 6 
#
# 1 61.8056 10.2955 35.3442 0.0000 -22.4502 0.0000
# 2 10.2955 41.4876 23.1499 0.0000 7.2281 0.0000
# 3 35.3442 23.1499 105.7797 0.0000 -23.3549 0.0000
# 4 0.0000 0.0000 0.0000 34.6170 0.0000 9.1603
# 5 -22.4502 7.2281 -23.3549 0.0000 40.9286 0.0000
# 6 0.0000 0.0000 0.0000 9.1603 0.0000 32.0699
#
#
#
# Elastic Compliance Matrix: (Units=1/GPa)
#
#
# Indices 1 2 3 4 5 6 
#
# 1 0.023698 -0.005609 -0.004121 0.000000 0.011638 0.000000
# 2 -0.005609 0.032417 -0.008196 0.000000 -0.013479 0.000000
# 3 -0.004121 -0.008196 0.014239 0.000000 0.007312 0.000000
# 4 0.000000 0.000000 0.000000 0.031250 0.000000 -0.008926
# 5 0.011638 -0.013479 0.007312 0.000000 0.037369 0.000000
# 6 0.000000 0.000000 0.000000 -0.008926 0.000000 0.033732
#
#
# Mechanical properties :
#
#
# Convention : Reuss Voigt Hill
#
# Bulk Modulus (GPa) = 28.98439 38.51690 33.75064
# Shear Modulus (GPa) = 22.72131 30.87530 26.79830
#
# Velocity S-wave (km/s) = 2.98737 3.48240 3.24434
# Velocity P-wave (km/s) = 4.82530 5.59446 5.22406
#
# Compressibility (1/GPa) = 0.03450133
#
# Stress axis : x y z
#
# Youngs Moduli (GPa) = 42.19729 30.84778 70.23051
#
# Poissons Ratio (x) = 0.17302 0.28944
# Poissons Ratio (y) = 0.23668 0.57563
# Poissons Ratio (z) = 0.17391 0.25284
#
# Static dielectric constant tensor:
#      x y z
#    x 2.118100 0.000000 0.069440 
#    y 0.000000 2.067240 0.000000 
#    z 0.069440 0.000000 2.005850 
# 
# From -- ./inp_files/14995.got.cif
#   From: 2010.05.17/outbox.cif.g08.bks.cpg/sg4_8_cif.got.tgz:14995.got - 2010.06.03 18:43:04.
