data_PCOD9115583
_publ_section_title
;
Structure prediction by ZEFSAII (Michael W. Deem and Ramdas Pophale) SiO2 
 PCOD9115583
Probable space group: P 21
;
_chemical_formula_sum "Si O2"
_cell_formula_units_Z 16
_cell_length_a 20.369772
_cell_length_b 5.351873
_cell_length_c 15.660505
_cell_angle_alpha 90.000000
_cell_angle_beta 20.787205
_cell_angle_gamma 90.000000
_cell_volume 605.900789
_symmetry_space_group_name_H-M "P 21"
_symmetry_group_IT_number 4
_symmetry_cell_setting 'monoclinic'
loop_
_space_group_symop_operation_xyz
x,y,z
-x,1/2+y,-z
loop_
_atom_site_type_symbol
_atom_site_label
_atom_site_fract_x
_atom_site_fract_y
_atom_site_fract_z
Si Si1 0.450259 0.654810 0.385449
Si Si2 0.329487 0.494934 0.967650
Si Si3 0.269591 0.110128 0.190926
Si Si4 0.982730 0.371440 0.637715
Si Si5 0.981255 0.526251 0.813980
Si Si6 0.063085 0.841974 0.879139
Si Si7 0.417569 0.839261 0.643118
Si Si8 0.612080 0.876826 0.702336
O O1 0.486427 0.389066 0.382364
O O2 0.416157 0.607958 0.328052
O O3 0.278542 0.794395 0.632358
O O4 0.625063 0.832844 0.171164
O O5 0.505398 0.646752 0.790070
O O6 0.275967 0.327687 0.113328
O O7 0.163885 0.677533 0.147231
O O8 0.180461 0.240233 0.381896
O O9 0.113227 0.934254 0.336910
O O10 0.468419 0.968166 0.953077
O O11 0.977466 0.587794 0.716081
O O12 0.014303 0.750491 0.842081
O O13 0.166624 0.351972 0.579583
O O14 0.799507 0.388660 0.073846
O O15 0.976747 0.624631 0.044924
O O16 0.508766 0.082128 0.484904
#
# Coordination Sequence:
#
# PCOD9115583 Si02
#       8
#     2   2   2   2   2   2   2   2
#     4  10  23  41  69  94 132 183 231 287 359 428
#     4  10  20  40  70  92 135 185 232 285 354 433
#     4  10  20  42  66 100 133 194 231 289 361 427
#     4  11  22  42  71 102 142 183 249 293 357 434
#     4  11  25  46  69 107 141 186 245 303 371 424
#     4  11  25  47  72 103 144 190 240 297 374 440
#     4  12  27  46  70 106 144 179 242 310 369 433
#     4   9  22  42  65  96 139 180 236 288 355 435
#
# _framework density 26.406962
#
# number of rings (size 3 to 8) (size 9 to 14) (size 15 to 20)
#    0.000    1.500    1.250    3.750    7.000    0.000 
#    9.000    0.000    0.000    0.000    0.000    0.000 
#    0.000    0.000    0.000    0.000    0.000    0.000 
#
# Total GULP energy -89267.888399 kJ/mol
# GULP energy per Si atom -5579.243025 kJ/mol
# Density = 2.634686 g / cm^3
# Si number density = 26.406962 Si / 1000 Ang^3
#
#
#
# Elastic Constant Matrix: (Units=GPa)
#
#
# Indices 1 2 3 4 5 6 
#
# 1 47.8130 -0.0432 32.2132 0.0000 10.6968 0.0000
# 2 -0.0432 58.1408 17.9529 0.0000 -2.4111 0.0000
# 3 32.2132 17.9529 174.1550 0.0000 -15.7292 0.0000
# 4 0.0000 0.0000 0.0000 38.4122 0.0000 6.3579
# 5 10.6968 -2.4111 -15.7292 0.0000 40.7006 0.0000
# 6 0.0000 0.0000 0.0000 6.3579 0.0000 24.6876
#
#
#
# Elastic Compliance Matrix: (Units=1/GPa)
#
#
# Indices 1 2 3 4 5 6 
#
# 1 0.027048 0.001485 -0.006000 0.000000 -0.009339 0.000000
# 2 0.001485 0.017852 -0.002129 0.000000 -0.000156 0.000000
# 3 -0.006000 -0.002129 0.007463 0.000000 0.004335 0.000000
# 4 0.000000 0.000000 0.000000 0.027193 0.000000 -0.007003
# 5 -0.009339 -0.000156 0.004335 0.000000 0.028690 0.000000
# 6 0.000000 0.000000 0.000000 -0.007003 0.000000 0.042310
#
#
# Mechanical properties :
#
#
# Convention : Reuss Voigt Hill
#
# Bulk Modulus (GPa) = 25.59146 42.26161 33.92653
# Shear Modulus (GPa) = 28.26999 36.09247 32.18123
#
# Velocity S-wave (km/s) = 3.27548 3.70101 3.49472
# Velocity P-wave (km/s) = 4.90074 5.85679 5.39996
#
# Compressibility (1/GPa) = 0.03907554
#
# Stress axis : x y z
#
# Youngs Moduli (GPa) = 36.97181 56.01708 133.99949
#
# Poissons Ratio (x) = -0.08321 0.80394
# Poissons Ratio (y) = -0.05492 0.28529
# Poissons Ratio (z) = 0.22181 0.11926
#
# Static dielectric constant tensor:
#      x y z
#    x 2.259280 0.000000 0.009240 
#    y 0.000000 2.072740 0.000000 
#    z 0.009240 0.000000 2.148630 
# 
# From -- ./inp_files/14385.got.cif
#   From: 2010.05.17/outbox.cif.g08.bks.cpg/sg4_8_cif.got.tgz:14385.got - 2010.06.03 18:43:04.
