data_PCOD9115364
_publ_section_title
;
Structure prediction by ZEFSAII (Michael W. Deem and Ramdas Pophale) SiO2 
 PCOD9115364
Probable space group: P 21
;
_chemical_formula_sum "Si O2"
_cell_formula_units_Z 12
_cell_length_a 7.727524
_cell_length_b 15.654875
_cell_length_c 9.237493
_cell_angle_alpha 90.000000
_cell_angle_beta 147.692609
_cell_angle_gamma 90.000000
_cell_volume 597.255859
_symmetry_space_group_name_H-M "P 21"
_symmetry_group_IT_number 4
_symmetry_cell_setting 'monoclinic'
loop_
_space_group_symop_operation_xyz
x,y,z
-x,1/2+y,-z
loop_
_atom_site_type_symbol
_atom_site_label
_atom_site_fract_x
_atom_site_fract_y
_atom_site_fract_z
Si Si1 0.126616 0.425340 0.066235
Si Si2 0.400556 0.343605 0.784576
Si Si3 0.539928 0.991156 0.411825
Si Si4 0.334134 0.835379 0.721688
Si Si5 0.755610 0.244332 0.814312
Si Si6 0.430558 0.181979 0.292893
O O1 0.232676 0.461790 0.296306
O O2 0.444249 0.407684 0.196085
O O3 0.832692 0.481417 0.797842
O O4 0.960030 0.332261 0.960720
O O5 0.419070 0.425710 0.692608
O O6 0.496542 0.260663 0.757281
O O7 0.037587 0.338254 0.588480
O O8 0.642625 0.347818 0.090198
O O9 0.584907 0.088483 0.396177
O O10 0.478077 0.743482 0.775897
O O11 0.570664 0.229073 0.534185
O O12 0.040994 0.175699 0.031479
#
# Coordination Sequence:
#
# PCOD9115364 Si02
#       6
#     2   2   2   2   2   2
#     4  10  20  38  61  82 111 155 200 232 281 360
#     4  11  21  37  60  85 116 152 189 235 294 356
#     4  11  22  39  60  85 116 155 201 249 289 338
#     4  11  21  37  60  85 116 152 189 235 294 356
#     4  10  20  38  61  82 111 155 200 232 281 360
#     4  11  22  39  60  85 116 155 201 249 289 338
#
# _framework density 20.091891
#
# number of rings (size 3 to 8) (size 9 to 14) (size 15 to 20)
#    0.000    1.333    0.000   11.000    0.000    0.000 
#    0.000   10.000    0.000    0.000    0.000    0.000 
#    0.000    0.000    0.000    0.000    0.000    0.000 
#
# Total GULP energy -66975.679424 kJ/mol
# GULP energy per Si atom -5581.306619 kJ/mol
# Density = 2.004616 g / cm^3
# Si number density = 20.091891 Si / 1000 Ang^3
#
#
#
# Elastic Constant Matrix: (Units=GPa)
#
#
# Indices 1 2 3 4 5 6 
#
# 1 59.2710 7.1531 -2.5274 0.0000 7.9873 0.0000
# 2 7.1531 51.4561 -6.0016 0.0000 -3.9703 0.0000
# 3 -2.5274 -6.0016 92.4885 0.0000 -5.0029 0.0000
# 4 0.0000 0.0000 0.0000 22.6313 0.0000 1.3546
# 5 7.9873 -3.9703 -5.0029 0.0000 39.3569 0.0000
# 6 0.0000 0.0000 0.0000 1.3546 0.0000 18.5750
#
#
#
# Elastic Compliance Matrix: (Units=1/GPa)
#
#
# Indices 1 2 3 4 5 6 
#
# 1 0.017728 -0.002751 0.000097 0.000000 -0.003863 0.000000
# 2 -0.002751 0.020192 0.001385 0.000000 0.002771 0.000000
# 3 0.000097 0.001385 0.010987 0.000000 0.001517 0.000000
# 4 0.000000 0.000000 0.000000 0.044380 0.000000 -0.003236
# 5 -0.003863 0.002771 0.001517 0.000000 0.026665 0.000000
# 6 0.000000 0.000000 0.000000 -0.003236 0.000000 0.054072
#
#
# Mechanical properties :
#
#
# Convention : Reuss Voigt Hill
#
# Bulk Modulus (GPa) = 21.56639 22.27373 21.92006
# Shear Modulus (GPa) = 26.03913 29.75208 27.89560
#
# Velocity S-wave (km/s) = 3.60391 3.85229 3.73017
# Velocity P-wave (km/s) = 5.29856 5.55849 5.43008
#
# Compressibility (1/GPa) = 0.04636845
#
# Stress axis : x y z
#
# Youngs Moduli (GPa) = 56.40660 49.52485 91.01901
#
# Poissons Ratio (x) = 0.13625 -0.00883
# Poissons Ratio (y) = 0.15519 -0.12606
# Poissons Ratio (z) = -0.00547 -0.06859
#
# Static dielectric constant tensor:
#      x y z
#    x 1.756800 0.000000 0.044160 
#    y 0.000000 1.734480 0.000000 
#    z 0.044160 0.000000 1.697920 
# 
# From -- ./inp_files/6511.got.cif
#   From: 2010.05.17/outbox.cif.g08.bks.cpg/sg4_4_cif.got.tgz:6511.got - 2010.06.03 18:43:04.
