data_PCOD9115287
_publ_section_title
;
Structure prediction by ZEFSAII (Michael W. Deem and Ramdas Pophale) SiO2 
 PCOD9115287
Probable space group: P 21
;
_chemical_formula_sum "Si O2"
_cell_formula_units_Z 16
_cell_length_a 6.037451
_cell_length_b 17.193089
_cell_length_c 8.086338
_cell_angle_alpha 90.000000
_cell_angle_beta 57.845055
_cell_angle_gamma 90.000000
_cell_volume 710.630442
_symmetry_space_group_name_H-M "P 21"
_symmetry_group_IT_number 4
_symmetry_cell_setting 'monoclinic'
loop_
_space_group_symop_operation_xyz
x,y,z
-x,1/2+y,-z
loop_
_atom_site_type_symbol
_atom_site_label
_atom_site_fract_x
_atom_site_fract_y
_atom_site_fract_z
Si Si1 0.640731 0.153660 0.643102
Si Si2 0.737711 0.371356 0.366935
Si Si3 0.950639 0.289768 0.611738
Si Si4 0.317742 0.566121 0.887508
Si Si5 0.873453 0.550345 0.614728
Si Si6 0.480166 0.724568 0.647864
Si Si7 0.805419 0.541210 0.260646
Si Si8 0.163870 0.427599 0.693537
O O1 0.514816 0.203781 0.547609
O O2 0.426566 0.084180 0.749067
O O3 0.741702 0.220351 0.728439
O O4 0.908628 0.116785 0.464156
O O5 0.707576 0.298342 0.258082
O O6 0.837768 0.448094 0.234557
O O7 0.449807 0.397450 0.537338
O O8 0.869010 0.340274 0.482633
O O9 0.222773 0.250748 0.441800
O O10 0.995261 0.347628 0.750013
O O11 0.613345 0.547639 0.830127
O O12 0.367029 0.649270 0.782420
O O13 0.208503 0.494864 0.815279
O O14 0.088938 0.576234 0.110381
O O15 0.758507 0.552160 0.475181
O O16 0.041760 0.475706 0.590717
#
# Coordination Sequence:
#
# PCOD9115287 Si02
#       8
#     2   2   2   2   2   2   2   2
#     4  11  20  40  68  93 131 172 225 267 329 394
#     4  10  20  38  64  95 126 173 216 275 331 390
#     4  10  20  36  72  96 126 176 222 272 340 388
#     4  12  24  40  66 101 132 174 222 272 331 400
#     4  12  20  42  62  96 130 174 214 266 322 400
#     4  10  20  38  64  95 126 173 216 275 331 390
#     4  12  24  40  66 101 132 174 222 272 331 400
#     4  11  20  40  68  93 131 172 225 267 329 394
#
# _framework density 22.515218000000001
#
# number of rings (size 3 to 8) (size 9 to 14) (size 15 to 20)
#    0.000    1.000    7.500    0.000    0.000    1.000 
#    0.000    6.250    0.000    3.000    0.000    0.000 
#    0.000    0.000    0.000    0.000    0.000    0.000 
#
# Total GULP energy -89069.946197 kJ/mol
# GULP energy per Si atom -5566.871637 kJ/mol
# Density = 2.246397 g / cm^3
# Si number density = 22.515218 Si / 1000 Ang^3
#
#
#
# Elastic Constant Matrix: (Units=GPa)
#
#
# Indices 1 2 3 4 5 6 
#
# 1 117.7065 63.7484 21.4057 0.0000 -18.6943 0.0000
# 2 63.7484 159.8893 29.1535 0.0000 -7.5455 0.0000
# 3 21.4057 29.1535 47.7318 0.0000 -10.7005 0.0000
# 4 0.0000 0.0000 0.0000 13.1990 0.0000 -1.1356
# 5 -18.6943 -7.5455 -10.7005 0.0000 16.4476 0.0000
# 6 0.0000 0.0000 0.0000 -1.1356 0.0000 73.7425
#
#
#
# Elastic Compliance Matrix: (Units=1/GPa)
#
#
# Indices 1 2 3 4 5 6 
#
# 1 0.012989 -0.004544 -0.000243 0.000000 0.012521 0.000000
# 2 -0.004544 0.008631 -0.004102 0.000000 -0.003874 0.000000
# 3 -0.000243 -0.004102 0.027022 0.000000 0.015422 0.000000
# 4 0.000000 0.000000 0.000000 0.075864 0.000000 0.001168
# 5 0.012521 -0.003874 0.015422 0.000000 0.083287 0.000000
# 6 0.000000 0.000000 0.000000 0.001168 0.000000 0.013579
#
#
# Mechanical properties :
#
#
# Convention : Reuss Voigt Hill
#
# Bulk Modulus (GPa) = 32.39966 61.54920 46.97443
# Shear Modulus (GPa) = 20.04503 34.74582 27.39542
#
# Velocity S-wave (km/s) = 2.98701 3.93264 3.49198
# Velocity P-wave (km/s) = 5.13007 6.92942 6.09650
#
# Compressibility (1/GPa) = 0.03086452
#
# Stress axis : x y z
#
# Youngs Moduli (GPa) = 76.98636 115.85975 37.00635
#
# Poissons Ratio (x) = 0.52643 0.00899
# Poissons Ratio (y) = 0.34980 0.15182
# Poissons Ratio (z) = 0.01871 0.47531
#
# Static dielectric constant tensor:
#      x y z
#    x 1.860820 0.000000 0.006010 
#    y 0.000000 1.959950 0.000000 
#    z 0.006010 0.000000 1.841620 
# 
# From -- ./inp_files/4885.got.cif
#   From: 2010.05.17/outbox.cif.g08.bks.cpg/sg4_3_cif.got.tgz:4885.got - 2010.06.03 18:43:04.
