data_PCOD9115649
_publ_section_title
;
Structure prediction by ZEFSAII (Michael W. Deem and Ramdas Pophale) SiO2 
 PCOD9115649
Probable space group: P 21
;
_chemical_formula_sum "Si O2"
_cell_formula_units_Z 14
_cell_length_a 19.145881
_cell_length_b 4.931013
_cell_length_c 5.062578
_cell_angle_alpha 90.000000
_cell_angle_beta 82.838985
_cell_angle_gamma 90.000000
_cell_volume 474.222705
_symmetry_space_group_name_H-M "P 21"
_symmetry_group_IT_number 4
_symmetry_cell_setting 'monoclinic'
loop_
_space_group_symop_operation_xyz
x,y,z
-x,1/2+y,-z
loop_
_atom_site_type_symbol
_atom_site_label
_atom_site_fract_x
_atom_site_fract_y
_atom_site_fract_z
Si Si1 0.997153 0.586890 0.322537
Si Si2 0.254821 0.235874 0.355941
Si Si3 0.505426 0.806825 0.324364
Si Si4 0.617199 0.454486 0.983536
Si Si5 0.852493 0.978329 0.851483
Si Si6 0.150889 0.911134 0.611906
Si Si7 0.258898 0.665533 0.798278
O O1 0.919423 0.539563 0.244699
O O2 0.995896 0.394835 0.585739
O O3 0.062856 0.465265 0.132102
O O4 0.324607 0.090721 0.228904
O O5 0.166690 0.187713 0.338419
O O6 0.270615 0.477643 0.544406
O O7 0.234057 0.986762 0.623952
O O8 0.489151 0.613381 0.579973
O O9 0.440135 0.791718 0.156519
O O10 0.574571 0.682570 0.161492
O O11 0.667461 0.274405 0.137771
O O12 0.856255 0.187569 0.606384
O O13 0.760371 0.938102 0.931261
O O14 0.168674 0.685450 0.870491
#
# Coordination Sequence:
#
# PCOD9115649 Si02
#       7
#     2   2   2   2   2   2   2
#     4  10  20  41  74 102 156 212 263 335 394 460
#     4  11  25  48  76 110 157 205 262 328 393 475
#     4  12  32  60  89 125 164 209 268 329 410 503
#     4  12  30  57  84 122 164 208 263 333 411 486
#     4  10  22  43  71 108 154 210 270 324 402 458
#     4  10  22  46  67 110 150 202 270 321 392 466
#     4  11  27  47  75 115 155 208 268 332 396 484
#
# _framework density 29.521993999999999
#
# number of rings (size 3 to 8) (size 9 to 14) (size 15 to 20)
#    0.000    1.143    2.857    0.857    4.000    6.857 
#    2.571    0.000    0.000    0.000    0.000    0.000 
#    0.000    0.000    0.000    0.000    0.000    0.000 
#
# Total GULP energy -78319.308845 kJ/mol
# GULP energy per Si atom -5594.236346 kJ/mol
# Density = 2.945480 g / cm^3
# Si number density = 29.521994 Si / 1000 Ang^3
#
#
#
# Elastic Constant Matrix: (Units=GPa)
#
#
# Indices 1 2 3 4 5 6 
#
# 1 197.2957 31.3701 78.1545 0.0000 -52.0585 0.0000
# 2 31.3701 124.1017 42.0397 0.0000 -4.5040 0.0000
# 3 78.1545 42.0397 187.9121 0.0000 -16.0775 0.0000
# 4 0.0000 0.0000 0.0000 64.7953 0.0000 -0.4515
# 5 -52.0585 -4.5040 -16.0775 0.0000 44.8633 0.0000
# 6 0.0000 0.0000 0.0000 -0.4515 0.0000 48.2508
#
#
#
# Elastic Compliance Matrix: (Units=1/GPa)
#
#
# Indices 1 2 3 4 5 6 
#
# 1 0.008621 -0.000973 -0.002600 0.000000 0.008974 0.000000
# 2 -0.000973 0.008830 -0.001642 0.000000 -0.000831 0.000000
# 3 -0.002600 -0.001642 0.006704 0.000000 -0.000780 0.000000
# 4 0.000000 0.000000 0.000000 0.015434 0.000000 0.000144
# 5 0.008974 -0.000831 -0.000780 0.000000 0.032341 0.000000
# 6 0.000000 0.000000 0.000000 0.000144 0.000000 0.020726
#
#
# Mechanical properties :
#
#
# Convention : Reuss Voigt Hill
#
# Bulk Modulus (GPa) = 72.85929 90.27090 81.56509
# Shear Modulus (GPa) = 46.44212 55.43155 50.93683
#
# Velocity S-wave (km/s) = 3.97058 4.33787 4.15828
# Velocity P-wave (km/s) = 6.76416 7.46548 7.12346
#
# Compressibility (1/GPa) = 0.01372509
#
# Stress axis : x y z
#
# Youngs Moduli (GPa) = 115.99333 113.25225 149.17125
#
# Poissons Ratio (x) = 0.11016 0.38787
# Poissons Ratio (y) = 0.11283 0.24493
# Poissons Ratio (z) = 0.30160 0.18595
#
# Static dielectric constant tensor:
#      x y z
#    x 2.275860 0.000000 0.227290 
#    y 0.000000 3.437340 0.000000 
#    z 0.227290 0.000000 3.311120 
# 
# From -- ./inp_files/3895.got.cif
#   From: 2010.05.17/outbox.cif.g08.bks.cpg/sg4_2_cif.got.tgz:3895.got - 2010.06.03 18:43:04.
