data_PCOD9115631
_publ_section_title
;
Structure prediction by ZEFSAII (Michael W. Deem and Ramdas Pophale) SiO2 
 PCOD9115631
Probable space group: P 21
;
_chemical_formula_sum "Si O2"
_cell_formula_units_Z 16
_cell_length_a 9.057726
_cell_length_b 8.584879
_cell_length_c 11.964778
_cell_angle_alpha 90.000000
_cell_angle_beta 134.283663
_cell_angle_gamma 90.000000
_cell_volume 666.047831
_symmetry_space_group_name_H-M "P 21"
_symmetry_group_IT_number 4
_symmetry_cell_setting 'monoclinic'
loop_
_space_group_symop_operation_xyz
x,y,z
-x,1/2+y,-z
loop_
_atom_site_type_symbol
_atom_site_label
_atom_site_fract_x
_atom_site_fract_y
_atom_site_fract_z
Si Si1 0.973907 0.474240 0.819960
Si Si2 0.651515 0.616528 0.468419
Si Si3 0.741721 0.532845 0.284531
Si Si4 0.643665 0.105073 0.079217
Si Si5 0.603480 0.830008 0.613199
Si Si6 0.931690 0.405082 0.189990
Si Si7 0.071037 0.174336 0.983143
Si Si8 0.532704 0.219059 0.251231
O O1 0.807862 0.537701 0.642119
O O2 0.190443 0.475344 0.867786
O O3 0.930722 0.304647 0.850326
O O4 0.996610 0.592234 0.937598
O O5 0.757985 0.634609 0.404551
O O6 0.561292 0.778499 0.464525
O O7 0.468459 0.491962 0.373823
O O8 0.937106 0.498815 0.310170
O O9 0.674706 0.365959 0.299177
O O10 0.558651 0.589635 0.104994
O O11 0.763128 0.268426 0.116669
O O12 0.590865 0.100547 0.183310
O O13 0.479924 0.699010 0.621644
O O14 0.850037 0.840983 0.734120
O O15 0.877224 0.531000 0.069387
O O16 0.290628 0.260494 0.111428
#
# Coordination Sequence:
#
# PCOD9115631 Si02
#       8
#     2   2   2   2   2   2   2   2
#     4  12  25  43  69 103 134 186 232 290 350 420
#     4  11  26  46  66  98 142 185 230 284 357 421
#     4  10  23  43  68 101 138 178 217 293 352 419
#     4  11  21  42  71  99 134 173 229 288 355 409
#     4  11  24  48  65  98 139 185 232 288 343 415
#     4  11  24  44  70 101 140 178 231 294 349 412
#     4  12  23  41  69 100 134 176 239 286 344 404
#     4  10  20  41  68  96 135 169 222 289 338 400
#
# _framework density 24.022299
#
# number of rings (size 3 to 8) (size 9 to 14) (size 15 to 20)
#    0.000    1.000    5.000    1.500    3.500    1.000 
#    4.500    0.000    0.000    0.000    0.000    0.000 
#    0.000    0.000    0.000    0.000    0.000    0.000 
#
# Total GULP energy -89188.691353 kJ/mol
# GULP energy per Si atom -5574.293210 kJ/mol
# Density = 2.396762 g / cm^3
# Si number density = 24.022299 Si / 1000 Ang^3
#
#
#
# Elastic Constant Matrix: (Units=GPa)
#
#
# Indices 1 2 3 4 5 6 
#
# 1 156.1014 13.0009 27.8497 0.0000 -36.8462 0.0000
# 2 13.0009 35.8723 -6.4611 0.0000 2.0732 0.0000
# 3 27.8497 -6.4611 28.0248 0.0000 -12.7102 0.0000
# 4 0.0000 0.0000 0.0000 29.5573 0.0000 -5.9092
# 5 -36.8462 2.0732 -12.7102 0.0000 45.9404 0.0000
# 6 0.0000 0.0000 0.0000 -5.9092 0.0000 28.2666
#
#
#
# Elastic Compliance Matrix: (Units=1/GPa)
#
#
# Indices 1 2 3 4 5 6 
#
# 1 0.009668 -0.005319 -0.008243 0.000000 0.005714 0.000000
# 2 -0.005319 0.032026 0.011525 0.000000 -0.002523 0.000000
# 3 -0.008243 0.011525 0.049509 0.000000 0.006566 0.000000
# 4 0.000000 0.000000 0.000000 0.035308 0.000000 0.007381
# 5 0.005714 -0.002523 0.006566 0.000000 0.028281 0.000000
# 6 0.000000 0.000000 0.000000 0.007381 0.000000 0.036921
#
#
# Mechanical properties :
#
#
# Convention : Reuss Voigt Hill
#
# Bulk Modulus (GPa) = 11.47708 32.08639 21.78173
# Shear Modulus (GPa) = 22.23910 33.12680 27.68295
#
# Velocity S-wave (km/s) = 3.04595 3.71752 3.39836
# Velocity P-wave (km/s) = 4.14227 5.64026 4.94828
#
# Compressibility (1/GPa) = 0.08713017
#
# Stress axis : x y z
#
# Youngs Moduli (GPa) = 103.43008 31.22470 20.19838
#
# Poissons Ratio (x) = 0.16608 0.16649
# Poissons Ratio (y) = 0.55013 -0.23279
# Poissons Ratio (z) = 0.85254 -0.35987
#
# Static dielectric constant tensor:
#      x y z
#    x 1.914060 0.000000 -0.032460 
#    y 0.000000 1.979850 0.000000 
#    z -0.032460 0.000000 2.141280 
# 
# From -- ./inp_files/5610.got.cif
#   From: 2010.05.17/outbox.cif.g08.bks.cpg/sg4_3_cif.got.tgz:5610.got - 2010.06.03 18:43:04.
