data_PCOD9115512
_publ_section_title
;
Structure prediction by ZEFSAII (Michael W. Deem and Ramdas Pophale) SiO2 
 PCOD9115512
Probable space group: P 21
;
_chemical_formula_sum "Si O2"
_cell_formula_units_Z 16
_cell_length_a 9.306589
_cell_length_b 11.936996
_cell_length_c 9.160929
_cell_angle_alpha 90.000000
_cell_angle_beta 50.421892
_cell_angle_gamma 90.000000
_cell_volume 784.408752
_symmetry_space_group_name_H-M "P 21"
_symmetry_group_IT_number 4
_symmetry_cell_setting 'monoclinic'
loop_
_space_group_symop_operation_xyz
x,y,z
-x,1/2+y,-z
loop_
_atom_site_type_symbol
_atom_site_label
_atom_site_fract_x
_atom_site_fract_y
_atom_site_fract_z
Si Si1 0.833844 0.186630 0.449850
Si Si2 0.728833 0.680513 0.910222
Si Si3 0.708837 0.330295 0.269672
Si Si4 0.344650 0.242929 0.350160
Si Si5 0.775616 0.430194 0.936847
Si Si6 0.245254 0.009055 0.510306
Si Si7 0.086253 0.453101 0.492430
Si Si8 0.434913 0.843730 0.190404
O O1 0.759496 0.226170 0.340664
O O2 0.729472 0.266043 0.634202
O O3 0.057049 0.196602 0.280654
O O4 0.799315 0.062335 0.532275
O O5 0.616117 0.680564 0.829762
O O6 0.722333 0.560544 0.994594
O O7 0.629681 0.777628 0.067905
O O8 0.508213 0.301263 0.333962
O O9 0.731291 0.439966 0.356497
O O10 0.821291 0.360299 0.050840
O O11 0.261644 0.142508 0.502331
O O12 0.208621 0.344034 0.395305
O O13 0.612778 0.375432 0.944793
O O14 0.948778 0.431575 0.716205
O O15 0.409003 0.955483 0.302752
O O16 0.048329 0.980977 0.557519
#
# Coordination Sequence:
#
# PCOD9115512 Si02
#       8
#     2   2   2   2   2   2   2   2
#     4  10  23  45  64  99 134 173 225 283 329 411
#     4  11  21  41  71  92 127 180 230 264 329 413
#     4  11  25  40  64  95 144 160 217 294 346 378
#     4  12  22  40  70  95 130 185 219 281 344 392
#     4  10  21  41  60  98 132 163 224 284 320 405
#     4  10  23  44  65  97 137 169 231 280 325 422
#     4  10  23  44  72  88 130 186 234 263 338 412
#     4  10  20  39  70  92 128 174 218 273 329 401
#
# _framework density 20.397528000000001
#
# number of rings (size 3 to 8) (size 9 to 14) (size 15 to 20)
#    0.000    1.500    5.000    2.250    3.500    1.000 
#    9.000    0.000    2.750    0.000    0.000    0.000 
#    0.000    0.000    0.000    0.000    0.000    0.000 
#
# Total GULP energy -89149.830298 kJ/mol
# GULP energy per Si atom -5571.864394 kJ/mol
# Density = 2.035110 g / cm^3
# Si number density = 20.397528 Si / 1000 Ang^3
#
#
#
# Elastic Constant Matrix: (Units=GPa)
#
#
# Indices 1 2 3 4 5 6 
#
# 1 76.2045 28.1713 20.9394 0.0000 15.4374 0.0000
# 2 28.1713 104.0830 17.0711 0.0000 -12.8447 0.0000
# 3 20.9394 17.0711 40.4344 0.0000 7.8332 0.0000
# 4 0.0000 0.0000 0.0000 25.0479 0.0000 4.1523
# 5 15.4374 -12.8447 7.8332 0.0000 31.5736 0.0000
# 6 0.0000 0.0000 0.0000 4.1523 0.0000 32.4072
#
#
#
# Elastic Compliance Matrix: (Units=1/GPa)
#
#
# Indices 1 2 3 4 5 6 
#
# 1 0.018619 -0.005372 -0.005449 0.000000 -0.009937 0.000000
# 2 -0.005372 0.012888 -0.004395 0.000000 0.008960 0.000000
# 3 -0.005449 -0.004395 0.030715 0.000000 -0.006744 0.000000
# 4 0.000000 0.000000 0.000000 0.040790 0.000000 -0.005226
# 5 -0.009937 0.008960 -0.006744 0.000000 0.041849 0.000000
# 6 0.000000 0.000000 0.000000 -0.005226 0.000000 0.031527
#
#
# Mechanical properties :
#
#
# Convention : Reuss Voigt Hill
#
# Bulk Modulus (GPa) = 31.45620 39.23175 35.34398
# Shear Modulus (GPa) = 22.99725 28.10840 25.55282
#
# Velocity S-wave (km/s) = 3.36140 3.71621 3.54325
# Velocity P-wave (km/s) = 5.52453 6.13913 5.83992
#
# Compressibility (1/GPa) = 0.03179023
#
# Stress axis : x y z
#
# Youngs Moduli (GPa) = 53.70925 77.58939 32.55698
#
# Poissons Ratio (x) = 0.41681 0.17740
# Poissons Ratio (y) = 0.28853 0.14310
# Poissons Ratio (z) = 0.29266 0.34103
#
# Static dielectric constant tensor:
#      x y z
#    x 1.747070 0.000000 -0.009710 
#    y 0.000000 1.800130 0.000000 
#    z -0.009710 0.000000 1.764260 
# 
# From -- ./inp_files/6041.got.cif
#   From: 2010.05.17/outbox.cif.g08.bks.cpg/sg4_4_cif.got.tgz:6041.got - 2010.06.03 18:43:04.
