data_PCOD9115718
_publ_section_title
;
Structure prediction by ZEFSAII (Michael W. Deem and Ramdas Pophale) SiO2 
 PCOD9115718
Probable space group: P 21
;
_chemical_formula_sum "Si O2"
_cell_formula_units_Z 16
_cell_length_a 7.466632
_cell_length_b 10.082387
_cell_length_c 9.439119
_cell_angle_alpha 90.000000
_cell_angle_beta 114.218328
_cell_angle_gamma 90.000000
_cell_volume 648.050939
_symmetry_space_group_name_H-M "P 21"
_symmetry_group_IT_number 4
_symmetry_cell_setting 'monoclinic'
loop_
_space_group_symop_operation_xyz
x,y,z
-x,1/2+y,-z
loop_
_atom_site_type_symbol
_atom_site_label
_atom_site_fract_x
_atom_site_fract_y
_atom_site_fract_z
Si Si1 0.314884 0.491060 0.395114
Si Si2 0.244922 0.715674 0.142124
Si Si3 0.978126 0.140739 0.569019
Si Si4 0.841421 0.798705 0.151279
Si Si5 0.429133 0.723288 0.904292
Si Si6 0.916699 0.544294 0.669218
Si Si7 0.341569 0.844736 0.585698
Si Si8 0.588361 0.508416 0.754397
O O1 0.317293 0.590563 0.260214
O O2 0.094109 0.502129 0.386174
O O3 0.429768 0.358764 0.384220
O O4 0.436688 0.525318 0.577096
O O5 0.016489 0.744097 0.106696
O O6 0.360181 0.853397 0.213461
O O7 0.286609 0.696411 0.989660
O O8 0.157404 0.200553 0.712820
O O9 0.792460 0.238144 0.540236
O O10 0.996452 0.150711 0.407348
O O11 0.918438 0.939237 0.233147
O O12 0.627802 0.796353 0.018265
O O13 0.342241 0.812868 0.750578
O O14 0.502959 0.585189 0.859462
O O15 0.765334 0.476901 0.505172
O O16 0.790029 0.575229 0.764979
#
# Coordination Sequence:
#
# PCOD9115718 Si02
#       8
#     2   2   2   2   2   2   2   2
#     4  10  20  43  70  92 129 183 231 281 336 417
#     4  10  25  45  67  93 149 179 225 296 344 414
#     4  10  20  43  67  97 136 180 233 292 350 414
#     4   9  23  44  61 101 135 180 232 286 347 419
#     4  12  25  41  69 101 142 180 227 286 374 401
#     4   9  21  44  68  93 139 180 233 293 335 423
#     4  10  23  42  64 103 135 170 240 279 343 432
#     4  10  23  42  68  98 133 180 239 281 339 424
#
# _framework density 24.689415
#
# number of rings (size 3 to 8) (size 9 to 14) (size 15 to 20)
#    0.000    2.000    1.250    2.250    7.000    1.000 
#   15.750    0.000    0.000    0.000    0.000    0.000 
#    0.000    0.000    0.000    0.000    0.000    0.000 
#
# Total GULP energy -89346.895751 kJ/mol
# GULP energy per Si atom -5584.180984 kJ/mol
# Density = 2.463322 g / cm^3
# Si number density = 24.689415 Si / 1000 Ang^3
#
#
#
# Elastic Constant Matrix: (Units=GPa)
#
#
# Indices 1 2 3 4 5 6 
#
# 1 69.6626 13.9496 34.6044 0.0000 -8.3554 0.0000
# 2 13.9496 39.1099 11.7152 0.0000 0.9172 0.0000
# 3 34.6044 11.7152 123.6562 0.0000 -11.6604 0.0000
# 4 0.0000 0.0000 0.0000 30.2183 0.0000 -1.9319
# 5 -8.3554 0.9172 -11.6604 0.0000 53.4315 0.0000
# 6 0.0000 0.0000 0.0000 -1.9319 0.0000 28.8039
#
#
#
# Elastic Compliance Matrix: (Units=1/GPa)
#
#
# Indices 1 2 3 4 5 6 
#
# 1 0.017740 -0.005084 -0.004302 0.000000 0.001923 0.000000
# 2 -0.005084 0.027827 -0.001362 0.000000 -0.001570 0.000000
# 3 -0.004302 -0.001362 0.009555 0.000000 0.001436 0.000000
# 4 0.000000 0.000000 0.000000 0.033235 0.000000 0.002229
# 5 0.001923 -0.001570 0.001436 0.000000 0.019357 0.000000
# 6 0.000000 0.000000 0.000000 0.002229 0.000000 0.034867
#
#
# Mechanical properties :
#
#
# Convention : Reuss Voigt Hill
#
# Bulk Modulus (GPa) = 29.73723 39.21858 34.47790
# Shear Modulus (GPa) = 28.52498 33.96805 31.24651
#
# Velocity S-wave (km/s) = 3.40274 3.71322 3.56136
# Velocity P-wave (km/s) = 5.24488 5.85690 5.55932
#
# Compressibility (1/GPa) = 0.03362789
#
# Stress axis : x y z
#
# Youngs Moduli (GPa) = 56.36867 35.93625 104.65616
#
# Poissons Ratio (x) = 0.18271 0.45018
# Poissons Ratio (y) = 0.28659 0.14250
# Poissons Ratio (z) = 0.24247 0.04893
#
# Static dielectric constant tensor:
#      x y z
#    x 2.145700 0.000000 -0.076720 
#    y 0.000000 2.095590 0.000000 
#    z -0.076720 0.000000 1.948040 
# 
# From -- ./inp_files/6281.got.cif
#   From: 2010.05.17/outbox.cif.g08.bks.cpg/sg4_4_cif.got.tgz:6281.got - 2010.06.03 18:43:04.
