data_PCOD9115641
_publ_section_title
;
Structure prediction by ZEFSAII (Michael W. Deem and Ramdas Pophale) SiO2 
 PCOD9115641
Probable space group: P 21
;
_chemical_formula_sum "Si O2"
_cell_formula_units_Z 16
_cell_length_a 5.920211
_cell_length_b 13.457775
_cell_length_c 9.506571
_cell_angle_alpha 90.000000
_cell_angle_beta 72.962244
_cell_angle_gamma 90.000000
_cell_volume 724.174222
_symmetry_space_group_name_H-M "P 21"
_symmetry_group_IT_number 4
_symmetry_cell_setting 'monoclinic'
loop_
_space_group_symop_operation_xyz
x,y,z
-x,1/2+y,-z
loop_
_atom_site_type_symbol
_atom_site_label
_atom_site_fract_x
_atom_site_fract_y
_atom_site_fract_z
Si Si1 0.485948 0.903140 0.026039
Si Si2 0.666535 0.129386 0.324932
Si Si3 0.380253 0.306003 0.464594
Si Si4 0.787429 0.800550 0.204216
Si Si5 0.153247 0.746058 0.934942
Si Si6 0.707199 0.475768 0.497309
Si Si7 0.081653 0.983414 0.255794
Si Si8 0.899163 0.883687 0.752646
O O1 0.335674 0.826645 0.959731
O O2 0.699880 0.935346 0.886367
O O3 0.576065 0.835846 0.141370
O O4 0.316943 0.989604 0.117846
O O5 0.606981 0.237687 0.394495
O O6 0.713166 0.151207 0.151926
O O7 0.429016 0.071802 0.415201
O O8 0.909605 0.075119 0.323752
O O9 0.267563 0.265093 0.628903
O O10 0.486398 0.412081 0.486092
O O11 0.219993 0.324567 0.357134
O O12 0.923081 0.904740 0.201999
O O13 0.960022 0.726771 0.090219
O O14 0.010035 0.801992 0.837093
O O15 0.836652 0.435428 0.612712
O O16 0.907403 0.462058 0.341696
#
# Coordination Sequence:
#
# PCOD9115641 Si02
#       8
#     2   2   2   2   2   2   2   2
#     4  10  20  41  69  98 130 178 229 272 342 408
#     4  12  25  40  67 107 139 180 232 284 343 409
#     4  12  23  44  67 104 138 182 229 285 345 404
#     4  10  21  42  68  95 132 182 223 275 344 401
#     4  10  23  40  67 100 132 178 225 281 339 408
#     4  12  23  41  67 103 143 180 227 285 346 405
#     4  11  22  41  67 100 138 180 225 278 346 407
#     4  11  21  41  70  99 132 184 230 278 345 400
#
# _framework density 22.094132999999999
#
# number of rings (size 3 to 8) (size 9 to 14) (size 15 to 20)
#    0.000    1.000    6.250    0.000    1.750    0.000 
#    0.000    7.500    0.000    3.000    0.000    0.000 
#    0.000    0.000    0.000    0.000    0.000    0.000 
#
# Total GULP energy -89163.869320 kJ/mol
# GULP energy per Si atom -5572.741832 kJ/mol
# Density = 2.204385 g / cm^3
# Si number density = 22.094133 Si / 1000 Ang^3
#
#
#
# Elastic Constant Matrix: (Units=GPa)
#
#
# Indices 1 2 3 4 5 6 
#
# 1 86.4402 8.6053 54.3345 0.0000 -3.5005 0.0000
# 2 8.6053 15.9857 5.3230 0.0000 -5.7819 0.0000
# 3 54.3345 5.3230 138.3673 0.0000 -23.7395 0.0000
# 4 0.0000 0.0000 0.0000 26.3401 0.0000 -17.7603
# 5 -3.5005 -5.7819 -23.7395 0.0000 73.8581 0.0000
# 6 0.0000 0.0000 0.0000 -17.7603 0.0000 22.9148
#
#
#
# Elastic Compliance Matrix: (Units=1/GPa)
#
#
# Indices 1 2 3 4 5 6 
#
# 1 0.016256 -0.007286 -0.006423 0.000000 -0.001864 0.000000
# 2 -0.007286 0.068028 0.001163 0.000000 0.005354 0.000000
# 3 -0.006423 0.001163 0.010232 0.000000 0.003075 0.000000
# 4 0.000000 0.000000 0.000000 0.079524 0.000000 0.061636
# 5 -0.001864 0.005354 0.003075 0.000000 0.014859 0.000000
# 6 0.000000 0.000000 0.000000 0.061636 0.000000 0.091412
#
#
# Mechanical properties :
#
#
# Convention : Reuss Voigt Hill
#
# Bulk Modulus (GPa) = 14.40454 41.92430 28.16442
# Shear Modulus (GPa) = 15.21866 36.12463 25.67164
#
# Velocity S-wave (km/s) = 2.62737 4.04794 3.41239
# Velocity P-wave (km/s) = 3.96710 6.39252 5.31987
#
# Compressibility (1/GPa) = 0.06942257
#
# Stress axis : x y z
#
# Youngs Moduli (GPa) = 61.51606 14.69993 97.73003
#
# Poissons Ratio (x) = 0.10711 0.62772
# Poissons Ratio (y) = 0.44823 -0.11363
# Poissons Ratio (z) = 0.39512 -0.01709
#
# Static dielectric constant tensor:
#      x y z
#    x 1.861520 0.000000 -0.059280 
#    y 0.000000 1.814430 0.000000 
#    z -0.059280 0.000000 1.871510 
# 
# From -- ./inp_files/1650.got.cif
#   From: 2010.05.17/outbox.cif.g08.bks.cpg/sg4_1_cif.got.tgz:1650.got - 2010.06.03 18:43:04.
