data_PCOD9115368
_publ_section_title
;
Structure prediction by ZEFSAII (Michael W. Deem and Ramdas Pophale) SiO2 
 PCOD9115368
Probable space group: P 21
;
_chemical_formula_sum "Si O2"
_cell_formula_units_Z 16
_cell_length_a 9.290308
_cell_length_b 8.135636
_cell_length_c 9.265014
_cell_angle_alpha 90.000000
_cell_angle_beta 121.665929
_cell_angle_gamma 90.000000
_cell_volume 596.019197
_symmetry_space_group_name_H-M "P 21"
_symmetry_group_IT_number 4
_symmetry_cell_setting 'monoclinic'
loop_
_space_group_symop_operation_xyz
x,y,z
-x,1/2+y,-z
loop_
_atom_site_type_symbol
_atom_site_label
_atom_site_fract_x
_atom_site_fract_y
_atom_site_fract_z
Si Si1 0.712803 0.361680 0.898434
Si Si2 0.640560 0.869910 0.962455
Si Si3 0.004889 0.324122 0.853501
Si Si4 0.630834 0.555995 0.610028
Si Si5 0.714549 0.361662 0.385974
Si Si6 0.641935 0.858584 0.418942
Si Si7 0.202106 0.072450 0.806276
Si Si8 0.831545 0.039820 0.289722
O O1 0.965210 0.660382 0.225337
O O2 0.716981 0.534629 0.810146
O O3 0.753440 0.407881 0.081435
O O4 0.865525 0.277898 0.896815
O O5 0.475342 0.865698 0.781023
O O6 0.660666 0.707258 0.072020
O O7 0.818809 0.866493 0.971160
O O8 0.671449 0.018819 0.092862
O O9 0.020262 0.472867 0.739393
O O10 0.686149 0.400045 0.539535
O O11 0.671929 0.720961 0.551798
O O12 0.433595 0.522779 0.543622
O O13 0.814039 0.207552 0.370109
O O14 0.799509 0.522819 0.359145
O O15 0.473466 0.800380 0.239911
O O16 0.792440 0.903962 0.392243
#
# Coordination Sequence:
#
# PCOD9115368 Si02
#       8
#     2   2   2   2   2   2   2   2
#     4  10  21  40  62  85 129 153 195 251 304 347
#     4   8  19  33  58  82 118 148 203 247 294 338
#     4   8  21  39  55  87 116 160 189 252 297 358
#     4  10  24  34  64  85 125 150 204 243 305 351
#     4  12  18  35  58  97 110 160 200 255 292 354
#     4  10  20  38  61  85 117 159 195 248 291 354
#     4   9  21  34  63  83 120 158 203 243 299 352
#     4   9  20  35  61  86 119 150 205 249 294 348
#
# _framework density 26.844776
#
# number of rings (size 3 to 8) (size 9 to 14) (size 15 to 20)
#    2.250    0.000    0.000    4.500    1.750    2.000 
#    2.250    2.500    2.750    0.000    0.000    0.000 
#    0.000    0.000    0.000    0.000    0.000    0.000 
#
# Total GULP energy -89182.569757 kJ/mol
# GULP energy per Si atom -5573.910610 kJ/mol
# Density = 2.678368 g / cm^3
# Si number density = 26.844776 Si / 1000 Ang^3
#
#
#
# Elastic Constant Matrix: (Units=GPa)
#
#
# Indices 1 2 3 4 5 6 
#
# 1 97.2648 -1.3961 10.0655 0.0000 -6.4081 0.0000
# 2 -1.3961 69.5553 6.6001 0.0000 -0.5333 0.0000
# 3 10.0655 6.6001 92.9025 0.0000 -12.0712 0.0000
# 4 0.0000 0.0000 0.0000 36.7014 0.0000 -14.9826
# 5 -6.4081 -0.5333 -12.0712 0.0000 30.0255 0.0000
# 6 0.0000 0.0000 0.0000 -14.9826 0.0000 21.8057
#
#
#
# Elastic Compliance Matrix: (Units=1/GPa)
#
#
# Indices 1 2 3 4 5 6 
#
# 1 0.010504 0.000312 -0.000916 0.000000 0.001879 0.000000
# 2 0.000312 0.014485 -0.001077 0.000000 -0.000109 0.000000
# 3 -0.000916 -0.001077 0.011513 0.000000 0.004414 0.000000
# 4 0.000000 0.000000 0.000000 0.037869 0.000000 0.026019
# 5 0.001879 -0.000109 0.004414 0.000000 0.035479 0.000000
# 6 0.000000 0.000000 0.000000 0.026019 0.000000 0.063737
#
#
# Mechanical properties :
#
#
# Convention : Reuss Voigt Hill
#
# Bulk Modulus (GPa) = 30.17472 32.25129 31.21300
# Shear Modulus (GPa) = 26.59635 34.00341 30.29988
#
# Velocity S-wave (km/s) = 3.15103 3.56289 3.36327
# Velocity P-wave (km/s) = 4.95010 5.38197 5.17055
#
# Compressibility (1/GPa) = 0.03314033
#
# Stress axis : x y z
#
# Youngs Moduli (GPa) = 95.19917 69.03844 86.85620
#
# Poissons Ratio (x) = -0.02155 0.07957
# Poissons Ratio (y) = -0.02972 0.09355
# Poissons Ratio (z) = 0.08721 0.07436
#
# Static dielectric constant tensor:
#      x y z
#    x 2.297150 0.000000 0.015520 
#    y 0.000000 2.209960 0.000000 
#    z 0.015520 0.000000 2.048170 
# 
# From -- ./inp_files/7860.got.cif
#   From: 2010.05.17/outbox.cif.g08.bks.cpg/sg4_4_cif.got.tgz:7860.got - 2010.06.03 18:43:04.
