data_PCOD9115610
_publ_section_title
;
Structure prediction by ZEFSAII (Michael W. Deem and Ramdas Pophale) SiO2 
 PCOD9115610
Probable space group: P 21
;
_chemical_formula_sum "Si O2"
_cell_formula_units_Z 16
_cell_length_a 9.666533
_cell_length_b 14.806086
_cell_length_c 7.138542
_cell_angle_alpha 90.000000
_cell_angle_beta 132.807889
_cell_angle_gamma 90.000000
_cell_volume 749.551262
_symmetry_space_group_name_H-M "P 21"
_symmetry_group_IT_number 4
_symmetry_cell_setting 'monoclinic'
loop_
_space_group_symop_operation_xyz
x,y,z
-x,1/2+y,-z
loop_
_atom_site_type_symbol
_atom_site_label
_atom_site_fract_x
_atom_site_fract_y
_atom_site_fract_z
Si Si1 0.919717 0.616520 0.059528
Si Si2 0.519888 0.132781 0.455784
Si Si3 0.593003 0.372489 0.132190
Si Si4 0.377986 0.277651 0.598819
Si Si5 0.469344 0.433832 0.413156
Si Si6 0.961623 0.220433 0.185450
Si Si7 0.188201 0.703434 0.573626
Si Si8 0.818315 0.424422 0.002758
O O1 0.697237 0.627154 0.815026
O O2 0.032159 0.658629 0.989743
O O3 0.954924 0.509842 0.115594
O O4 0.992860 0.675351 0.299026
O O5 0.514525 0.209674 0.610762
O O6 0.650191 0.157439 0.400554
O O7 0.581386 0.036999 0.595030
O O8 0.479296 0.411690 0.202569
O O9 0.755272 0.308619 0.369380
O O10 0.694653 0.439323 0.079146
O O11 0.465634 0.312922 0.873147
O O12 0.353680 0.361565 0.430820
O O13 0.179349 0.229861 0.449584
O O14 0.678859 0.425315 0.697038
O O15 0.833287 0.178970 0.229425
O O16 0.899673 0.323795 0.090508
#
# Coordination Sequence:
#
# PCOD9115610 Si02
#       8
#     2   2   2   2   2   2   2   2
#     4  10  23  42  63  94 129 166 209 268 316 372
#     4  10  23  42  66  92 128 168 210 267 314 376
#     4  10  21  40  67  91 126 175 209 257 321 379
#     4  10  22  40  63  96 132 163 216 261 310 383
#     4  10  20  41  64  89 125 171 209 259 323 369
#     4  10  23  40  64  97 127 169 214 262 317 377
#     4  11  23  39  66  92 124 167 212 258 318 374
#     4   9  21  40  63  91 129 161 215 264 311 380
#
# _framework density 21.346105999999999
#
# number of rings (size 3 to 8) (size 9 to 14) (size 15 to 20)
#    0.000    2.000    1.250    0.750    7.000    3.000 
#    4.500    0.000    0.000    0.000    0.000    0.000 
#    0.000    0.000    0.000    0.000    0.000    0.000 
#
# Total GULP energy -89333.492654 kJ/mol
# GULP energy per Si atom -5583.343291 kJ/mol
# Density = 2.129752 g / cm^3
# Si number density = 21.346106 Si / 1000 Ang^3
#
#
#
# Elastic Constant Matrix: (Units=GPa)
#
#
# Indices 1 2 3 4 5 6 
#
# 1 103.1192 50.1229 42.4553 0.0000 -30.0296 0.0000
# 2 50.1229 100.5969 48.8443 0.0000 -31.4540 0.0000
# 3 42.4553 48.8443 92.1830 0.0000 -27.4340 0.0000
# 4 0.0000 0.0000 0.0000 8.2318 0.0000 6.3048
# 5 -30.0296 -31.4540 -27.4340 0.0000 37.6730 0.0000
# 6 0.0000 0.0000 0.0000 6.3048 0.0000 30.9571
#
#
#
# Elastic Compliance Matrix: (Units=1/GPa)
#
#
# Indices 1 2 3 4 5 6 
#
# 1 0.014595 -0.003963 -0.002738 0.000000 0.006331 0.000000
# 2 -0.003963 0.016457 -0.004782 0.000000 0.007099 0.000000
# 3 -0.002738 -0.004782 0.016348 0.000000 0.005730 0.000000
# 4 0.000000 0.000000 0.000000 0.143931 0.000000 -0.029313
# 5 0.006331 0.007099 0.005730 0.000000 0.041690 0.000000
# 6 0.000000 0.000000 0.000000 -0.029313 0.000000 0.038273
#
#
# Mechanical properties :
#
#
# Convention : Reuss Voigt Hill
#
# Bulk Modulus (GPa) = 40.92649 64.30489 52.61569
# Shear Modulus (GPa) = 16.53422 25.67083 21.10252
#
# Velocity S-wave (km/s) = 2.78614 3.47161 3.14759
# Velocity P-wave (km/s) = 5.43733 6.80145 6.15728
#
# Compressibility (1/GPa) = 0.02443405
#
# Stress axis : x y z
#
# Youngs Moduli (GPa) = 68.51831 60.76545 61.17017
#
# Poissons Ratio (x) = 0.24082 0.16746
# Poissons Ratio (y) = 0.27154 0.29251
# Poissons Ratio (z) = 0.18757 0.29058
#
# Static dielectric constant tensor:
#      x y z
#    x 1.784460 0.000000 0.036760 
#    y 0.000000 1.777280 0.000000 
#    z 0.036760 0.000000 1.797980 
# 
# From -- ./inp_files/1788.got.cif
#   From: 2010.05.17/outbox.cif.g08.bks.cpg/sg4_1_cif.got.tgz:1788.got - 2010.06.03 18:43:04.
