data_PCOD9115360
_publ_section_title
;
Structure prediction by ZEFSAII (Michael W. Deem and Ramdas Pophale) SiO2 
 PCOD9115360
Probable space group: P 21
;
_chemical_formula_sum "Si O2"
_cell_formula_units_Z 14
_cell_length_a 14.493011
_cell_length_b 7.918941
_cell_length_c 11.135663
_cell_angle_alpha 90.000000
_cell_angle_beta 27.666233
_cell_angle_gamma 90.000000
_cell_volume 593.416136
_symmetry_space_group_name_H-M "P 21"
_symmetry_group_IT_number 4
_symmetry_cell_setting 'monoclinic'
loop_
_space_group_symop_operation_xyz
x,y,z
-x,1/2+y,-z
loop_
_atom_site_type_symbol
_atom_site_label
_atom_site_fract_x
_atom_site_fract_y
_atom_site_fract_z
Si Si1 0.346265 0.995120 0.555717
Si Si2 0.310119 0.280580 0.393797
Si Si3 0.994976 0.876094 0.086963
Si Si4 0.202887 0.521353 0.905728
Si Si5 0.367548 0.804813 0.295648
Si Si6 0.033100 0.033863 0.581273
Si Si7 0.655763 0.096760 0.880948
O O1 0.183060 0.996528 0.847334
O O2 0.310075 0.147774 0.505659
O O3 0.562015 0.011864 0.362534
O O4 0.332136 0.834599 0.478435
O O5 0.170662 0.196253 0.452358
O O6 0.537086 0.251384 0.085667
O O7 0.164813 0.417429 0.624990
O O8 0.109744 0.701246 0.977313
O O9 0.882599 0.889355 0.089986
O O10 0.122262 0.500281 0.132356
O O11 0.186808 0.881230 0.423338
O O12 0.396299 0.624047 0.199738
O O13 0.549960 0.928735 0.053110
O O14 0.888952 0.071976 0.636932
#
# Coordination Sequence:
#
# PCOD9115360 Si02
#       7
#     2   2   2   2   2   2   2
#     4  10  20  38  60  86 118 161 192 237 310 352
#     4   9  20  36  57  86 119 158 190 239 293 357
#     4  11  21  37  61  91 119 154 206 242 294 364
#     4  11  21  37  64  84 119 160 192 245 300 359
#     4  10  21  38  63  88 115 156 200 247 294 356
#     4   9  17  37  60  81 115 157 192 228 306 347
#     4  10  20  39  63  86 117 156 200 242 299 353
#
# _framework density 23.592213000000001
#
# number of rings (size 3 to 8) (size 9 to 14) (size 15 to 20)
#    0.000    2.286    7.143    0.000    2.000    2.286 
#    2.571    0.000    6.286    0.000    0.000    0.000 
#    0.000    0.000    0.000    0.000    0.000    0.000 
#
# Total GULP energy -77966.394235 kJ/mol
# GULP energy per Si atom -5569.028160 kJ/mol
# Density = 2.353852 g / cm^3
# Si number density = 23.592213 Si / 1000 Ang^3
#
#
#
# Elastic Constant Matrix: (Units=GPa)
#
#
# Indices 1 2 3 4 5 6 
#
# 1 75.0569 20.8736 36.7680 0.0000 -30.8181 0.0000
# 2 20.8736 15.0425 15.4554 0.0000 4.1129 0.0000
# 3 36.7680 15.4554 113.1674 0.0000 -21.0943 0.0000
# 4 0.0000 0.0000 0.0000 27.4931 0.0000 14.3817
# 5 -30.8181 4.1129 -21.0943 0.0000 58.9544 0.0000
# 6 0.0000 0.0000 0.0000 14.3817 0.0000 9.3760
#
#
#
# Elastic Compliance Matrix: (Units=1/GPa)
#
#
# Indices 1 2 3 4 5 6 
#
# 1 0.043445 -0.068177 0.000338 0.000000 0.027588 0.000000
# 2 -0.068177 0.190024 -0.013838 0.000000 -0.053847 0.000000
# 3 0.000338 -0.013838 0.011603 0.000000 0.005294 0.000000
# 4 0.000000 0.000000 0.000000 0.184053 0.000000 -0.282315
# 5 0.027588 -0.053847 0.005294 0.000000 0.037035 0.000000
# 6 0.000000 0.000000 0.000000 -0.282315 0.000000 0.539693
#
#
# Mechanical properties :
#
#
# Convention : Reuss Voigt Hill
#
# Bulk Modulus (GPa) = 12.23712 38.82897 25.53305
# Shear Modulus (GPa) = 4.17904 27.84269 16.01086
#
# Velocity S-wave (km/s) = 1.33237 3.43908 2.60792
# Velocity P-wave (km/s) = 2.75048 5.68012 4.46256
#
# Compressibility (1/GPa) = 0.08171855
#
# Stress axis : x y z
#
# Youngs Moduli (GPa) = 23.01736 5.26248 86.18207
#
# Poissons Ratio (x) = 0.35878 -0.02913
# Poissons Ratio (y) = 1.56925 1.19262
# Poissons Ratio (z) = -0.00778 0.07282
#
# Static dielectric constant tensor:
#      x y z
#    x 1.866330 0.000000 0.038260 
#    y 0.000000 2.117760 0.000000 
#    z 0.038260 0.000000 1.973090 
# 
# From -- ./inp_files/12527.got.cif
#   From: 2010.05.17/outbox.cif.g08.bks.cpg/sg4_7_cif.got.tgz:12527.got - 2010.06.03 18:43:04.
