data_PCOD9115366
_publ_section_title
;
Structure prediction by ZEFSAII (Michael W. Deem and Ramdas Pophale) SiO2 
 PCOD9115366
Probable space group: P 21
;
_chemical_formula_sum "Si O2"
_cell_formula_units_Z 12
_cell_length_a 29.259387
_cell_length_b 4.883987
_cell_length_c 22.502075
_cell_angle_alpha 90.000000
_cell_angle_beta 10.351722
_cell_angle_gamma 90.000000
_cell_volume 577.812534
_symmetry_space_group_name_H-M "P 21"
_symmetry_group_IT_number 4
_symmetry_cell_setting 'monoclinic'
loop_
_space_group_symop_operation_xyz
x,y,z
-x,1/2+y,-z
loop_
_atom_site_type_symbol
_atom_site_label
_atom_site_fract_x
_atom_site_fract_y
_atom_site_fract_z
Si Si1 0.952941 0.375000 0.101446
Si Si2 0.101218 0.664623 0.209841
Si Si3 0.085338 0.395500 0.425775
Si Si4 0.581291 0.125284 0.432048
Si Si5 0.447901 0.140817 0.107844
Si Si6 0.581258 0.664934 0.225793
O O1 0.683176 0.253740 0.466350
O O2 0.915628 0.627272 0.103220
O O3 0.143357 0.492134 0.906994
O O4 0.026554 0.767401 0.370782
O O5 0.842187 0.697568 0.503298
O O6 0.195200 0.355397 0.084788
O O7 0.331480 0.854902 0.894245
O O8 0.917293 0.648212 0.617495
O O9 0.361978 0.520497 0.086629
O O10 0.414264 0.891840 0.614391
O O11 0.468113 0.205010 0.640967
O O12 0.438948 0.912968 0.066845
#
# Coordination Sequence:
#
# PCOD9115366 Si02
#       6
#     2   2   2   2   2   2
#     4  10  20  38  61  84 115 162 200 228 288 372
#     4  11  22  39  61  88 118 155 197 243 291 348
#     4  11  22  39  61  88 118 155 199 245 291 348
#     4  11  22  39  61  88 118 155 199 245 291 348
#     4  10  20  38  61  84 115 162 200 228 288 372
#     4  11  22  39  61  88 118 155 197 243 291 348
#
# _framework density 20.767982
#
# number of rings (size 3 to 8) (size 9 to 14) (size 15 to 20)
#    0.000    1.333    0.000   10.000    0.000    0.000 
#    0.000   10.000    0.000    0.000    0.000    0.000 
#    0.000    0.000    0.000    0.000    0.000    0.000 
#
# Total GULP energy -67053.741675 kJ/mol
# GULP energy per Si atom -5587.811806 kJ/mol
# Density = 2.072071 g / cm^3
# Si number density = 20.767982 Si / 1000 Ang^3
#
#
#
# Elastic Constant Matrix: (Units=GPa)
#
#
# Indices 1 2 3 4 5 6 
#
# 1 61.9001 12.0747 19.5893 0.0000 -15.8047 0.0000
# 2 12.0747 98.8650 -0.6080 0.0000 -2.9755 0.0000
# 3 19.5893 -0.6080 88.0404 0.0000 -7.8342 0.0000
# 4 0.0000 0.0000 0.0000 39.3128 0.0000 -2.4136
# 5 -15.8047 -2.9755 -7.8342 0.0000 15.4216 0.0000
# 6 0.0000 0.0000 0.0000 -2.4136 0.0000 53.5495
#
#
#
# Elastic Compliance Matrix: (Units=1/GPa)
#
#
# Indices 1 2 3 4 5 6 
#
# 1 0.023132 -0.002194 -0.003237 0.000000 0.021640 0.000000
# 2 -0.002194 0.010387 0.000564 0.000000 0.000042 0.000000
# 3 -0.003237 0.000564 0.012356 0.000000 0.003068 0.000000
# 4 0.000000 0.000000 0.000000 0.025508 0.000000 0.001150
# 5 0.021640 0.000042 0.003068 0.000000 0.088588 0.000000
# 6 0.000000 0.000000 0.000000 0.001150 0.000000 0.018726
#
#
# Mechanical properties :
#
#
# Convention : Reuss Voigt Hill
#
# Bulk Modulus (GPa) = 27.66884 34.54639 31.10762
# Shear Modulus (GPa) = 24.94035 36.17342 30.55689
#
# Velocity S-wave (km/s) = 3.46917 4.17800 3.83997
# Velocity P-wave (km/s) = 5.42204 6.32019 5.88827
#
# Compressibility (1/GPa) = 0.03614174
#
# Stress axis : x y z
#
# Youngs Moduli (GPa) = 43.22928 96.26972 80.93558
#
# Poissons Ratio (x) = 0.21120 0.26196
# Poissons Ratio (y) = 0.09484 -0.04562
# Poissons Ratio (z) = 0.13992 -0.05426
#
# Static dielectric constant tensor:
#      x y z
#    x 1.744270 0.000000 -0.032780 
#    y 0.000000 1.741450 0.000000 
#    z -0.032780 0.000000 1.758420 
# 
# From -- ./inp_files/15953.got.cif
#   From: 2010.05.17/outbox.cif.g08.bks.cpg/sg4_8_cif.got.tgz:15953.got - 2010.06.03 18:43:04.
