data_PCOD9115401
_publ_section_title
;
Structure prediction by ZEFSAII (Michael W. Deem and Ramdas Pophale) SiO2 
 PCOD9115401
Probable space group: P 21
;
_chemical_formula_sum "Si O2"
_cell_formula_units_Z 16
_cell_length_a 11.446410
_cell_length_b 6.034624
_cell_length_c 12.252120
_cell_angle_alpha 90.000000
_cell_angle_beta 60.113650
_cell_angle_gamma 90.000000
_cell_volume 733.766040
_symmetry_space_group_name_H-M "P 21"
_symmetry_group_IT_number 4
_symmetry_cell_setting 'monoclinic'
loop_
_space_group_symop_operation_xyz
x,y,z
-x,1/2+y,-z
loop_
_atom_site_type_symbol
_atom_site_label
_atom_site_fract_x
_atom_site_fract_y
_atom_site_fract_z
Si Si1 0.057728 0.223260 0.980760
Si Si2 0.434786 0.406404 0.877278
Si Si3 0.419731 0.520966 0.307702
Si Si4 0.240999 0.452456 0.583068
Si Si5 0.354846 0.690552 0.726346
Si Si6 0.842610 0.554259 0.275939
Si Si7 0.331156 0.227213 0.153407
Si Si8 0.039355 0.195138 0.237470
O O1 0.141968 0.229179 0.829802
O O2 0.016298 0.483786 0.011681
O O3 0.091187 0.160294 0.089351
O O4 0.486358 0.226912 0.766057
O O5 0.342511 0.574569 0.850223
O O6 0.565920 0.532910 0.862220
O O7 0.362294 0.300181 0.014866
O O8 0.296598 0.557420 0.446378
O O9 0.510455 0.333791 0.324162
O O10 0.368394 0.427405 0.216571
O O11 0.345301 0.526132 0.629170
O O12 0.234017 0.186380 0.593742
O O13 0.087708 0.539681 0.674124
O O14 0.236035 0.858055 0.748936
O O15 0.974826 0.441948 0.266200
O O16 0.174754 0.168387 0.243038
#
# Coordination Sequence:
#
# PCOD9115401 Si02
#       8
#     2   2   2   2   2   2   2   2
#     4  10  20  38  63  98 142 183 230 290 358 420
#     4  11  24  47  71 103 135 180 240 296 351 419
#     4  11  26  46  69 100 138 183 233 297 349 430
#     4  11  24  46  67 104 141 181 231 288 369 430
#     4  10  25  38  72 103 135 180 225 296 357 422
#     4  10  22  41  64 104 145 177 231 289 360 433
#     4  11  25  46  71 101 135 186 242 285 351 421
#     4  10  24  40  65 101 139 186 230 291 351 431
#
# _framework density 21.805316999999999
#
# number of rings (size 3 to 8) (size 9 to 14) (size 15 to 20)
#    0.000    1.500    2.500    0.750    7.000    6.000 
#    4.500    0.000    0.000    0.000    0.000    0.000 
#    0.000    0.000    0.000    0.000    0.000    0.000 
#
# Total GULP energy -89108.994404 kJ/mol
# GULP energy per Si atom -5569.312150 kJ/mol
# Density = 2.175569 g / cm^3
# Si number density = 21.805317 Si / 1000 Ang^3
#
#
#
# Elastic Constant Matrix: (Units=GPa)
#
#
# Indices 1 2 3 4 5 6 
#
# 1 105.8971 35.7326 25.1964 0.0000 -14.1579 0.0000
# 2 35.7326 79.8043 26.2921 0.0000 2.4853 0.0000
# 3 25.1964 26.2921 90.3383 0.0000 -3.5161 0.0000
# 4 0.0000 0.0000 0.0000 14.7914 0.0000 3.1110
# 5 -14.1579 2.4853 -3.5161 0.0000 6.0474 0.0000
# 6 0.0000 0.0000 0.0000 3.1110 0.0000 22.3808
#
#
#
# Elastic Compliance Matrix: (Units=1/GPa)
#
#
# Indices 1 2 3 4 5 6 
#
# 1 0.019698 -0.010183 -0.000586 0.000000 0.049960 0.000000
# 2 -0.010183 0.019535 -0.004180 0.000000 -0.034298 0.000000
# 3 -0.000586 -0.004180 0.012752 0.000000 0.007761 0.000000
# 4 0.000000 0.000000 0.000000 0.069643 0.000000 -0.009681
# 5 0.049960 -0.034298 0.007761 0.000000 0.300933 0.000000
# 6 0.000000 0.000000 0.000000 -0.009681 0.000000 0.046027
#
#
# Mechanical properties :
#
#
# Convention : Reuss Voigt Hill
#
# Bulk Modulus (GPa) = 45.27570 50.05353 47.66462
# Shear Modulus (GPa) = 9.88441 21.23182 15.55811
#
# Velocity S-wave (km/s) = 2.13140 3.12380 2.67404
# Velocity P-wave (km/s) = 5.18323 6.00128 5.60719
#
# Compressibility (1/GPa) = 0.02208690
#
# Stress axis : x y z
#
# Youngs Moduli (GPa) = 50.76711 51.18926 78.42121
#
# Poissons Ratio (x) = 0.52124 0.04595
# Poissons Ratio (y) = 0.51694 0.32784
# Poissons Ratio (z) = 0.02974 0.21400
#
# Static dielectric constant tensor:
#      x y z
#    x 1.815510 0.000000 -0.023550 
#    y 0.000000 1.876120 0.000000 
#    z -0.023550 0.000000 1.860400 
# 
# From -- ./inp_files/11506.got.cif
#   From: 2010.05.17/outbox.cif.g08.bks.cpg/sg4_6_cif.got.tgz:11506.got - 2010.06.03 18:43:04.
