data_PCOD9115264
_publ_section_title
;
Structure prediction by ZEFSAII (Michael W. Deem and Ramdas Pophale) SiO2 
 PCOD9115264
Probable space group: P 21
;
_chemical_formula_sum "Si O2"
_cell_formula_units_Z 16
_cell_length_a 19.254476
_cell_length_b 5.709162
_cell_length_c 13.937181
_cell_angle_alpha 90.000000
_cell_angle_beta 23.671615
_cell_angle_gamma 90.000000
_cell_volume 615.117631
_symmetry_space_group_name_H-M "P 21"
_symmetry_group_IT_number 4
_symmetry_cell_setting 'monoclinic'
loop_
_space_group_symop_operation_xyz
x,y,z
-x,1/2+y,-z
loop_
_atom_site_type_symbol
_atom_site_label
_atom_site_fract_x
_atom_site_fract_y
_atom_site_fract_z
Si Si1 0.390215 0.760850 0.861998
Si Si2 0.083506 0.617350 0.340494
Si Si3 0.695473 0.082903 0.436217
Si Si4 0.078056 0.379828 0.697675
Si Si5 0.983642 0.377550 0.292812
Si Si6 0.591771 0.074691 0.368436
Si Si7 0.740166 0.850393 0.730810
Si Si8 0.598891 0.409009 0.728822
O O1 0.375241 0.602103 0.786161
O O2 0.496771 0.628589 0.811329
O O3 0.502550 0.979588 0.689441
O O4 0.198898 0.812442 0.141702
O O5 0.177644 0.575476 0.320270
O O6 0.089536 0.402639 0.257343
O O7 0.883649 0.673294 0.590470
O O8 0.830013 0.906974 0.316237
O O9 0.727041 0.119035 0.284435
O O10 0.679750 0.296697 0.529342
O O11 0.988110 0.127791 0.798422
O O12 0.225582 0.380811 0.425691
O O13 0.979422 0.627131 0.803782
O O14 0.773898 0.402993 0.569380
O O15 0.467185 0.303350 0.543836
O O16 0.550885 0.800539 0.012638
#
# Coordination Sequence:
#
# PCOD9115264 Si02
#       8
#     2   2   2   2   2   2   2   2
#     4  10  20  38  59  92 120 162 203 264 320 377
#     4  10  22  38  59  86 133 162 214 254 323 379
#     4  10  20  36  62  91 121 157 209 268 307 372
#     4  10  21  37  59  82 119 155 206 245 304 351
#     4  10  21  39  57  84 114 163 199 256 295 364
#     4  10  20  36  63  93 123 154 206 262 323 370
#     4  10  22  37  55  88 119 173 202 259 301 383
#     4  10  20  37  58  86 121 156 219 244 313 356
#
# _framework density 26.011282000000001
#
# number of rings (size 3 to 8) (size 9 to 14) (size 15 to 20)
#    0.000    2.000    2.500    0.750    1.750    4.000 
#    4.500    0.000    0.000    6.000    0.000    0.000 
#    0.000    0.000    0.000    0.000    0.000    0.000 
#
# Total GULP energy -89108.498078 kJ/mol
# GULP energy per Si atom -5569.281130 kJ/mol
# Density = 2.595208 g / cm^3
# Si number density = 26.011282 Si / 1000 Ang^3
#
#
#
# Elastic Constant Matrix: (Units=GPa)
#
#
# Indices 1 2 3 4 5 6 
#
# 1 169.7259 9.8421 16.4043 0.0000 10.1895 0.0000
# 2 9.8421 116.3215 10.6912 0.0000 2.4747 0.0000
# 3 16.4043 10.6912 71.9995 0.0000 0.0358 0.0000
# 4 0.0000 0.0000 0.0000 4.0315 0.0000 0.1221
# 5 10.1895 2.4747 0.0358 0.0000 30.6799 0.0000
# 6 0.0000 0.0000 0.0000 0.1221 0.0000 42.7140
#
#
#
# Elastic Compliance Matrix: (Units=1/GPa)
#
#
# Indices 1 2 3 4 5 6 
#
# 1 0.006164 -0.000354 -0.001351 0.000000 -0.002017 0.000000
# 2 -0.000354 0.008751 -0.001218 0.000000 -0.000587 0.000000
# 3 -0.001351 -0.001218 0.014377 0.000000 0.000530 0.000000
# 4 0.000000 0.000000 0.000000 0.248067 0.000000 -0.000709
# 5 -0.002017 -0.000587 0.000530 0.000000 0.033311 0.000000
# 6 0.000000 0.000000 0.000000 -0.000709 0.000000 0.023414
#
#
# Mechanical properties :
#
#
# Convention : Reuss Voigt Hill
#
# Bulk Modulus (GPa) = 42.65225 47.99134 45.32180
# Shear Modulus (GPa) = 14.37826 36.89235 25.63530
#
# Velocity S-wave (km/s) = 2.35366 3.77015 3.14275
# Velocity P-wave (km/s) = 4.88052 6.11901 5.53452
#
# Compressibility (1/GPa) = 0.02344542
#
# Stress axis : x y z
#
# Youngs Moduli (GPa) = 162.23077 114.26836 69.55355
#
# Poissons Ratio (x) = 0.04051 0.09395
# Poissons Ratio (y) = 0.05751 0.08475
# Poissons Ratio (z) = 0.21914 0.13923
#
# Static dielectric constant tensor:
#      x y z
#    x 2.072960 0.000000 0.010800 
#    y 0.000000 2.251290 0.000000 
#    z 0.010800 0.000000 2.085280 
# 
# From -- ./inp_files/14423.got.cif
#   From: 2010.05.17/outbox.cif.g08.bks.cpg/sg4_8_cif.got.tgz:14423.got - 2010.06.03 18:43:04.
