data_PCOD9115033
_publ_section_title
;
Structure prediction by ZEFSAII (Michael W. Deem and Ramdas Pophale) SiO2 
 PCOD9115033
Probable space group: P 21
;
_chemical_formula_sum "Si O2"
_cell_formula_units_Z 16
_cell_length_a 7.771048
_cell_length_b 14.678638
_cell_length_c 7.816402
_cell_angle_alpha 90.000000
_cell_angle_beta 47.450591
_cell_angle_gamma 90.000000
_cell_volume 656.840083
_symmetry_space_group_name_H-M "P 21"
_symmetry_group_IT_number 4
_symmetry_cell_setting 'monoclinic'
loop_
_space_group_symop_operation_xyz
x,y,z
-x,1/2+y,-z
loop_
_atom_site_type_symbol
_atom_site_label
_atom_site_fract_x
_atom_site_fract_y
_atom_site_fract_z
Si Si1 0.952519 0.289720 0.730127
Si Si2 0.695760 0.912082 0.628379
Si Si3 0.484991 0.043214 0.023421
Si Si4 0.028192 0.596127 0.123507
Si Si5 0.317689 0.353382 0.703226
Si Si6 0.435498 0.717991 0.222369
Si Si7 0.219964 0.601169 0.629428
Si Si8 0.621293 0.525614 0.557568
O O1 0.085965 0.344656 0.487544
O O2 0.040294 0.189120 0.729753
O O3 0.044855 0.348457 0.831902
O O4 0.689779 0.272882 0.846203
O O5 0.568765 0.853048 0.565033
O O6 0.537235 0.951741 0.884101
O O7 0.783593 0.005321 0.472490
O O8 0.441931 0.127218 0.928122
O O9 0.724427 0.070561 0.959459
O O10 0.301271 0.041272 0.299848
O O11 0.849428 0.516306 0.290815
O O12 0.050462 0.607428 0.905288
O O13 0.390431 0.276652 0.783655
O O14 0.437088 0.443644 0.694898
O O15 0.228096 0.681167 0.486101
O O16 0.472679 0.601518 0.556084
#
# Coordination Sequence:
#
# PCOD9115033 Si02
#       8
#     2   2   2   2   2   2   2   2
#     4   9  20  38  58  90 126 153 201 256 299 359
#     4   8  18  39  58  84 127 153 195 259 299 349
#     4   9  20  39  62  88 122 164 203 255 304 360
#     4  10  20  37  63  92 115 163 213 237 309 375
#     4   9  20  37  59  91 125 160 200 250 308 363
#     4  10  19  39  65  87 123 163 204 253 309 362
#     4   9  19  39  62  87 120 164 201 251 305 357
#     4  10  20  38  63  89 126 162 203 253 301 369
#
# _framework density 24.359048999999999
#
# number of rings (size 3 to 8) (size 9 to 14) (size 15 to 20)
#    0.750    2.000    0.000    0.750    1.750    0.000 
#    6.750   15.000    0.000    0.000    0.000    0.000 
#    0.000    0.000    0.000    0.000    0.000    0.000 
#
# Total GULP energy -89082.409934 kJ/mol
# GULP energy per Si atom -5567.650621 kJ/mol
# Density = 2.430361 g / cm^3
# Si number density = 24.359049 Si / 1000 Ang^3
#
#
#
# Elastic Constant Matrix: (Units=GPa)
#
#
# Indices 1 2 3 4 5 6 
#
# 1 96.6823 20.5571 16.2746 0.0000 5.3972 0.0000
# 2 20.5571 65.5402 12.3265 0.0000 12.3501 0.0000
# 3 16.2746 12.3265 74.3340 0.0000 26.0344 0.0000
# 4 0.0000 0.0000 0.0000 23.2098 0.0000 11.3540
# 5 5.3972 12.3501 26.0344 0.0000 23.0285 0.0000
# 6 0.0000 0.0000 0.0000 11.3540 0.0000 38.6944
#
#
#
# Elastic Compliance Matrix: (Units=1/GPa)
#
#
# Indices 1 2 3 4 5 6 
#
# 1 0.011417 -0.003498 -0.002714 0.000000 0.002269 0.000000
# 2 -0.003498 0.018062 0.001450 0.000000 -0.010507 0.000000
# 3 -0.002714 0.001450 0.022939 0.000000 -0.026075 0.000000
# 4 0.000000 0.000000 0.000000 0.050306 0.000000 -0.014761
# 5 0.002269 -0.010507 -0.026075 0.000000 0.078005 0.000000
# 6 0.000000 0.000000 0.000000 -0.014761 0.000000 0.030175
#
#
# Mechanical properties :
#
#
# Convention : Reuss Voigt Hill
#
# Bulk Modulus (GPa) = 23.31303 37.20809 30.26056
# Shear Modulus (GPa) = 21.30144 29.47976 25.39060
#
# Velocity S-wave (km/s) = 2.96036 3.48259 3.23204
# Velocity P-wave (km/s) = 4.61263 5.61064 5.13593
#
# Compressibility (1/GPa) = 0.04289447
#
# Stress axis : x y z
#
# Youngs Moduli (GPa) = 87.58749 55.36484 43.59440
#
# Poissons Ratio (x) = 0.19367 0.11832
# Poissons Ratio (y) = 0.30639 -0.06323
# Poissons Ratio (z) = 0.23772 -0.08030
#
# Static dielectric constant tensor:
#      x y z
#    x 1.983050 0.000000 0.000890 
#    y 0.000000 2.008770 0.000000 
#    z 0.000890 0.000000 1.970540 
# 
# From -- ./inp_files/6823.got.cif
#   From: 2010.05.17/outbox.cif.g08.bks.cpg/sg4_4_cif.got.tgz:6823.got - 2010.06.03 18:43:04.
