data_PCOD9115708
_publ_section_title
;
Structure prediction by ZEFSAII (Michael W. Deem and Ramdas Pophale) SiO2 
 PCOD9115708
Probable space group: P 21
;
_chemical_formula_sum "Si O2"
_cell_formula_units_Z 16
_cell_length_a 7.497604
_cell_length_b 9.062972
_cell_length_c 11.975828
_cell_angle_alpha 90.000000
_cell_angle_beta 76.893249
_cell_angle_gamma 90.000000
_cell_volume 792.565231
_symmetry_space_group_name_H-M "P 21"
_symmetry_group_IT_number 4
_symmetry_cell_setting 'monoclinic'
loop_
_space_group_symop_operation_xyz
x,y,z
-x,1/2+y,-z
loop_
_atom_site_type_symbol
_atom_site_label
_atom_site_fract_x
_atom_site_fract_y
_atom_site_fract_z
Si Si1 0.749816 0.801860 0.873385
Si Si2 0.627052 0.816732 0.130791
Si Si3 0.720534 0.732132 0.494476
Si Si4 0.117250 0.421532 0.719467
Si Si5 0.008533 0.740466 0.649295
Si Si6 0.352661 0.913194 0.589651
Si Si7 0.616539 0.464489 0.157264
Si Si8 0.249998 0.948333 0.099656
O O1 0.578911 0.890663 0.845699
O O2 0.724240 0.623609 0.880163
O O3 0.924449 0.823112 0.769588
O O4 0.753158 0.843905 0.003321
O O5 0.711102 0.903752 0.222378
O O6 0.614959 0.642624 0.157928
O O7 0.425707 0.869561 0.126691
O O8 0.851290 0.807140 0.384203
O O9 0.543101 0.834267 0.535718
O O10 0.651410 0.576230 0.459100
O O11 0.838479 0.716884 0.590266
O O12 0.092971 0.584958 0.674806
O O13 0.934545 0.393048 0.816977
O O14 0.172683 0.830627 0.570285
O O15 0.332371 0.913855 0.726736
O O16 0.745663 0.422873 0.034279
#
# Coordination Sequence:
#
# PCOD9115708 Si02
#       8
#     2   2   2   2   2   2   2   2
#     4   9  20  41  66  96 133 165 214 269 321 387
#     4  10  21  40  64  99 133 167 209 266 329 384
#     4  12  26  47  65 100 130 169 225 266 325 384
#     4  11  24  42  65  98 130 171 215 264 325 394
#     4  11  25  43  66  95 131 175 219 266 321 385
#     4  12  26  44  71  92 130 176 215 274 318 391
#     4  10  20  43  64  98 131 167 219 261 327 384
#     4   9  22  40  67  96 132 170 206 272 326 385
#
# _framework density 20.187614
#
# number of rings (size 3 to 8) (size 9 to 14) (size 15 to 20)
#    0.000    1.500    2.500    1.500    3.500    4.000 
#    2.250    0.000    0.000    0.000    0.000    0.000 
#    0.000    0.000    0.000    0.000    0.000    0.000 
#
# Total GULP energy -89390.347250 kJ/mol
# GULP energy per Si atom -5586.896703 kJ/mol
# Density = 2.014167 g / cm^3
# Si number density = 20.187614 Si / 1000 Ang^3
#
#
#
# Elastic Constant Matrix: (Units=GPa)
#
#
# Indices 1 2 3 4 5 6 
#
# 1 80.5451 42.2737 41.6274 0.0000 -9.0930 0.0000
# 2 42.2737 66.4027 42.9973 0.0000 -15.9528 0.0000
# 3 41.6274 42.9973 85.7972 0.0000 -1.9079 0.0000
# 4 0.0000 0.0000 0.0000 25.6796 0.0000 -3.9742
# 5 -9.0930 -15.9528 -1.9079 0.0000 29.1164 0.0000
# 6 0.0000 0.0000 0.0000 -3.9742 0.0000 32.9861
#
#
#
# Elastic Compliance Matrix: (Units=1/GPa)
#
#
# Indices 1 2 3 4 5 6 
#
# 1 0.019966 -0.009251 -0.005032 0.000000 0.000837 0.000000
# 2 -0.009251 0.031227 -0.010860 0.000000 0.013508 0.000000
# 3 -0.005032 -0.010860 0.019401 0.000000 -0.006251 0.000000
# 4 0.000000 0.000000 0.000000 0.039681 0.000000 0.004781
# 5 0.000837 0.013508 -0.006251 0.000000 0.041598 0.000000
# 6 0.000000 0.000000 0.000000 0.004781 0.000000 0.030892
#
#
# Mechanical properties :
#
#
# Convention : Reuss Voigt Hill
#
# Bulk Modulus (GPa) = 49.24750 54.06022 51.65386
# Shear Modulus (GPa) = 20.84880 24.61284 22.73082
#
# Velocity S-wave (km/s) = 3.21713 3.49550 3.35920
# Velocity P-wave (km/s) = 6.18448 6.56722 6.37872
#
# Compressibility (1/GPa) = 0.02030560
#
# Stress axis : x y z
#
# Youngs Moduli (GPa) = 50.08442 32.02357 51.54455
#
# Poissons Ratio (x) = 0.29627 0.25939
# Poissons Ratio (y) = 0.46335 0.55979
# Poissons Ratio (z) = 0.25204 0.34779
#
# Static dielectric constant tensor:
#      x y z
#    x 1.681310 0.000000 -0.002110 
#    y 0.000000 1.689210 0.000000 
#    z -0.002110 0.000000 1.733680 
# 
# From -- ./inp_files/3683.got.cif
#   From: 2010.05.17/outbox.cif.g08.bks.cpg/sg4_2_cif.got.tgz:3683.got - 2010.06.03 18:43:04.
