data_PCOD9115594
_publ_section_title
;
Structure prediction by ZEFSAII (Michael W. Deem and Ramdas Pophale) SiO2 
 PCOD9115594
Probable space group: P 21
;
_chemical_formula_sum "Si O2"
_cell_formula_units_Z 14
_cell_length_a 10.742750
_cell_length_b 10.756912
_cell_length_c 11.489352
_cell_angle_alpha 90.000000
_cell_angle_beta 24.515647
_cell_angle_gamma 90.000000
_cell_volume 550.916441
_symmetry_space_group_name_H-M "P 21"
_symmetry_group_IT_number 4
_symmetry_cell_setting 'monoclinic'
loop_
_space_group_symop_operation_xyz
x,y,z
-x,1/2+y,-z
loop_
_atom_site_type_symbol
_atom_site_label
_atom_site_fract_x
_atom_site_fract_y
_atom_site_fract_z
Si Si1 0.591408 0.950180 0.429870
Si Si2 0.776332 0.611923 0.422383
Si Si3 0.011524 0.884656 0.261280
Si Si4 0.980658 0.300530 0.109399
Si Si5 0.648499 0.988239 0.752838
Si Si6 0.610095 0.989922 0.060679
Si Si7 0.432458 0.728956 0.323809
O O1 0.796960 0.972511 0.366192
O O2 0.333856 0.849268 0.681308
O O3 0.440581 0.069317 0.497196
O O4 0.802661 0.894314 0.149381
O O5 0.919715 0.747450 0.298505
O O6 0.053808 0.516877 0.181371
O O7 0.604008 0.586211 0.689873
O O8 0.926263 0.908941 0.468141
O O9 0.355009 0.917635 0.955406
O O10 0.824196 0.268727 0.367564
O O11 0.246369 0.194271 0.888616
O O12 0.622848 0.001227 0.912128
O O13 0.665540 0.123515 0.681534
O O14 0.514826 0.852875 0.180559
#
# Coordination Sequence:
#
# PCOD9115594 Si02
#       7
#     2   2   2   2   2   2   2
#     4  11  22  46  72 110 144 194 243 296 373 442
#     4  12  25  47  77 107 147 195 248 312 367 448
#     4  12  29  48  73 112 159 190 248 309 386 437
#     4  10  20  40  73 104 137 177 254 284 352 434
#     4  12  29  48  70 113 149 200 242 311 379 439
#     4  12  25  48  75 105 144 195 257 300 376 441
#     4  11  22  43  76 101 142 189 248 306 357 449
#
# _framework density 25.412203000000002
#
# number of rings (size 3 to 8) (size 9 to 14) (size 15 to 20)
#    0.000    0.571    4.286    3.429    4.000    3.429 
#    0.000    1.429    0.000    0.000    0.000    0.000 
#    0.000    0.000    0.000    0.000    0.000    0.000 
#
# Total GULP energy -78216.650281 kJ/mol
# GULP energy per Si atom -5586.903591 kJ/mol
# Density = 2.535436 g / cm^3
# Si number density = 25.412203 Si / 1000 Ang^3
#
#
#
# Elastic Constant Matrix: (Units=GPa)
#
#
# Indices 1 2 3 4 5 6 
#
# 1 68.4074 17.3707 26.7598 0.0000 38.5481 0.0000
# 2 17.3707 111.9209 34.5192 0.0000 9.7329 0.0000
# 3 26.7598 34.5192 180.7695 0.0000 6.7381 0.0000
# 4 0.0000 0.0000 0.0000 36.6264 0.0000 8.4288
# 5 38.5481 9.7329 6.7381 0.0000 37.9776 0.0000
# 6 0.0000 0.0000 0.0000 8.4288 0.0000 25.6152
#
#
#
# Elastic Compliance Matrix: (Units=1/GPa)
#
#
# Indices 1 2 3 4 5 6 
#
# 1 0.037138 -0.001384 -0.003867 0.000000 -0.036655 0.000000
# 2 -0.001384 0.009719 -0.001621 0.000000 -0.000799 0.000000
# 3 -0.003867 -0.001621 0.006294 0.000000 0.003224 0.000000
# 4 0.000000 0.000000 0.000000 0.029540 0.000000 -0.009720
# 5 -0.036655 -0.000799 0.003224 0.000000 0.063169 0.000000
# 6 0.000000 0.000000 0.000000 -0.009720 0.000000 0.042238
#
#
# Mechanical properties :
#
#
# Convention : Reuss Voigt Hill
#
# Bulk Modulus (GPa) = 25.37664 57.59969 41.48817
# Shear Modulus (GPa) = 23.25835 38.87373 31.06604
#
# Velocity S-wave (km/s) = 3.02858 3.91542 3.50020
# Velocity P-wave (km/s) = 4.71566 6.56932 5.71810
#
# Compressibility (1/GPa) = 0.03940632
#
# Stress axis : x y z
#
# Youngs Moduli (GPa) = 26.92690 102.88964 158.88678
#
# Poissons Ratio (x) = 0.14237 0.61443
# Poissons Ratio (y) = 0.03726 0.25761
# Poissons Ratio (z) = 0.10413 0.16682
#
# Static dielectric constant tensor:
#      x y z
#    x 2.140010 0.000000 -0.022100 
#    y 0.000000 2.184680 0.000000 
#    z -0.022100 0.000000 1.938010 
# 
# From -- ./inp_files/12239.got.cif
#   From: 2010.05.17/outbox.cif.g08.bks.cpg/sg4_7_cif.got.tgz:12239.got - 2010.06.03 18:43:04.
