data_PCOD9115167
_publ_section_title
;
Structure prediction by ZEFSAII (Michael W. Deem and Ramdas Pophale) SiO2 
 PCOD9115167
Probable space group: P 21
;
_chemical_formula_sum "Si O2"
_cell_formula_units_Z 14
_cell_length_a 17.381204
_cell_length_b 4.927848
_cell_length_c 7.700579
_cell_angle_alpha 90.000000
_cell_angle_beta 58.181103
_cell_angle_gamma 90.000000
_cell_volume 560.448606
_symmetry_space_group_name_H-M "P 21"
_symmetry_group_IT_number 4
_symmetry_cell_setting 'monoclinic'
loop_
_space_group_symop_operation_xyz
x,y,z
-x,1/2+y,-z
loop_
_atom_site_type_symbol
_atom_site_label
_atom_site_fract_x
_atom_site_fract_y
_atom_site_fract_z
Si Si1 0.553111 0.618430 0.486341
Si Si2 0.978474 0.151970 0.147541
Si Si3 0.336232 0.008053 0.323452
Si Si4 0.706678 0.304721 0.160538
Si Si5 0.697521 0.976098 0.857657
Si Si6 0.149731 0.189192 0.122525
Si Si7 0.790241 0.926892 0.321270
O O1 0.479899 0.423031 0.485255
O O2 0.579166 0.515766 0.647145
O O3 0.645256 0.562723 0.271105
O O4 0.041814 0.172044 0.242227
O O5 0.876872 0.059527 0.309584
O O6 0.978354 0.427366 0.034840
O O7 0.339664 0.612204 0.923620
O O8 0.306602 0.718590 0.279504
O O9 0.257438 0.188332 0.514415
O O10 0.723957 0.156654 0.322290
O O11 0.643087 0.714432 0.859183
O O12 0.799506 0.401424 0.958539
O O13 0.796475 0.854947 0.795276
O O14 0.170839 0.317672 0.908302
#
# Coordination Sequence:
#
# PCOD9115167 Si02
#       7
#     2   2   2   2   2   2   2
#     4  12  27  46  74 102 132 164 227 287 335 401
#     4  10  20  34  62 107 134 166 234 297 321 374
#     4  12  24  44  69 103 134 181 223 280 342 412
#     4  11  21  45  71  98 131 185 223 273 340 412
#     4  11  25  40  72  98 140 183 225 264 342 426
#     4  10  20  40  69 100 135 181 228 278 331 405
#     4  10  21  37  71 102 134 180 238 283 329 392
#
# _framework density 24.979990000000001
#
# number of rings (size 3 to 8) (size 9 to 14) (size 15 to 20)
#    0.000    1.143    4.286    2.571    2.000    0.000 
#    0.000    2.857    3.143    0.000    0.000    0.000 
#    0.000    0.000    0.000    0.000    0.000    0.000 
#
# Total GULP energy -78288.713362 kJ/mol
# GULP energy per Si atom -5592.050954 kJ/mol
# Density = 2.492313 g / cm^3
# Si number density = 24.979990 Si / 1000 Ang^3
#
#
#
# Elastic Constant Matrix: (Units=GPa)
#
#
# Indices 1 2 3 4 5 6 
#
# 1 142.6158 40.8351 17.6250 0.0000 12.6278 0.0000
# 2 40.8351 139.1384 8.2632 0.0000 13.9229 0.0000
# 3 17.6250 8.2632 38.5190 0.0000 17.7385 0.0000
# 4 0.0000 0.0000 0.0000 41.9247 0.0000 8.0088
# 5 12.6278 13.9229 17.7385 0.0000 37.9028 0.0000
# 6 0.0000 0.0000 0.0000 8.0088 0.0000 55.0431
#
#
#
# Elastic Compliance Matrix: (Units=1/GPa)
#
#
# Indices 1 2 3 4 5 6 
#
# 1 0.008036 -0.002131 -0.002992 0.000000 -0.000494 0.000000
# 2 -0.002131 0.008032 0.000362 0.000000 -0.002410 0.000000
# 3 -0.002992 0.000362 0.034233 0.000000 -0.015157 0.000000
# 4 0.000000 0.000000 0.000000 0.024534 0.000000 -0.003570
# 5 -0.000494 -0.002410 -0.015157 0.000000 0.034527 0.000000
# 6 0.000000 0.000000 0.000000 -0.003570 0.000000 0.018687
#
#
# Mechanical properties :
#
#
# Convention : Reuss Voigt Hill
#
# Bulk Modulus (GPa) = 24.52337 50.41330 37.46833
# Shear Modulus (GPa) = 33.07673 43.87745 38.47709
#
# Velocity S-wave (km/s) = 3.64281 4.19561 3.92894
# Velocity P-wave (km/s) = 5.24708 6.61031 5.96775
#
# Compressibility (1/GPa) = 0.04077743
#
# Stress axis : x y z
#
# Youngs Moduli (GPa) = 124.44642 124.49871 29.21187
#
# Poissons Ratio (x) = 0.26533 0.08741
# Poissons Ratio (y) = 0.26522 -0.01057
# Poissons Ratio (z) = 0.37236 -0.04504
#
# Static dielectric constant tensor:
#      x y z
#    x 2.055040 0.000000 -0.026100 
#    y 0.000000 2.026350 0.000000 
#    z -0.026100 0.000000 2.047720 
# 
# From -- ./inp_files/9411.got.cif
#   From: 2010.05.17/outbox.cif.g08.bks.cpg/sg4_5_cif.got.tgz:9411.got - 2010.06.03 18:43:04.
