data_PCOD9115038
_publ_section_title
;
Structure prediction by ZEFSAII (Michael W. Deem and Ramdas Pophale) SiO2 
 PCOD9115038
Probable space group: P 21
;
_chemical_formula_sum "Si O2"
_cell_formula_units_Z 16
_cell_length_a 8.175398
_cell_length_b 5.089685
_cell_length_c 17.027912
_cell_angle_alpha 90.000000
_cell_angle_beta 121.519064
_cell_angle_gamma 90.000000
_cell_volume 604.002044
_symmetry_space_group_name_H-M "P 21"
_symmetry_group_IT_number 4
_symmetry_cell_setting 'monoclinic'
loop_
_space_group_symop_operation_xyz
x,y,z
-x,1/2+y,-z
loop_
_atom_site_type_symbol
_atom_site_label
_atom_site_fract_x
_atom_site_fract_y
_atom_site_fract_z
Si Si1 0.518637 0.856480 0.953613
Si Si2 0.774097 0.616102 0.211246
Si Si3 0.700783 0.564259 0.450879
Si Si4 0.866442 0.259198 0.774506
Si Si5 0.636958 0.752514 0.673394
Si Si6 0.026299 0.817729 0.603958
Si Si7 0.372236 0.456680 0.708276
Si Si8 0.120078 0.610292 0.045488
O O1 0.335412 0.867351 0.850254
O O2 0.704934 0.975925 0.957410
O O3 0.538404 0.569813 0.994317
O O4 0.915005 0.528280 0.316584
O O5 0.610280 0.795486 0.208500
O O6 0.906232 0.761343 0.181949
O O7 0.882032 0.420436 0.454887
O O8 0.615713 0.759472 0.363271
O O9 0.804826 0.740428 0.542096
O O10 0.536252 0.350985 0.426970
O O11 0.779921 0.989733 0.720813
O O12 0.827230 0.243990 0.857584
O O13 0.766085 0.493272 0.701352
O O14 0.515611 0.690475 0.723282
O O15 0.158556 0.570554 0.656668
O O16 0.019822 0.856270 0.975200
#
# Coordination Sequence:
#
# PCOD9115038 Si02
#       8
#     2   2   2   2   2   2   2   2
#     4  12  28  49  78 111 151 191 249 312 366 438
#     4  11  27  43  73 109 148 194 251 307 369 437
#     4  10  19  39  69 107 139 186 243 310 363 433
#     4  12  26  46  71 103 149 194 247 301 371 443
#     4  11  24  42  70 101 139 193 241 302 363 442
#     4  10  21  37  71 106 146 182 249 306 369 425
#     4  10  21  41  70 102 139 180 250 295 369 421
#     4  12  26  49  76 109 151 200 240 299 380 449
#
# _framework density 26.489975999999999
#
# number of rings (size 3 to 8) (size 9 to 14) (size 15 to 20)
#    0.000    1.000    2.500    3.750    7.000    0.000 
#    0.000    0.000    5.500    0.000    0.000    0.000 
#    0.000    0.000    0.000    0.000    0.000    0.000 
#
# Total GULP energy -89590.912546 kJ/mol
# GULP energy per Si atom -5599.432034 kJ/mol
# Density = 2.642968 g / cm^3
# Si number density = 26.489976 Si / 1000 Ang^3
#
#
#
# Elastic Constant Matrix: (Units=GPa)
#
#
# Indices 1 2 3 4 5 6 
#
# 1 108.3170 7.7733 23.6098 0.0000 15.5633 0.0000
# 2 7.7733 137.2900 20.1615 0.0000 6.0682 0.0000
# 3 23.6098 20.1615 56.5843 0.0000 2.3530 0.0000
# 4 0.0000 0.0000 0.0000 47.3127 0.0000 11.7156
# 5 15.5633 6.0682 2.3530 0.0000 23.4847 0.0000
# 6 0.0000 0.0000 0.0000 11.7156 0.0000 22.3716
#
#
#
# Elastic Compliance Matrix: (Units=1/GPa)
#
#
# Indices 1 2 3 4 5 6 
#
# 1 0.011204 0.000339 -0.004502 0.000000 -0.007061 0.000000
# 2 0.000339 0.007766 -0.002827 0.000000 -0.001948 0.000000
# 3 -0.004502 -0.002827 0.020489 0.000000 0.001661 0.000000
# 4 0.000000 0.000000 0.000000 0.024285 0.000000 -0.012718
# 5 -0.007061 -0.001948 0.001661 0.000000 0.047597 0.000000
# 6 0.000000 0.000000 0.000000 -0.012718 0.000000 0.051359
#
#
# Mechanical properties :
#
#
# Convention : Reuss Voigt Hill
#
# Bulk Modulus (GPa) = 39.24912 45.03116 42.14014
# Shear Modulus (GPa) = 27.00154 35.34359 31.17257
#
# Velocity S-wave (km/s) = 3.19613 3.65667 3.43413
# Velocity P-wave (km/s) = 5.33564 5.90462 5.62733
#
# Compressibility (1/GPa) = 0.02547828
#
# Stress axis : x y z
#
# Youngs Moduli (GPa) = 89.25643 128.76667 48.80550
#
# Poissons Ratio (x) = -0.04363 0.21971
# Poissons Ratio (y) = -0.03025 0.13800
# Poissons Ratio (z) = 0.40182 0.36408
#
# Static dielectric constant tensor:
#      x y z
#    x 2.085440 0.000000 -0.055240 
#    y 0.000000 2.048750 0.000000 
#    z -0.055240 0.000000 2.148580 
# 
# From -- ./inp_files/13455.got.cif
#   From: 2010.05.17/outbox.cif.g08.bks.cpg/sg4_7_cif.got.tgz:13455.got - 2010.06.03 18:43:04.
