data_PCOD9115245
_publ_section_title
;
Structure prediction by ZEFSAII (Michael W. Deem and Ramdas Pophale) SiO2 
 PCOD9115245
Probable space group: P 21
;
_chemical_formula_sum "Si O2"
_cell_formula_units_Z 14
_cell_length_a 11.640416
_cell_length_b 7.530844
_cell_length_c 7.250736
_cell_angle_alpha 90.000000
_cell_angle_beta 127.093240
_cell_angle_gamma 90.000000
_cell_volume 507.001667
_symmetry_space_group_name_H-M "P 21"
_symmetry_group_IT_number 4
_symmetry_cell_setting 'monoclinic'
loop_
_space_group_symop_operation_xyz
x,y,z
-x,1/2+y,-z
loop_
_atom_site_type_symbol
_atom_site_label
_atom_site_fract_x
_atom_site_fract_y
_atom_site_fract_z
Si Si1 0.093230 0.073870 0.859519
Si Si2 0.624976 0.350366 0.943529
Si Si3 0.852998 0.941881 0.885725
Si Si4 0.038831 0.515137 0.649406
Si Si5 0.438592 0.471642 0.293428
Si Si6 0.333149 0.344470 0.806677
Si Si7 0.720956 0.449368 0.410275
O O1 0.119257 0.252061 0.996310
O O2 0.037355 0.111487 0.597240
O O3 0.242737 0.966670 0.001775
O O4 0.963594 0.972697 0.831986
O O5 0.587367 0.173578 0.796368
O O6 0.467432 0.435201 0.830457
O O7 0.681448 0.313665 0.207788
O O8 0.886552 0.079561 0.087725
O O9 0.684236 0.944343 0.672960
O O10 0.891260 0.434146 0.600047
O O11 0.177049 0.431939 0.678234
O O12 0.608829 0.433917 0.471237
O O13 0.388553 0.349504 0.072698
O O14 0.313408 0.146941 0.704722
#
# Coordination Sequence:
#
# PCOD9115245 Si02
#       7
#     2   2   2   2   2   2   2
#     4  11  24  41  62  89 120 156 199 245 295 352
#     4   9  17  32  55  82 115 153 193 240 293 347
#     4  11  24  41  62  89 120 156 199 245 295 352
#     4  10  20  36  60  88 118 152 190 238 290 344
#     4   9  17  32  55  82 115 153 193 240 293 347
#     4   9  18  32  53  83 116 153 196 239 288 347
#     4   9  18  32  53  83 116 153 196 239 288 347
#
# _framework density 27.613320000000002
#
# number of rings (size 3 to 8) (size 9 to 14) (size 15 to 20)
#    0.000    2.286    0.000    4.286    0.000   12.571 
#    0.000    1.429    0.000    0.000    0.000    0.000 
#    0.000    0.000    0.000    0.000    0.000    0.000 
#
# Total GULP energy -78139.608741 kJ/mol
# GULP energy per Si atom -5581.400624 kJ/mol
# Density = 2.755047 g / cm^3
# Si number density = 27.613320 Si / 1000 Ang^3
#
#
#
# Elastic Constant Matrix: (Units=GPa)
#
#
# Indices 1 2 3 4 5 6 
#
# 1 276.7181 45.8220 56.3171 0.0000 77.9114 0.0000
# 2 45.8220 77.7830 4.0690 0.0000 20.8821 0.0000
# 3 56.3171 4.0690 106.2120 0.0000 18.3058 0.0000
# 4 0.0000 0.0000 0.0000 16.2944 0.0000 7.9073
# 5 77.9114 20.8821 18.3058 0.0000 56.8695 0.0000
# 6 0.0000 0.0000 0.0000 7.9073 0.0000 42.3250
#
#
#
# Elastic Compliance Matrix: (Units=1/GPa)
#
#
# Indices 1 2 3 4 5 6 
#
# 1 0.006426 -0.001655 -0.002045 0.000000 -0.007538 0.000000
# 2 -0.001655 0.014703 0.000904 0.000000 -0.003422 0.000000
# 3 -0.002045 0.000904 0.010629 0.000000 -0.000952 0.000000
# 4 0.000000 0.000000 0.000000 0.067489 0.000000 -0.012609
# 5 -0.007538 -0.003422 -0.000952 0.000000 0.029475 0.000000
# 6 0.000000 0.000000 0.000000 -0.012609 0.000000 0.025982
#
#
# Mechanical properties :
#
#
# Convention : Reuss Voigt Hill
#
# Bulk Modulus (GPa) = 38.21687 74.79215 56.50451
# Shear Modulus (GPa) = 29.58261 46.73144 38.15703
#
# Velocity S-wave (km/s) = 3.27665 4.11828 3.72134
# Velocity P-wave (km/s) = 5.30898 7.05394 6.24273
#
# Compressibility (1/GPa) = 0.02616645
#
# Stress axis : x y z
#
# Youngs Moduli (GPa) = 155.60627 68.01439 94.08394
#
# Poissons Ratio (x) = 0.11257 0.19239
# Poissons Ratio (y) = 0.25754 -0.08507
# Poissons Ratio (z) = 0.31820 -0.06150
#
# Static dielectric constant tensor:
#      x y z
#    x 2.191400 0.000000 -0.036230 
#    y 0.000000 2.280530 0.000000 
#    z -0.036230 0.000000 2.131370 
# 
# From -- ./inp_files/8047.got.cif
#   From: 2010.05.17/outbox.cif.g08.bks.cpg/sg4_5_cif.got.tgz:8047.got - 2010.06.03 18:43:04.
