data_PCOD9115981
_publ_section_title
;
Structure prediction by ZEFSAII (Michael W. Deem and Ramdas Pophale) SiO2 
 PCOD9115981
Probable space group: P 21
;
_chemical_formula_sum "Si O2"
_cell_formula_units_Z 16
_cell_length_a 12.168832
_cell_length_b 5.452005
_cell_length_c 12.892066
_cell_angle_alpha 90.000000
_cell_angle_beta 134.511623
_cell_angle_gamma 90.000000
_cell_volume 609.934390
_symmetry_space_group_name_H-M "P 21"
_symmetry_group_IT_number 4
_symmetry_cell_setting 'monoclinic'
loop_
_space_group_symop_operation_xyz
x,y,z
-x,1/2+y,-z
loop_
_atom_site_type_symbol
_atom_site_label
_atom_site_fract_x
_atom_site_fract_y
_atom_site_fract_z
Si Si1 0.078654 0.328140 0.526081
Si Si2 0.897862 0.350307 0.225789
Si Si3 0.485838 0.064619 0.635932
Si Si4 0.336703 0.185635 0.847092
Si Si5 0.961587 0.141704 0.842469
Si Si6 0.187241 0.136886 0.185114
Si Si7 0.654450 0.044015 0.961214
Si Si8 0.446902 0.574435 0.560817
O O1 0.234955 0.330204 0.695229
O O2 0.018638 0.608088 0.484107
O O3 0.040837 0.242211 0.383234
O O4 0.752941 0.426336 0.202479
O O5 0.961300 0.596210 0.216047
O O6 0.816799 0.179097 0.086605
O O7 0.608074 0.040126 0.809740
O O8 0.380419 0.822618 0.564772
O O9 0.397405 0.322158 0.579809
O O10 0.558726 0.072623 0.567838
O O11 0.507542 0.177841 0.915514
O O12 0.341118 0.300214 0.965343
O O13 0.872069 0.394261 0.795581
O O14 0.862517 0.893264 0.795753
O O15 0.098310 0.140102 0.017262
O O16 0.369615 0.099379 0.294464
#
# Coordination Sequence:
#
# PCOD9115981 Si02
#       8
#     2   2   2   2   2   2   2   2
#     4  10  22  43  65  90 127 174 217 282 332 392
#     4  11  24  42  67  93 130 177 226 274 339 407
#     4  10  24  38  69  96 130 175 226 266 348 394
#     4  11  25  43  64  98 140 173 238 281 338 399
#     4  10  23  36  60  94 117 166 209 265 326 394
#     4  10  21  39  59  88 131 156 208 272 328 383
#     4  12  24  42  67 101 134 187 224 293 334 410
#     4  10  21  45  63  96 131 172 218 283 327 421
#
# _framework density 26.232330000000001
#
# number of rings (size 3 to 8) (size 9 to 14) (size 15 to 20)
#    0.000    1.500    2.500    1.500    5.250    2.000 
#    0.000    3.750    0.000    0.000    0.000    0.000 
#    0.000    0.000    0.000    0.000    0.000    0.000 
#
# Total GULP energy -89445.336304 kJ/mol
# GULP energy per Si atom -5590.333519 kJ/mol
# Density = 2.617262 g / cm^3
# Si number density = 26.232330 Si / 1000 Ang^3
#
#
#
# Elastic Constant Matrix: (Units=GPa)
#
#
# Indices 1 2 3 4 5 6 
#
# 1 63.3996 23.0189 29.1356 0.0000 15.6376 0.0000
# 2 23.0189 152.6501 41.2229 0.0000 -4.5598 0.0000
# 3 29.1356 41.2229 171.2855 0.0000 -5.7698 0.0000
# 4 0.0000 0.0000 0.0000 38.6416 0.0000 -3.3227
# 5 15.6376 -4.5598 -5.7698 0.0000 38.7693 0.0000
# 6 0.0000 0.0000 0.0000 -3.3227 0.0000 26.3688
#
#
#
# Elastic Compliance Matrix: (Units=1/GPa)
#
#
# Indices 1 2 3 4 5 6 
#
# 1 0.020340 -0.002480 -0.003165 0.000000 -0.008967 0.000000
# 2 -0.002480 0.007322 -0.001284 0.000000 0.001670 0.000000
# 3 -0.003165 -0.001284 0.006757 0.000000 0.002131 0.000000
# 4 0.000000 0.000000 0.000000 0.026162 0.000000 0.003297
# 5 -0.008967 0.001670 0.002131 0.000000 0.029924 0.000000
# 6 0.000000 0.000000 0.000000 0.003297 0.000000 0.038339
#
#
# Mechanical properties :
#
#
# Convention : Reuss Voigt Hill
#
# Bulk Modulus (GPa) = 48.63728 63.78778 56.21253
# Shear Modulus (GPa) = 33.43243 40.35312 36.89277
#
# Velocity S-wave (km/s) = 3.57385 3.92637 3.75425
# Velocity P-wave (km/s) = 5.96750 6.70257 6.34569
#
# Compressibility (1/GPa) = 0.02056036
#
# Stress axis : x y z
#
# Youngs Moduli (GPa) = 49.16516 136.58296 147.98729
#
# Poissons Ratio (x) = 0.33877 0.46836
# Poissons Ratio (y) = 0.12194 0.19000
# Poissons Ratio (z) = 0.15560 0.17536
#
# Static dielectric constant tensor:
#      x y z
#    x 2.057490 0.000000 -0.037020 
#    y 0.000000 2.176480 0.000000 
#    z -0.037020 0.000000 2.075800 
# 
# From -- ./inp_files/12498.got.cif
#   From: 2010.05.17/outbox.cif.g08.bks.cpg/sg4_7_cif.got.tgz:12498.got - 2010.06.03 18:43:04.
