data_PCOD9115189
_publ_section_title
;
Structure prediction by ZEFSAII (Michael W. Deem and Ramdas Pophale) SiO2 
 PCOD9115189
Probable space group: P 21
;
_chemical_formula_sum "Si O2"
_cell_formula_units_Z 12
_cell_length_a 8.102582
_cell_length_b 6.829464
_cell_length_c 10.433700
_cell_angle_alpha 90.000000
_cell_angle_beta 47.950138
_cell_angle_gamma 90.000000
_cell_volume 428.727415
_symmetry_space_group_name_H-M "P 21"
_symmetry_group_IT_number 4
_symmetry_cell_setting 'monoclinic'
loop_
_space_group_symop_operation_xyz
x,y,z
-x,1/2+y,-z
loop_
_atom_site_type_symbol
_atom_site_label
_atom_site_fract_x
_atom_site_fract_y
_atom_site_fract_z
Si Si1 0.075082 0.497880 0.361944
Si Si2 0.245951 0.428923 0.676150
Si Si3 0.162584 0.948717 0.250247
Si Si4 0.494400 0.472299 0.274870
Si Si5 0.600474 0.915417 0.141612
Si Si6 0.897276 0.478918 0.205690
O O1 0.129140 0.713209 0.279068
O O2 0.307586 0.392813 0.274433
O O3 0.948795 0.523715 0.560693
O O4 0.910534 0.401486 0.344689
O O5 0.371775 0.464662 0.477257
O O6 0.401684 0.497361 0.711585
O O7 0.993728 0.510108 0.787155
O O8 0.199404 0.199275 0.729582
O O9 0.422282 0.989829 0.130676
O O10 0.542416 0.687267 0.192452
O O11 0.735061 0.385720 0.184402
O O12 0.850183 0.957364 0.969261
#
# Coordination Sequence:
#
# PCOD9115189 Si02
#       6
#     2   2   2   2   2   2
#     4   9  18  35  57  81 110 151 198 236 278 343
#     4   9  19  38  60  81 113 158 200 233 278 350
#     4   9  18  35  57  81 110 151 198 236 278 343
#     4   9  19  38  60  81 113 158 200 233 278 350
#     4  10  20  35  57  88 120 147 186 245 300 339
#     4  10  20  35  57  88 120 147 186 245 300 339
#
# _framework density 27.989815
#
# number of rings (size 3 to 8) (size 9 to 14) (size 15 to 20)
#    0.000    2.667    0.000    1.000    0.000    1.333 
#    0.000   31.667    0.000    0.000    0.000    0.000 
#    0.000    0.000    0.000    0.000    0.000    0.000 
#
# Total GULP energy -67059.541342 kJ/mol
# GULP energy per Si atom -5588.295112 kJ/mol
# Density = 2.792611 g / cm^3
# Si number density = 27.989815 Si / 1000 Ang^3
#
#
#
# Elastic Constant Matrix: (Units=GPa)
#
#
# Indices 1 2 3 4 5 6 
#
# 1 209.5020 -19.5123 12.2100 0.0000 -46.2786 0.0000
# 2 -19.5123 147.3512 13.0582 0.0000 -7.8700 0.0000
# 3 12.2100 13.0582 119.4888 0.0000 -17.8432 0.0000
# 4 0.0000 0.0000 0.0000 21.8198 0.0000 -4.0250
# 5 -46.2786 -7.8700 -17.8432 0.0000 61.0424 0.0000
# 6 0.0000 0.0000 0.0000 -4.0250 0.0000 -2.4917
#
#
#
# Elastic Compliance Matrix: (Units=1/GPa)
#
#
# Indices 1 2 3 4 5 6 
#
# 1 0.005883 0.001026 -0.000029 0.000000 0.004584 0.000000
# 2 0.001026 0.007060 -0.000653 0.000000 0.001498 0.000000
# 3 -0.000029 -0.000653 0.008812 0.000000 0.002470 0.000000
# 4 0.000000 0.000000 0.000000 0.035309 0.000000 -0.057036
# 5 0.004584 0.001498 0.002470 0.000000 0.020773 0.000000
# 6 0.000000 0.000000 0.000000 -0.057036 0.000000 -0.309197
#
#
# Mechanical properties :
#
#
# Convention : Reuss Voigt Hill
#
# Bulk Modulus (GPa) = 44.55307 54.20596 49.37951
# Shear Modulus (GPa) = -22.26492 47.44652 12.59080
#
# Velocity S-wave (km/s) = -2.82346 4.12167 2.12323
# Velocity P-wave (km/s) = 2.30715 6.48531 4.86735
#
# Compressibility (1/GPa) = 0.02244514
#
# Stress axis : x y z
#
# Youngs Moduli (GPa) = 169.97753 141.63768 113.48047
#
# Poissons Ratio (x) = -0.14538 0.00327
# Poissons Ratio (y) = -0.17447 0.07408
# Poissons Ratio (z) = 0.00489 0.09246
#
# Static dielectric constant tensor:
#      x y z
#    x 2.308820 0.000000 0.010420 
#    y 0.000000 2.301580 0.000000 
#    z 0.010420 0.000000 2.169440 
# 
# From -- ./inp_files/7442.got.cif
#   From: 2010.05.17/outbox.cif.g08.bks.cpg/sg4_4_cif.got.tgz:7442.got - 2010.06.03 18:43:04.
