data_PCOD9115647
_publ_section_title
;
Structure prediction by ZEFSAII (Michael W. Deem and Ramdas Pophale) SiO2 
 PCOD9115647
Probable space group: P 21
;
_chemical_formula_sum "Si O2"
_cell_formula_units_Z 12
_cell_length_a 14.487558
_cell_length_b 5.443326
_cell_length_c 7.009950
_cell_angle_alpha 90.000000
_cell_angle_beta 101.087706
_cell_angle_gamma 90.000000
_cell_volume 542.489426
_symmetry_space_group_name_H-M "P 21"
_symmetry_group_IT_number 4
_symmetry_cell_setting 'monoclinic'
loop_
_space_group_symop_operation_xyz
x,y,z
-x,1/2+y,-z
loop_
_atom_site_type_symbol
_atom_site_label
_atom_site_fract_x
_atom_site_fract_y
_atom_site_fract_z
Si Si1 0.006046 0.877120 0.383614
Si Si2 0.709854 0.932541 0.404631
Si Si3 0.680287 0.590103 0.744234
Si Si4 0.486061 0.662656 0.613563
Si Si5 0.175056 0.357873 0.927409
Si Si6 0.817052 0.217958 0.745581
O O1 0.013104 0.647870 0.535682
O O2 0.103057 0.895585 0.303135
O O3 0.922653 0.788391 0.209515
O O4 0.617006 0.102009 0.348480
O O5 0.751279 0.883825 0.214994
O O6 0.796683 0.042440 0.559066
O O7 0.682683 0.706125 0.532535
O O8 0.577741 0.644722 0.786602
O O9 0.710272 0.309636 0.740305
O O10 0.767411 0.691626 0.900946
O O11 0.507286 0.430736 0.479999
O O12 0.152269 0.596008 0.046003
#
# Coordination Sequence:
#
# PCOD9115647 Si02
#       6
#     2   2   2   2   2   2
#     4  12  28  47  74 100 135 183 227 276 347 406
#     4  10  21  46  66  97 136 181 222 277 335 406
#     4  10  23  42  68  98 137 180 222 280 338 396
#     4  10  20  41  72  98 134 184 223 271 337 400
#     4  11  26  43  68 102 136 176 227 283 336 402
#     4  11  24  43  70  97 138 174 227 279 339 398
#
# _framework density 22.120248
#
# number of rings (size 3 to 8) (size 9 to 14) (size 15 to 20)
#    0.000    1.333    3.333    1.000    7.000    1.333 
#    3.000    0.000    0.000    0.000    0.000    0.000 
#    0.000    0.000    0.000    0.000    0.000    0.000 
#
# Total GULP energy -66833.941230 kJ/mol
# GULP energy per Si atom -5569.495102 kJ/mol
# Density = 2.206990 g / cm^3
# Si number density = 22.120248 Si / 1000 Ang^3
#
#
#
# Elastic Constant Matrix: (Units=GPa)
#
#
# Indices 1 2 3 4 5 6 
#
# 1 110.4404 -4.3691 29.0233 0.0000 7.6663 0.0000
# 2 -4.3691 45.3904 12.0876 0.0000 -0.2401 0.0000
# 3 29.0233 12.0876 82.4376 0.0000 -2.0349 0.0000
# 4 0.0000 0.0000 0.0000 12.2876 0.0000 5.3086
# 5 7.6663 -0.2401 -2.0349 0.0000 40.0393 0.0000
# 6 0.0000 0.0000 0.0000 5.3086 0.0000 36.8363
#
#
#
# Elastic Compliance Matrix: (Units=1/GPa)
#
#
# Indices 1 2 3 4 5 6 
#
# 1 0.010335 0.002047 -0.003992 0.000000 -0.002170 0.000000
# 2 0.002047 0.023332 -0.004153 0.000000 -0.000463 0.000000
# 3 -0.003992 -0.004153 0.014181 0.000000 0.001460 0.000000
# 4 0.000000 0.000000 0.000000 0.086786 0.000000 -0.012507
# 5 -0.002170 -0.000463 0.001460 0.000000 0.025462 0.000000
# 6 0.000000 0.000000 0.000000 -0.012507 0.000000 0.028950
#
#
# Mechanical properties :
#
#
# Convention : Reuss Voigt Hill
#
# Bulk Modulus (GPa) = 28.05026 34.63914 31.34470
# Shear Modulus (GPa) = 23.46018 31.26774 27.36396
#
# Velocity S-wave (km/s) = 3.26018 3.76378 3.52099
# Velocity P-wave (km/s) = 5.18460 5.88061 5.54353
#
# Compressibility (1/GPa) = 0.03565029
#
# Stress axis : x y z
#
# Youngs Moduli (GPa) = 96.75489 42.86035 70.51717
#
# Poissons Ratio (x) = -0.08772 0.28153
# Poissons Ratio (y) = -0.19801 0.29286
# Poissons Ratio (z) = 0.38628 0.17800
#
# Static dielectric constant tensor:
#      x y z
#    x 1.845720 0.000000 0.034620 
#    y 0.000000 1.951060 0.000000 
#    z 0.034620 0.000000 1.813930 
# 
# From -- ./inp_files/3283.got.cif
#   From: 2010.05.17/outbox.cif.g08.bks.cpg/sg4_2_cif.got.tgz:3283.got - 2010.06.03 18:43:04.
