data_PCOD9115056
_publ_section_title
;
Structure prediction by ZEFSAII (Michael W. Deem and Ramdas Pophale) SiO2 
 PCOD9115056
Probable space group: P 21
;
_chemical_formula_sum "Si O2"
_cell_formula_units_Z 14
_cell_length_a 9.816424
_cell_length_b 10.823993
_cell_length_c 8.870811
_cell_angle_alpha 90.000000
_cell_angle_beta 147.752587
_cell_angle_gamma 90.000000
_cell_volume 502.922068
_symmetry_space_group_name_H-M "P 21"
_symmetry_group_IT_number 4
_symmetry_cell_setting 'monoclinic'
loop_
_space_group_symop_operation_xyz
x,y,z
-x,1/2+y,-z
loop_
_atom_site_type_symbol
_atom_site_label
_atom_site_fract_x
_atom_site_fract_y
_atom_site_fract_z
Si Si1 0.941672 0.960130 0.930835
Si Si2 0.009182 0.795782 0.519486
Si Si3 0.236785 0.622522 0.963528
Si Si4 0.512229 0.356986 0.663096
Si Si5 0.801355 0.202424 0.606371
Si Si6 0.420591 0.002264 0.980968
Si Si7 0.301361 0.259248 0.030370
O O1 0.743716 0.864789 0.670616
O O2 0.955896 0.781399 0.116807
O O3 0.887061 0.021177 0.043842
O O4 0.842680 0.077540 0.731274
O O5 0.153049 0.706452 0.531640
O O6 0.180428 0.917701 0.701868
O O7 0.027171 0.709328 0.682159
O O8 0.755266 0.823471 0.183017
O O9 0.396179 0.718559 0.214636
O O10 0.427667 0.560760 0.018949
O O11 0.762112 0.428445 0.829333
O O12 0.450518 0.420714 0.766626
O O13 0.539726 0.275493 0.360752
O O14 0.325511 0.118511 0.993749
#
# Coordination Sequence:
#
# PCOD9115056 Si02
#       7
#     2   2   2   2   2   2   2
#     4  12  24  48  73 101 151 203 238 300 378 442
#     4   9  22  40  68 105 139 183 238 312 357 427
#     4  11  26  45  76 115 145 187 262 308 362 454
#     4  11  26  49  75 104 152 201 240 305 381 442
#     4  10  19  42  67  96 139 191 236 287 367 442
#     4  11  20  46  72 107 143 191 243 315 370 428
#     4  10  19  40  65  98 135 184 239 281 367 425
#
# _framework density 27.837313000000002
#
# number of rings (size 3 to 8) (size 9 to 14) (size 15 to 20)
#    0.857    0.571    4.286    0.000    0.000    5.714 
#    5.143    4.286    0.000    0.000    0.000    0.000 
#    0.000    0.000    0.000    0.000    0.000    0.000 
#
# Total GULP energy -78222.214332 kJ/mol
# GULP energy per Si atom -5587.301024 kJ/mol
# Density = 2.777395 g / cm^3
# Si number density = 27.837313 Si / 1000 Ang^3
#
#
#
# Elastic Constant Matrix: (Units=GPa)
#
#
# Indices 1 2 3 4 5 6 
#
# 1 149.7985 24.7654 29.2583 0.0000 -13.0131 0.0000
# 2 24.7654 123.8956 43.8748 0.0000 -16.5333 0.0000
# 3 29.2583 43.8748 210.5779 0.0000 24.6818 0.0000
# 4 0.0000 0.0000 0.0000 37.2891 0.0000 -0.0730
# 5 -13.0131 -16.5333 24.6818 0.0000 41.3321 0.0000
# 6 0.0000 0.0000 0.0000 -0.0730 0.0000 35.9206
#
#
#
# Elastic Compliance Matrix: (Units=1/GPa)
#
#
# Indices 1 2 3 4 5 6 
#
# 1 0.007255 -0.000665 -0.001189 0.000000 0.002728 0.000000
# 2 -0.000665 0.009814 -0.002568 0.000000 0.005250 0.000000
# 3 -0.001189 -0.002568 0.006036 0.000000 -0.005006 0.000000
# 4 0.000000 0.000000 0.000000 0.026818 0.000000 0.000054
# 5 0.002728 0.005250 -0.005006 0.000000 0.030142 0.000000
# 6 0.000000 0.000000 0.000000 0.000054 0.000000 0.027839
#
#
# Mechanical properties :
#
#
# Convention : Reuss Voigt Hill
#
# Bulk Modulus (GPa) = 70.12183 75.56321 72.84252
# Shear Modulus (GPa) = 41.15172 48.66660 44.90916
#
# Velocity S-wave (km/s) = 3.84903 4.18574 4.02091
# Velocity P-wave (km/s) = 6.70805 7.11085 6.91238
#
# Compressibility (1/GPa) = 0.01426089
#
# Stress axis : x y z
#
# Youngs Moduli (GPa) = 137.83860 101.89441 165.67781
#
# Poissons Ratio (x) = 0.06775 0.19703
# Poissons Ratio (y) = 0.09165 0.42542
# Poissons Ratio (z) = 0.16393 0.26164
#
# Static dielectric constant tensor:
#      x y z
#    x 2.339130 0.000000 0.106200 
#    y 0.000000 2.320730 0.000000 
#    z 0.106200 0.000000 2.339340 
# 
# From -- ./inp_files/5968.got.cif
#   From: 2010.05.17/outbox.cif.g08.bks.cpg/sg4_3_cif.got.tgz:5968.got - 2010.06.03 18:43:04.
