data_PCOD9115911
_publ_section_title
;
Structure prediction by ZEFSAII (Michael W. Deem and Ramdas Pophale) SiO2 
 PCOD9115911
Probable space group: P 21
;
_chemical_formula_sum "Si O2"
_cell_formula_units_Z 14
_cell_length_a 27.263360
_cell_length_b 4.903437
_cell_length_c 9.188768
_cell_angle_alpha 90.000000
_cell_angle_beta 150.984804
_cell_angle_gamma 90.000000
_cell_volume 595.821576
_symmetry_space_group_name_H-M "P 21"
_symmetry_group_IT_number 4
_symmetry_cell_setting 'monoclinic'
loop_
_space_group_symop_operation_xyz
x,y,z
-x,1/2+y,-z
loop_
_atom_site_type_symbol
_atom_site_label
_atom_site_fract_x
_atom_site_fract_y
_atom_site_fract_z
Si Si1 0.222351 0.849640 0.184580
Si Si2 0.950624 0.596419 0.695557
Si Si3 0.636802 0.912558 0.834223
Si Si4 0.819342 0.857193 0.111636
Si Si5 0.420908 0.910772 0.138014
Si Si6 0.566201 0.318589 0.148227
Si Si7 0.095469 0.084177 0.121585
O O1 0.333284 0.734811 0.506013
O O2 0.158435 0.608232 0.940244
O O3 0.233612 0.111258 0.111001
O O4 0.173026 0.975354 0.202421
O O5 0.906069 0.701199 0.427500
O O6 0.030424 0.345692 0.896227
O O7 0.868266 0.581372 0.614842
O O8 0.013554 0.848431 0.917213
O O9 0.541007 0.944328 0.478229
O O10 0.632713 0.611080 0.888259
O O11 0.614061 0.111126 0.908645
O O12 0.740681 0.976624 0.024298
O O13 0.400930 0.955410 0.918148
O O14 0.501296 0.552925 0.058192
#
# Coordination Sequence:
#
# PCOD9115911 Si02
#       7
#     2   2   2   2   2   2   2
#     4  12  26  43  69 104 143 182 235 288 346 427
#     4  10  23  45  73  99 137 180 225 297 355 416
#     4  10  21  38  61  92 131 168 233 279 331 403
#     4  12  25  43  68 104 139 184 222 298 352 417
#     4  10  21  38  61  90 125 184 224 280 330 397
#     4  12  25  43  66  96 142 191 231 282 349 407
#     4  10  23  46  70 103 135 177 236 286 351 431
#
# _framework density 23.496963999999998
#
# number of rings (size 3 to 8) (size 9 to 14) (size 15 to 20)
#    0.000    1.143    0.000    6.000    2.000    4.571 
#    5.143    0.000    0.000    0.000    0.000    0.000 
#    0.000    0.000    0.000    0.000    0.000    0.000 
#
# Total GULP energy -78200.827959 kJ/mol
# GULP energy per Si atom -5585.773426 kJ/mol
# Density = 2.344348 g / cm^3
# Si number density = 23.496964 Si / 1000 Ang^3
#
#
#
# Elastic Constant Matrix: (Units=GPa)
#
#
# Indices 1 2 3 4 5 6 
#
# 1 90.0557 15.8135 28.2035 0.0000 -0.6847 0.0000
# 2 15.8135 106.7856 17.4063 0.0000 -0.7710 0.0000
# 3 28.2035 17.4063 75.9158 0.0000 -7.5822 0.0000
# 4 0.0000 0.0000 0.0000 23.3346 0.0000 -6.5590
# 5 -0.6847 -0.7710 -7.5822 0.0000 30.2956 0.0000
# 6 0.0000 0.0000 0.0000 -6.5590 0.0000 32.3940
#
#
#
# Elastic Compliance Matrix: (Units=1/GPa)
#
#
# Indices 1 2 3 4 5 6 
#
# 1 0.012725 -0.001149 -0.004552 0.000000 -0.000881 0.000000
# 2 -0.001149 0.009835 -0.001852 0.000000 -0.000239 0.000000
# 3 -0.004552 -0.001852 0.015665 0.000000 0.003770 0.000000
# 4 0.000000 0.000000 0.000000 0.045441 0.000000 0.009201
# 5 -0.000881 -0.000239 0.003770 0.000000 0.033926 0.000000
# 6 0.000000 0.000000 0.000000 0.009201 0.000000 0.032733
#
#
# Mechanical properties :
#
#
# Convention : Reuss Voigt Hill
#
# Bulk Modulus (GPa) = 43.25475 43.95596 43.60535
# Shear Modulus (GPa) = 28.87903 31.29376 30.08640
#
# Velocity S-wave (km/s) = 3.50959 3.65337 3.58220
# Velocity P-wave (km/s) = 5.90522 6.04515 5.97559
#
# Compressibility (1/GPa) = 0.02311885
#
# Stress axis : x y z
#
# Youngs Moduli (GPa) = 78.58636 101.67938 63.83717
#
# Poissons Ratio (x) = 0.11680 0.29059
# Poissons Ratio (y) = 0.09028 0.11823
# Poissons Ratio (z) = 0.35773 0.18832
#
# Static dielectric constant tensor:
#      x y z
#    x 1.998210 0.000000 -0.048140 
#    y 0.000000 1.831210 0.000000 
#    z -0.048140 0.000000 1.902890 
# 
# From -- ./inp_files/10131.got.cif
#   From: 2010.05.17/outbox.cif.g08.bks.cpg/sg4_6_cif.got.tgz:10131.got - 2010.06.03 18:43:04.
