data_PCOD9115886
_publ_section_title
;
Structure prediction by ZEFSAII (Michael W. Deem and Ramdas Pophale) SiO2 
 PCOD9115886
Probable space group: P 21
;
_chemical_formula_sum "Si O2"
_cell_formula_units_Z 10
_cell_length_a 9.011883
_cell_length_b 8.038313
_cell_length_c 6.217949
_cell_angle_alpha 90.000000
_cell_angle_beta 108.863338
_cell_angle_gamma 90.000000
_cell_volume 426.238799
_symmetry_space_group_name_H-M "P 21"
_symmetry_group_IT_number 4
_symmetry_cell_setting 'monoclinic'
loop_
_space_group_symop_operation_xyz
x,y,z
-x,1/2+y,-z
loop_
_atom_site_type_symbol
_atom_site_label
_atom_site_fract_x
_atom_site_fract_y
_atom_site_fract_z
Si Si1 0.536315 0.266560 0.281977
Si Si2 0.738512 0.289233 0.992272
Si Si3 0.184918 0.963984 0.366638
Si Si4 0.298047 0.499130 0.371326
Si Si5 0.967459 0.795214 0.551779
O O1 0.576196 0.281016 0.048991
O O2 0.662548 0.392724 0.445613
O O3 0.373863 0.338852 0.291033
O O4 0.585093 0.088368 0.403180
O O5 0.881263 0.273076 0.224775
O O6 0.774880 0.452259 0.865936
O O7 0.734662 0.136187 0.825566
O O8 0.038805 0.840794 0.353601
O O9 0.136445 0.132997 0.459549
O O10 0.141389 0.445755 0.419565
#
# Coordination Sequence:
#
# PCOD9115886 Si02
#       5
#     2   2   2   2   2
#     4  10  23  41  60  88 120 156 197 242 296 351
#     4  10  22  39  59  88 119 154 199 242 292 350
#     4  10  21  38  59  86 120 155 198 243 292 349
#     4  11  23  40  62  87 120 157 197 243 294 349
#     4  11  21  38  62  87 119 158 197 244 292 347
#
# _framework density 23.461026
#
# number of rings (size 3 to 8) (size 9 to 14) (size 15 to 20)
#    0.000    1.600    0.000    6.000    0.000    6.400 
#    0.000    2.000    0.000    0.000    0.000    0.000 
#    0.000    0.000    0.000    0.000    0.000    0.000 
#
# Total GULP energy -55897.627374 kJ/mol
# GULP energy per Si atom -5589.762737 kJ/mol
# Density = 2.340763 g / cm^3
# Si number density = 23.461026 Si / 1000 Ang^3
#
#
#
# Elastic Constant Matrix: (Units=GPa)
#
#
# Indices 1 2 3 4 5 6 
#
# 1 111.4262 13.3997 24.0664 0.0000 -39.6815 0.0000
# 2 13.3997 74.1694 7.3523 0.0000 -15.4191 0.0000
# 3 24.0664 7.3523 57.3322 0.0000 -33.5396 0.0000
# 4 0.0000 0.0000 0.0000 20.1191 0.0000 -5.0322
# 5 -39.6815 -15.4191 -33.5396 0.0000 43.9880 0.0000
# 6 0.0000 0.0000 0.0000 -5.0322 0.0000 50.2754
#
#
#
# Elastic Compliance Matrix: (Units=1/GPa)
#
#
# Indices 1 2 3 4 5 6 
#
# 1 0.013442 0.000270 0.002657 0.000000 0.014246 0.000000
# 2 0.000270 0.014678 0.002088 0.000000 0.006981 0.000000
# 3 0.002657 0.002088 0.032294 0.000000 0.027752 0.000000
# 4 0.000000 0.000000 0.000000 0.050980 0.000000 0.005103
# 5 0.014246 0.006981 0.027752 0.000000 0.059192 0.000000
# 6 0.000000 0.000000 0.000000 0.005103 0.000000 0.020401
#
#
# Mechanical properties :
#
#
# Convention : Reuss Voigt Hill
#
# Bulk Modulus (GPa) = 14.19565 36.95161 25.57363
# Shear Modulus (GPa) = 24.45715 36.08379 30.27047
#
# Velocity S-wave (km/s) = 3.23222 3.92603 3.59589
# Velocity P-wave (km/s) = 4.47141 6.02794 5.30705
#
# Compressibility (1/GPa) = 0.07044413
#
# Stress axis : x y z
#
# Youngs Moduli (GPa) = 74.39583 68.12862 30.96516
#
# Poissons Ratio (x) = -0.01838 -0.08228
# Poissons Ratio (y) = -0.02007 -0.06466
# Poissons Ratio (z) = -0.19767 -0.14226
#
# Static dielectric constant tensor:
#      x y z
#    x 1.890080 0.000000 -0.040790 
#    y 0.000000 1.972260 0.000000 
#    z -0.040790 0.000000 1.898400 
# 
# From -- ./inp_files/901.got.cif
#   From: 2010.05.17/outbox.cif.g08.bks.cpg/sg4_1_cif.got.tgz:901.got - 2010.06.03 18:43:04.
