data_PCOD9115794
_publ_section_title
;
Structure prediction by ZEFSAII (Michael W. Deem and Ramdas Pophale) SiO2 
 PCOD9115794
Probable space group: P 21
;
_chemical_formula_sum "Si O2"
_cell_formula_units_Z 16
_cell_length_a 17.056283
_cell_length_b 7.115553
_cell_length_c 17.673123
_cell_angle_alpha 90.000000
_cell_angle_beta 16.644023
_cell_angle_gamma 90.000000
_cell_volume 614.351151
_symmetry_space_group_name_H-M "P 21"
_symmetry_group_IT_number 4
_symmetry_cell_setting 'monoclinic'
loop_
_space_group_symop_operation_xyz
x,y,z
-x,1/2+y,-z
loop_
_atom_site_type_symbol
_atom_site_label
_atom_site_fract_x
_atom_site_fract_y
_atom_site_fract_z
Si Si1 0.882953 0.717840 0.994084
Si Si2 0.348042 0.546868 0.320365
Si Si3 0.093200 0.834940 0.178632
Si Si4 0.936017 0.124578 0.020863
Si Si5 0.314423 0.803163 0.476130
Si Si6 0.641756 0.706691 0.485281
Si Si7 0.816356 0.079376 0.775555
Si Si8 0.737571 0.800386 0.734672
O O1 0.562604 0.680190 0.282112
O O2 0.894691 0.924282 0.020404
O O3 0.049430 0.603874 0.902697
O O4 0.034148 0.735048 0.773983
O O5 0.350875 0.755376 0.353458
O O6 0.335908 0.491614 0.244017
O O7 0.068142 0.462662 0.612560
O O8 0.607077 0.422356 0.111219
O O9 0.124452 0.632236 0.191828
O O10 0.881670 0.821272 0.305372
O O11 0.677745 0.249523 0.232191
O O12 0.231405 0.180902 0.715313
O O13 0.357935 0.015301 0.463969
O O14 0.029590 0.191415 0.525948
O O15 0.814513 0.866224 0.747643
O O16 0.521990 0.168104 0.031658
#
# Coordination Sequence:
#
# PCOD9115794 Si02
#       8
#     2   2   2   2   2   2   2   2
#     4  10  21  36  54  78 108 142 184 232 280 334
#     4  10  21  37  57  83 113 145 186 233 278 331
#     4  10  21  37  57  83 113 145 186 233 278 331
#     4  10  21  36  54  78 108 142 184 232 280 334
#     4  10  21  37  55  79 111 145 185 231 280 337
#     4  10  21  37  55  79 111 145 185 231 280 337
#     4  10  21  38  59  86 119 152 191 236 281 336
#     4  10  21  38  59  86 119 152 191 236 281 336
#
# _framework density 26.043735999999999
#
# number of rings (size 3 to 8) (size 9 to 14) (size 15 to 20)
#    0.000    2.000    0.000    3.000    0.000    4.000 
#    0.000    3.750    0.000    0.000    0.000    0.000 
#    0.000    0.000    0.000    0.000    0.000    0.000 
#
# Total GULP energy -89425.335520 kJ/mol
# GULP energy per Si atom -5589.083470 kJ/mol
# Density = 2.598446 g / cm^3
# Si number density = 26.043736 Si / 1000 Ang^3
#
#
#
# Elastic Constant Matrix: (Units=GPa)
#
#
# Indices 1 2 3 4 5 6 
#
# 1 87.2313 6.1267 22.7967 0.0000 -10.8420 0.0000
# 2 6.1267 34.0650 5.8679 0.0000 -8.0909 0.0000
# 3 22.7967 5.8679 138.5681 0.0000 -17.7010 0.0000
# 4 0.0000 0.0000 0.0000 12.2368 0.0000 2.2159
# 5 -10.8420 -8.0909 -17.7010 0.0000 33.3248 0.0000
# 6 0.0000 0.0000 0.0000 2.2159 0.0000 33.3493
#
#
#
# Elastic Compliance Matrix: (Units=1/GPa)
#
#
# Indices 1 2 3 4 5 6 
#
# 1 0.012327 -0.001263 -0.001611 0.000000 0.002848 0.000000
# 2 -0.001263 0.031300 -0.000214 0.000000 0.007075 0.000000
# 3 -0.001611 -0.000214 0.007957 0.000000 0.003651 0.000000
# 4 0.000000 0.000000 0.000000 0.082716 0.000000 -0.005496
# 5 0.002848 0.007075 0.003651 0.000000 0.034591 0.000000
# 6 0.000000 0.000000 0.000000 -0.005496 0.000000 0.030351
#
#
# Mechanical properties :
#
#
# Convention : Reuss Voigt Hill
#
# Bulk Modulus (GPa) = 22.02206 36.60522 29.31364
# Shear Modulus (GPa) = 22.67019 30.78706 26.72863
#
# Velocity S-wave (km/s) = 2.95357 3.44194 3.20706
# Velocity P-wave (km/s) = 4.48392 5.46642 4.99937
#
# Compressibility (1/GPa) = 0.04540902
#
# Stress axis : x y z
#
# Youngs Moduli (GPa) = 81.11969 31.94885 125.67482
#
# Poissons Ratio (x) = 0.04036 0.20243
# Poissons Ratio (y) = 0.10247 0.02688
# Poissons Ratio (z) = 0.13066 0.00683
#
# Static dielectric constant tensor:
#      x y z
#    x 2.096180 0.000000 -0.023430 
#    y 0.000000 2.110210 0.000000 
#    z -0.023430 0.000000 1.908140 
# 
# From -- ./inp_files/4022.got.cif
#   From: 2010.05.17/outbox.cif.g08.bks.cpg/sg4_3_cif.got.tgz:4022.got - 2010.06.03 18:43:04.
