data_PCOD9115945
_publ_section_title
;
Structure prediction by ZEFSAII (Michael W. Deem and Ramdas Pophale) SiO2 
 PCOD9115945
Probable space group: P 21
;
_chemical_formula_sum "Si O2"
_cell_formula_units_Z 14
_cell_length_a 6.825158
_cell_length_b 14.810706
_cell_length_c 5.941796
_cell_angle_alpha 90.000000
_cell_angle_beta 101.281156
_cell_angle_gamma 90.000000
_cell_volume 589.024156
_symmetry_space_group_name_H-M "P 21"
_symmetry_group_IT_number 4
_symmetry_cell_setting 'monoclinic'
loop_
_space_group_symop_operation_xyz
x,y,z
-x,1/2+y,-z
loop_
_atom_site_type_symbol
_atom_site_label
_atom_site_fract_x
_atom_site_fract_y
_atom_site_fract_z
Si Si1 0.693022 0.505470 0.544266
Si Si2 0.541512 0.342148 0.800274
Si Si3 0.613877 0.947936 0.863308
Si Si4 0.114311 0.594421 0.064281
Si Si5 0.571949 0.178928 0.508198
Si Si6 0.981804 0.946773 0.650284
Si Si7 0.850447 0.257546 0.192089
O O1 0.610158 0.435003 0.704332
O O2 0.602251 0.469704 0.283799
O O3 0.594569 0.602266 0.559701
O O4 0.929261 0.492778 0.553754
O O5 0.477017 0.264813 0.614382
O O6 0.390286 0.365043 0.968131
O O7 0.740301 0.303161 0.958155
O O8 0.749727 0.938068 0.669920
O O9 0.714587 0.032514 0.012643
O O10 0.246224 0.637976 0.298290
O O11 0.965593 0.521160 0.140422
O O12 0.031137 0.672895 0.887734
O O13 0.679856 0.215635 0.311628
O O14 0.047857 0.842353 0.665408
#
# Coordination Sequence:
#
# PCOD9115945 Si02
#       7
#     2   2   2   2   2   2   2
#     4  11  21  42  65  90 128 164 205 260 314 370
#     4  11  20  38  67  91 122 171 205 253 320 364
#     4   9  20  40  59  92 125 160 208 255 302 372
#     4   8  21  38  58  92 124 166 201 259 310 364
#     4  10  21  38  65  89 129 165 209 260 307 375
#     4  10  21  41  64  93 128 157 214 257 301 381
#     4  11  20  41  64  93 128 161 212 260 314 370
#
# _framework density 23.768125999999999
#
# number of rings (size 3 to 8) (size 9 to 14) (size 15 to 20)
#    0.857    1.143    2.857    0.857    0.000    1.143 
#    5.143    2.857    0.000    0.000    0.000    0.000 
#    0.000    0.000    0.000    0.000    0.000    0.000 
#
# Total GULP energy -78005.193720 kJ/mol
# GULP energy per Si atom -5571.799551 kJ/mol
# Density = 2.371403 g / cm^3
# Si number density = 23.768126 Si / 1000 Ang^3
#
#
#
# Elastic Constant Matrix: (Units=GPa)
#
#
# Indices 1 2 3 4 5 6 
#
# 1 64.6534 26.8697 29.9221 0.0000 -19.2744 0.0000
# 2 26.8697 106.6142 31.3324 0.0000 -4.0421 0.0000
# 3 29.9221 31.3324 43.8790 0.0000 -9.3712 0.0000
# 4 0.0000 0.0000 0.0000 53.0448 0.0000 -17.1308
# 5 -19.2744 -4.0421 -9.3712 0.0000 27.6721 0.0000
# 6 0.0000 0.0000 0.0000 -17.1308 0.0000 29.7579
#
#
#
# Elastic Compliance Matrix: (Units=1/GPa)
#
#
# Indices 1 2 3 4 5 6 
#
# 1 0.026863 -0.002186 -0.013830 0.000000 0.013708 0.000000
# 2 -0.002186 0.012087 -0.007641 0.000000 -0.002345 0.000000
# 3 -0.013830 -0.007641 0.038140 0.000000 0.002167 0.000000
# 4 0.000000 0.000000 0.000000 0.023157 0.000000 0.013331
# 5 0.013708 -0.002345 0.002167 0.000000 0.046077 0.000000
# 6 0.000000 0.000000 0.000000 0.013331 0.000000 0.041279
#
#
# Mechanical properties :
#
#
# Convention : Reuss Voigt Hill
#
# Bulk Modulus (GPa) = 33.58412 43.48834 38.53623
# Shear Modulus (GPa) = 20.42135 30.56311 25.49223
#
# Velocity S-wave (km/s) = 2.93438 3.58982 3.27852
# Velocity P-wave (km/s) = 5.06373 5.95978 5.52993
#
# Compressibility (1/GPa) = 0.02977598
#
# Stress axis : x y z
#
# Youngs Moduli (GPa) = 37.22645 82.73155 26.21923
#
# Poissons Ratio (x) = 0.18085 0.36261
# Poissons Ratio (y) = 0.08138 0.20035
# Poissons Ratio (z) = 0.51483 0.63217
#
# Static dielectric constant tensor:
#      x y z
#    x 1.927340 0.000000 0.006600 
#    y 0.000000 1.936280 0.000000 
#    z 0.006600 0.000000 1.920190 
# 
# From -- ./inp_files/1739.got.cif
#   From: 2010.05.17/outbox.cif.g08.bks.cpg/sg4_1_cif.got.tgz:1739.got - 2010.06.03 18:43:04.
