data_PCOD9115221
_publ_section_title
;
Structure prediction by ZEFSAII (Michael W. Deem and Ramdas Pophale) SiO2 
 PCOD9115221
Probable space group: P 21
;
_chemical_formula_sum "Si O2"
_cell_formula_units_Z 14
_cell_length_a 9.925266
_cell_length_b 12.688764
_cell_length_c 10.465809
_cell_angle_alpha 90.000000
_cell_angle_beta 152.853591
_cell_angle_gamma 90.000000
_cell_volume 601.384480
_symmetry_space_group_name_H-M "P 21"
_symmetry_group_IT_number 4
_symmetry_cell_setting 'monoclinic'
loop_
_space_group_symop_operation_xyz
x,y,z
-x,1/2+y,-z
loop_
_atom_site_type_symbol
_atom_site_label
_atom_site_fract_x
_atom_site_fract_y
_atom_site_fract_z
Si Si1 0.814205 0.647550 0.198981
Si Si2 0.624419 0.009145 0.295903
Si Si3 0.085881 0.515591 0.078071
Si Si4 0.581851 0.644595 0.512049
Si Si5 0.494668 0.888954 0.432569
Si Si6 0.126306 0.396591 0.733039
Si Si7 0.444996 0.034492 0.781225
O O1 0.844425 0.773227 0.211189
O O2 0.603429 0.612932 0.139720
O O3 0.125254 0.597583 0.499483
O O4 0.677787 0.576730 0.968883
O O5 0.663960 0.939945 0.455120
O O6 0.666849 0.929193 0.212823
O O7 0.875395 0.595321 0.820158
O O8 0.839465 0.423004 0.881441
O O9 0.275134 0.604479 0.317955
O O10 0.381379 0.439572 0.332080
O O11 0.564429 0.768193 0.499300
O O12 0.564447 0.606170 0.350974
O O13 0.804489 0.443016 0.428490
O O14 0.246998 0.472370 0.946881
#
# Coordination Sequence:
#
# PCOD9115221 Si02
#       7
#     2   2   2   2   2   2   2
#     4  10  20  36  55  87 124 153 184 236 285 335
#     4  10  21  36  60  86 115 153 200 229 276 361
#     4  10  24  40  60  90 114 140 206 254 290 350
#     4  11  22  43  65  85 116 157 196 247 298 348
#     4  11  22  43  65  85 116 157 196 247 298 348
#     4  10  20  36  55  87 124 153 184 236 285 335
#     4  10  21  36  60  86 115 153 200 229 276 361
#
# _framework density 23.279616000000001
#
# number of rings (size 3 to 8) (size 9 to 14) (size 15 to 20)
#    0.000    1.714    0.000    4.286    0.000    0.000 
#    0.000   37.143    0.000    0.000    0.000    0.000 
#    0.000    0.000    0.000    0.000    0.000    0.000 
#
# Total GULP energy -77936.516514 kJ/mol
# GULP energy per Si atom -5566.894037 kJ/mol
# Density = 2.322663 g / cm^3
# Si number density = 23.279616 Si / 1000 Ang^3
#
#
#
# Elastic Constant Matrix: (Units=GPa)
#
#
# Indices 1 2 3 4 5 6 
#
# 1 39.7029 11.1428 7.2252 0.0000 -6.1552 0.0000
# 2 11.1428 190.6026 56.1260 0.0000 -1.7803 0.0000
# 3 7.2252 56.1260 130.8142 0.0000 2.9662 0.0000
# 4 0.0000 0.0000 0.0000 20.2746 0.0000 -0.6697
# 5 -6.1552 -1.7803 2.9662 0.0000 31.9511 0.0000
# 6 0.0000 0.0000 0.0000 -0.6697 0.0000 24.9480
#
#
#
# Elastic Compliance Matrix: (Units=1/GPa)
#
#
# Indices 1 2 3 4 5 6 
#
# 1 0.026512 -0.001186 -0.001072 0.000000 0.005141 0.000000
# 2 -0.001186 0.006069 -0.002546 0.000000 0.000346 0.000000
# 3 -0.001072 -0.002546 0.008823 0.000000 -0.001167 0.000000
# 4 0.000000 0.000000 0.000000 0.049367 0.000000 0.001325
# 5 0.005141 0.000346 -0.001167 0.000000 0.032416 0.000000
# 6 0.000000 0.000000 0.000000 0.001325 0.000000 0.040119
#
#
# Mechanical properties :
#
#
# Convention : Reuss Voigt Hill
#
# Bulk Modulus (GPa) = 31.45171 56.67862 44.06517
# Shear Modulus (GPa) = 27.24620 34.54311 30.89466
#
# Velocity S-wave (km/s) = 3.42481 3.85624 3.64691
# Velocity P-wave (km/s) = 5.40174 6.65035 6.05830
#
# Compressibility (1/GPa) = 0.03179477
#
# Stress axis : x y z
#
# Youngs Moduli (GPa) = 37.71864 164.77554 113.34598
#
# Poissons Ratio (x) = 0.19547 0.12150
# Poissons Ratio (y) = 0.04474 0.28860
# Poissons Ratio (z) = 0.04043 0.41955
#
# Static dielectric constant tensor:
#      x y z
#    x 2.180250 0.000000 -0.022160 
#    y 0.000000 1.860370 0.000000 
#    z -0.022160 0.000000 1.868580 
# 
# From -- ./inp_files/12174.got.cif
#   From: 2010.05.17/outbox.cif.g08.bks.cpg/sg4_7_cif.got.tgz:12174.got - 2010.06.03 18:43:04.
