data_PCOD9115477
_publ_section_title
;
Structure prediction by ZEFSAII (Michael W. Deem and Ramdas Pophale) SiO2 
 PCOD9115477
Probable space group: P 21
;
_chemical_formula_sum "Si O2"
_cell_formula_units_Z 16
_cell_length_a 16.341730
_cell_length_b 7.994303
_cell_length_c 9.454333
_cell_angle_alpha 90.000000
_cell_angle_beta 37.613254
_cell_angle_gamma 90.000000
_cell_volume 753.829497
_symmetry_space_group_name_H-M "P 21"
_symmetry_group_IT_number 4
_symmetry_cell_setting 'monoclinic'
loop_
_space_group_symop_operation_xyz
x,y,z
-x,1/2+y,-z
loop_
_atom_site_type_symbol
_atom_site_label
_atom_site_fract_x
_atom_site_fract_y
_atom_site_fract_z
Si Si1 0.792316 0.617030 0.510450
Si Si2 0.325577 0.152913 0.031266
Si Si3 0.866497 0.586030 0.933306
Si Si4 0.645762 0.985169 0.198953
Si Si5 0.124702 0.460955 0.720538
Si Si6 0.925335 0.979711 0.884740
Si Si7 0.644035 0.468733 0.462441
Si Si8 0.388318 0.582479 0.450989
O O1 0.833497 0.769621 0.352759
O O2 0.702918 0.495419 0.537659
O O3 0.931617 0.534326 0.367414
O O4 0.711435 0.680501 0.756411
O O5 0.340737 0.324582 0.921193
O O6 0.467701 0.062040 0.816813
O O7 0.204326 0.057395 0.119729
O O8 0.902148 0.782076 0.898419
O O9 0.004744 0.493250 0.776880
O O10 0.753008 0.534281 0.202103
O O11 0.500660 0.058409 0.356349
O O12 0.629541 0.957608 0.391066
O O13 0.794354 0.067352 0.994409
O O14 0.263979 0.560234 0.515568
O O15 0.073724 0.508889 0.947119
O O16 0.621820 0.270188 0.471627
#
# Coordination Sequence:
#
# PCOD9115477 Si02
#       8
#     2   2   2   2   2   2   2   2
#     4  12  25  40  65  95 140 171 212 276 335 389
#     4  10  24  44  63  97 135 170 213 277 336 382
#     4  11  21  39  65  92 126 168 224 262 321 393
#     4   9  21  39  69  93 130 165 223 271 318 394
#     4  11  22  37  64  96 126 172 218 268 320 390
#     4  10  20  39  63  95 126 168 218 274 317 385
#     4  11  21  38  68 100 124 174 218 272 326 391
#     4  10  22  40  69  98 129 166 226 274 321 392
#
# _framework density 21.224957
#
# number of rings (size 3 to 8) (size 9 to 14) (size 15 to 20)
#    0.000    1.500    3.750    0.750    3.500    4.000 
#    0.000    0.000    5.500    0.000    0.000    0.000 
#    0.000    0.000    0.000    0.000    0.000    0.000 
#
# Total GULP energy -89246.324686 kJ/mol
# GULP energy per Si atom -5577.895293 kJ/mol
# Density = 2.117665 g / cm^3
# Si number density = 21.224957 Si / 1000 Ang^3
#
#
#
# Elastic Constant Matrix: (Units=GPa)
#
#
# Indices 1 2 3 4 5 6 
#
# 1 90.6611 6.4414 54.7362 0.0000 -23.9761 0.0000
# 2 6.4414 42.4344 12.0430 0.0000 -0.9846 0.0000
# 3 54.7362 12.0430 96.1984 0.0000 -14.0324 0.0000
# 4 0.0000 0.0000 0.0000 10.9199 0.0000 -8.1526
# 5 -23.9761 -0.9846 -14.0324 0.0000 37.8515 0.0000
# 6 0.0000 0.0000 0.0000 -8.1526 0.0000 22.8982
#
#
#
# Elastic Compliance Matrix: (Units=1/GPa)
#
#
# Indices 1 2 3 4 5 6 
#
# 1 0.019093 0.000031 -0.009624 0.000000 0.008527 0.000000
# 2 0.000031 0.024444 -0.003153 0.000000 -0.000513 0.000000
# 3 -0.009624 -0.003153 0.016243 0.000000 -0.000156 0.000000
# 4 0.000000 0.000000 0.000000 0.124731 0.000000 0.044409
# 5 0.008527 -0.000513 -0.000156 0.000000 0.031749 0.000000
# 6 0.000000 0.000000 0.000000 0.044409 0.000000 0.059483
#
#
# Mechanical properties :
#
#
# Convention : Reuss Voigt Hill
#
# Bulk Modulus (GPa) = 29.16393 41.74834 35.45614
# Shear Modulus (GPa) = 15.99161 24.73882 20.36521
#
# Velocity S-wave (km/s) = 2.74785 3.41772 3.10093
# Velocity P-wave (km/s) = 4.88240 5.94025 5.43711
#
# Compressibility (1/GPa) = 0.03428893
#
# Stress axis : x y z
#
# Youngs Moduli (GPa) = 52.37400 40.91001 61.56488
#
# Poissons Ratio (x) = -0.00126 0.59250
# Poissons Ratio (y) = -0.00162 0.19409
# Poissons Ratio (z) = 0.50405 0.12897
#
# Static dielectric constant tensor:
#      x y z
#    x 1.804780 0.000000 -0.053910 
#    y 0.000000 1.806250 0.000000 
#    z -0.053910 0.000000 1.746210 
# 
# From -- ./inp_files/9138.got.cif
#   From: 2010.05.17/outbox.cif.g08.bks.cpg/sg4_5_cif.got.tgz:9138.got - 2010.06.03 18:43:04.
