data_PCOD9115261
_publ_section_title
;
Structure prediction by ZEFSAII (Michael W. Deem and Ramdas Pophale) SiO2 
 PCOD9115261
Probable space group: P 21
;
_chemical_formula_sum "Si O2"
_cell_formula_units_Z 16
_cell_length_a 20.429271
_cell_length_b 5.269348
_cell_length_c 9.518152
_cell_angle_alpha 90.000000
_cell_angle_beta 138.963363
_cell_angle_gamma 90.000000
_cell_volume 672.704850
_symmetry_space_group_name_H-M "P 21"
_symmetry_group_IT_number 4
_symmetry_cell_setting 'monoclinic'
loop_
_space_group_symop_operation_xyz
x,y,z
-x,1/2+y,-z
loop_
_atom_site_type_symbol
_atom_site_label
_atom_site_fract_x
_atom_site_fract_y
_atom_site_fract_z
Si Si1 0.156304 0.531300 0.215218
Si Si2 0.631718 0.343553 0.232193
Si Si3 0.403093 0.347095 0.979996
Si Si4 0.308106 0.132757 0.412911
Si Si5 0.492270 0.521508 0.401942
Si Si6 0.052774 0.005457 0.542085
Si Si7 0.150641 0.915434 0.959831
Si Si8 0.978540 0.265474 0.794665
O O1 0.255431 0.372276 0.395527
O O2 0.159652 0.664510 0.067729
O O3 0.121820 0.696460 0.289263
O O4 0.057705 0.356585 0.038710
O O5 0.649613 0.081500 0.182398
O O6 0.691627 0.412909 0.470503
O O7 0.641440 0.577668 0.138666
O O8 0.516700 0.337050 0.102491
O O9 0.412435 0.416088 0.160236
O O10 0.420641 0.159055 0.546609
O O11 0.240807 0.077789 0.168258
O O12 0.536344 0.260103 0.543644
O O13 0.969669 0.797615 0.457977
O O14 0.051649 0.963805 0.374553
O O15 0.146973 0.910245 0.786203
O O16 0.044707 0.044418 0.829569
#
# Coordination Sequence:
#
# PCOD9115261 Si02
#       8
#     2   2   2   2   2   2   2   2
#     4  11  20  37  61  93 128 165 215 270 316 381
#     4   9  18  35  60  90 121 153 201 254 311 375
#     4   9  18  35  62  90 118 158 204 250 305 379
#     4  10  25  38  64  95 122 166 211 270 332 376
#     4  11  24  43  69  94 126 171 216 259 315 397
#     4  10  20  37  61  89 123 174 219 257 308 382
#     4  10  21  37  62  89 130 168 213 263 321 381
#     4  10  20  36  61  92 122 171 223 257 312 381
#
# _framework density 23.784579000000001
#
# number of rings (size 3 to 8) (size 9 to 14) (size 15 to 20)
#    0.000    2.000    2.500    0.750    3.500    2.000 
#    0.000    1.250    5.500    0.000    0.000    0.000 
#    0.000    0.000    0.000    0.000    0.000    0.000 
#
# Total GULP energy -89280.206534 kJ/mol
# GULP energy per Si atom -5580.012908 kJ/mol
# Density = 2.373044 g / cm^3
# Si number density = 23.784579 Si / 1000 Ang^3
#
#
#
# Elastic Constant Matrix: (Units=GPa)
#
#
# Indices 1 2 3 4 5 6 
#
# 1 37.6318 -4.4003 2.3112 0.0000 -1.0125 0.0000
# 2 -4.4003 62.7179 -1.4158 0.0000 0.7117 0.0000
# 3 2.3112 -1.4158 95.4125 0.0000 -26.3872 0.0000
# 4 0.0000 0.0000 0.0000 35.4431 0.0000 -3.7256
# 5 -1.0125 0.7117 -26.3872 0.0000 25.8797 0.0000
# 6 0.0000 0.0000 0.0000 -3.7256 0.0000 11.9390
#
#
#
# Elastic Compliance Matrix: (Units=1/GPa)
#
#
# Indices 1 2 3 4 5 6 
#
# 1 0.026835 0.001866 -0.000482 0.000000 0.000507 0.000000
# 2 0.001866 0.016081 0.000127 0.000000 -0.000240 0.000000
# 3 -0.000482 0.000127 0.014607 0.000000 0.014871 0.000000
# 4 0.000000 0.000000 0.000000 0.029171 0.000000 0.009103
# 5 0.000507 -0.000240 0.014871 0.000000 0.053830 0.000000
# 6 0.000000 0.000000 0.000000 0.009103 0.000000 0.086599
#
#
# Mechanical properties :
#
#
# Convention : Reuss Voigt Hill
#
# Bulk Modulus (GPa) = 16.51662 20.97249 18.74456
# Shear Modulus (GPa) = 20.46813 27.93685 24.20249
#
# Velocity S-wave (km/s) = 2.93672 3.43093 3.19340
# Velocity P-wave (km/s) = 4.29633 4.95297 4.63629
#
# Compressibility (1/GPa) = 0.06054506
#
# Stress axis : x y z
#
# Youngs Moduli (GPa) = 37.26516 62.18544 68.45959
#
# Poissons Ratio (x) = -0.11604 0.03301
# Poissons Ratio (y) = -0.06954 -0.00870
# Poissons Ratio (z) = 0.01797 -0.00791
#
# Static dielectric constant tensor:
#      x y z
#    x 1.918050 0.000000 -0.037420 
#    y 0.000000 1.975760 0.000000 
#    z -0.037420 0.000000 1.977670 
# 
# From -- ./inp_files/8656.got.cif
#   From: 2010.05.17/outbox.cif.g08.bks.cpg/sg4_5_cif.got.tgz:8656.got - 2010.06.03 18:43:04.
