data_PCOD9115194
_publ_section_title
;
Structure prediction by ZEFSAII (Michael W. Deem and Ramdas Pophale) SiO2 
 PCOD9115194
Probable space group: P 21
;
_chemical_formula_sum "Si O2"
_cell_formula_units_Z 16
_cell_length_a 11.696523
_cell_length_b 8.061254
_cell_length_c 7.063272
_cell_angle_alpha 90.000000
_cell_angle_beta 70.884349
_cell_angle_gamma 90.000000
_cell_volume 629.263507
_symmetry_space_group_name_H-M "P 21"
_symmetry_group_IT_number 4
_symmetry_cell_setting 'monoclinic'
loop_
_space_group_symop_operation_xyz
x,y,z
-x,1/2+y,-z
loop_
_atom_site_type_symbol
_atom_site_label
_atom_site_fract_x
_atom_site_fract_y
_atom_site_fract_z
Si Si1 0.517285 0.493520 0.946962
Si Si2 0.743838 0.835577 0.944358
Si Si3 0.031675 0.379599 0.709496
Si Si4 0.978889 0.007991 0.872905
Si Si5 0.472609 0.811757 0.706930
Si Si6 0.772011 0.397555 0.262359
Si Si7 0.223143 0.969839 0.191894
Si Si8 0.726701 0.763471 0.394048
O O1 0.390174 0.402190 0.001779
O O2 0.493817 0.661538 0.843690
O O3 0.644422 0.410662 0.808364
O O4 0.537779 0.483418 0.164797
O O5 0.754651 0.792458 0.159092
O O6 0.762176 0.667769 0.818361
O O7 0.851518 0.962521 0.851476
O O8 0.168233 0.367891 0.556902
O O9 0.909824 0.423488 0.660485
O O10 0.013664 0.191085 0.791330
O O11 0.033165 0.498883 0.892501
O O12 0.086657 0.878733 0.763628
O O13 0.347158 0.783582 0.662254
O O14 0.592495 0.819151 0.517816
O O15 0.736550 0.564024 0.397508
O O16 0.782700 0.416296 0.026873
#
# Coordination Sequence:
#
# PCOD9115194 Si02
#       8
#     2   2   2   2   2   2   2   2
#     4  11  23  38  59  88 117 170 206 241 299 368
#     4  10  20  35  58  90 118 153 202 251 300 353
#     4   9  17  33  58  84 119 155 191 253 302 351
#     4   9  17  29  55  86 115 147 200 244 300 351
#     4  11  23  40  63  84 127 164 205 251 300 368
#     4   8  18  35  56  89 117 152 194 253 302 347
#     4   9  18  36  55  80 121 155 201 242 285 371
#     4   9  20  38  60  89 120 152 195 263 308 345
#
# _framework density 25.426548
#
# number of rings (size 3 to 8) (size 9 to 14) (size 15 to 20)
#    0.000    2.500    1.250    2.250    7.000    0.000 
#    0.000    0.000    5.500    0.000    0.000    0.000 
#    0.000    0.000    0.000    0.000    0.000    0.000 
#
# Total GULP energy -89249.524311 kJ/mol
# GULP energy per Si atom -5578.095269 kJ/mol
# Density = 2.536868 g / cm^3
# Si number density = 25.426548 Si / 1000 Ang^3
#
#
#
# Elastic Constant Matrix: (Units=GPa)
#
#
# Indices 1 2 3 4 5 6 
#
# 1 182.3272 35.5367 15.0123 0.0000 -38.5697 0.0000
# 2 35.5367 45.8028 0.6983 0.0000 -4.7082 0.0000
# 3 15.0123 0.6983 61.6284 0.0000 5.2873 0.0000
# 4 0.0000 0.0000 0.0000 27.9432 0.0000 -6.4148
# 5 -38.5697 -4.7082 5.2873 0.0000 36.0265 0.0000
# 6 0.0000 0.0000 0.0000 -6.4148 0.0000 44.0296
#
#
#
# Elastic Compliance Matrix: (Units=1/GPa)
#
#
# Indices 1 2 3 4 5 6 
#
# 1 0.008768 -0.005830 -0.002846 0.000000 0.009043 0.000000
# 2 -0.005830 0.026022 0.001386 0.000000 -0.003044 0.000000
# 3 -0.002846 0.001386 0.017368 0.000000 -0.005414 0.000000
# 4 0.000000 0.000000 0.000000 0.037025 0.000000 0.005394
# 5 0.009043 -0.003044 -0.005414 0.000000 0.037835 0.000000
# 6 0.000000 0.000000 0.000000 0.005394 0.000000 0.023498
#
#
# Mechanical properties :
#
#
# Convention : Reuss Voigt Hill
#
# Bulk Modulus (GPa) = 26.60986 43.58368 35.09677
# Shear Modulus (GPa) = 28.14969 37.50060 32.82514
#
# Velocity S-wave (km/s) = 3.33092 3.84456 3.59692
# Velocity P-wave (km/s) = 5.02807 6.07336 5.57527
#
# Compressibility (1/GPa) = 0.03758006
#
# Stress axis : x y z
#
# Youngs Moduli (GPa) = 114.04860 38.42917 57.57630
#
# Poissons Ratio (x) = 0.22404 0.16384
# Poissons Ratio (y) = 0.66490 -0.07983
# Poissons Ratio (z) = 0.32454 -0.05328
#
# Static dielectric constant tensor:
#      x y z
#    x 2.178060 0.000000 0.027170 
#    y 0.000000 2.013940 0.000000 
#    z 0.027170 0.000000 2.090420 
# 
# From -- ./inp_files/7814.got.cif
#   From: 2010.05.17/outbox.cif.g08.bks.cpg/sg4_4_cif.got.tgz:7814.got - 2010.06.03 18:43:04.
