data_PCOD9115797
_publ_section_title
;
Structure prediction by ZEFSAII (Michael W. Deem and Ramdas Pophale) SiO2 
 PCOD9115797
Probable space group: P 21
;
_chemical_formula_sum "Si O2"
_cell_formula_units_Z 14
_cell_length_a 20.991421
_cell_length_b 5.175372
_cell_length_c 12.802988
_cell_angle_alpha 90.000000
_cell_angle_beta 24.787675
_cell_angle_gamma 90.000000
_cell_volume 583.142727
_symmetry_space_group_name_H-M "P 21"
_symmetry_group_IT_number 4
_symmetry_cell_setting 'monoclinic'
loop_
_space_group_symop_operation_xyz
x,y,z
-x,1/2+y,-z
loop_
_atom_site_type_symbol
_atom_site_label
_atom_site_fract_x
_atom_site_fract_y
_atom_site_fract_z
Si Si1 0.597194 0.200120 0.343910
Si Si2 0.133190 0.897933 0.189257
Si Si3 0.495098 0.534061 0.879651
Si Si4 0.620389 0.529782 0.916439
Si Si5 0.056803 0.900172 0.550256
Si Si6 0.823238 0.550113 0.306557
Si Si7 0.851398 0.056698 0.128199
O O1 0.510193 0.451894 0.522939
O O2 0.720771 0.067488 0.236887
O O3 0.698411 0.331567 0.101521
O O4 0.109537 0.895893 0.349301
O O5 0.030378 0.664167 0.301863
O O6 0.056718 0.162619 0.262170
O O7 0.509087 0.576044 0.983949
O O8 0.661662 0.472137 0.592954
O O9 0.449141 0.812792 0.906352
O O10 0.374227 0.309562 0.037940
O O11 0.779105 0.416822 0.640946
O O12 0.851954 0.345040 0.172948
O O13 0.815485 0.836777 0.268305
O O14 0.969882 0.515793 0.163205
#
# Coordination Sequence:
#
# PCOD9115797 Si02
#       7
#     2   2   2   2   2   2   2
#     4  12  26  44  65  98 132 170 218 269 329 386
#     4  10  23  41  63  92 120 162 217 256 309 374
#     4  10  21  36  56  91 123 159 198 250 312 372
#     4  10  21  36  57  92 126 153 201 248 313 376
#     4  10  21  41  64  90 122 164 209 256 310 374
#     4  10  21  41  63  89 126 168 216 260 315 377
#     4  10  23  41  62  92 123 166 221 263 310 381
#
# _framework density 24.007846000000001
#
# number of rings (size 3 to 8) (size 9 to 14) (size 15 to 20)
#    0.000    1.714    0.000    3.429    2.000    3.429 
#    5.143    0.000    0.000    0.000    0.000    0.000 
#    0.000    0.000    0.000    0.000    0.000    0.000 
#
# Total GULP energy -78132.839015 kJ/mol
# GULP energy per Si atom -5580.917072 kJ/mol
# Density = 2.395320 g / cm^3
# Si number density = 24.007846 Si / 1000 Ang^3
#
#
#
# Elastic Constant Matrix: (Units=GPa)
#
#
# Indices 1 2 3 4 5 6 
#
# 1 50.4230 4.0325 3.3246 0.0000 -23.8621 0.0000
# 2 4.0325 106.9500 1.7489 0.0000 -10.1119 0.0000
# 3 3.3246 1.7489 109.1997 0.0000 -6.2619 0.0000
# 4 0.0000 0.0000 0.0000 41.2791 0.0000 -7.0661
# 5 -23.8621 -10.1119 -6.2619 0.0000 20.0599 0.0000
# 6 0.0000 0.0000 0.0000 -7.0661 0.0000 4.4132
#
#
#
# Elastic Compliance Matrix: (Units=1/GPa)
#
#
# Indices 1 2 3 4 5 6 
#
# 1 0.047074 0.003721 0.001859 0.000000 0.058452 0.000000
# 2 0.003721 0.010114 0.000276 0.000000 0.009611 0.000000
# 3 0.001859 0.000276 0.009400 0.000000 0.005285 0.000000
# 4 0.000000 0.000000 0.000000 0.033372 0.000000 0.053432
# 5 0.058452 0.009611 0.005285 0.000000 0.125877 0.000000
# 6 0.000000 0.000000 0.000000 0.053432 0.000000 0.312143
#
#
# Mechanical properties :
#
#
# Convention : Reuss Voigt Hill
#
# Bulk Modulus (GPa) = 12.77139 31.64275 22.20707
# Shear Modulus (GPa) = 9.05197 30.31489 19.68343
#
# Velocity S-wave (km/s) = 1.94386 3.55731 2.86645
# Velocity P-wave (km/s) = 3.22015 5.48465 4.49727
#
# Compressibility (1/GPa) = 0.07830000
#
# Stress axis : x y z
#
# Youngs Moduli (GPa) = 21.24318 98.87239 106.38794
#
# Poissons Ratio (x) = -0.36793 -0.19779
# Poissons Ratio (y) = -0.07905 -0.02935
# Poissons Ratio (z) = -0.03949 -0.02727
#
# Static dielectric constant tensor:
#      x y z
#    x 2.017750 0.000000 0.008360 
#    y 0.000000 1.929650 0.000000 
#    z 0.008360 0.000000 1.944850 
# 
# From -- ./inp_files/14504.got.cif
#   From: 2010.05.17/outbox.cif.g08.bks.cpg/sg4_8_cif.got.tgz:14504.got - 2010.06.03 18:43:04.
