data_PCOD9115484
_publ_section_title
;
Structure prediction by ZEFSAII (Michael W. Deem and Ramdas Pophale) SiO2 
 PCOD9115484
Probable space group: P 21
;
_chemical_formula_sum "Si O2"
_cell_formula_units_Z 16
_cell_length_a 8.446069
_cell_length_b 12.982836
_cell_length_c 7.444573
_cell_angle_alpha 90.000000
_cell_angle_beta 52.014346
_cell_angle_gamma 90.000000
_cell_volume 643.400018
_symmetry_space_group_name_H-M "P 21"
_symmetry_group_IT_number 4
_symmetry_cell_setting 'monoclinic'
loop_
_space_group_symop_operation_xyz
x,y,z
-x,1/2+y,-z
loop_
_atom_site_type_symbol
_atom_site_label
_atom_site_fract_x
_atom_site_fract_y
_atom_site_fract_z
Si Si1 0.249432 0.663450 0.310447
Si Si2 0.354093 0.986238 0.179998
Si Si3 0.102547 0.953341 0.915789
Si Si4 0.715189 0.648095 0.052344
Si Si5 0.045568 0.835781 0.330553
Si Si6 0.876686 0.241546 0.234992
Si Si7 0.678837 0.031703 0.250802
Si Si8 0.669083 0.940227 0.658731
O O1 0.484295 0.682910 0.196428
O O2 0.154105 0.727507 0.214905
O O3 0.123945 0.713872 0.556504
O O4 0.223364 0.541863 0.332851
O O5 0.482368 0.932649 0.925914
O O6 0.259073 0.087780 0.155198
O O7 0.190067 0.904743 0.354697
O O8 0.498392 0.018735 0.239343
O O9 0.195150 0.855884 0.752611
O O10 0.237964 0.055224 0.839837
O O11 0.057080 0.905708 0.144242
O O12 0.879040 0.986269 0.015892
O O13 0.886657 0.729813 0.979368
O O14 0.816482 0.842884 0.554572
O O15 0.739358 0.150067 0.251067
O O16 0.638514 0.974995 0.471460
#
# Coordination Sequence:
#
# PCOD9115484 Si02
#       8
#     2   2   2   2   2   2   2   2
#     4  10  21  38  63  88 120 155 206 250 301 364
#     4  10  20  39  65  86 123 161 196 258 304 353
#     4   9  20  39  61  86 124 162 198 249 312 359
#     4   9  21  41  61  85 126 162 194 256 308 355
#     4  10  22  39  60  93 117 160 210 246 303 374
#     4  10  21  40  62  85 124 163 198 254 310 359
#     4   9  20  38  62  90 119 163 206 247 304 372
#     4   9  21  42  60  83 131 160 192 258 310 354
#
# _framework density 24.867887
#
# number of rings (size 3 to 8) (size 9 to 14) (size 15 to 20)
#    0.000    2.500    0.000    2.250    7.000    0.000 
#    9.000    0.000   11.000    0.000    0.000    0.000 
#    0.000    0.000    0.000    0.000    0.000    0.000 
#
# Total GULP energy -89287.086716 kJ/mol
# GULP energy per Si atom -5580.442920 kJ/mol
# Density = 2.481129 g / cm^3
# Si number density = 24.867887 Si / 1000 Ang^3
#
#
#
# Elastic Constant Matrix: (Units=GPa)
#
#
# Indices 1 2 3 4 5 6 
#
# 1 106.3172 26.4945 19.9526 0.0000 7.3534 0.0000
# 2 26.4945 61.8876 2.5024 0.0000 -1.4217 0.0000
# 3 19.9526 2.5024 64.7351 0.0000 -10.6004 0.0000
# 4 0.0000 0.0000 0.0000 21.0264 0.0000 1.3593
# 5 7.3534 -1.4217 -10.6004 0.0000 24.2820 0.0000
# 6 0.0000 0.0000 0.0000 1.3593 0.0000 36.4447
#
#
#
# Elastic Compliance Matrix: (Units=1/GPa)
#
#
# Indices 1 2 3 4 5 6 
#
# 1 0.011898 -0.005049 -0.004427 0.000000 -0.005831 0.000000
# 2 -0.005049 0.018338 0.001371 0.000000 0.003201 0.000000
# 3 -0.004427 0.001371 0.018300 0.000000 0.009410 0.000000
# 4 0.000000 0.000000 0.000000 0.047674 0.000000 -0.001778
# 5 -0.005831 0.003201 0.009410 0.000000 0.047244 0.000000
# 6 0.000000 0.000000 0.000000 -0.001778 0.000000 0.027505
#
#
# Mechanical properties :
#
#
# Convention : Reuss Voigt Hill
#
# Bulk Modulus (GPa) = 30.93342 36.75986 33.84664
# Shear Modulus (GPa) = 25.25978 28.61666 26.93822
#
# Velocity S-wave (km/s) = 3.19055 3.39595 3.29485
# Velocity P-wave (km/s) = 5.10284 5.49461 5.30234
#
# Compressibility (1/GPa) = 0.03232749
#
# Stress axis : x y z
#
# Youngs Moduli (GPa) = 84.04732 54.53230 54.64514
#
# Poissons Ratio (x) = 0.27531 0.24191
# Poissons Ratio (y) = 0.42432 -0.07494
# Poissons Ratio (z) = 0.37207 -0.07479
#
# Static dielectric constant tensor:
#      x y z
#    x 2.055980 0.000000 0.046030 
#    y 0.000000 2.081340 0.000000 
#    z 0.046030 0.000000 2.012130 
# 
# From -- ./inp_files/6724.got.cif
#   From: 2010.05.17/outbox.cif.g08.bks.cpg/sg4_4_cif.got.tgz:6724.got - 2010.06.03 18:43:04.
