data_PCOD9115431
_publ_section_title
;
Structure prediction by ZEFSAII (Michael W. Deem and Ramdas Pophale) SiO2 
 PCOD9115431
Probable space group: P 21
;
_chemical_formula_sum "Si O2"
_cell_formula_units_Z 14
_cell_length_a 8.526805
_cell_length_b 13.244625
_cell_length_c 10.017047
_cell_angle_alpha 90.000000
_cell_angle_beta 27.677938
_cell_angle_gamma 90.000000
_cell_volume 525.475465
_symmetry_space_group_name_H-M "P 21"
_symmetry_group_IT_number 4
_symmetry_cell_setting 'monoclinic'
loop_
_space_group_symop_operation_xyz
x,y,z
-x,1/2+y,-z
loop_
_atom_site_type_symbol
_atom_site_label
_atom_site_fract_x
_atom_site_fract_y
_atom_site_fract_z
Si Si1 0.068541 0.050510 0.842350
Si Si2 0.261105 0.278962 0.623759
Si Si3 0.098342 0.847133 0.681624
Si Si4 0.391175 0.781268 0.188943
Si Si5 0.567580 0.080396 0.776309
Si Si6 0.785198 0.065029 0.345231
Si Si7 0.551538 0.366165 0.147780
O O1 0.150873 0.162733 0.728150
O O2 0.431460 0.003729 0.616620
O O3 0.967408 0.960664 0.819001
O O4 0.834865 0.070715 0.147377
O O5 0.585281 0.308796 0.468599
O O6 0.362294 0.293052 0.393212
O O7 0.948624 0.354312 0.894533
O O8 0.776732 0.776441 0.953359
O O9 0.188422 0.837031 0.457661
O O10 0.416093 0.835344 0.029777
O O11 0.294522 0.664711 0.230198
O O12 0.659638 0.133311 0.565680
O O13 0.685376 0.966264 0.674987
O O14 0.174280 0.054616 0.094261
#
# Coordination Sequence:
#
# PCOD9115431 Si02
#       7
#     2   2   2   2   2   2   2
#     4  11  22  40  67 102 139 166 221 294 333 376
#     4  12  25  44  71 102 135 178 229 278 336 403
#     4  12  25  44  71 102 135 178 229 278 336 403
#     4  12  27  45  68 102 137 180 226 275 341 406
#     4  11  22  42  67  90 137 180 221 268 331 414
#     4  10  20  38  66  98 130 178 214 266 342 394
#     4  12  27  45  68 102 137 180 226 275 341 406
#
# _framework density 26.64254
#
# number of rings (size 3 to 8) (size 9 to 14) (size 15 to 20)
#    0.000    0.571    0.000   10.286    0.000    2.286 
#    0.000    0.000    0.000    0.000    0.000    0.000 
#    0.000    0.000    0.000    0.000    0.000    0.000 
#
# Total GULP energy -78021.879464 kJ/mol
# GULP energy per Si atom -5572.991390 kJ/mol
# Density = 2.658190 g / cm^3
# Si number density = 26.642540 Si / 1000 Ang^3
#
#
#
# Elastic Constant Matrix: (Units=GPa)
#
#
# Indices 1 2 3 4 5 6 
#
# 1 69.4732 45.1006 34.0981 0.0000 8.0551 0.0000
# 2 45.1006 149.4495 22.2754 0.0000 30.0687 0.0000
# 3 34.0981 22.2754 202.0144 0.0000 15.7631 0.0000
# 4 0.0000 0.0000 0.0000 36.4203 0.0000 6.1629
# 5 8.0551 30.0687 15.7631 0.0000 59.7679 0.0000
# 6 0.0000 0.0000 0.0000 6.1629 0.0000 28.3222
#
#
#
# Elastic Compliance Matrix: (Units=1/GPa)
#
#
# Indices 1 2 3 4 5 6 
#
# 1 0.019243 -0.005592 -0.002704 0.000000 0.000933 0.000000
# 2 -0.005592 0.009128 0.000242 0.000000 -0.003902 0.000000
# 3 -0.002704 0.000242 0.005474 0.000000 -0.001201 0.000000
# 4 0.000000 0.000000 0.000000 0.028507 0.000000 -0.006203
# 5 0.000933 -0.003902 -0.001201 0.000000 0.018886 0.000000
# 6 0.000000 0.000000 0.000000 -0.006203 0.000000 0.036658
#
#
# Mechanical properties :
#
#
# Convention : Reuss Voigt Hill
#
# Bulk Modulus (GPa) = 56.38204 69.32060 62.85132
# Shear Modulus (GPa) = 35.73585 46.19961 40.96773
#
# Velocity S-wave (km/s) = 3.66636 4.16872 3.92558
# Velocity P-wave (km/s) = 6.25550 7.01756 6.64746
#
# Compressibility (1/GPa) = 0.01773615
#
# Stress axis : x y z
#
# Youngs Moduli (GPa) = 51.96625 109.55552 182.69413
#
# Poissons Ratio (x) = 0.61262 0.49406
# Poissons Ratio (y) = 0.29059 -0.04419
# Poissons Ratio (z) = 0.14053 -0.02650
#
# Static dielectric constant tensor:
#      x y z
#    x 2.280610 0.000000 -0.034370 
#    y 0.000000 2.403730 0.000000 
#    z -0.034370 0.000000 2.016870 
# 
# From -- ./inp_files/6529.got.cif
#   From: 2010.05.17/outbox.cif.g08.bks.cpg/sg4_4_cif.got.tgz:6529.got - 2010.06.03 18:43:04.
