data_PCOD9115314
_publ_section_title
;
Structure prediction by ZEFSAII (Michael W. Deem and Ramdas Pophale) SiO2 
 PCOD9115314
Probable space group: P 21
;
_chemical_formula_sum "Si O2"
_cell_formula_units_Z 12
_cell_length_a 9.973194
_cell_length_b 4.975416
_cell_length_c 9.993495
_cell_angle_alpha 90.000000
_cell_angle_beta 69.852442
_cell_angle_gamma 90.000000
_cell_volume 465.541241
_symmetry_space_group_name_H-M "P 21"
_symmetry_group_IT_number 4
_symmetry_cell_setting 'monoclinic'
loop_
_space_group_symop_operation_xyz
x,y,z
-x,1/2+y,-z
loop_
_atom_site_type_symbol
_atom_site_label
_atom_site_fract_x
_atom_site_fract_y
_atom_site_fract_z
Si Si1 0.285277 0.342890 0.860002
Si Si2 0.439414 0.368697 0.469030
Si Si3 0.605156 0.188336 0.749561
Si Si4 0.168992 0.680691 0.540738
Si Si5 0.943947 0.704182 0.287662
Si Si6 0.757270 0.332500 0.954748
O O1 0.251069 0.645827 0.912426
O O2 0.546509 0.823436 0.231220
O O3 0.263145 0.139595 0.993999
O O4 0.172490 0.243958 0.789560
O O5 0.435475 0.067653 0.522512
O O6 0.419387 0.398297 0.315427
O O7 0.309188 0.554785 0.567097
O O8 0.750890 0.275018 0.621863
O O9 0.636774 0.228152 0.893140
O O10 0.075485 0.409747 0.580381
O O11 0.083751 0.909230 0.645527
O O12 0.093071 0.768939 0.166861
#
# Coordination Sequence:
#
# PCOD9115314 Si02
#       6
#     2   2   2   2   2   2
#     4  12  25  44  70  94 133 179 227 269 317 390
#     4  10  20  37  61  96 128 157 205 261 330 380
#     4  10  26  42  71 100 135 165 222 280 335 386
#     4  10  24  39  69 100 130 167 218 277 340 377
#     4  12  24  45  68  97 134 176 223 268 325 402
#     4  12  27  45  65  97 136 182 219 265 327 393
#
# _framework density 25.776451000000002
#
# number of rings (size 3 to 8) (size 9 to 14) (size 15 to 20)
#    1.000    0.000    0.000    7.000    0.000    6.667 
#    0.000    0.000    0.000    0.000    0.000    0.000 
#    0.000    0.000    0.000    0.000    0.000    0.000 
#
# Total GULP energy -67005.734854 kJ/mol
# GULP energy per Si atom -5583.811238 kJ/mol
# Density = 2.571778 g / cm^3
# Si number density = 25.776451 Si / 1000 Ang^3
#
#
#
# Elastic Constant Matrix: (Units=GPa)
#
#
# Indices 1 2 3 4 5 6 
#
# 1 111.6839 21.3097 35.6821 0.0000 -1.7379 0.0000
# 2 21.3097 94.7250 -0.0969 0.0000 -13.0276 0.0000
# 3 35.6821 -0.0969 68.5851 0.0000 -3.6493 0.0000
# 4 0.0000 0.0000 0.0000 42.4092 0.0000 -19.5048
# 5 -1.7379 -13.0276 -3.6493 0.0000 73.0469 0.0000
# 6 0.0000 0.0000 0.0000 -19.5048 0.0000 16.9922
#
#
#
# Elastic Compliance Matrix: (Units=1/GPa)
#
#
# Indices 1 2 3 4 5 6 
#
# 1 0.011342 -0.002626 -0.005931 0.000000 -0.000495 0.000000
# 2 -0.002626 0.011431 0.001491 0.000000 0.002051 0.000000
# 3 -0.005931 0.001491 0.017722 0.000000 0.001010 0.000000
# 4 0.000000 0.000000 0.000000 0.049949 0.000000 0.057335
# 5 -0.000495 0.002051 0.001010 0.000000 0.014094 0.000000
# 6 0.000000 0.000000 0.000000 0.057335 0.000000 0.124663
#
#
# Mechanical properties :
#
#
# Convention : Reuss Voigt Hill
#
# Bulk Modulus (GPa) = 37.92964 43.19818 40.56391
# Shear Modulus (GPa) = 19.83187 41.02962 30.43074
#
# Velocity S-wave (km/s) = 2.77678 3.99400 3.43966
# Velocity P-wave (km/s) = 5.00274 6.16965 5.61658
#
# Compressibility (1/GPa) = 0.02636461
#
# Stress axis : x y z
#
# Youngs Moduli (GPa) = 88.16817 87.48061 56.42752
#
# Poissons Ratio (x) = 0.22969 0.33466
# Poissons Ratio (y) = 0.23150 -0.08415
# Poissons Ratio (z) = 0.52291 -0.13046
#
# Static dielectric constant tensor:
#      x y z
#    x 2.186430 0.000000 0.005220 
#    y 0.000000 1.993310 0.000000 
#    z 0.005220 0.000000 2.122640 
# 
# From -- ./inp_files/7056.got.cif
#   From: 2010.05.17/outbox.cif.g08.bks.cpg/sg4_4_cif.got.tgz:7056.got - 2010.06.03 18:43:04.
