data_PCOD9115874
_publ_section_title
;
Structure prediction by ZEFSAII (Michael W. Deem and Ramdas Pophale) SiO2 
 PCOD9115874
Probable space group: P 21
;
_chemical_formula_sum "Si O2"
_cell_formula_units_Z 14
_cell_length_a 7.503383
_cell_length_b 8.176000
_cell_length_c 13.946040
_cell_angle_alpha 90.000000
_cell_angle_beta 36.691550
_cell_angle_gamma 90.000000
_cell_volume 511.201153
_symmetry_space_group_name_H-M "P 21"
_symmetry_group_IT_number 4
_symmetry_cell_setting 'monoclinic'
loop_
_space_group_symop_operation_xyz
x,y,z
-x,1/2+y,-z
loop_
_atom_site_type_symbol
_atom_site_label
_atom_site_fract_x
_atom_site_fract_y
_atom_site_fract_z
Si Si1 0.313621 0.250000 0.276016
Si Si2 0.565052 0.239612 0.367113
Si Si3 0.179963 0.558416 0.214631
Si Si4 0.739876 0.371615 0.704507
Si Si5 0.215793 0.188861 0.005655
Si Si6 0.502097 0.363906 0.608840
Si Si7 0.971304 0.174373 0.914162
O O1 0.387005 0.314052 0.352626
O O2 0.180814 0.063712 0.327592
O O3 0.900217 0.228398 0.695533
O O4 0.641796 0.226357 0.086689
O O5 0.534828 0.301921 0.487498
O O6 0.452892 0.054850 0.414990
O O7 0.912911 0.223776 0.189483
O O8 0.538229 0.583959 0.044552
O O9 0.021510 0.560153 0.181677
O O10 0.154181 0.393086 0.285420
O O11 0.404604 0.350660 0.893825
O O12 0.707913 0.306550 0.609140
O O13 0.132701 0.107792 0.939385
O O14 0.169752 0.325710 0.790798
#
# Coordination Sequence:
#
# PCOD9115874 Si02
#       7
#     2   2   2   2   2   2   2
#     4  10  21  38  63  97 127 164 213 269 317 387
#     4  10  21  37  65  91 135 172 220 269 327 392
#     4  10  21  38  71  89 131 167 207 269 329 374
#     4   8  20  39  61  94 128 159 216 265 316 381
#     4   8  19  40  64  95 124 171 209 267 326 380
#     4  10  21  38  64  94 127 176 215 269 323 394
#     4  10  21  38  66  94 130 163 216 266 322 386
#
# _framework density 27.386476999999999
#
# number of rings (size 3 to 8) (size 9 to 14) (size 15 to 20)
#    0.857    1.714    0.000    0.857    4.000    4.571 
#    0.000    0.000   18.857    0.000    0.000    0.000 
#    0.000    0.000    0.000    0.000    0.000    0.000 
#
# Total GULP energy -78401.340485 kJ/mol
# GULP energy per Si atom -5600.095749 kJ/mol
# Density = 2.732414 g / cm^3
# Si number density = 27.386477 Si / 1000 Ang^3
#
#
#
# Elastic Constant Matrix: (Units=GPa)
#
#
# Indices 1 2 3 4 5 6 
#
# 1 131.2297 54.7919 36.2940 0.0000 29.4539 0.0000
# 2 54.7919 132.8571 24.5474 0.0000 10.4369 0.0000
# 3 36.2940 24.5474 121.2216 0.0000 18.9584 0.0000
# 4 0.0000 0.0000 0.0000 42.7791 0.0000 6.5582
# 5 29.4539 10.4369 18.9584 0.0000 50.4966 0.0000
# 6 0.0000 0.0000 0.0000 6.5582 0.0000 47.5927
#
#
#
# Elastic Compliance Matrix: (Units=1/GPa)
#
#
# Indices 1 2 3 4 5 6 
#
# 1 0.010739 -0.003733 -0.001700 0.000000 -0.004854 0.000000
# 2 -0.003733 0.009174 -0.000833 0.000000 0.000594 0.000000
# 3 -0.001700 -0.000833 0.009291 0.000000 -0.002324 0.000000
# 4 0.000000 0.000000 0.000000 0.023880 0.000000 -0.003291
# 5 -0.004854 0.000594 -0.002324 0.000000 0.023384 0.000000
# 6 0.000000 0.000000 0.000000 -0.003291 0.000000 0.021465
#
#
# Mechanical properties :
#
#
# Convention : Reuss Voigt Hill
#
# Bulk Modulus (GPa) = 59.98656 68.50832 64.24744
# Shear Modulus (GPa) = 43.09539 46.15205 44.62372
#
# Velocity S-wave (km/s) = 3.97117 4.10959 4.04097
# Velocity P-wave (km/s) = 6.55577 6.89840 6.72927
#
# Compressibility (1/GPa) = 0.01667040
#
# Stress axis : x y z
#
# Youngs Moduli (GPa) = 93.12233 109.00674 107.63677
#
# Poissons Ratio (x) = 0.40696 0.18299
# Poissons Ratio (y) = 0.34765 0.08965
# Poissons Ratio (z) = 0.15831 0.09079
#
# Static dielectric constant tensor:
#      x y z
#    x 2.201570 0.000000 -0.014450 
#    y 0.000000 2.112790 0.000000 
#    z -0.014450 0.000000 2.234310 
# 
# From -- ./inp_files/13753.got.cif
#   From: 2010.05.17/outbox.cif.g08.bks.cpg/sg4_7_cif.got.tgz:13753.got - 2010.06.03 18:43:04.
