data_PCOD9115521
_publ_section_title
;
Structure prediction by ZEFSAII (Michael W. Deem and Ramdas Pophale) SiO2 
 PCOD9115521
Probable space group: P 21
;
_chemical_formula_sum "Si O2"
_cell_formula_units_Z 14
_cell_length_a 13.601535
_cell_length_b 5.094867
_cell_length_c 12.404546
_cell_angle_alpha 90.000000
_cell_angle_beta 134.352945
_cell_angle_gamma 90.000000
_cell_volume 614.661861
_symmetry_space_group_name_H-M "P 21"
_symmetry_group_IT_number 4
_symmetry_cell_setting 'monoclinic'
loop_
_space_group_symop_operation_xyz
x,y,z
-x,1/2+y,-z
loop_
_atom_site_type_symbol
_atom_site_label
_atom_site_fract_x
_atom_site_fract_y
_atom_site_fract_z
Si Si1 0.084438 0.712730 0.080294
Si Si2 0.083979 0.953850 0.687764
Si Si3 0.516757 0.779319 0.085828
Si Si4 0.182477 0.449874 0.635361
Si Si5 0.585883 0.663210 0.688533
Si Si6 0.265500 0.846336 0.029823
Si Si7 0.326341 0.660803 0.384048
O O1 0.191048 0.678598 0.064249
O O2 0.161843 0.656649 0.252001
O O3 0.963609 0.510664 0.966886
O O4 0.158308 0.738559 0.666917
O O5 0.919870 0.919260 0.545054
O O6 0.121884 0.242504 0.675196
O O7 0.149713 0.915286 0.854516
O O8 0.658057 0.870719 0.250680
O O9 0.394428 0.705273 0.073083
O O10 0.537052 0.529949 0.023784
O O11 0.663207 0.597108 0.857704
O O12 0.419195 0.648528 0.561980
O O13 0.634622 0.430552 0.645970
O O14 0.625339 0.925075 0.656205
#
# Coordination Sequence:
#
# PCOD9115521 Si02
#       7
#     2   2   2   2   2   2   2
#     4  11  24  41  63  89 125 165 211 259 312 368
#     4  10  21  37  66  87 126 163 203 247 313 364
#     4  12  23  39  65  94 129 160 206 255 309 368
#     4  10  20  40  59  92 126 165 196 254 308 367
#     4   9  19  34  62  89 115 153 206 248 310 361
#     4  11  23  41  67  95 119 170 209 258 306 372
#     4   9  18  38  60  84 118 158 195 259 310 356
#
# _framework density 22.776748999999999
#
# number of rings (size 3 to 8) (size 9 to 14) (size 15 to 20)
#    0.000    1.714    2.857    1.714    0.000    6.857 
#    2.571    0.000    3.143    0.000    0.000    0.000 
#    0.000    0.000    0.000    0.000    0.000    0.000 
#
# Total GULP energy -78150.139169 kJ/mol
# GULP energy per Si atom -5582.152798 kJ/mol
# Density = 2.272491 g / cm^3
# Si number density = 22.776749 Si / 1000 Ang^3
#
#
#
# Elastic Constant Matrix: (Units=GPa)
#
#
# Indices 1 2 3 4 5 6 
#
# 1 54.4342 5.2513 6.5166 0.0000 8.4023 0.0000
# 2 5.2513 52.2387 7.9140 0.0000 -4.1345 0.0000
# 3 6.5166 7.9140 193.8388 0.0000 17.4369 0.0000
# 4 0.0000 0.0000 0.0000 27.5550 0.0000 11.6775
# 5 8.4023 -4.1345 17.4369 0.0000 26.4626 0.0000
# 6 0.0000 0.0000 0.0000 11.6775 0.0000 15.1399
#
#
#
# Elastic Compliance Matrix: (Units=1/GPa)
#
#
# Indices 1 2 3 4 5 6 
#
# 1 0.019635 -0.002506 0.000041 0.000000 -0.006653 0.000000
# 2 -0.002506 0.019939 -0.001150 0.000000 0.004669 0.000000
# 3 0.000041 -0.001150 0.005551 0.000000 -0.003850 0.000000
# 4 0.000000 0.000000 0.000000 0.053914 0.000000 -0.041584
# 5 -0.006653 0.004669 -0.003850 0.000000 0.043168 0.000000
# 6 0.000000 0.000000 0.000000 -0.041584 0.000000 0.098125
#
#
# Mechanical properties :
#
#
# Convention : Reuss Voigt Hill
#
# Bulk Modulus (GPa) = 26.39011 37.76393 32.07702
# Shear Modulus (GPa) = 19.21651 32.55349 25.88500
#
# Velocity S-wave (km/s) = 2.90779 3.78463 3.37481
# Velocity P-wave (km/s) = 4.78385 5.97612 5.41291
#
# Compressibility (1/GPa) = 0.03789298
#
# Stress axis : x y z
#
# Youngs Moduli (GPa) = 50.93044 50.15410 180.15288
#
# Poissons Ratio (x) = 0.12571 -0.00733
# Poissons Ratio (y) = 0.12766 0.20713
# Poissons Ratio (z) = -0.00207 0.05766
#
# Static dielectric constant tensor:
#      x y z
#    x 1.853510 0.000000 0.051080 
#    y 0.000000 1.790080 0.000000 
#    z 0.051080 0.000000 1.961270 
# 
# From -- ./inp_files/11657.got.cif
#   From: 2010.05.17/outbox.cif.g08.bks.cpg/sg4_6_cif.got.tgz:11657.got - 2010.06.03 18:43:04.
