data_PCOD9115216
_publ_section_title
;
Structure prediction by ZEFSAII (Michael W. Deem and Ramdas Pophale) SiO2 
 PCOD9115216
Probable space group: P 21
;
_chemical_formula_sum "Si O2"
_cell_formula_units_Z 14
_cell_length_a 7.179705
_cell_length_b 7.587208
_cell_length_c 11.574032
_cell_angle_alpha 90.000000
_cell_angle_beta 126.906868
_cell_angle_gamma 90.000000
_cell_volume 504.142072
_symmetry_space_group_name_H-M "P 21"
_symmetry_group_IT_number 4
_symmetry_cell_setting 'monoclinic'
loop_
_space_group_symop_operation_xyz
x,y,z
-x,1/2+y,-z
loop_
_atom_site_type_symbol
_atom_site_label
_atom_site_fract_x
_atom_site_fract_y
_atom_site_fract_z
Si Si1 0.706470 0.408300 0.220427
Si Si2 0.815404 0.413052 0.762408
Si Si3 0.391754 0.430068 0.307770
Si Si4 0.897178 0.706949 0.955257
Si Si5 0.563370 0.052086 0.088916
Si Si6 0.900235 0.774479 0.328913
Si Si7 0.360473 0.297276 0.546675
O O1 0.612092 0.367399 0.313084
O O2 0.731871 0.219461 0.170740
O O3 0.892458 0.566534 0.296073
O O4 0.504149 0.499991 0.066270
O O5 0.944041 0.576120 0.867716
O O6 0.540380 0.445153 0.659411
O O7 0.889041 0.366340 0.659394
O O8 0.906145 0.259294 0.881131
O O9 0.185513 0.384186 0.141970
O O10 0.326507 0.330249 0.400452
O O11 0.481458 0.623582 0.375612
O O12 0.680995 0.615460 0.943760
O O13 0.680567 0.880060 0.190353
O O14 0.859560 0.788780 0.450810
#
# Coordination Sequence:
#
# PCOD9115216 Si02
#       7
#     2   2   2   2   2   2   2
#     4  10  20  35  67  98 127 174 231 270 341 414
#     4  12  24  43  69 105 140 175 236 294 345 417
#     4  10  23  44  70  98 136 192 225 280 358 414
#     4  11  23  41  68 104 139 176 233 288 356 411
#     4  11  19  38  66  95 137 178 225 277 349 411
#     4  11  23  42  66  99 134 189 227 284 347 414
#     4  11  24  45  72  93 143 184 233 287 346 417
#
# _framework density 27.769946999999998
#
# number of rings (size 3 to 8) (size 9 to 14) (size 15 to 20)
#    0.000    1.143    4.286    2.571    2.000    2.286 
#    2.571    4.286    0.000    0.000    0.000    0.000 
#    0.000    0.000    0.000    0.000    0.000    0.000 
#
# Total GULP energy -78387.104604 kJ/mol
# GULP energy per Si atom -5599.078900 kJ/mol
# Density = 2.770674 g / cm^3
# Si number density = 27.769947 Si / 1000 Ang^3
#
#
#
# Elastic Constant Matrix: (Units=GPa)
#
#
# Indices 1 2 3 4 5 6 
#
# 1 125.4371 35.3745 56.2233 0.0000 -34.9110 0.0000
# 2 35.3745 148.9545 27.9133 0.0000 -24.5099 0.0000
# 3 56.2233 27.9133 139.9083 0.0000 -30.3315 0.0000
# 4 0.0000 0.0000 0.0000 39.9017 0.0000 -3.8718
# 5 -34.9110 -24.5099 -30.3315 0.0000 45.2479 0.0000
# 6 0.0000 0.0000 0.0000 -3.8718 0.0000 39.7861
#
#
#
# Elastic Compliance Matrix: (Units=1/GPa)
#
#
# Indices 1 2 3 4 5 6 
#
# 1 0.011341 -0.001122 -0.003005 0.000000 0.006128 0.000000
# 2 -0.001122 0.007542 -0.000416 0.000000 0.002941 0.000000
# 3 -0.003005 -0.000416 0.009228 0.000000 0.003642 0.000000
# 4 0.000000 0.000000 0.000000 0.025300 0.000000 0.002462
# 5 0.006128 0.002941 0.003642 0.000000 0.030863 0.000000
# 6 0.000000 0.000000 0.000000 0.002462 0.000000 0.025374
#
#
# Mechanical properties :
#
#
# Convention : Reuss Voigt Hill
#
# Bulk Modulus (GPa) = 52.56560 72.59134 62.57847
# Shear Modulus (GPa) = 39.97592 44.63972 42.30782
#
# Velocity S-wave (km/s) = 3.79824 4.01369 3.90745
# Velocity P-wave (km/s) = 6.18107 6.90483 6.55295
#
# Compressibility (1/GPa) = 0.01902385
#
# Stress axis : x y z
#
# Youngs Moduli (GPa) = 88.17597 132.59506 108.36914
#
# Poissons Ratio (x) = 0.14875 0.32566
# Poissons Ratio (y) = 0.09892 0.04512
# Poissons Ratio (z) = 0.26498 0.05521
#
# Static dielectric constant tensor:
#      x y z
#    x 2.184220 0.000000 0.012800 
#    y 0.000000 2.230370 0.000000 
#    z 0.012800 0.000000 2.077020 
# 
# From -- ./inp_files/10965.got.cif
#   From: 2010.05.17/outbox.cif.g08.bks.cpg/sg4_6_cif.got.tgz:10965.got - 2010.06.03 18:43:04.
