data_PCOD9115201
_publ_section_title
;
Structure prediction by ZEFSAII (Michael W. Deem and Ramdas Pophale) SiO2 
 PCOD9115201
Probable space group: P 21
;
_chemical_formula_sum "Si O2"
_cell_formula_units_Z 14
_cell_length_a 11.495668
_cell_length_b 5.056122
_cell_length_c 14.648380
_cell_angle_alpha 90.000000
_cell_angle_beta 140.325808
_cell_angle_gamma 90.000000
_cell_volume 543.561449
_symmetry_space_group_name_H-M "P 21"
_symmetry_group_IT_number 4
_symmetry_cell_setting 'monoclinic'
loop_
_space_group_symop_operation_xyz
x,y,z
-x,1/2+y,-z
loop_
_atom_site_type_symbol
_atom_site_label
_atom_site_fract_x
_atom_site_fract_y
_atom_site_fract_z
Si Si1 0.246141 0.613490 0.878064
Si Si2 0.249376 0.791123 0.321732
Si Si3 0.887453 0.536369 0.450963
Si Si4 0.837969 0.785397 0.619830
Si Si5 0.846364 0.858395 0.004911
Si Si6 0.403420 0.318357 0.816317
Si Si7 0.660627 0.373628 0.811635
O O1 0.056063 0.767383 0.774451
O O2 0.268635 0.503623 0.790680
O O3 0.238842 0.365838 0.944562
O O4 0.424175 0.771599 0.014744
O O5 0.385707 0.782600 0.318458
O O6 0.235775 0.566923 0.390514
O O7 0.261192 0.070768 0.377313
O O8 0.055945 0.797821 0.150650
O O9 0.710690 0.558669 0.279528
O O10 0.965582 0.241783 0.503912
O O11 0.835143 0.671469 0.515651
O O12 0.767731 0.647908 0.886708
O O13 0.786027 0.145711 0.932543
O O14 0.487172 0.415633 0.771871
#
# Coordination Sequence:
#
# PCOD9115201 Si02
#       7
#     2   2   2   2   2   2   2
#     4  10  22  39  66 104 134 177 216 290 338 398
#     4  11  21  39  65  92 131 176 226 269 317 403
#     4  12  27  47  69  97 135 179 223 274 337 412
#     4  11  24  43  67  97 130 177 225 269 329 396
#     4  10  20  35  60  94 135 174 215 272 332 396
#     4  11  24  41  67 103 138 174 221 281 346 401
#     4  11  22  38  60  97 133 175 216 273 339 386
#
# _framework density 25.756060000000002
#
# number of rings (size 3 to 8) (size 9 to 14) (size 15 to 20)
#    0.000    1.143    1.429    6.000    4.000    2.286 
#    0.000    1.429    0.000    0.000    0.000    0.000 
#    0.000    0.000    0.000    0.000    0.000    0.000 
#
# Total GULP energy -78386.829151 kJ/mol
# GULP energy per Si atom -5599.059225 kJ/mol
# Density = 2.569744 g / cm^3
# Si number density = 25.756060 Si / 1000 Ang^3
#
#
#
# Elastic Constant Matrix: (Units=GPa)
#
#
# Indices 1 2 3 4 5 6 
#
# 1 141.9462 10.1867 -0.4998 0.0000 -31.0681 0.0000
# 2 10.1867 83.2818 -4.4995 0.0000 -1.9947 0.0000
# 3 -0.4998 -4.4995 89.2087 0.0000 -0.8876 0.0000
# 4 0.0000 0.0000 0.0000 20.2830 0.0000 -11.0884
# 5 -31.0681 -1.9947 -0.8876 0.0000 19.1175 0.0000
# 6 0.0000 0.0000 0.0000 -11.0884 0.0000 32.2144
#
#
#
# Elastic Compliance Matrix: (Units=1/GPa)
#
#
# Indices 1 2 3 4 5 6 
#
# 1 0.011007 -0.000910 0.000193 0.000000 0.017802 0.000000
# 2 -0.000910 0.012147 0.000606 0.000000 -0.000183 0.000000
# 3 0.000193 0.000606 0.011250 0.000000 0.000899 0.000000
# 4 0.000000 0.000000 0.000000 0.060730 0.000000 0.020904
# 5 0.017802 -0.000183 0.000899 0.000000 0.081261 0.000000
# 6 0.000000 0.000000 0.000000 0.020904 0.000000 0.038237
#
#
# Mechanical properties :
#
#
# Convention : Reuss Voigt Hill
#
# Bulk Modulus (GPa) = 29.25451 36.09015 32.67233
# Shear Modulus (GPa) = 22.09954 34.93959 28.51957
#
# Velocity S-wave (km/s) = 2.93240 3.68714 3.33121
# Velocity P-wave (km/s) = 4.77998 5.67181 5.24489
#
# Compressibility (1/GPa) = 0.03418276
#
# Stress axis : x y z
#
# Youngs Moduli (GPa) = 90.84926 82.32457 88.88688
#
# Poissons Ratio (x) = 0.07488 -0.01715
# Poissons Ratio (y) = 0.08263 -0.05384
# Poissons Ratio (z) = -0.01753 -0.04987
#
# Static dielectric constant tensor:
#      x y z
#    x 2.126930 0.000000 0.022190 
#    y 0.000000 1.955180 0.000000 
#    z 0.022190 0.000000 2.031640 
# 
# From -- ./inp_files/13863.got.cif
#   From: 2010.05.17/outbox.cif.g08.bks.cpg/sg4_7_cif.got.tgz:13863.got - 2010.06.03 18:43:04.
