data_PCOD9115173
_publ_section_title
;
Structure prediction by ZEFSAII (Michael W. Deem and Ramdas Pophale) SiO2 
 PCOD9115173
Probable space group: P 21
;
_chemical_formula_sum "Si O2"
_cell_formula_units_Z 14
_cell_length_a 11.719274
_cell_length_b 4.880979
_cell_length_c 15.716531
_cell_angle_alpha 90.000000
_cell_angle_beta 129.276417
_cell_angle_gamma 90.000000
_cell_volume 695.924109
_symmetry_space_group_name_H-M "P 21"
_symmetry_group_IT_number 4
_symmetry_cell_setting 'monoclinic'
loop_
_space_group_symop_operation_xyz
x,y,z
-x,1/2+y,-z
loop_
_atom_site_type_symbol
_atom_site_label
_atom_site_fract_x
_atom_site_fract_y
_atom_site_fract_z
Si Si1 0.802937 0.776160 0.427327
Si Si2 0.622011 0.136011 0.884695
Si Si3 0.091432 0.129973 0.814512
Si Si4 0.933317 0.842605 0.009598
Si Si5 0.707062 0.117510 0.113925
Si Si6 0.448700 0.631388 0.777879
Si Si7 0.069937 0.764249 0.422960
O O1 0.818286 0.474696 0.476848
O O2 0.914314 0.789776 0.399505
O O3 0.661483 0.950537 0.331167
O O4 0.875438 0.960876 0.533638
O O5 0.777326 0.000601 0.935550
O O6 0.497518 0.941815 0.783822
O O7 0.596319 0.448485 0.847645
O O8 0.612629 0.148167 0.983328
O O9 0.235765 0.308723 0.862516
O O10 0.968043 0.257405 0.694103
O O11 0.150836 0.821749 0.826612
O O12 0.049772 0.193500 0.891555
O O13 0.953878 0.593594 0.953210
O O14 0.623347 0.154887 0.162499
#
# Coordination Sequence:
#
# PCOD9115173 Si02
#       7
#     2   2   2   2   2   2   2
#     4  10  21  32  53  79 118 159 196 232 275 344
#     4  11  23  36  55  83 115 154 197 235 297 369
#     4  11  21  36  60  84 115 156 196 246 299 351
#     4  11  23  42  62  86 113 146 204 266 310 353
#     4  11  21  34  53  84 121 157 193 228 281 366
#     4  12  21  35  54  83 122 162 189 226 291 355
#     4  10  20  35  51  81 114 156 201 237 279 342
#
# _framework density 20.117135999999999
#
# number of rings (size 3 to 8) (size 9 to 14) (size 15 to 20)
#    0.000    1.143    1.429    7.714    4.000    0.000 
#    0.000    0.000    0.000    0.000    0.000   20.000 
#    0.000    0.000    0.000    0.000    0.000    0.000 
#
# Total GULP energy -78033.955762 kJ/mol
# GULP energy per Si atom -5573.853983 kJ/mol
# Density = 2.007135 g / cm^3
# Si number density = 20.117136 Si / 1000 Ang^3
#
#
#
# Elastic Constant Matrix: (Units=GPa)
#
#
# Indices 1 2 3 4 5 6 
#
# 1 67.2468 20.3743 14.1667 0.0000 -1.6937 0.0000
# 2 20.3743 99.2304 7.8951 0.0000 -4.7322 0.0000
# 3 14.1667 7.8951 69.1570 0.0000 -3.6940 0.0000
# 4 0.0000 0.0000 0.0000 17.7984 0.0000 11.5761
# 5 -1.6937 -4.7322 -3.6940 0.0000 8.2587 0.0000
# 6 0.0000 0.0000 0.0000 11.5761 0.0000 27.6506
#
#
#
# Elastic Compliance Matrix: (Units=1/GPa)
#
#
# Indices 1 2 3 4 5 6 
#
# 1 0.016457 -0.003129 -0.003001 0.000000 0.000240 0.000000
# 2 -0.003129 0.011009 -0.000321 0.000000 0.005523 0.000000
# 3 -0.003001 -0.000321 0.015437 0.000000 0.006106 0.000000
# 4 0.000000 0.000000 0.000000 0.077208 0.000000 -0.032324
# 5 0.000240 0.005523 0.006106 0.000000 0.127029 0.000000
# 6 0.000000 0.000000 0.000000 -0.032324 0.000000 0.049698
#
#
# Mechanical properties :
#
#
# Convention : Reuss Voigt Hill
#
# Bulk Modulus (GPa) = 33.33164 35.61181 34.47172
# Shear Modulus (GPa) = 15.63770 23.62141 19.62956
#
# Velocity S-wave (km/s) = 2.79109 3.43037 3.12711
# Velocity P-wave (km/s) = 5.19535 5.78192 5.49646
#
# Compressibility (1/GPa) = 0.03000152
#
# Stress axis : x y z
#
# Youngs Moduli (GPa) = 60.76507 90.83586 64.77775
#
# Poissons Ratio (x) = 0.28420 0.19441
# Poissons Ratio (y) = 0.19012 0.02079
# Poissons Ratio (z) = 0.18237 0.02915
#
# Static dielectric constant tensor:
#      x y z
#    x 1.780850 0.000000 -0.022290 
#    y 0.000000 1.699840 0.000000 
#    z -0.022290 0.000000 1.792990 
# 
# From -- ./inp_files/15081.got.cif
#   From: 2010.05.17/outbox.cif.g08.bks.cpg/sg4_8_cif.got.tgz:15081.got - 2010.06.03 18:43:04.
