data_PCOD9115995
_publ_section_title
;
Structure prediction by ZEFSAII (Michael W. Deem and Ramdas Pophale) SiO2 
 PCOD9115995
Probable space group: P 21
;
_chemical_formula_sum "Si O2"
_cell_formula_units_Z 14
_cell_length_a 6.664413
_cell_length_b 4.984993
_cell_length_c 27.217872
_cell_angle_alpha 90.000000
_cell_angle_beta 38.809936
_cell_angle_gamma 90.000000
_cell_volume 566.718395
_symmetry_space_group_name_H-M "P 21"
_symmetry_group_IT_number 4
_symmetry_cell_setting 'monoclinic'
loop_
_space_group_symop_operation_xyz
x,y,z
-x,1/2+y,-z
loop_
_atom_site_type_symbol
_atom_site_label
_atom_site_fract_x
_atom_site_fract_y
_atom_site_fract_z
Si Si1 0.229430 0.039260 0.624965
Si Si2 0.948569 0.554056 0.945198
Si Si3 0.940552 0.034664 0.478407
Si Si4 0.044525 0.900552 0.763057
Si Si5 0.340750 0.053982 0.899552
Si Si6 0.872360 0.901624 0.189680
Si Si7 0.840340 0.538581 0.669426
O O1 0.569558 0.000681 0.534257
O O2 0.093155 0.337034 0.645723
O O3 0.271410 0.959330 0.673960
O O4 0.966551 0.837631 0.653373
O O5 0.083024 0.854092 0.924475
O O6 0.891289 0.467529 0.900387
O O7 0.229732 0.353918 0.909886
O O8 0.675941 0.513930 0.038157
O O9 0.974170 0.327191 0.495158
O O10 0.156202 0.987635 0.389635
O O11 0.044059 0.596219 0.781037
O O12 0.689472 0.984334 0.814367
O O13 0.127389 0.096913 0.792387
O O14 0.513087 0.985233 0.243124
#
# Coordination Sequence:
#
# PCOD9115995 Si02
#       7
#     2   2   2   2   2   2   2
#     4  12  24  42  64  88 119 159 201 237 287 353
#     4  10  21  39  61  85 116 156 198 240 291 353
#     4  12  24  42  64  92 124 152 192 246 298 342
#     4  12  24  39  60  89 121 154 195 246 298 342
#     4  10  21  39  61  85 116 156 198 240 291 353
#     4  12  24  39  60  89 121 154 195 246 298 342
#     4  12  24  42  64  88 119 159 201 237 287 353
#
# _framework density 24.703631000000001
#
# number of rings (size 3 to 8) (size 9 to 14) (size 15 to 20)
#    0.000    0.571    0.000    9.429    0.000    1.143 
#    0.000    0.000    0.000    0.000    0.000    0.000 
#    0.000    0.000    0.000    0.000    0.000    0.000 
#
# Total GULP energy -78495.334259 kJ/mol
# GULP energy per Si atom -5606.809590 kJ/mol
# Density = 2.464740 g / cm^3
# Si number density = 24.703631 Si / 1000 Ang^3
#
#
#
# Elastic Constant Matrix: (Units=GPa)
#
#
# Indices 1 2 3 4 5 6 
#
# 1 39.0781 -3.4151 6.2382 0.0000 15.8689 0.0000
# 2 -3.4151 50.0493 6.4711 0.0000 0.0487 0.0000
# 3 6.2382 6.4711 67.5627 0.0000 22.2269 0.0000
# 4 0.0000 0.0000 0.0000 24.4712 0.0000 -1.1531
# 5 15.8689 0.0487 22.2269 0.0000 53.2254 0.0000
# 6 0.0000 0.0000 0.0000 -1.1531 0.0000 58.3736
#
#
#
# Elastic Compliance Matrix: (Units=1/GPa)
#
#
# Indices 1 2 3 4 5 6 
#
# 1 0.029315 0.002012 -0.000027 0.000000 -0.008731 0.000000
# 2 0.002012 0.020408 -0.002245 0.000000 0.000319 0.000000
# 3 -0.000027 -0.002245 0.017407 0.000000 -0.007259 0.000000
# 4 0.000000 0.000000 0.000000 0.040902 0.000000 0.000808
# 5 -0.008731 0.000319 -0.007259 0.000000 0.024422 0.000000
# 6 0.000000 0.000000 0.000000 0.000808 0.000000 0.017147
#
#
# Mechanical properties :
#
#
# Convention : Reuss Voigt Hill
#
# Bulk Modulus (GPa) = 15.01296 19.47538 17.24417
# Shear Modulus (GPa) = 29.01498 37.04043 33.02771
#
# Velocity S-wave (km/s) = 3.43085 3.87640 3.66041
# Velocity P-wave (km/s) = 4.66741 5.28545 4.98602
#
# Compressibility (1/GPa) = 0.06660914
#
# Stress axis : x y z
#
# Youngs Moduli (GPa) = 34.11174 49.00129 57.44929
#
# Poissons Ratio (x) = -0.09861 0.00157
# Poissons Ratio (y) = -0.06864 0.12900
# Poissons Ratio (z) = 0.00093 0.11003
#
# Static dielectric constant tensor:
#      x y z
#    x 1.966270 0.000000 0.027880 
#    y 0.000000 1.861540 0.000000 
#    z 0.027880 0.000000 1.876420 
# 
# From -- ./inp_files/3917.got.cif
#   From: 2010.05.17/outbox.cif.g08.bks.cpg/sg4_2_cif.got.tgz:3917.got - 2010.06.03 18:43:04.
