data_PCOD9115801
_publ_section_title
;
Structure prediction by ZEFSAII (Michael W. Deem and Ramdas Pophale) SiO2 
 PCOD9115801
Probable space group: P 21
;
_chemical_formula_sum "Si O2"
_cell_formula_units_Z 14
_cell_length_a 14.573200
_cell_length_b 5.142068
_cell_length_c 14.217255
_cell_angle_alpha 90.000000
_cell_angle_beta 35.240836
_cell_angle_gamma 90.000000
_cell_volume 614.745377
_symmetry_space_group_name_H-M "P 21"
_symmetry_group_IT_number 4
_symmetry_cell_setting 'monoclinic'
loop_
_space_group_symop_operation_xyz
x,y,z
-x,1/2+y,-z
loop_
_atom_site_type_symbol
_atom_site_label
_atom_site_fract_x
_atom_site_fract_y
_atom_site_fract_z
Si Si1 0.907662 0.840270 0.462274
Si Si2 0.088099 0.583857 0.042727
Si Si3 0.454459 0.405830 0.481627
Si Si4 0.454671 0.448229 0.269764
Si Si5 0.106156 0.338891 0.299786
Si Si6 0.377611 0.460569 0.935977
Si Si7 0.103439 0.585309 0.804275
O O1 0.733305 0.898565 0.570368
O O2 0.889293 0.843832 0.591089
O O3 0.985577 0.567015 0.369796
O O4 0.031450 0.065697 0.332261
O O5 0.026796 0.871984 0.116763
O O6 0.242286 0.495737 0.969759
O O7 0.116050 0.573895 0.907313
O O8 0.951365 0.371967 0.177147
O O9 0.538864 0.623031 0.475983
O O10 0.521312 0.405566 0.319872
O O11 0.274394 0.504316 0.625204
O O12 0.502631 0.732773 0.194304
O O13 0.531064 0.232708 0.137845
O O14 0.278114 0.389271 0.111764
#
# Coordination Sequence:
#
# PCOD9115801 Si02
#       7
#     2   2   2   2   2   2   2
#     4  10  23  45  68 101 129 169 222 264 324 401
#     4  10  21  36  58  84 120 151 218 253 313 367
#     4  12  25  41  62  88 130 176 218 263 327 378
#     4  12  26  41  66  98 135 171 220 270 326 393
#     4  10  23  43  72  96 133 171 212 274 324 389
#     4  12  25  41  65  98 132 174 208 279 324 388
#     4  10  21  37  57  83 111 170 204 265 300 372
#
# _framework density 22.773654000000001
#
# number of rings (size 3 to 8) (size 9 to 14) (size 15 to 20)
#    0.000    1.143    0.000    6.000    4.000    3.429 
#    0.000    0.000    0.000    0.000    0.000    0.000 
#    0.000    0.000    0.000    0.000    0.000    0.000 
#
# Total GULP energy -78437.534298 kJ/mol
# GULP energy per Si atom -5602.681021 kJ/mol
# Density = 2.272182 g / cm^3
# Si number density = 22.773654 Si / 1000 Ang^3
#
#
#
# Elastic Constant Matrix: (Units=GPa)
#
#
# Indices 1 2 3 4 5 6 
#
# 1 48.3464 11.4951 0.1521 0.0000 3.0440 0.0000
# 2 11.4951 63.6788 -15.7432 0.0000 13.7238 0.0000
# 3 0.1521 -15.7432 61.2189 0.0000 10.5132 0.0000
# 4 0.0000 0.0000 0.0000 39.5374 0.0000 -5.4208
# 5 3.0440 13.7238 10.5132 0.0000 34.4405 0.0000
# 6 0.0000 0.0000 0.0000 -5.4208 0.0000 20.5830
#
#
#
# Elastic Compliance Matrix: (Units=1/GPa)
#
#
# Indices 1 2 3 4 5 6 
#
# 1 0.021685 -0.004229 -0.001162 0.000000 0.000123 0.000000
# 2 -0.004229 0.020294 0.006917 0.000000 -0.009825 0.000000
# 3 -0.001162 0.006917 0.019600 0.000000 -0.008636 0.000000
# 4 0.000000 0.000000 0.000000 0.026240 0.000000 0.006911
# 5 0.000123 -0.009825 -0.008636 0.000000 0.035576 0.000000
# 6 0.000000 0.000000 0.000000 0.006911 0.000000 0.050404
#
#
# Mechanical properties :
#
#
# Convention : Reuss Voigt Hill
#
# Bulk Modulus (GPa) = 15.47251 18.33912 16.90582
# Shear Modulus (GPa) = 26.00224 30.73487 28.36855
#
# Velocity S-wave (km/s) = 3.38267 3.67765 3.53324
# Velocity P-wave (km/s) = 4.69738 5.10918 4.90760
#
# Compressibility (1/GPa) = 0.06463076
#
# Stress axis : x y z
#
# Youngs Moduli (GPa) = 46.11402 49.27450 51.02158
#
# Poissons Ratio (x) = 0.20836 0.05931
# Poissons Ratio (y) = 0.19499 -0.35290
# Poissons Ratio (z) = 0.05361 -0.34082
#
# Static dielectric constant tensor:
#      x y z
#    x 1.871460 0.000000 0.035200 
#    y 0.000000 1.792350 0.000000 
#    z 0.035200 0.000000 1.833180 
# 
# From -- ./inp_files/14050.got.cif
#   From: 2010.05.17/outbox.cif.g08.bks.cpg/sg4_8_cif.got.tgz:14050.got - 2010.06.03 18:43:04.
