data_PCOD9115139
_publ_section_title
;
Structure prediction by ZEFSAII (Michael W. Deem and Ramdas Pophale) SiO2 
 PCOD9115139
Probable space group: P 21
;
_chemical_formula_sum "Si O2"
_cell_formula_units_Z 16
_cell_length_a 11.275287
_cell_length_b 5.258118
_cell_length_c 27.857324
_cell_angle_alpha 90.000000
_cell_angle_beta 156.681253
_cell_angle_gamma 90.000000
_cell_volume 653.767885
_symmetry_space_group_name_H-M "P 21"
_symmetry_group_IT_number 4
_symmetry_cell_setting 'monoclinic'
loop_
_space_group_symop_operation_xyz
x,y,z
-x,1/2+y,-z
loop_
_atom_site_type_symbol
_atom_site_label
_atom_site_fract_x
_atom_site_fract_y
_atom_site_fract_z
Si Si1 0.805043 0.526040 0.538332
Si Si2 0.615409 0.993347 0.872564
Si Si3 0.538642 0.133159 0.260738
Si Si4 0.103151 0.766652 0.108916
Si Si5 0.351314 0.982758 0.001586
Si Si6 0.241564 0.984273 0.850059
Si Si7 0.202744 0.966569 0.568144
Si Si8 0.912639 0.028350 0.635901
O O1 0.145003 0.537615 0.642595
O O2 0.776760 0.284350 0.562717
O O3 0.641986 0.503953 0.426016
O O4 0.772518 0.783469 0.557089
O O5 0.738975 0.197958 0.882103
O O6 0.267667 0.033187 0.754297
O O7 0.630993 0.727877 0.849509
O O8 0.836261 0.962931 0.998547
O O9 0.585761 0.388630 0.309347
O O10 0.363953 0.935265 0.229553
O O11 0.928201 0.536431 0.067815
O O12 0.210464 0.987697 0.895934
O O13 0.584862 0.218291 0.094986
O O14 0.549852 0.731615 0.081781
O O15 0.947807 0.004434 0.706730
O O16 0.992738 0.712075 0.490127
#
# Coordination Sequence:
#
# PCOD9115139 Si02
#       8
#     2   2   2   2   2   2   2   2
#     4  10  20  34  52  80 104 143 183 232 277 325
#     4  11  22  31  48  76 113 153 183 215 266 329
#     4  10  22  33  49  75 114 152 188 215 276 334
#     4  12  22  33  50  78 115 159 184 227 262 341
#     4  10  23  36  55  73 111 151 194 225 270 314
#     4  10  21  39  53  77 103 152 193 234 267 319
#     4  10  20  36  54  74 111 153 189 232 274 331
#     4  11  20  34  55  77 109 141 186 230 278 321
#
# _framework density 24.473517000000001
#
# number of rings (size 3 to 8) (size 9 to 14) (size 15 to 20)
#    0.000    1.500    3.750    3.000    7.000    0.000 
#    0.000    0.000    0.000    0.000    0.000    0.000 
#    3.750    0.000    0.250    0.000    0.000    0.000 
#
# Total GULP energy -89354.409543 kJ/mol
# GULP energy per Si atom -5584.650596 kJ/mol
# Density = 2.441781 g / cm^3
# Si number density = 24.473517 Si / 1000 Ang^3
#
#
#
# Elastic Constant Matrix: (Units=GPa)
#
#
# Indices 1 2 3 4 5 6 
#
# 1 55.0213 23.4454 7.8063 0.0000 -19.6596 0.0000
# 2 23.4454 162.1367 13.3789 0.0000 -15.4710 0.0000
# 3 7.8063 13.3789 50.2329 0.0001 -19.4635 0.0000
# 4 0.0000 0.0000 0.0001 32.7760 0.0000 -10.2714
# 5 -19.6596 -15.4710 -19.4635 0.0000 39.5159 0.0000
# 6 0.0000 0.0000 0.0000 -10.2714 0.0000 24.2753
#
#
#
# Elastic Compliance Matrix: (Units=1/GPa)
#
#
# Indices 1 2 3 4 5 6 
#
# 1 0.022987 -0.002371 0.001398 0.000000 0.011197 0.000000
# 2 -0.002371 0.006685 -0.001057 0.000000 0.000917 0.000000
# 3 0.001398 -0.001057 0.024817 0.000000 0.012505 0.000000
# 4 0.000000 0.000000 0.000000 0.035174 0.000000 0.014883
# 5 0.011197 0.000917 0.012505 0.000000 0.037395 0.000000
# 6 0.000000 0.000000 0.000000 0.014883 0.000000 0.047491
#
#
# Mechanical properties :
#
#
# Convention : Reuss Voigt Hill
#
# Bulk Modulus (GPa) = 19.82977 39.62799 29.72888
# Shear Modulus (GPa) = 25.58588 34.16414 29.87501
#
# Velocity S-wave (km/s) = 3.23685 3.74031 3.49765
# Velocity P-wave (km/s) = 4.69997 5.90598 5.33715
#
# Compressibility (1/GPa) = 0.05042922
#
# Stress axis : x y z
#
# Youngs Moduli (GPa) = 43.50197 149.58403 40.29528
#
# Poissons Ratio (x) = 0.35466 -0.05631
# Poissons Ratio (y) = 0.10314 0.04258
# Poissons Ratio (z) = -0.06079 0.15806
#
# Static dielectric constant tensor:
#      x y z
#    x 1.971680 0.000000 -0.031820 
#    y 0.000000 1.954260 0.000000 
#    z -0.031820 0.000000 2.069150 
# 
# From -- ./inp_files/12407.got.cif
#   From: 2010.05.17/outbox.cif.g08.bks.cpg/sg4_7_cif.got.tgz:12407.got - 2010.06.03 18:43:04.
