data_PCOD9115049
_publ_section_title
;
Structure prediction by ZEFSAII (Michael W. Deem and Ramdas Pophale) SiO2 
 PCOD9115049
Probable space group: P 21
;
_chemical_formula_sum "Si O2"
_cell_formula_units_Z 16
_cell_length_a 8.656318
_cell_length_b 11.533387
_cell_length_c 9.423510
_cell_angle_alpha 90.000000
_cell_angle_beta 70.346741
_cell_angle_gamma 90.000000
_cell_volume 886.005038
_symmetry_space_group_name_H-M "P 21"
_symmetry_group_IT_number 4
_symmetry_cell_setting 'monoclinic'
loop_
_space_group_symop_operation_xyz
x,y,z
-x,1/2+y,-z
loop_
_atom_site_type_symbol
_atom_site_label
_atom_site_fract_x
_atom_site_fract_y
_atom_site_fract_z
Si Si1 0.791484 0.138900 0.744462
Si Si2 0.863783 0.761982 0.360574
Si Si3 0.835388 0.166671 0.058084
Si Si4 0.503918 0.313446 0.841084
Si Si5 0.320876 0.421850 0.385351
Si Si6 0.638401 0.397026 0.096977
Si Si7 0.698587 0.971659 0.299476
Si Si8 0.781136 0.648379 0.107118
O O1 0.638071 0.219575 0.747752
O O2 0.958220 0.210366 0.665778
O O3 0.784821 0.014574 0.671006
O O4 0.781778 0.122808 0.917720
O O5 0.771670 0.805729 0.530522
O O6 0.852576 0.881522 0.271462
O O7 0.775182 0.673318 0.279560
O O8 0.764215 0.294979 0.094543
O O9 0.759207 0.083617 0.199554
O O10 0.031829 0.165913 0.997315
O O11 0.441751 0.405117 0.744679
O O12 0.341912 0.239048 0.927632
O O13 0.577958 0.375938 0.955110
O O14 0.480549 0.392027 0.247007
O O15 0.361363 0.486904 0.521171
O O16 0.721689 0.520702 0.090189
#
# Coordination Sequence:
#
# PCOD9115049 Si02
#       8
#     2   2   2   2   2   2   2   2
#     4  10  19  40  64  89 119 163 203 261 298 359
#     4   8  21  40  62  83 126 163 193 247 316 359
#     4  10  23  38  63  92 123 157 214 248 313 359
#     4  10  21  37  64  86 120 158 205 255 308 342
#     4  10  21  40  62  85 129 155 206 244 310 370
#     4  11  23  37  64  95 118 162 207 256 305 370
#     4   9  21  39  60  86 124 164 196 256 301 373
#     4  10  21  41  63  88 125 160 200 261 307 356
#
# _framework density 18.058589000000001
#
# number of rings (size 3 to 8) (size 9 to 14) (size 15 to 20)
#    0.750    1.500    1.250    0.750    8.750    2.000 
#    2.250    3.750    0.000    0.000    0.000    0.000 
#    0.000    0.000    0.000    0.000    0.000    0.000 
#
# Total GULP energy -89122.218978 kJ/mol
# GULP energy per Si atom -5570.138686 kJ/mol
# Density = 1.801749 g / cm^3
# Si number density = 18.058589 Si / 1000 Ang^3
#
#
#
# Elastic Constant Matrix: (Units=GPa)
#
#
# Indices 1 2 3 4 5 6 
#
# 1 79.0558 22.7434 10.2187 0.0000 2.1046 0.0000
# 2 22.7434 66.2413 23.8194 0.0000 15.8656 0.0000
# 3 10.2187 23.8194 53.0667 0.0000 -1.4798 0.0000
# 4 0.0000 0.0000 0.0000 35.5122 0.0000 -3.6262
# 5 2.1046 15.8656 -1.4798 0.0000 13.5298 0.0000
# 6 0.0000 0.0000 0.0000 -3.6262 0.0000 31.7510
#
#
#
# Elastic Compliance Matrix: (Units=1/GPa)
#
#
# Indices 1 2 3 4 5 6 
#
# 1 0.014267 -0.006156 0.000156 0.000000 0.005016 0.000000
# 2 -0.006156 0.030990 -0.013754 0.000000 -0.036887 0.000000
# 3 0.000156 -0.013754 0.025515 0.000000 0.018894 0.000000
# 4 0.000000 0.000000 0.000000 0.028492 0.000000 0.003254
# 5 0.005016 -0.036887 0.018894 0.000000 0.118453 0.000000
# 6 0.000000 0.000000 0.000000 0.003254 0.000000 0.031867
#
#
# Mechanical properties :
#
#
# Convention : Reuss Voigt Hill
#
# Bulk Modulus (GPa) = 31.98543 34.65855 33.32199
# Shear Modulus (GPa) = 16.69388 25.59743 21.14565
#
# Velocity S-wave (km/s) = 3.04374 3.76901 3.42562
# Velocity P-wave (km/s) = 5.48662 6.17855 5.84284
#
# Compressibility (1/GPa) = 0.03126424
#
# Stress axis : x y z
#
# Youngs Moduli (GPa) = 70.09396 32.26809 39.19335
#
# Poissons Ratio (x) = 0.19864 -0.00610
# Poissons Ratio (y) = 0.43148 0.53905
# Poissons Ratio (z) = -0.01092 0.44380
#
# Static dielectric constant tensor:
#      x y z
#    x 1.614050 0.000000 0.009880 
#    y 0.000000 1.613390 0.000000 
#    z 0.009880 0.000000 1.622260 
# 
# From -- ./inp_files/5915.got.cif
#   From: 2010.05.17/outbox.cif.g08.bks.cpg/sg4_3_cif.got.tgz:5915.got - 2010.06.03 18:43:04.
