data_PCOD9115705
_publ_section_title
;
Structure prediction by ZEFSAII (Michael W. Deem and Ramdas Pophale) SiO2 
 PCOD9115705
Probable space group: P 21
;
_chemical_formula_sum "Si O2"
_cell_formula_units_Z 16
_cell_length_a 7.787713
_cell_length_b 10.928622
_cell_length_c 10.225040
_cell_angle_alpha 90.000000
_cell_angle_beta 134.175210
_cell_angle_gamma 90.000000
_cell_volume 624.148621
_symmetry_space_group_name_H-M "P 21"
_symmetry_group_IT_number 4
_symmetry_cell_setting 'monoclinic'
loop_
_space_group_symop_operation_xyz
x,y,z
-x,1/2+y,-z
loop_
_atom_site_type_symbol
_atom_site_label
_atom_site_fract_x
_atom_site_fract_y
_atom_site_fract_z
Si Si1 0.548112 0.013410 0.898484
Si Si2 0.768048 0.327334 0.147033
Si Si3 0.347100 0.918927 0.551784
Si Si4 0.329552 0.249024 0.819051
Si Si5 0.200294 0.663078 0.389136
Si Si6 0.878568 0.925866 0.479602
Si Si7 0.082360 0.007082 0.176766
Si Si8 0.929970 0.234616 0.950745
O O1 0.436362 0.140009 0.792968
O O2 0.346856 0.961715 0.891033
O O3 0.553350 0.938483 0.766696
O O4 0.813944 0.026634 0.095848
O O5 0.837465 0.284956 0.041368
O O6 0.999459 0.323207 0.360938
O O7 0.516780 0.257003 0.038828
O O8 0.358886 0.775670 0.522934
O O9 0.105318 0.951053 0.505889
O O10 0.300065 0.995612 0.395147
O O11 0.316967 0.366344 0.718540
O O12 0.068277 0.215672 0.727158
O O13 0.206673 0.538518 0.476658
O O14 0.214966 0.660714 0.240060
O O15 0.106658 0.122980 0.092195
O O16 0.047239 0.869037 0.103991
#
# Coordination Sequence:
#
# PCOD9115705 Si02
#       8
#     2   2   2   2   2   2   2   2
#     4  11  22  42  67  98 128 166 232 284 318 395
#     4  11  22  41  65  98 127 176 222 269 336 394
#     4   9  21  38  65  95 125 172 219 278 328 387
#     4  11  22  40  67  97 128 165 232 281 320 396
#     4  10  20  43  61  94 139 168 220 278 331 404
#     4  10  21  39  66  96 127 170 216 281 335 381
#     4  11  24  45  67  96 140 179 224 282 341 403
#     4  11  24  42  68  96 138 186 217 269 349 416
#
# _framework density 25.634919
#
# number of rings (size 3 to 8) (size 9 to 14) (size 15 to 20)
#    0.000    1.500    3.750    3.000    1.750    1.000 
#    6.750    7.500    0.000    0.000    0.000    0.000 
#    0.000    0.000    0.000    0.000    0.000    0.000 
#
# Total GULP energy -89088.016687 kJ/mol
# GULP energy per Si atom -5568.001043 kJ/mol
# Density = 2.557657 g / cm^3
# Si number density = 25.634919 Si / 1000 Ang^3
#
#
#
# Elastic Constant Matrix: (Units=GPa)
#
#
# Indices 1 2 3 4 5 6 
#
# 1 43.7113 19.0407 21.5431 0.0000 -23.0551 0.0000
# 2 19.0407 104.7189 42.9423 0.0000 -19.3142 0.0000
# 3 21.5431 42.9423 122.4821 0.0000 -9.8202 0.0000
# 4 0.0000 0.0000 0.0000 48.3478 0.0000 -6.4607
# 5 -23.0551 -19.3142 -9.8202 0.0000 31.0940 0.0000
# 6 0.0000 0.0000 0.0000 -6.4607 0.0000 38.5353
#
#
#
# Elastic Compliance Matrix: (Units=1/GPa)
#
#
# Indices 1 2 3 4 5 6 
#
# 1 0.040142 -0.000157 -0.004747 0.000000 0.028167 0.000000
# 2 -0.000157 0.012293 -0.003775 0.000000 0.006327 0.000000
# 3 -0.004747 -0.003775 0.010109 0.000000 -0.002672 0.000000
# 4 0.000000 0.000000 0.000000 0.021157 0.000000 0.003547
# 5 0.028167 0.006327 -0.002672 0.000000 0.056131 0.000000
# 6 0.000000 0.000000 0.000000 0.003547 0.000000 0.026545
#
#
# Mechanical properties :
#
#
# Convention : Reuss Voigt Hill
#
# Bulk Modulus (GPa) = 22.13129 48.66272 35.39701
# Shear Modulus (GPa) = 25.15129 36.08782 30.61955
#
# Velocity S-wave (km/s) = 3.13570 3.75608 3.45983
# Velocity P-wave (km/s) = 4.66500 6.15102 5.45881
#
# Compressibility (1/GPa) = 0.04518489
#
# Stress axis : x y z
#
# Youngs Moduli (GPa) = 24.91179 81.34768 98.92496
#
# Poissons Ratio (x) = 0.01279 0.46960
# Poissons Ratio (y) = 0.00392 0.37344
# Poissons Ratio (z) = 0.11826 0.30709
#
# Static dielectric constant tensor:
#      x y z
#    x 2.097570 0.000000 0.001760 
#    y 0.000000 2.193610 0.000000 
#    z 0.001760 0.000000 2.090640 
# 
# From -- ./inp_files/6461.got.cif
#   From: 2010.05.17/outbox.cif.g08.bks.cpg/sg4_4_cif.got.tgz:6461.got - 2010.06.03 18:43:04.
