data_PCOD9115310
_publ_section_title
;
Structure prediction by ZEFSAII (Michael W. Deem and Ramdas Pophale) SiO2 
 PCOD9115310
Probable space group: P 21
;
_chemical_formula_sum "Si O2"
_cell_formula_units_Z 14
_cell_length_a 5.006989
_cell_length_b 6.854174
_cell_length_c 18.133272
_cell_angle_alpha 90.000000
_cell_angle_beta 83.191851
_cell_angle_gamma 90.000000
_cell_volume 617.923528
_symmetry_space_group_name_H-M "P 21"
_symmetry_group_IT_number 4
_symmetry_cell_setting 'monoclinic'
loop_
_space_group_symop_operation_xyz
x,y,z
-x,1/2+y,-z
loop_
_atom_site_type_symbol
_atom_site_label
_atom_site_fract_x
_atom_site_fract_y
_atom_site_fract_z
Si Si1 0.586359 0.651620 0.046258
Si Si2 0.053530 0.947224 0.729285
Si Si3 0.339492 0.586276 0.898833
Si Si4 0.546141 0.680483 0.736039
Si Si5 0.308296 0.152820 0.419901
Si Si6 0.192996 0.932757 0.573737
Si Si7 0.965024 0.946848 0.892196
O O1 0.665905 0.859363 0.078783
O O2 0.490671 0.675081 0.965344
O O3 0.664343 0.035913 0.907706
O O4 0.861219 0.532618 0.046470
O O5 0.251497 0.760397 0.725529
O O6 0.152703 0.055052 0.651517
O O7 0.077318 0.032574 0.810503
O O8 0.750244 0.864764 0.734302
O O9 0.516411 0.595836 0.818327
O O10 0.071737 0.719358 0.890943
O O11 0.651864 0.556426 0.662418
O O12 0.571950 0.277565 0.425802
O O13 0.076179 0.310297 0.420721
O O14 0.242362 0.032933 0.494467
#
# Coordination Sequence:
#
# PCOD9115310 Si02
#       7
#     2   2   2   2   2   2   2
#     4  12  27  41  70 100 129 180 232 273 353 409
#     4   9  19  38  64  85 122 171 209 256 337 394
#     4  11  25  47  67  98 139 176 226 292 335 407
#     4   9  20  38  64  86 122 174 207 259 336 393
#     4  10  20  38  60  92 124 164 210 255 325 389
#     4  10  20  37  61  91 123 165 208 257 322 388
#     4  11  25  45  66  96 135 174 226 286 338 408
#
# _framework density 22.656523
#
# number of rings (size 3 to 8) (size 9 to 14) (size 15 to 20)
#    0.000    1.714    1.429    2.571    2.000    4.571 
#    5.143    0.000    0.000    0.000    0.000    0.000 
#    0.000    0.000    0.000    0.000    0.000    0.000 
#
# Total GULP energy -77972.980441 kJ/mol
# GULP energy per Si atom -5569.498603 kJ/mol
# Density = 2.260496 g / cm^3
# Si number density = 22.656523 Si / 1000 Ang^3
#
#
#
# Elastic Constant Matrix: (Units=GPa)
#
#
# Indices 1 2 3 4 5 6 
#
# 1 126.0688 31.7564 5.8986 0.0000 -14.8870 0.0000
# 2 31.7564 63.6597 26.2473 0.0000 -4.9082 0.0000
# 3 5.8986 26.2473 212.5830 0.0000 -17.1018 0.0000
# 4 0.0000 0.0000 0.0000 34.3329 0.0000 -0.6626
# 5 -14.8870 -4.9082 -17.1018 0.0000 28.7776 0.0000
# 6 0.0000 0.0000 0.0000 -0.6626 0.0000 23.0901
#
#
#
# Elastic Compliance Matrix: (Units=1/GPa)
#
#
# Indices 1 2 3 4 5 6 
#
# 1 0.009634 -0.004735 0.000686 0.000000 0.004584 0.000000
# 2 -0.004735 0.018957 -0.002254 0.000000 -0.000556 0.000000
# 3 0.000686 -0.002254 0.005210 0.000000 0.003067 0.000000
# 4 0.000000 0.000000 0.000000 0.029143 0.000000 0.000836
# 5 0.004584 -0.000556 0.003067 0.000000 0.038848 0.000000
# 6 0.000000 0.000000 0.000000 0.000836 0.000000 0.043333
#
#
# Mechanical properties :
#
#
# Convention : Reuss Voigt Hill
#
# Bulk Modulus (GPa) = 47.18111 58.90180 53.04146
# Shear Modulus (GPa) = 30.34042 39.80073 35.07058
#
# Velocity S-wave (km/s) = 3.66341 4.19585 3.93863
# Velocity P-wave (km/s) = 6.22606 7.03759 6.64423
#
# Compressibility (1/GPa) = 0.02119492
#
# Stress axis : x y z
#
# Youngs Moduli (GPa) = 103.79652 52.75026 191.93826
#
# Poissons Ratio (x) = 0.24980 -0.13169
# Poissons Ratio (y) = 0.49152 0.43262
# Poissons Ratio (z) = -0.07122 0.11890
#
# Static dielectric constant tensor:
#      x y z
#    x 1.817710 0.000000 -0.000250 
#    y 0.000000 2.001730 0.000000 
#    z -0.000250 0.000000 2.004900 
# 
# From -- ./inp_files/3435.got.cif
#   From: 2010.05.17/outbox.cif.g08.bks.cpg/sg4_2_cif.got.tgz:3435.got - 2010.06.03 18:43:04.
