data_PCOD9115328
_publ_section_title
;
Structure prediction by ZEFSAII (Michael W. Deem and Ramdas Pophale) SiO2 
 PCOD9115328
Probable space group: P 21
;
_chemical_formula_sum "Si O2"
_cell_formula_units_Z 16
_cell_length_a 8.759897
_cell_length_b 9.253873
_cell_length_c 12.023437
_cell_angle_alpha 90.000000
_cell_angle_beta 45.337081
_cell_angle_gamma 90.000000
_cell_volume 693.228207
_symmetry_space_group_name_H-M "P 21"
_symmetry_group_IT_number 4
_symmetry_cell_setting 'monoclinic'
loop_
_space_group_symop_operation_xyz
x,y,z
-x,1/2+y,-z
loop_
_atom_site_type_symbol
_atom_site_label
_atom_site_fract_x
_atom_site_fract_y
_atom_site_fract_z
Si Si1 0.949794 0.757710 0.527550
Si Si2 0.124811 0.130757 0.814041
Si Si3 0.070633 0.387432 0.682161
Si Si4 0.251783 0.451427 0.034760
Si Si5 0.427948 0.892842 0.543768
Si Si6 0.511070 0.789841 0.253108
Si Si7 0.051871 0.701891 0.729953
Si Si8 0.776839 0.035493 0.700696
O O1 0.037118 0.855868 0.380839
O O2 0.047601 0.728128 0.598768
O O3 0.981683 0.601081 0.449233
O O4 0.761343 0.871116 0.662258
O O5 0.035886 0.254347 0.779647
O O6 0.262821 0.212042 0.834766
O O7 0.288237 0.027762 0.659789
O O8 0.918185 0.039140 0.953453
O O9 0.330676 0.396843 0.534056
O O10 0.003584 0.535925 0.771471
O O11 0.278249 0.528751 0.140507
O O12 0.126576 0.305627 0.130740
O O13 0.457052 0.406679 0.860015
O O14 0.450654 0.871846 0.398812
O O15 0.285351 0.753606 0.652128
O O16 0.366702 0.655108 0.287253
#
# Coordination Sequence:
#
# PCOD9115328 Si02
#       8
#     2   2   2   2   2   2   2   2
#     4  11  19  35  64  90 127 163 220 273 311 373
#     4  10  22  39  65  93 122 170 221 261 317 394
#     4  11  19  33  59  93 119 160 213 270 314 369
#     4  10  24  44  63  91 137 172 207 258 331 404
#     4  10  20  37  63  92 121 159 218 274 316 373
#     4  11  23  43  66  94 139 167 211 276 328 381
#     4  10  21  38  60  93 125 167 210 267 327 375
#     4  11  22  41  64  98 130 174 220 267 328 379
#
# _framework density 23.080421000000001
#
# number of rings (size 3 to 8) (size 9 to 14) (size 15 to 20)
#    0.000    1.500    3.750    2.250    0.000    2.000 
#    2.250    2.500    0.000    1.500    0.000    0.000 
#    0.000    0.000    0.000    0.000    0.000    0.000 
#
# Total GULP energy -89105.842527 kJ/mol
# GULP energy per Si atom -5569.115158 kJ/mol
# Density = 2.302789 g / cm^3
# Si number density = 23.080421 Si / 1000 Ang^3
#
#
#
# Elastic Constant Matrix: (Units=GPa)
#
#
# Indices 1 2 3 4 5 6 
#
# 1 53.2028 13.6964 23.6991 0.0000 11.4315 0.0000
# 2 13.6964 96.4018 7.0727 0.0000 8.4994 0.0000
# 3 23.6991 7.0727 64.7179 0.0000 14.9831 0.0000
# 4 0.0000 0.0000 0.0000 17.1602 0.0000 -5.9674
# 5 11.4315 8.4994 14.9831 0.0000 22.5125 0.0000
# 6 0.0000 0.0000 0.0000 -5.9674 0.0000 28.0960
#
#
#
# Elastic Compliance Matrix: (Units=1/GPa)
#
#
# Indices 1 2 3 4 5 6 
#
# 1 0.023920 -0.002302 -0.006971 0.000000 -0.006638 0.000000
# 2 -0.002302 0.010956 0.000393 0.000000 -0.003229 0.000000
# 3 -0.006971 0.000393 0.020305 0.000000 -0.010122 0.000000
# 4 0.000000 0.000000 0.000000 0.062922 0.000000 0.013364
# 5 -0.006638 -0.003229 -0.010122 0.000000 0.055746 0.000000
# 6 0.000000 0.000000 0.000000 0.013364 0.000000 0.038431
#
#
# Mechanical properties :
#
#
# Convention : Reuss Voigt Hill
#
# Bulk Modulus (GPa) = 26.72241 33.69543 30.20892
# Shear Modulus (GPa) = 20.61744 24.87737 22.74740
#
# Velocity S-wave (km/s) = 2.99203 3.28663 3.14279
# Velocity P-wave (km/s) = 4.85175 5.38827 5.12703
#
# Compressibility (1/GPa) = 0.03742178
#
# Stress axis : x y z
#
# Youngs Moduli (GPa) = 41.80600 91.27295 49.24913
#
# Poissons Ratio (x) = 0.21009 0.34332
# Poissons Ratio (y) = 0.09623 -0.01936
# Poissons Ratio (z) = 0.29143 -0.03589
#
# Static dielectric constant tensor:
#      x y z
#    x 1.917900 0.000000 -0.044320 
#    y 0.000000 1.882820 0.000000 
#    z -0.044320 0.000000 1.909000 
# 
# From -- ./inp_files/5749.got.cif
#   From: 2010.05.17/outbox.cif.g08.bks.cpg/sg4_3_cif.got.tgz:5749.got - 2010.06.03 18:43:04.
