data_PCOD9115125
_publ_section_title
;
Structure prediction by ZEFSAII (Michael W. Deem and Ramdas Pophale) SiO2 
 PCOD9115125
Probable space group: P 21
;
_chemical_formula_sum "Si O2"
_cell_formula_units_Z 16
_cell_length_a 7.177778
_cell_length_b 19.390207
_cell_length_c 5.811761
_cell_angle_alpha 90.000000
_cell_angle_beta 42.282400
_cell_angle_gamma 90.000000
_cell_volume 544.197694
_symmetry_space_group_name_H-M "P 21"
_symmetry_group_IT_number 4
_symmetry_cell_setting 'monoclinic'
loop_
_space_group_symop_operation_xyz
x,y,z
-x,1/2+y,-z
loop_
_atom_site_type_symbol
_atom_site_label
_atom_site_fract_x
_atom_site_fract_y
_atom_site_fract_z
Si Si1 0.409162 0.958440 0.379386
Si Si2 0.293565 0.212408 0.380166
Si Si3 0.977035 0.302661 0.049952
Si Si4 0.295883 0.552373 0.232611
Si Si5 0.163602 0.676989 0.585388
Si Si6 0.132346 0.426843 0.672706
Si Si7 0.144384 0.087896 0.752831
Si Si8 0.554705 0.835304 0.998580
O O1 0.684098 0.942636 0.270574
O O2 0.249303 0.010209 0.695783
O O3 0.332818 0.884860 0.331967
O O4 0.470426 0.007548 0.104867
O O5 0.140868 0.257717 0.712205
O O6 0.060141 0.196057 0.404240
O O7 0.368469 0.140586 0.435102
O O8 0.519098 0.262185 0.052831
O O9 0.899781 0.373885 0.987448
O O10 0.757504 0.248572 0.359697
O O11 0.203592 0.318860 0.039101
O O12 0.122459 0.499400 0.550474
O O13 0.089960 0.575759 0.222514
O O14 0.384372 0.622160 0.283058
O O15 0.995662 0.629119 0.915747
O O16 0.302865 0.380897 0.331388
#
# Coordination Sequence:
#
# PCOD9115125 Si02
#       8
#     2   2   2   2   2   2   2   2
#     4  10  20  33  52  78 107 139 175 217 264 314
#     4   8  15  29  51  76 101 135 176 215 259 310
#     4   8  14  28  50  78 102 132 178 218 258 310
#     4  10  20  34  52  78 108 140 176 220 266 314
#     4   9  17  30  51  77 105 137 176 217 261 314
#     4   9  17  30  51  77 105 137 176 217 261 314
#     4  10  20  33  52  78 107 139 175 217 264 314
#     4   8  15  29  51  76 101 135 176 215 259 310
#
# _framework density 29.401081000000001
#
# number of rings (size 3 to 8) (size 9 to 14) (size 15 to 20)
#    0.000    3.000    0.000    0.750    0.000    4.000 
#    0.000    0.000    0.000   18.000    0.000   77.000 
#    0.000    0.000    0.000    0.000    0.000    0.000 
#
# Total GULP energy -89621.222783 kJ/mol
# GULP energy per Si atom -5601.326424 kJ/mol
# Density = 2.933416 g / cm^3
# Si number density = 29.401081 Si / 1000 Ang^3
#
#
#
# Elastic Constant Matrix: (Units=GPa)
#
#
# Indices 1 2 3 4 5 6 
#
# 1 89.2098 50.3238 36.2463 0.0000 5.5319 0.0000
# 2 50.3238 230.1214 42.4499 0.0000 11.9785 0.0000
# 3 36.2463 42.4499 115.1301 0.0000 16.9379 0.0000
# 4 0.0000 0.0000 0.0000 88.8158 0.0000 20.3546
# 5 5.5319 11.9785 16.9379 0.0000 36.2928 0.0000
# 6 0.0000 0.0000 0.0000 20.3546 0.0000 40.7148
#
#
#
# Elastic Compliance Matrix: (Units=1/GPa)
#
#
# Indices 1 2 3 4 5 6 
#
# 1 0.014003 -0.002422 -0.003564 0.000000 0.000328 0.000000
# 2 -0.002422 0.005103 -0.000994 0.000000 -0.000851 0.000000
# 3 -0.003564 -0.000994 0.010787 0.000000 -0.004163 0.000000
# 4 0.000000 0.000000 0.000000 0.012716 0.000000 -0.006357
# 5 0.000328 -0.000851 -0.004163 0.000000 0.029727 0.000000
# 6 0.000000 0.000000 0.000000 -0.006357 0.000000 0.027739
#
#
# Mechanical properties :
#
#
# Convention : Reuss Voigt Hill
#
# Bulk Modulus (GPa) = 62.76027 76.94460 69.85243
# Shear Modulus (GPa) = 41.89482 53.52744 47.71113
#
# Velocity S-wave (km/s) = 3.77893 4.27147 4.03273
# Velocity P-wave (km/s) = 6.35870 7.11019 6.74492
#
# Compressibility (1/GPa) = 0.01593365
#
# Stress axis : x y z
#
# Youngs Moduli (GPa) = 71.41080 195.97085 92.70660
#
# Poissons Ratio (x) = 0.47464 0.33040
# Poissons Ratio (y) = 0.17296 0.09212
# Poissons Ratio (z) = 0.25451 0.19474
#
# Static dielectric constant tensor:
#      x y z
#    x 2.148900 0.000000 0.004580 
#    y 0.000000 2.343250 0.000000 
#    z 0.004580 0.000000 2.392110 
# 
# From -- ./inp_files/2099.got.cif
#   From: 2010.05.17/outbox.cif.g08.bks.cpg/sg4_2_cif.got.tgz:2099.got - 2010.06.03 18:43:04.
