data_PCOD9115347
_publ_section_title
;
Structure prediction by ZEFSAII (Michael W. Deem and Ramdas Pophale) SiO2 
 PCOD9115347
Probable space group: P 21
;
_chemical_formula_sum "Si O2"
_cell_formula_units_Z 16
_cell_length_a 12.421524
_cell_length_b 10.461285
_cell_length_c 5.207906
_cell_angle_alpha 90.000000
_cell_angle_beta 83.777216
_cell_angle_gamma 90.000000
_cell_volume 672.754475
_symmetry_space_group_name_H-M "P 21"
_symmetry_group_IT_number 4
_symmetry_cell_setting 'monoclinic'
loop_
_space_group_symop_operation_xyz
x,y,z
-x,1/2+y,-z
loop_
_atom_site_type_symbol
_atom_site_label
_atom_site_fract_x
_atom_site_fract_y
_atom_site_fract_z
Si Si1 0.583188 0.603210 0.819503
Si Si2 0.329170 0.527105 0.862715
Si Si3 0.361538 0.379285 0.356077
Si Si4 0.206717 0.773693 0.754164
Si Si5 0.986505 0.877794 0.073705
Si Si6 0.860030 0.459371 0.604181
Si Si7 0.101252 0.106200 0.910656
Si Si8 0.609222 0.463453 0.307818
O O1 0.451076 0.590299 0.826667
O O2 0.639264 0.732440 0.716045
O O3 0.625001 0.499296 0.601555
O O4 0.608679 0.580791 0.110892
O O5 0.324748 0.416875 0.648938
O O6 0.243047 0.631515 0.795021
O O7 0.310310 0.468105 0.148172
O O8 0.489353 0.409231 0.316435
O O9 0.096116 0.815040 0.921019
O O10 0.193694 0.825056 0.464789
O O11 0.306898 0.860519 0.818140
O O12 0.987788 0.021354 0.953680
O O13 0.017082 0.910892 0.360441
O O14 0.906400 0.758686 0.073717
O O15 0.850732 0.554227 0.366294
O O16 0.838079 0.545469 0.859709
#
# Coordination Sequence:
#
# PCOD9115347 Si02
#       8
#     2   2   2   2   2   2   2   2
#     4  10  20  38  54  83 116 169 206 241 299 340
#     4  10  22  33  61  82 121 155 206 253 286 357
#     4  10  20  38  54  85 112 170 206 241 300 339
#     4  11  22  40  61  97 118 152 201 256 299 344
#     4   9  22  39  69  91 120 153 197 246 302 362
#     4   9  22  35  63  90 118 151 189 242 301 353
#     4   9  20  38  63  93 120 154 195 237 291 385
#     4  10  22  33  61  83 117 158 204 252 286 356
#
# _framework density 23.782820999999998
#
# number of rings (size 3 to 8) (size 9 to 14) (size 15 to 20)
#    0.750    1.500    1.250    0.750    7.000    0.000 
#    0.000    0.000   13.750    0.000    0.000    0.000 
#    0.000    0.000    0.000    0.000    0.000    0.000 
#
# Total GULP energy -89144.439988 kJ/mol
# GULP energy per Si atom -5571.527499 kJ/mol
# Density = 2.372869 g / cm^3
# Si number density = 23.782821 Si / 1000 Ang^3
#
#
#
# Elastic Constant Matrix: (Units=GPa)
#
#
# Indices 1 2 3 4 5 6 
#
# 1 37.9785 2.9956 9.5985 0.0000 -6.9975 0.0000
# 2 2.9956 52.2278 -8.7523 0.0000 3.1957 0.0000
# 3 9.5985 -8.7523 116.5107 0.0000 13.7736 0.0000
# 4 0.0000 0.0000 0.0000 24.4085 0.0000 1.0561
# 5 -6.9975 3.1957 13.7736 0.0000 17.1592 0.0000
# 6 0.0000 0.0000 0.0000 1.0561 0.0000 34.9033
#
#
#
# Elastic Compliance Matrix: (Units=1/GPa)
#
#
# Indices 1 2 3 4 5 6 
#
# 1 0.031025 -0.003650 -0.004868 0.000000 0.017240 0.000000
# 2 -0.003650 0.020264 0.002701 0.000000 -0.007431 0.000000
# 3 -0.004868 0.002701 0.010475 0.000000 -0.010897 0.000000
# 4 0.000000 0.000000 0.000000 0.041023 0.000000 -0.001241
# 5 0.017240 -0.007431 -0.010897 0.000000 0.075439 0.000000
# 6 0.000000 0.000000 0.000000 -0.001241 0.000000 0.028688
#
#
# Mechanical properties :
#
#
# Convention : Reuss Voigt Hill
#
# Bulk Modulus (GPa) = 19.94810 23.82228 21.88519
# Shear Modulus (GPa) = 21.25326 28.81921 25.03623
#
# Velocity S-wave (km/s) = 2.99262 3.48482 3.24806
# Velocity P-wave (km/s) = 4.51075 5.12155 4.82582
#
# Compressibility (1/GPa) = 0.05013009
#
# Stress axis : x y z
#
# Youngs Moduli (GPa) = 32.23173 49.34949 95.46488
#
# Poissons Ratio (x) = 0.18013 0.46474
# Poissons Ratio (y) = 0.11765 -0.25789
# Poissons Ratio (z) = 0.15691 -0.13331
#
# Static dielectric constant tensor:
#      x y z
#    x 2.027920 0.000000 0.023320 
#    y 0.000000 1.930870 0.000000 
#    z 0.023320 0.000000 1.922560 
# 
# From -- ./inp_files/4048.got.cif
#   From: 2010.05.17/outbox.cif.g08.bks.cpg/sg4_3_cif.got.tgz:4048.got - 2010.06.03 18:43:04.
