data_PCOD9115664
_publ_section_title
;
Structure prediction by ZEFSAII (Michael W. Deem and Ramdas Pophale) SiO2 
 PCOD9115664
Probable space group: P 21
;
_chemical_formula_sum "Si O2"
_cell_formula_units_Z 16
_cell_length_a 8.544926
_cell_length_b 13.722522
_cell_length_c 5.438139
_cell_angle_alpha 90.000000
_cell_angle_beta 84.512348
_cell_angle_gamma 90.000000
_cell_volume 634.742423
_symmetry_space_group_name_H-M "P 21"
_symmetry_group_IT_number 4
_symmetry_cell_setting 'monoclinic'
loop_
_space_group_symop_operation_xyz
x,y,z
-x,1/2+y,-z
loop_
_atom_site_type_symbol
_atom_site_label
_atom_site_fract_x
_atom_site_fract_y
_atom_site_fract_z
Si Si1 0.014623 0.854010 0.048212
Si Si2 0.687550 0.279561 0.784939
Si Si3 0.900307 0.158038 0.427519
Si Si4 0.804926 0.729886 0.396892
Si Si5 0.626279 0.539011 0.453273
Si Si6 0.472529 0.351557 0.427831
Si Si7 0.981738 0.464696 0.448742
Si Si8 0.399920 0.650730 0.833447
O O1 0.912025 0.761689 0.150926
O O2 0.199726 0.827362 0.030396
O O3 0.989292 0.927804 0.278882
O O4 0.980328 0.897818 0.789385
O O5 0.814243 0.250208 0.560455
O O6 0.555257 0.344614 0.683955
O O7 0.615953 0.176094 0.879011
O O8 0.778187 0.131241 0.232216
O O9 0.082551 0.191278 0.399181
O O10 0.918896 0.063406 0.594177
O O11 0.687990 0.642672 0.338923
O O12 0.706751 0.822920 0.502333
O O13 0.520512 0.458382 0.327814
O O14 0.794237 0.486902 0.472846
O O15 0.520618 0.573666 0.702754
O O16 0.538437 0.257659 0.270906
#
# Coordination Sequence:
#
# PCOD9115664 Si02
#       8
#     2   2   2   2   2   2   2   2
#     4  11  24  44  70 100 142 187 241 293 362 426
#     4  10  21  40  64  94 131 190 227 296 361 428
#     4   9  22  41  63  97 141 178 236 299 357 436
#     4   9  22  42  63 102 137 187 240 302 363 430
#     4  10  21  44  65 102 139 188 241 296 365 439
#     4  10  20  42  64  94 137 181 244 292 370 429
#     4  11  24  44  68 104 139 188 237 297 356 435
#     4  10  22  41  69  97 140 181 236 299 366 431
#
# _framework density 25.207073999999999
#
# number of rings (size 3 to 8) (size 9 to 14) (size 15 to 20)
#    0.000    2.000    1.250    0.750    7.000    0.000 
#   13.500    1.250    0.000    0.000    0.000    0.000 
#    0.000    0.000    0.000    0.000    0.000    0.000 
#
# Total GULP energy -89262.072883 kJ/mol
# GULP energy per Si atom -5578.879555 kJ/mol
# Density = 2.514970 g / cm^3
# Si number density = 25.207074 Si / 1000 Ang^3
#
#
#
# Elastic Constant Matrix: (Units=GPa)
#
#
# Indices 1 2 3 4 5 6 
#
# 1 135.3971 30.1940 30.8699 0.0000 -0.9251 0.0000
# 2 30.1940 108.2002 25.5882 0.0000 -4.5324 0.0000
# 3 30.8699 25.5882 68.1877 0.0000 0.1694 0.0000
# 4 0.0000 0.0000 0.0000 33.0321 0.0000 -8.3253
# 5 -0.9251 -4.5324 0.1694 0.0000 23.9202 0.0000
# 6 0.0000 0.0000 0.0000 -8.3253 0.0000 51.4192
#
#
#
# Elastic Compliance Matrix: (Units=1/GPa)
#
#
# Indices 1 2 3 4 5 6 
#
# 1 0.008481 -0.001599 -0.003240 0.000000 0.000048 0.000000
# 2 -0.001599 0.010535 -0.003235 0.000000 0.001957 0.000000
# 3 -0.003240 -0.003235 0.017348 0.000000 -0.000861 0.000000
# 4 0.000000 0.000000 0.000000 0.031562 0.000000 0.005110
# 5 0.000048 0.001957 -0.000861 0.000000 0.042185 0.000000
# 6 0.000000 0.000000 0.000000 0.005110 0.000000 0.020275
#
#
# Mechanical properties :
#
#
# Convention : Reuss Voigt Hill
#
# Bulk Modulus (GPa) = 49.45976 53.89879 51.67928
# Shear Modulus (GPa) = 32.62189 36.68315 34.65252
#
# Velocity S-wave (km/s) = 3.60134 3.81894 3.71174
# Velocity P-wave (km/s) = 6.07921 6.39332 6.23825
#
# Compressibility (1/GPa) = 0.02021846
#
# Stress axis : x y z
#
# Youngs Moduli (GPa) = 117.90854 94.92038 57.64318
#
# Poissons Ratio (x) = 0.15173 0.18675
# Poissons Ratio (y) = 0.18848 0.18645
# Poissons Ratio (z) = 0.38200 0.30703
#
# Static dielectric constant tensor:
#      x y z
#    x 2.011380 0.000000 0.000980 
#    y 0.000000 2.100160 0.000000 
#    z 0.000980 0.000000 2.111320 
# 
# From -- ./inp_files/1594.got.cif
#   From: 2010.05.17/outbox.cif.g08.bks.cpg/sg4_1_cif.got.tgz:1594.got - 2010.06.03 18:43:04.
