data_PCOD9115032
_publ_section_title
;
Structure prediction by ZEFSAII (Michael W. Deem and Ramdas Pophale) SiO2 
 PCOD9115032
Probable space group: P 21
;
_chemical_formula_sum "Si O2"
_cell_formula_units_Z 14
_cell_length_a 9.864843
_cell_length_b 9.868500
_cell_length_c 6.853914
_cell_angle_alpha 90.000000
_cell_angle_beta 55.966751
_cell_angle_gamma 90.000000
_cell_volume 552.947743
_symmetry_space_group_name_H-M "P 21"
_symmetry_group_IT_number 4
_symmetry_cell_setting 'monoclinic'
loop_
_space_group_symop_operation_xyz
x,y,z
-x,1/2+y,-z
loop_
_atom_site_type_symbol
_atom_site_label
_atom_site_fract_x
_atom_site_fract_y
_atom_site_fract_z
Si Si1 0.529104 0.802420 0.060673
Si Si2 0.865985 0.946599 0.370770
Si Si3 0.188049 0.819584 0.179144
Si Si4 0.635569 0.182131 0.427247
Si Si5 0.131845 0.896191 0.652980
Si Si6 0.316896 0.173587 0.424130
Si Si7 0.197676 0.506124 0.118800
O O1 0.377849 0.857965 0.052806
O O2 0.452250 0.713063 0.294162
O O3 0.642702 0.711848 0.831076
O O4 0.633383 0.928511 0.054165
O O5 0.785375 0.799308 0.408495
O O6 0.060907 0.926036 0.190206
O O7 0.760594 0.057351 0.340725
O O8 0.835850 0.986204 0.622307
O O9 0.124112 0.810689 0.457346
O O10 0.187516 0.666826 0.097289
O O11 0.745957 0.315833 0.305989
O O12 0.487916 0.163353 0.398682
O O13 0.214186 0.038020 0.530324
O O14 0.949406 0.926459 0.867212
#
# Coordination Sequence:
#
# PCOD9115032 Si02
#       7
#     2   2   2   2   2   2   2
#     4  10  24  39  70  96 129 168 227 275 324 388
#     4  10  20  39  63  93 135 175 212 272 334 394
#     4  10  20  37  66  96 131 170 223 268 330 398
#     4  11  23  42  64 100 134 170 226 272 328 401
#     4  10  21  38  65  96 130 179 218 264 341 399
#     4  11  23  40  68  94 134 179 216 273 336 392
#     4  10  19  39  64  97 131 171 220 272 329 396
#
# _framework density 25.318845
#
# number of rings (size 3 to 8) (size 9 to 14) (size 15 to 20)
#    0.000    1.714    4.286    0.857    4.000    0.000 
#    0.000    1.429    0.000    3.429    0.000    0.000 
#    0.000    0.000    0.000    0.000    0.000    0.000 
#
# Total GULP energy -78462.790666 kJ/mol
# GULP energy per Si atom -5604.485048 kJ/mol
# Density = 2.526122 g / cm^3
# Si number density = 25.318845 Si / 1000 Ang^3
#
#
#
# Elastic Constant Matrix: (Units=GPa)
#
#
# Indices 1 2 3 4 5 6 
#
# 1 124.9583 42.3011 34.5719 0.0000 -20.5417 0.0000
# 2 42.3011 158.4236 53.8387 0.0000 -16.9195 0.0000
# 3 34.5719 53.8387 89.7400 0.0000 -20.0752 0.0000
# 4 0.0000 0.0000 0.0000 43.8231 0.0000 -7.8626
# 5 -20.5417 -16.9195 -20.0752 0.0000 48.6808 0.0000
# 6 0.0000 0.0000 0.0000 -7.8626 0.0000 54.0624
#
#
#
# Elastic Compliance Matrix: (Units=1/GPa)
#
#
# Indices 1 2 3 4 5 6 
#
# 1 0.009552 -0.001532 -0.002179 0.000000 0.002599 0.000000
# 2 -0.001532 0.008209 -0.004231 0.000000 0.000462 0.000000
# 3 -0.002179 -0.004231 0.015408 0.000000 0.003964 0.000000
# 4 0.000000 0.000000 0.000000 0.023430 0.000000 0.003408
# 5 0.002599 0.000462 0.003964 0.000000 0.023434 0.000000
# 6 0.000000 0.000000 0.000000 0.003408 0.000000 0.018993
#
#
# Mechanical properties :
#
#
# Convention : Reuss Voigt Hill
#
# Bulk Modulus (GPa) = 57.85914 70.50505 64.18210
# Shear Modulus (GPa) = 41.43511 45.47392 43.45451
#
# Velocity S-wave (km/s) = 4.04980 4.24258 4.14731
# Velocity P-wave (km/s) = 6.69101 7.20463 6.95256
#
# Compressibility (1/GPa) = 0.01728335
#
# Stress axis : x y z
#
# Youngs Moduli (GPa) = 104.69539 121.82475 64.90192
#
# Poissons Ratio (x) = 0.18667 0.14142
# Poissons Ratio (y) = 0.16042 0.27460
# Poissons Ratio (z) = 0.22812 0.51545
#
# Static dielectric constant tensor:
#      x y z
#    x 1.995420 0.000000 0.057820 
#    y 0.000000 1.926290 0.000000 
#    z 0.057820 0.000000 2.064880 
# 
# From -- ./inp_files/5257.got.cif
#   From: 2010.05.17/outbox.cif.g08.bks.cpg/sg4_3_cif.got.tgz:5257.got - 2010.06.03 18:43:04.
