data_PCOD9115140
_publ_section_title
;
Structure prediction by ZEFSAII (Michael W. Deem and Ramdas Pophale) SiO2 
 PCOD9115140
Probable space group: P 21
;
_chemical_formula_sum "Si O2"
_cell_formula_units_Z 14
_cell_length_a 10.561214
_cell_length_b 4.939190
_cell_length_c 16.606863
_cell_angle_alpha 90.000000
_cell_angle_beta 53.846238
_cell_angle_gamma 90.000000
_cell_volume 699.464453
_symmetry_space_group_name_H-M "P 21"
_symmetry_group_IT_number 4
_symmetry_cell_setting 'monoclinic'
loop_
_space_group_symop_operation_xyz
x,y,z
-x,1/2+y,-z
loop_
_atom_site_type_symbol
_atom_site_label
_atom_site_fract_x
_atom_site_fract_y
_atom_site_fract_z
Si Si1 0.857924 0.474630 0.295750
Si Si2 0.406764 0.813792 0.010823
Si Si3 0.057247 0.944933 0.186593
Si Si4 0.953513 0.983262 0.055685
Si Si5 0.388888 0.597606 0.835239
Si Si6 0.412327 0.776416 0.497166
Si Si7 0.561024 0.577383 0.285844
O O1 0.756779 0.367122 0.408762
O O2 0.721528 0.542503 0.279863
O O3 0.959794 0.739041 0.278242
O O4 0.981497 0.241977 0.223392
O O5 0.243785 0.911431 0.112993
O O6 0.485112 0.578531 0.034421
O O7 0.396475 0.678564 0.925784
O O8 0.007830 0.844855 0.116301
O O9 0.792185 0.141336 0.120599
O O10 0.071132 0.229017 0.993536
O O11 0.421108 0.296050 0.792040
O O12 0.481441 0.799736 0.742173
O O13 0.471940 0.530623 0.531360
O O14 0.434546 0.675920 0.398311
#
# Coordination Sequence:
#
# PCOD9115140 Si02
#       7
#     2   2   2   2   2   2   2
#     4  11  20  35  57  91 125 158 194 236 306 374
#     4  12  28  46  60  84 122 168 220 262 304 362
#     4  12  23  37  60  86 117 162 202 249 302 365
#     4  12  22  34  56  88 122 154 192 246 310 366
#     4  12  23  37  60  86 117 162 202 249 302 365
#     4  10  20  34  52  86 134 168 186 230 300 390
#     4  11  20  35  57  91 125 158 194 236 306 374
#
# _framework density 20.015315000000001
#
# number of rings (size 3 to 8) (size 9 to 14) (size 15 to 20)
#    0.000    0.571    4.286    6.857    2.000    0.000 
#    0.000    0.000    0.000    0.000    0.000   20.000 
#    0.000    0.000    0.000    0.000    0.000    0.000 
#
# Total GULP energy -78106.844877 kJ/mol
# GULP energy per Si atom -5579.060348 kJ/mol
# Density = 1.996976 g / cm^3
# Si number density = 20.015315 Si / 1000 Ang^3
#
#
#
# Elastic Constant Matrix: (Units=GPa)
#
#
# Indices 1 2 3 4 5 6 
#
# 1 43.8407 16.2385 15.5727 0.0000 -15.8355 0.0000
# 2 16.2385 106.4888 19.5188 0.0000 -7.2715 0.0000
# 3 15.5727 19.5188 82.6641 0.0000 -12.9949 0.0000
# 4 0.0000 0.0000 0.0000 42.7676 0.0000 -1.4678
# 5 -15.8355 -7.2715 -12.9949 0.0000 11.4249 0.0000
# 6 0.0000 0.0000 0.0000 -1.4678 0.0000 28.4991
#
#
#
# Elastic Compliance Matrix: (Units=1/GPa)
#
#
# Indices 1 2 3 4 5 6 
#
# 1 0.046787 -0.003071 0.002190 0.000000 0.065386 0.000000
# 2 -0.003071 0.010202 -0.001801 0.000000 0.000188 0.000000
# 3 0.002190 -0.001801 0.015108 0.000000 0.019074 0.000000
# 4 0.000000 0.000000 0.000000 0.023424 0.000000 0.001206
# 5 0.065386 0.000188 0.019074 0.000000 0.199971 0.000000
# 6 0.000000 0.000000 0.000000 0.001206 0.000000 0.035151
#
#
# Mechanical properties :
#
#
# Convention : Reuss Voigt Hill
#
# Bulk Modulus (GPa) = 14.98505 37.29483 26.13994
# Shear Modulus (GPa) = 13.95669 28.64922 21.30295
#
# Velocity S-wave (km/s) = 2.64351 3.78744 3.26595
# Velocity P-wave (km/s) = 4.10129 6.14816 5.22592
#
# Compressibility (1/GPa) = 0.06673317
#
# Stress axis : x y z
#
# Youngs Moduli (GPa) = 21.37340 98.02101 66.18920
#
# Poissons Ratio (x) = 0.30104 -0.14494
# Poissons Ratio (y) = 0.06564 0.11919
# Poissons Ratio (z) = -0.04680 0.17651
#
# Static dielectric constant tensor:
#      x y z
#    x 1.693300 0.000000 -0.017500 
#    y 0.000000 1.841580 0.000000 
#    z -0.017500 0.000000 1.791010 
# 
# From -- ./inp_files/13542.got.cif
#   From: 2010.05.17/outbox.cif.g08.bks.cpg/sg4_7_cif.got.tgz:13542.got - 2010.06.03 18:43:04.
