data_PCOD9115541
_publ_section_title
;
Structure prediction by ZEFSAII (Michael W. Deem and Ramdas Pophale) SiO2 
 PCOD9115541
Probable space group: P 21
;
_chemical_formula_sum "Si O2"
_cell_formula_units_Z 16
_cell_length_a 19.442377
_cell_length_b 9.008715
_cell_length_c 10.267672
_cell_angle_alpha 90.000000
_cell_angle_beta 158.851803
_cell_angle_gamma 90.000000
_cell_volume 648.826273
_symmetry_space_group_name_H-M "P 21"
_symmetry_group_IT_number 4
_symmetry_cell_setting 'monoclinic'
loop_
_space_group_symop_operation_xyz
x,y,z
-x,1/2+y,-z
loop_
_atom_site_type_symbol
_atom_site_label
_atom_site_fract_x
_atom_site_fract_y
_atom_site_fract_z
Si Si1 0.210996 0.878470 0.748774
Si Si2 0.543137 0.294268 0.464325
Si Si3 0.096096 0.664829 0.337395
Si Si4 0.253370 0.565427 0.355993
Si Si5 0.456101 0.607740 0.289647
Si Si6 0.844427 0.649026 0.500246
Si Si7 0.293110 0.240669 0.473966
Si Si8 0.047841 0.918247 0.721959
O O1 0.188994 0.803999 0.568867
O O2 0.047413 0.920384 0.564924
O O3 0.263176 0.042049 0.790370
O O4 0.306967 0.736743 0.989218
O O5 0.623425 0.199408 0.485495
O O6 0.401684 0.434715 0.201004
O O7 0.473018 0.173544 0.446805
O O8 0.733824 0.381386 0.851153
O O9 0.223493 0.579891 0.458262
O O10 0.016548 0.563514 0.313393
O O11 0.926438 0.726954 0.950975
O O12 0.347135 0.402003 0.510788
O O13 0.043963 0.577215 0.913219
O O14 0.598778 0.619375 0.420121
O O15 0.707515 0.704508 0.374965
O O16 0.920101 0.787925 0.553505
#
# Coordination Sequence:
#
# PCOD9115541 Si02
#       8
#     2   2   2   2   2   2   2   2
#     4  11  24  40  62  95 138 171 216 276 340 392
#     4  10  22  41  67  97 130 174 229 265 334 408
#     4  11  21  39  65  98 128 167 226 274 337 387
#     4  10  21  38  69  96 126 171 226 281 321 398
#     4  11  24  43  65  93 134 178 218 276 335 406
#     4  10  21  38  64  97 130 169 222 281 336 386
#     4  11  21  39  67  92 128 175 224 273 327 401
#     4  10  20  40  63  94 132 171 215 280 330 400
#
# _framework density 24.659915999999999
#
# number of rings (size 3 to 8) (size 9 to 14) (size 15 to 20)
#    0.000    1.500    3.750    1.500    1.750    0.000 
#    4.500    1.250    0.000    0.000    0.000    0.000 
#    0.000    0.000    0.000    0.000    0.000    0.000 
#
# Total GULP energy -89241.354365 kJ/mol
# GULP energy per Si atom -5577.584648 kJ/mol
# Density = 2.460379 g / cm^3
# Si number density = 24.659916 Si / 1000 Ang^3
#
#
#
# Elastic Constant Matrix: (Units=GPa)
#
#
# Indices 1 2 3 4 5 6 
#
# 1 79.3218 6.7142 1.8349 0.0000 -17.9272 0.0000
# 2 6.7142 88.4650 8.0507 0.0000 6.4097 0.0000
# 3 1.8349 8.0507 38.9268 0.0000 1.3786 0.0000
# 4 0.0000 0.0000 0.0000 32.4757 0.0000 1.1508
# 5 -17.9272 6.4097 1.3786 0.0000 18.6340 0.0000
# 6 0.0000 0.0000 0.0000 1.1508 0.0000 38.5498
#
#
#
# Elastic Compliance Matrix: (Units=1/GPa)
#
#
# Indices 1 2 3 4 5 6 
#
# 1 0.016655 -0.002409 -0.000886 0.000000 0.016917 0.000000
# 2 -0.002409 0.012143 -0.002174 0.000000 -0.006334 0.000000
# 3 -0.000886 -0.002174 0.026253 0.000000 -0.002047 0.000000
# 4 0.000000 0.000000 0.000000 0.030825 0.000000 -0.000920
# 5 0.016917 -0.006334 -0.002047 0.000000 0.072271 0.000000
# 6 0.000000 0.000000 0.000000 -0.000920 0.000000 0.025968
#
#
# Mechanical properties :
#
#
# Convention : Reuss Voigt Hill
#
# Bulk Modulus (GPa) = 22.66860 26.65702 24.66281
# Shear Modulus (GPa) = 23.83716 30.60616 27.22166
#
# Velocity S-wave (km/s) = 3.11245 3.52679 3.32608
# Velocity P-wave (km/s) = 4.70414 5.23619 4.97728
#
# Compressibility (1/GPa) = 0.04411389
#
# Stress axis : x y z
#
# Youngs Moduli (GPa) = 60.04329 82.34873 38.09086
#
# Poissons Ratio (x) = 0.19839 0.03374
# Poissons Ratio (y) = 0.14465 0.08279
# Poissons Ratio (z) = 0.05319 0.17899
#
# Static dielectric constant tensor:
#      x y z
#    x 1.928570 0.000000 0.027990 
#    y 0.000000 1.962580 0.000000 
#    z 0.027990 0.000000 2.150710 
# 
# From -- ./inp_files/5499.got.cif
#   From: 2010.05.17/outbox.cif.g08.bks.cpg/sg4_3_cif.got.tgz:5499.got - 2010.06.03 18:43:04.
