data_PCOD9115701
_publ_section_title
;
Structure prediction by ZEFSAII (Michael W. Deem and Ramdas Pophale) SiO2 
 PCOD9115701
Probable space group: P 21
;
_chemical_formula_sum "Si O2"
_cell_formula_units_Z 16
_cell_length_a 9.370889
_cell_length_b 13.736063
_cell_length_c 5.188356
_cell_angle_alpha 90.000000
_cell_angle_beta 64.155071
_cell_angle_gamma 90.000000
_cell_volume 601.041341
_symmetry_space_group_name_H-M "P 21"
_symmetry_group_IT_number 4
_symmetry_cell_setting 'monoclinic'
loop_
_space_group_symop_operation_xyz
x,y,z
-x,1/2+y,-z
loop_
_atom_site_type_symbol
_atom_site_label
_atom_site_fract_x
_atom_site_fract_y
_atom_site_fract_z
Si Si1 0.251373 0.960000 0.055881
Si Si2 0.525854 0.988056 0.440500
Si Si3 0.042310 0.595760 0.219253
Si Si4 0.346857 0.816419 0.367514
Si Si5 0.011247 0.886513 0.886635
Si Si6 0.632250 0.635632 0.774531
Si Si7 0.238465 0.218945 0.802228
Si Si8 0.227198 0.618950 0.573542
O O1 0.326489 0.859650 0.098746
O O2 0.248224 0.042266 0.276502
O O3 0.373290 0.000856 0.747040
O O4 0.078825 0.934549 0.093854
O O5 0.492524 0.880104 0.362566
O O6 0.511756 0.067315 0.218698
O O7 0.680601 0.016182 0.479499
O O8 0.165850 0.636181 0.909648
O O9 0.090243 0.629204 0.466901
O O10 0.053633 0.479267 0.212794
O O11 0.883714 0.635991 0.208965
O O12 0.174699 0.845335 0.631840
O O13 0.351100 0.701947 0.394123
O O14 0.876194 0.809125 0.048537
O O15 0.651932 0.716307 0.537158
O O16 0.670823 0.691630 0.008268
#
# Coordination Sequence:
#
# PCOD9115701 Si02
#       8
#     2   2   2   2   2   2   2   2
#     4  10  20  42  72  96 130 188 237 278 337 411
#     4  10  24  47  72  98 135 192 240 285 330 418
#     4  12  26  44  68 106 145 179 220 296 349 412
#     4  10  23  45  75 101 133 194 234 282 347 420
#     4  11  24  42  70 103 144 177 228 288 357 428
#     4  11  22  42  69  98 133 179 235 285 336 404
#     4  12  23  41  70 105 137 175 229 282 354 416
#     4  12  28  47  70 105 145 186 233 288 348 407
#
# _framework density 26.620463000000001
#
# number of rings (size 3 to 8) (size 9 to 14) (size 15 to 20)
#    0.000    1.000    3.750    3.000    8.750    0.000 
#    4.500    0.000    0.000    0.000    0.000    0.000 
#    0.000    0.000    0.000    0.000    0.000    0.000 
#
# Total GULP energy -89415.699074 kJ/mol
# GULP energy per Si atom -5588.481192 kJ/mol
# Density = 2.655987 g / cm^3
# Si number density = 26.620463 Si / 1000 Ang^3
#
#
#
# Elastic Constant Matrix: (Units=GPa)
#
#
# Indices 1 2 3 4 5 6 
#
# 1 111.1658 7.8262 43.5595 0.0000 22.1447 0.0000
# 2 7.8262 71.9337 10.6793 0.0000 7.3868 0.0000
# 3 43.5595 10.6793 80.3472 0.0000 40.8866 0.0000
# 4 0.0000 0.0000 0.0000 37.7700 0.0000 5.1478
# 5 22.1447 7.3868 40.8866 0.0000 36.9546 0.0000
# 6 0.0000 0.0000 0.0000 5.1478 0.0000 47.5602
#
#
#
# Elastic Compliance Matrix: (Units=1/GPa)
#
#
# Indices 1 2 3 4 5 6 
#
# 1 0.011430 -0.000332 -0.006181 0.000000 0.000055 0.000000
# 2 -0.000332 0.014239 -0.000836 0.000000 -0.001722 0.000000
# 3 -0.006181 -0.000836 0.031896 0.000000 -0.031419 0.000000
# 4 0.000000 0.000000 0.000000 0.026872 0.000000 -0.002909
# 5 0.000055 -0.001722 -0.031419 0.000000 0.062134 0.000000
# 6 0.000000 0.000000 0.000000 -0.002909 0.000000 0.021341
#
#
# Mechanical properties :
#
#
# Convention : Reuss Voigt Hill
#
# Bulk Modulus (GPa) = 23.32771 43.06405 33.19588
# Shear Modulus (GPa) = 25.39379 37.88241 31.63810
#
# Velocity S-wave (km/s) = 3.09191 3.77643 3.45119
# Velocity P-wave (km/s) = 4.63990 5.93527 5.32710
#
# Compressibility (1/GPa) = 0.04286747
#
# Stress axis : x y z
#
# Youngs Moduli (GPa) = 87.49128 70.23069 31.35145
#
# Poissons Ratio (x) = 0.02329 0.19377
# Poissons Ratio (y) = 0.02902 0.02623
# Poissons Ratio (z) = 0.54075 0.05875
#
# Static dielectric constant tensor:
#      x y z
#    x 2.096190 0.000000 -0.051200 
#    y 0.000000 2.111080 0.000000 
#    z -0.051200 0.000000 2.197650 
# 
# From -- ./inp_files/1932.got.cif
#   From: 2010.05.17/outbox.cif.g08.bks.cpg/sg4_1_cif.got.tgz:1932.got - 2010.06.03 18:43:04.
