data_PCOD9115244
_publ_section_title
;
Structure prediction by ZEFSAII (Michael W. Deem and Ramdas Pophale) SiO2 
 PCOD9115244
Probable space group: P 21
;
_chemical_formula_sum "Si O2"
_cell_formula_units_Z 14
_cell_length_a 6.384257
_cell_length_b 9.534165
_cell_length_c 9.527838
_cell_angle_alpha 90.000000
_cell_angle_beta 112.918860
_cell_angle_gamma 90.000000
_cell_volume 534.163272
_symmetry_space_group_name_H-M "P 21"
_symmetry_group_IT_number 4
_symmetry_cell_setting 'monoclinic'
loop_
_space_group_symop_operation_xyz
x,y,z
-x,1/2+y,-z
loop_
_atom_site_type_symbol
_atom_site_label
_atom_site_fract_x
_atom_site_fract_y
_atom_site_fract_z
Si Si1 0.828157 0.272010 0.096049
Si Si2 0.900888 0.246844 0.787327
Si Si3 0.734437 0.641680 0.748649
Si Si4 0.693466 0.572272 0.051693
Si Si5 0.090022 0.868585 0.491281
Si Si6 0.497728 0.893418 0.799791
Si Si7 0.734073 0.072978 0.511878
O O1 0.997627 0.158674 0.205558
O O2 0.859049 0.438435 0.135074
O O3 0.588707 0.267142 0.115347
O O4 0.835613 0.262732 0.930788
O O5 0.876416 0.374107 0.669401
O O6 0.758464 0.120291 0.679687
O O7 0.166989 0.204781 0.856892
O O8 0.688692 0.809199 0.768564
O O9 0.527177 0.594046 0.597929
O O10 0.697513 0.563294 0.886077
O O11 0.476157 0.522588 0.086236
O O12 0.303126 0.928067 0.634299
O O13 0.116990 0.700605 0.518599
O O14 0.857840 0.933903 0.489152
#
# Coordination Sequence:
#
# PCOD9115244 Si02
#       7
#     2   2   2   2   2   2   2
#     4   9  20  39  56  84 123 160 201 255 312 355
#     4   9  18  36  62  82 127 164 197 259 313 359
#     4  10  20  36  60  88 116 158 209 256 296 374
#     4   9  19  38  57  84 125 157 201 257 303 366
#     4   9  17  35  62  89 121 166 194 255 311 360
#     4   9  18  38  61  82 121 158 201 249 317 355
#     4   9  18  34  62  87 123 159 205 247 308 365
#
# _framework density 26.209213999999999
#
# number of rings (size 3 to 8) (size 9 to 14) (size 15 to 20)
#    1.714    1.143    1.429    0.000    0.000    2.286 
#   15.429    2.857    0.000    0.000    0.000    0.000 
#    0.000    0.000    0.000    0.000    0.000    0.000 
#
# Total GULP energy -77962.247951 kJ/mol
# GULP energy per Si atom -5568.731996 kJ/mol
# Density = 2.614956 g / cm^3
# Si number density = 26.209214 Si / 1000 Ang^3
#
#
#
# Elastic Constant Matrix: (Units=GPa)
#
#
# Indices 1 2 3 4 5 6 
#
# 1 64.4909 20.7444 20.6957 0.0000 -11.6423 0.0000
# 2 20.7444 48.5851 9.9831 0.0000 -15.8258 0.0000
# 3 20.6957 9.9831 117.3147 0.0000 -8.8890 0.0000
# 4 0.0000 0.0000 0.0000 34.2411 0.0000 -1.9979
# 5 -11.6423 -15.8258 -8.8890 0.0000 33.8509 0.0000
# 6 0.0000 0.0000 0.0000 -1.9979 0.0000 44.7047
#
#
#
# Elastic Compliance Matrix: (Units=1/GPa)
#
#
# Indices 1 2 3 4 5 6 
#
# 1 0.018974 -0.006685 -0.002572 0.000000 0.002725 0.000000
# 2 -0.006685 0.026811 -0.000333 0.000000 0.010148 0.000000
# 3 -0.002572 -0.000333 0.009109 0.000000 0.001351 0.000000
# 4 0.000000 0.000000 0.000000 0.029281 0.000000 0.001309
# 5 0.002725 0.010148 0.001351 0.000000 0.035577 0.000000
# 6 0.000000 0.000000 0.000000 0.001309 0.000000 0.022427
#
#
# Mechanical properties :
#
#
# Convention : Reuss Voigt Hill
#
# Bulk Modulus (GPa) = 28.00150 37.02633 32.51392
# Shear Modulus (GPa) = 28.85778 34.49054 31.67416
#
# Velocity S-wave (km/s) = 3.32181 3.63157 3.48014
# Velocity P-wave (km/s) = 5.04179 5.63403 5.34611
#
# Compressibility (1/GPa) = 0.03571237
#
# Stress axis : x y z
#
# Youngs Moduli (GPa) = 52.70468 37.29852 109.78701
#
# Poissons Ratio (x) = 0.24935 0.28235
# Poissons Ratio (y) = 0.35234 0.03659
# Poissons Ratio (z) = 0.13555 0.01243
#
# Static dielectric constant tensor:
#      x y z
#    x 2.204750 0.000000 -0.032470 
#    y 0.000000 2.260420 0.000000 
#    z -0.032470 0.000000 2.082750 
# 
# From -- ./inp_files/11268.got.cif
#   From: 2010.05.17/outbox.cif.g08.bks.cpg/sg4_6_cif.got.tgz:11268.got - 2010.06.03 18:43:04.
