data_PCOD9115489
_publ_section_title
;
Structure prediction by ZEFSAII (Michael W. Deem and Ramdas Pophale) SiO2 
 PCOD9115489
Probable space group: P 21
;
_chemical_formula_sum "Si O2"
_cell_formula_units_Z 14
_cell_length_a 14.220406
_cell_length_b 7.587300
_cell_length_c 5.231214
_cell_angle_alpha 90.000000
_cell_angle_beta 69.131328
_cell_angle_gamma 90.000000
_cell_volume 527.392908
_symmetry_space_group_name_H-M "P 21"
_symmetry_group_IT_number 4
_symmetry_cell_setting 'monoclinic'
loop_
_space_group_symop_operation_xyz
x,y,z
-x,1/2+y,-z
loop_
_atom_site_type_symbol
_atom_site_label
_atom_site_fract_x
_atom_site_fract_y
_atom_site_fract_z
Si Si1 0.647429 0.383070 0.213100
Si Si2 0.457345 0.212535 0.842549
Si Si3 0.356178 0.978599 0.288899
Si Si4 0.085067 0.110036 0.254656
Si Si5 0.986482 0.788518 0.199375
Si Si6 0.311715 0.496677 0.744723
Si Si7 0.798882 0.915209 0.661455
O O1 0.551115 0.515992 0.273296
O O2 0.704679 0.469233 0.394530
O O3 0.556579 0.327893 0.769518
O O4 0.702479 0.408315 0.895458
O O5 0.587572 0.658436 0.836212
O O6 0.377595 0.334549 0.778119
O O7 0.629656 0.179614 0.275460
O O8 0.021510 0.133445 0.582006
O O9 0.186156 0.213874 0.247888
O O10 0.039059 0.223238 0.059960
O O11 0.082521 0.911635 0.152378
O O12 0.898621 0.921260 0.388001
O O13 0.281257 0.469214 0.479026
O O14 0.223460 0.510813 0.047751
#
# Coordination Sequence:
#
# PCOD9115489 Si02
#       7
#     2   2   2   2   2   2   2
#     4  10  25  40  62  94 121 172 210 272 316 386
#     4  10  26  39  67  92 126 168 217 272 323 381
#     4  10  23  42  63  92 125 154 230 270 320 353
#     4  10  20  39  65  93 124 162 208 261 304 371
#     4  10  20  39  66  94 125 160 211 255 311 367
#     4  12  23  42  65  86 138 169 210 254 334 389
#     4  10  23  41  64  91 129 173 198 256 320 389
#
# _framework density 26.545674000000002
#
# number of rings (size 3 to 8) (size 9 to 14) (size 15 to 20)
#    1.714    0.000    1.429    2.571    6.000    0.000 
#    0.000    4.286    0.000    0.000    0.000    0.000 
#    0.000    0.000    0.000    0.000    0.000    0.000 
#
# Total GULP energy -77975.883017 kJ/mol
# GULP energy per Si atom -5569.705930 kJ/mol
# Density = 2.648525 g / cm^3
# Si number density = 26.545674 Si / 1000 Ang^3
#
#
#
# Elastic Constant Matrix: (Units=GPa)
#
#
# Indices 1 2 3 4 5 6 
#
# 1 67.7309 29.1714 17.0649 0.0000 13.7882 0.0000
# 2 29.1714 129.8395 7.7935 0.0000 11.4369 0.0000
# 3 17.0649 7.7935 164.4936 0.0000 44.9755 0.0000
# 4 0.0000 0.0000 0.0000 33.5048 0.0000 8.2465
# 5 13.7882 11.4369 44.9755 0.0000 41.8085 0.0000
# 6 0.0000 0.0000 0.0000 8.2465 0.0000 25.1086
#
#
#
# Elastic Compliance Matrix: (Units=1/GPa)
#
#
# Indices 1 2 3 4 5 6 
#
# 1 0.017239 -0.003472 -0.000466 0.000000 -0.004234 0.000000
# 2 -0.003472 0.008602 0.000401 0.000000 -0.001639 0.000000
# 3 -0.000466 0.000401 0.008637 0.000000 -0.009247 0.000000
# 4 0.000000 0.000000 0.000000 0.032471 0.000000 -0.010665
# 5 -0.004234 -0.001639 -0.009247 0.000000 0.035711 0.000000
# 6 0.000000 0.000000 0.000000 -0.010665 0.000000 0.043330
#
#
# Mechanical properties :
#
#
# Convention : Reuss Voigt Hill
#
# Bulk Modulus (GPa) = 36.49224 52.23594 44.36409
# Shear Modulus (GPa) = 30.82616 40.62000 35.72308
#
# Velocity S-wave (km/s) = 3.41141 3.91601 3.67239
# Velocity P-wave (km/s) = 5.41237 6.33777 5.89326
#
# Compressibility (1/GPa) = 0.02740308
#
# Stress axis : x y z
#
# Youngs Moduli (GPa) = 58.00737 116.24837 115.78150
#
# Poissons Ratio (x) = 0.40364 0.05399
# Poissons Ratio (y) = 0.20142 -0.04641
# Poissons Ratio (z) = 0.02705 -0.04660
#
# Static dielectric constant tensor:
#      x y z
#    x 2.176060 0.000000 -0.008550 
#    y 0.000000 2.076250 0.000000 
#    z -0.008550 0.000000 2.243440 
# 
# From -- ./inp_files/3534.got.cif
#   From: 2010.05.17/outbox.cif.g08.bks.cpg/sg4_2_cif.got.tgz:3534.got - 2010.06.03 18:43:04.
