data_PCOD9115036
_publ_section_title
;
Structure prediction by ZEFSAII (Michael W. Deem and Ramdas Pophale) SiO2 
 PCOD9115036
Probable space group: P 21
;
_chemical_formula_sum "Si O2"
_cell_formula_units_Z 16
_cell_length_a 10.919070
_cell_length_b 10.742860
_cell_length_c 12.959443
_cell_angle_alpha 90.000000
_cell_angle_beta 24.423918
_cell_angle_gamma 90.000000
_cell_volume 628.566449
_symmetry_space_group_name_H-M "P 21"
_symmetry_group_IT_number 4
_symmetry_cell_setting 'monoclinic'
loop_
_space_group_symop_operation_xyz
x,y,z
-x,1/2+y,-z
loop_
_atom_site_type_symbol
_atom_site_label
_atom_site_fract_x
_atom_site_fract_y
_atom_site_fract_z
Si Si1 0.388281 0.823780 0.960803
Si Si2 0.442376 0.484093 0.329636
Si Si3 0.918680 0.583771 0.102421
Si Si4 0.519365 0.576681 0.752139
Si Si5 0.309238 0.933350 0.554114
Si Si6 0.040366 0.707899 0.645913
Si Si7 0.590420 0.318234 0.820117
Si Si8 0.760231 0.824665 0.337765
O O1 0.306687 0.838391 0.141913
O O2 0.095685 0.834030 0.115991
O O3 0.578448 0.937854 0.771237
O O4 0.538485 0.691735 0.815411
O O5 0.739187 0.560966 0.134621
O O6 0.162789 0.570753 0.568395
O O7 0.416686 0.363533 0.423648
O O8 0.874854 0.460137 0.203546
O O9 0.732384 0.689654 0.307585
O O10 0.255194 0.612479 0.874536
O O11 0.761589 0.533888 0.481028
O O12 0.494405 0.448468 0.838221
O O13 0.224014 0.800677 0.577118
O O14 0.645037 0.920955 0.339198
O O15 0.159113 0.752849 0.442001
O O16 0.702461 0.733806 0.935920
#
# Coordination Sequence:
#
# PCOD9115036 Si02
#       8
#     2   2   2   2   2   2   2   2
#     4  11  26  43  64 104 132 192 235 301 349 425
#     4  11  24  40  68 101 144 179 241 301 362 427
#     4  10  19  39  65  97 136 178 227 296 350 432
#     4  10  22  42  67  93 137 181 238 286 356 424
#     4  10  19  40  64  96 129 177 227 284 354 417
#     4  11  25  47  72 100 136 188 234 291 354 420
#     4  11  27  48  73 100 140 193 239 289 351 430
#     4  10  22  39  65 101 138 180 233 290 366 419
#
# _framework density 25.454747000000001
#
# number of rings (size 3 to 8) (size 9 to 14) (size 15 to 20)
#    0.000    1.500    2.500    1.500    5.250    0.000 
#    2.250    0.000    0.000    0.000    0.000    0.000 
#    0.000    0.000    0.000    0.000    0.000    0.000 
#
# Total GULP energy -89302.549908 kJ/mol
# GULP energy per Si atom -5581.409369 kJ/mol
# Density = 2.539681 g / cm^3
# Si number density = 25.454747 Si / 1000 Ang^3
#
#
#
# Elastic Constant Matrix: (Units=GPa)
#
#
# Indices 1 2 3 4 5 6 
#
# 1 82.7700 29.5890 16.6765 0.0000 12.6369 0.0000
# 2 29.5890 86.6615 17.6393 0.0000 8.1483 0.0000
# 3 16.6765 17.6393 64.7108 0.0000 3.5415 0.0000
# 4 0.0000 0.0000 0.0000 32.0091 0.0000 4.1737
# 5 12.6369 8.1483 3.5415 0.0000 41.5434 0.0000
# 6 0.0000 0.0000 0.0000 4.1737 0.0000 28.7917
#
#
#
# Elastic Compliance Matrix: (Units=1/GPa)
#
#
# Indices 1 2 3 4 5 6 
#
# 1 0.014581 -0.004162 -0.002437 0.000000 -0.003411 0.000000
# 2 -0.004162 0.013594 -0.002568 0.000000 -0.001181 0.000000
# 3 -0.002437 -0.002568 0.016792 0.000000 -0.000187 0.000000
# 4 0.000000 0.000000 0.000000 0.031843 0.000000 -0.004616
# 5 -0.003411 -0.001181 -0.000187 0.000000 0.025357 0.000000
# 6 0.000000 0.000000 0.000000 -0.004616 0.000000 0.035401
#
#
# Mechanical properties :
#
#
# Convention : Reuss Voigt Hill
#
# Bulk Modulus (GPa) = 37.54688 40.21688 38.88188
# Shear Modulus (GPa) = 30.34371 31.81801 31.08086
#
# Velocity S-wave (km/s) = 3.45637 3.53935 3.49811
# Velocity P-wave (km/s) = 5.54177 5.70406 5.62350
#
# Compressibility (1/GPa) = 0.02663337
#
# Stress axis : x y z
#
# Youngs Moduli (GPa) = 68.58146 73.56204 59.55360
#
# Poissons Ratio (x) = 0.30615 0.14511
# Poissons Ratio (y) = 0.28542 0.15295
# Poissons Ratio (z) = 0.16710 0.18893
#
# Static dielectric constant tensor:
#      x y z
#    x 2.028660 0.000000 -0.000920 
#    y 0.000000 2.033890 0.000000 
#    z -0.000920 0.000000 2.143600 
# 
# From -- ./inp_files/13933.got.cif
#   From: 2010.05.17/outbox.cif.g08.bks.cpg/sg4_7_cif.got.tgz:13933.got - 2010.06.03 18:43:04.
