data_PCOD9115289
_publ_section_title
;
Structure prediction by ZEFSAII (Michael W. Deem and Ramdas Pophale) SiO2 
 PCOD9115289
Probable space group: P 21
;
_chemical_formula_sum "Si O2"
_cell_formula_units_Z 16
_cell_length_a 30.144344
_cell_length_b 5.196591
_cell_length_c 17.369351
_cell_angle_alpha 90.000000
_cell_angle_beta 15.620753
_cell_angle_gamma 90.000000
_cell_volume 732.645334
_symmetry_space_group_name_H-M "P 21"
_symmetry_group_IT_number 4
_symmetry_cell_setting 'monoclinic'
loop_
_space_group_symop_operation_xyz
x,y,z
-x,1/2+y,-z
loop_
_atom_site_type_symbol
_atom_site_label
_atom_site_fract_x
_atom_site_fract_y
_atom_site_fract_z
Si Si1 0.654161 0.351350 0.166176
Si Si2 0.508700 0.201337 0.251198
Si Si3 0.807831 0.524703 0.138882
Si Si4 0.303286 0.230179 0.349817
Si Si5 0.281697 0.586003 0.527719
Si Si6 0.714421 0.839590 0.145550
Si Si7 0.560611 0.972420 0.015211
Si Si8 0.035859 0.524011 0.062342
O O1 0.621377 0.298782 0.131748
O O2 0.724377 0.634780 0.060297
O O3 0.472189 0.361044 0.509588
O O4 0.749061 0.123144 0.053403
O O5 0.376418 0.015279 0.516273
O O6 0.393361 0.410188 0.399415
O O7 0.618514 0.093665 0.997695
O O8 0.802593 0.682397 0.067360
O O9 0.884632 0.239069 0.012139
O O10 0.906129 0.731510 0.025597
O O11 0.253442 0.446402 0.494369
O O12 0.486182 0.159875 0.074197
O O13 0.158341 0.027913 0.602722
O O14 0.315557 0.301284 0.240060
O O15 0.396676 0.826572 0.317875
O O16 0.110986 0.628663 0.856692
#
# Coordination Sequence:
#
# PCOD9115289 Si02
#       8
#     2   2   2   2   2   2   2   2
#     4   9  17  28  50  82 113 148 185 223 286 353
#     4   9  20  33  55  82 115 154 190 234 293 344
#     4  10  20  37  55  85 120 152 188 240 294 343
#     4  11  25  37  60  83 114 158 202 240 292 347
#     4  10  22  37  56  79 118 151 189 244 291 336
#     4   9  17  29  50  79 118 148 176 232 290 343
#     4  11  21  40  54  81 116 153 190 245 290 336
#     4  11  24  37  60  85 114 156 198 238 286 350
#
# _framework density 21.838668999999999
#
# number of rings (size 3 to 8) (size 9 to 14) (size 15 to 20)
#    0.000    2.000    2.500    0.750    5.250    3.000 
#    0.000    0.000    0.000    0.000    0.000    3.500 
#    0.000    0.000    0.000    0.000    0.000    0.000 
#
# Total GULP energy -89182.613923 kJ/mol
# GULP energy per Si atom -5573.913370 kJ/mol
# Density = 2.178896 g / cm^3
# Si number density = 21.838669 Si / 1000 Ang^3
#
#
#
# Elastic Constant Matrix: (Units=GPa)
#
#
# Indices 1 2 3 4 5 6 
#
# 1 74.0137 -7.1629 16.9251 0.0000 27.5155 0.0000
# 2 -7.1629 51.0838 -5.9690 0.0000 1.9657 0.0000
# 3 16.9251 -5.9690 54.6618 0.0000 21.9070 0.0000
# 4 0.0000 0.0000 0.0000 22.7959 0.0000 2.8251
# 5 27.5155 1.9657 21.9070 0.0000 23.5579 0.0000
# 6 0.0000 0.0000 0.0000 2.8251 0.0000 26.4858
#
#
#
# Elastic Compliance Matrix: (Units=1/GPa)
#
#
# Indices 1 2 3 4 5 6 
#
# 1 0.027005 0.006280 0.008250 0.000000 -0.039737 0.000000
# 2 0.006280 0.021807 0.006545 0.000000 -0.015240 0.000000
# 3 0.008250 0.006545 0.032735 0.000000 -0.040623 0.000000
# 4 0.000000 0.000000 0.000000 0.044455 0.000000 -0.004742
# 5 -0.039737 -0.015240 -0.040623 0.000000 0.127909 0.000000
# 6 0.000000 0.000000 0.000000 -0.004742 0.000000 0.038262
#
#
# Mechanical properties :
#
#
# Convention : Reuss Voigt Hill
#
# Bulk Modulus (GPa) = 8.08432 20.81621 14.45027
# Shear Modulus (GPa) = 17.16695 26.29900 21.73297
#
# Velocity S-wave (km/s) = 2.80675 3.47398 3.15804
# Velocity P-wave (km/s) = 3.77011 5.06398 4.46417
#
# Compressibility (1/GPa) = 0.12369619
#
# Stress axis : x y z
#
# Youngs Moduli (GPa) = 37.03016 45.85600 30.54814
#
# Poissons Ratio (x) = -0.28796 -0.25201
# Poissons Ratio (y) = -0.23254 -0.19994
# Poissons Ratio (z) = -0.30549 -0.30012
#
# Static dielectric constant tensor:
#      x y z
#    x 1.910440 0.000000 -0.019590 
#    y 0.000000 1.892300 0.000000 
#    z -0.019590 0.000000 1.784430 
# 
# From -- ./inp_files/10020.got.cif
#   From: 2010.05.17/outbox.cif.g08.bks.cpg/sg4_6_cif.got.tgz:10020.got - 2010.06.03 18:43:04.
