data_PCOD9115160
_publ_section_title
;
Structure prediction by ZEFSAII (Michael W. Deem and Ramdas Pophale) SiO2 
 PCOD9115160
Probable space group: P 21
;
_chemical_formula_sum "Si O2"
_cell_formula_units_Z 14
_cell_length_a 10.058633
_cell_length_b 9.177905
_cell_length_c 14.871791
_cell_angle_alpha 90.000000
_cell_angle_beta 23.318935
_cell_angle_gamma 90.000000
_cell_volume 543.469723
_symmetry_space_group_name_H-M "P 21"
_symmetry_group_IT_number 4
_symmetry_cell_setting 'monoclinic'
loop_
_space_group_symop_operation_xyz
x,y,z
-x,1/2+y,-z
loop_
_atom_site_type_symbol
_atom_site_label
_atom_site_fract_x
_atom_site_fract_y
_atom_site_fract_z
Si Si1 0.426935 0.298940 0.381006
Si Si2 0.174456 0.024742 0.553811
Si Si3 0.119522 0.039764 0.166540
Si Si4 0.523656 0.608595 0.309692
Si Si5 0.570024 0.231667 0.980183
Si Si6 0.002115 0.280851 0.471037
Si Si7 0.316752 0.346872 0.661327
O O1 0.485835 0.127964 0.330934
O O2 0.639001 0.441673 0.226957
O O3 0.111038 0.307928 0.505858
O O4 0.371580 0.300186 0.523705
O O5 0.879598 0.119043 0.782666
O O6 0.331856 0.912035 0.524644
O O7 0.045323 0.936125 0.548518
O O8 0.794023 0.079581 0.426812
O O9 0.318954 0.899876 0.082969
O O10 0.346966 0.181785 0.033869
O O11 0.962754 0.972884 0.174116
O O12 0.756174 0.717907 0.222623
O O13 0.332786 0.688141 0.345379
O O14 0.324006 0.211050 0.219020
#
# Coordination Sequence:
#
# PCOD9115160 Si02
#       7
#     2   2   2   2   2   2   2
#     4  11  19  34  59  89 116 149 194 249 291 336
#     4  11  21  38  61  86 113 159 200 240 283 358
#     4  10  20  34  58  87 114 149 199 242 281 341
#     4   9  19  35  57  86 115 153 200 236 282 353
#     4  11  20  37  57  87 117 155 194 239 292 353
#     4  10  22  35  56  88 124 146 191 252 298 339
#     4  10  21  37  62  87 113 155 206 238 281 356
#
# _framework density 25.760404000000001
#
# number of rings (size 3 to 8) (size 9 to 14) (size 15 to 20)
#    0.000    1.714    4.286    2.571    0.000    0.000 
#    0.000    0.000    6.286    0.000    0.000    0.000 
#    0.000    0.000    0.000    0.000    0.000    0.000 
#
# Total GULP energy -78003.776341 kJ/mol
# GULP energy per Si atom -5571.698310 kJ/mol
# Density = 2.570177 g / cm^3
# Si number density = 25.760404 Si / 1000 Ang^3
#
#
#
# Elastic Constant Matrix: (Units=GPa)
#
#
# Indices 1 2 3 4 5 6 
#
# 1 180.1501 46.6023 25.7364 0.0000 -0.6292 0.0000
# 2 46.6023 98.9699 9.9345 0.0000 -26.5947 0.0000
# 3 25.7364 9.9345 58.8203 0.0000 14.4326 0.0000
# 4 0.0000 0.0000 0.0000 93.6987 0.0000 -120.8157
# 5 -0.6292 -26.5947 14.4326 0.0000 31.1442 0.0000
# 6 0.0000 0.0000 0.0000 -120.8157 0.0000 201.1811
#
#
#
# Elastic Compliance Matrix: (Units=1/GPa)
#
#
# Indices 1 2 3 4 5 6 
#
# 1 0.006719 -0.003518 -0.001852 0.000000 -0.002010 0.000000
# 2 -0.003518 0.016822 -0.005426 0.000000 0.016808 0.000000
# 3 -0.001852 -0.005426 0.022424 0.000000 -0.015062 0.000000
# 4 0.000000 0.000000 0.000000 0.047292 0.000000 0.028401
# 5 -0.002010 0.016808 -0.015062 0.000000 0.053401 0.000000
# 6 0.000000 0.000000 0.000000 0.028401 0.000000 0.022026
#
#
# Mechanical properties :
#
#
# Convention : Reuss Voigt Hill
#
# Bulk Modulus (GPa) = 41.03149 55.83186 48.43168
# Shear Modulus (GPa) = 25.20175 82.24929 53.72552
#
# Velocity S-wave (km/s) = 3.13119 5.65667 4.57178
# Velocity P-wave (km/s) = 5.38843 8.02399 6.83446
#
# Compressibility (1/GPa) = 0.02437153
#
# Stress axis : x y z
#
# Youngs Moduli (GPa) = 148.84255 59.44735 44.59577
#
# Poissons Ratio (x) = 0.20911 0.08261
# Poissons Ratio (y) = 0.52357 0.24198
# Poissons Ratio (z) = 0.27572 0.32256
#
# Static dielectric constant tensor:
#      x y z
#    x 1.755090 0.000000 0.043010 
#    y 0.000000 2.125560 0.000000 
#    z 0.043010 0.000000 2.095940 
# 
# From -- ./inp_files/13636.got.cif
#   From: 2010.05.17/outbox.cif.g08.bks.cpg/sg4_7_cif.got.tgz:13636.got - 2010.06.03 18:43:04.
