data_PCOD9115789
_publ_section_title
;
Structure prediction by ZEFSAII (Michael W. Deem and Ramdas Pophale) SiO2 
 PCOD9115789
Probable space group: P 21
;
_chemical_formula_sum "Si O2"
_cell_formula_units_Z 16
_cell_length_a 18.027750
_cell_length_b 8.235611
_cell_length_c 5.351880
_cell_angle_alpha 90.000000
_cell_angle_beta 66.076059
_cell_angle_gamma 90.000000
_cell_volume 726.323516
_symmetry_space_group_name_H-M "P 21"
_symmetry_group_IT_number 4
_symmetry_cell_setting 'monoclinic'
loop_
_space_group_symop_operation_xyz
x,y,z
-x,1/2+y,-z
loop_
_atom_site_type_symbol
_atom_site_label
_atom_site_fract_x
_atom_site_fract_y
_atom_site_fract_z
Si Si1 0.349142 0.434020 0.044136
Si Si2 0.073569 0.935285 0.661493
Si Si3 0.617630 0.242357 0.708701
Si Si4 0.951621 0.645079 0.806658
Si Si5 0.228718 0.227399 0.923852
Si Si6 0.453061 0.257139 0.227890
Si Si7 0.745567 0.520523 0.613694
Si Si8 0.480081 0.954768 0.480525
O O1 0.334209 0.584643 0.253618
O O2 0.281296 0.385139 0.935189
O O3 0.372069 0.280602 0.185639
O O4 0.436186 0.452480 0.790362
O O5 0.027056 0.765983 0.707643
O O6 0.052173 0.043181 0.445691
O O7 0.170900 0.917711 0.533264
O O8 0.048729 0.028208 0.950706
O O9 0.669546 0.398811 0.719070
O O10 0.584404 0.308379 0.483296
O O11 0.530681 0.220859 0.956818
O O12 0.868322 0.750577 0.939692
O O13 0.245864 0.103538 0.127880
O O14 0.249822 0.142182 0.632170
O O15 0.482766 0.427227 0.301669
O O16 0.441243 0.125435 0.461264
#
# Coordination Sequence:
#
# PCOD9115789 Si02
#       8
#     2   2   2   2   2   2   2   2
#     4  10  22  38  56  85 120 156 212 259 310 364
#     4  10  21  40  66  96 128 163 207 250 307 373
#     4  10  22  38  55  87 118 158 210 261 308 366
#     4  10  21  40  66  96 128 163 207 250 307 373
#     4  10  23  41  62  90 124 164 204 247 309 369
#     4  10  21  37  57  83 116 159 211 258 314 364
#     4  10  23  41  62  91 123 165 202 249 307 371
#     4  10  21  35  58  82 115 162 209 262 310 368
#
# _framework density 22.028752000000001
#
# number of rings (size 3 to 8) (size 9 to 14) (size 15 to 20)
#    0.000    2.000    0.000    2.250    5.250    3.000 
#    0.000    0.000    0.000    0.000    0.000    0.000 
#    0.000    0.000    0.000    0.000    0.000    0.000 
#
# Total GULP energy -89179.852350 kJ/mol
# GULP energy per Si atom -5573.740772 kJ/mol
# Density = 2.197861 g / cm^3
# Si number density = 22.028752 Si / 1000 Ang^3
#
#
#
# Elastic Constant Matrix: (Units=GPa)
#
#
# Indices 1 2 3 4 5 6 
#
# 1 56.1527 7.8775 13.6650 0.0000 15.2714 0.0000
# 2 7.8775 54.1294 13.0533 0.0000 5.1311 0.0000
# 3 13.6650 13.0533 69.5194 0.0000 19.1592 0.0000
# 4 0.0000 0.0000 0.0000 25.3791 0.0000 1.5866
# 5 15.2714 5.1311 19.1592 0.0000 32.2704 0.0000
# 6 0.0000 0.0000 0.0000 1.5866 0.0000 47.9686
#
#
#
# Elastic Compliance Matrix: (Units=1/GPa)
#
#
# Indices 1 2 3 4 5 6 
#
# 1 0.020772 -0.001875 -0.001320 0.000000 -0.008748 0.000000
# 2 -0.001875 0.019552 -0.003217 0.000000 -0.000312 0.000000
# 3 -0.001320 -0.003217 0.017857 0.000000 -0.009465 0.000000
# 4 0.000000 0.000000 0.000000 0.039484 0.000000 -0.001306
# 5 -0.008748 -0.000312 -0.009465 0.000000 0.040797 0.000000
# 6 0.000000 0.000000 0.000000 -0.001306 0.000000 0.020890
#
#
# Mechanical properties :
#
#
# Convention : Reuss Voigt Hill
#
# Bulk Modulus (GPa) = 22.04740 27.66593 24.85667
# Shear Modulus (GPa) = 26.69572 30.80399 28.74986
#
# Velocity S-wave (km/s) = 3.48495 3.74351 3.61654
# Velocity P-wave (km/s) = 5.12088 5.59209 5.36166
#
# Compressibility (1/GPa) = 0.04535681
#
# Stress axis : x y z
#
# Youngs Moduli (GPa) = 48.14154 51.14456 56.00179
#
# Poissons Ratio (x) = 0.09592 0.07392
# Poissons Ratio (y) = 0.09029 0.18014
# Poissons Ratio (z) = 0.06354 0.16452
#
# Static dielectric constant tensor:
#      x y z
#    x 1.812980 0.000000 0.021760 
#    y 0.000000 1.883420 0.000000 
#    z 0.021760 0.000000 1.877310 
# 
# From -- ./inp_files/3471.got.cif
#   From: 2010.05.17/outbox.cif.g08.bks.cpg/sg4_2_cif.got.tgz:3471.got - 2010.06.03 18:43:04.
