data_PCOD9115217
_publ_section_title
;
Structure prediction by ZEFSAII (Michael W. Deem and Ramdas Pophale) SiO2 
 PCOD9115217
Probable space group: P 21
;
_chemical_formula_sum "Si O2"
_cell_formula_units_Z 16
_cell_length_a 17.989601
_cell_length_b 5.516559
_cell_length_c 8.442145
_cell_angle_alpha 90.000000
_cell_angle_beta 59.139615
_cell_angle_gamma 90.000000
_cell_volume 719.187808
_symmetry_space_group_name_H-M "P 21"
_symmetry_group_IT_number 4
_symmetry_cell_setting 'monoclinic'
loop_
_space_group_symop_operation_xyz
x,y,z
-x,1/2+y,-z
loop_
_atom_site_type_symbol
_atom_site_label
_atom_site_fract_x
_atom_site_fract_y
_atom_site_fract_z
Si Si1 0.056835 0.758660 0.937962
Si Si2 0.636186 0.984950 0.126239
Si Si3 0.083944 0.896626 0.249964
Si Si4 0.456311 0.364735 0.503840
Si Si5 0.216885 0.235832 0.243966
Si Si6 0.640407 0.379976 0.881054
Si Si7 0.514106 0.132186 0.828547
Si Si8 0.891551 0.089578 0.455114
O O1 0.109237 0.723873 0.714539
O O2 0.997946 0.512202 0.017553
O O3 0.107129 0.785135 0.052094
O O4 0.633854 0.945508 0.316383
O O5 0.545290 0.844370 0.185356
O O6 0.641025 0.256668 0.054152
O O7 0.713907 0.857828 0.949113
O O8 0.136235 0.143556 0.227537
O O9 0.981775 0.942121 0.352716
O O10 0.101797 0.745420 0.390041
O O11 0.479586 0.086104 0.510202
O O12 0.464715 0.412659 0.310622
O O13 0.270616 0.007486 0.250304
O O14 0.185294 0.405453 0.419755
O O15 0.608278 0.183946 0.794089
O O16 0.555960 0.549257 0.966712
#
# Coordination Sequence:
#
# PCOD9115217 Si02
#       8
#     2   2   2   2   2   2   2   2
#     4  10  24  42  76 115 140 179 252 307 353 442
#     4  10  21  39  63  95 137 171 228 292 345 419
#     4  11  22  43  76 102 141 192 240 295 370 437
#     4  10  20  37  66  97 124 172 227 278 336 418
#     4  11  25  40  70 102 141 187 239 297 371 421
#     4  11  20  39  64  96 133 175 229 294 346 424
#     4  10  20  35  68  93 124 177 229 273 350 422
#     4  11  22  43  75 104 140 191 240 300 361 447
#
# _framework density 22.247320999999999
#
# number of rings (size 3 to 8) (size 9 to 14) (size 15 to 20)
#    0.000    1.500    3.750    1.500    3.500    0.000 
#    0.000    0.000   16.500    0.000    0.000    0.000 
#    0.000    0.000    0.000    0.000    0.000    0.000 
#
# Total GULP energy -89079.653595 kJ/mol
# GULP energy per Si atom -5567.478350 kJ/mol
# Density = 2.219669 g / cm^3
# Si number density = 22.247321 Si / 1000 Ang^3
#
#
#
# Elastic Constant Matrix: (Units=GPa)
#
#
# Indices 1 2 3 4 5 6 
#
# 1 31.9040 12.2128 41.8597 0.0000 3.9154 0.0000
# 2 12.2128 71.5518 38.6984 0.0000 7.0034 0.0000
# 3 41.8597 38.6984 124.1336 0.0000 17.2435 0.0000
# 4 0.0000 0.0000 0.0000 44.8199 0.0000 -4.1107
# 5 3.9154 7.0034 17.2435 0.0000 38.5050 0.0000
# 6 0.0000 0.0000 0.0000 -4.1107 0.0000 26.2254
#
#
#
# Elastic Compliance Matrix: (Units=1/GPa)
#
#
# Indices 1 2 3 4 5 6 
#
# 1 0.056565 0.000715 -0.019706 0.000000 0.002943 0.000000
# 2 0.000715 0.016840 -0.005391 0.000000 -0.000722 0.000000
# 3 -0.019706 -0.005391 0.017026 0.000000 -0.004640 0.000000
# 4 0.000000 0.000000 0.000000 0.022637 0.000000 0.003548
# 5 0.002943 -0.000722 -0.004640 0.000000 0.027881 0.000000
# 6 0.000000 0.000000 0.000000 0.003548 0.000000 0.038687
#
#
# Mechanical properties :
#
#
# Convention : Reuss Voigt Hill
#
# Bulk Modulus (GPa) = 23.99962 45.90348 34.95155
# Shear Modulus (GPa) = 20.63654 30.89796 25.76725
#
# Velocity S-wave (km/s) = 3.04895 3.73076 3.40695
# Velocity P-wave (km/s) = 4.81725 6.26387 5.58757
#
# Compressibility (1/GPa) = 0.04166733
#
# Stress axis : x y z
#
# Youngs Moduli (GPa) = 17.67885 59.38230 58.73273
#
# Poissons Ratio (x) = -0.04247 1.15740
# Poissons Ratio (y) = -0.01264 0.31662
# Poissons Ratio (z) = 0.34838 0.32012
#
# Static dielectric constant tensor:
#      x y z
#    x 1.987020 0.000000 0.135590 
#    y 0.000000 1.970720 0.000000 
#    z 0.135590 0.000000 1.954260 
# 
# From -- ./inp_files/9423.got.cif
#   From: 2010.05.17/outbox.cif.g08.bks.cpg/sg4_5_cif.got.tgz:9423.got - 2010.06.03 18:43:04.
