data_PCOD9115220
_publ_section_title
;
Structure prediction by ZEFSAII (Michael W. Deem and Ramdas Pophale) SiO2 
 PCOD9115220
Probable space group: P 21
;
_chemical_formula_sum "Si O2"
_cell_formula_units_Z 16
_cell_length_a 19.150036
_cell_length_b 5.088222
_cell_length_c 12.157798
_cell_angle_alpha 90.000000
_cell_angle_beta 138.533575
_cell_angle_gamma 90.000000
_cell_volume 784.453704
_symmetry_space_group_name_H-M "P 21"
_symmetry_group_IT_number 4
_symmetry_cell_setting 'monoclinic'
loop_
_space_group_symop_operation_xyz
x,y,z
-x,1/2+y,-z
loop_
_atom_site_type_symbol
_atom_site_label
_atom_site_fract_x
_atom_site_fract_y
_atom_site_fract_z
Si Si1 0.153228 0.219650 0.982669
Si Si2 0.286345 0.543358 0.627394
Si Si3 0.780503 0.231299 0.063875
Si Si4 0.912232 0.296861 0.658684
Si Si5 0.351792 0.428707 0.925653
Si Si6 0.929846 0.609741 0.894270
Si Si7 0.407459 0.058789 0.822527
Si Si8 0.066498 0.932858 0.562630
O O1 0.029232 0.175407 0.805234
O O2 0.228393 0.004673 0.013721
O O3 0.170246 0.515084 0.959957
O O4 0.157639 0.189048 0.119472
O O5 0.264116 0.505129 0.731568
O O6 0.179725 0.582936 0.436622
O O7 0.361194 0.297118 0.695623
O O8 0.355990 0.804001 0.709703
O O9 0.855480 0.324881 0.252240
O O10 0.686201 0.060373 0.007420
O O11 0.898914 0.512946 0.737398
O O12 0.895301 0.420714 0.518151
O O13 0.466809 0.544698 0.032253
O O14 0.370165 0.125580 0.905390
O O15 0.990565 0.354064 0.013892
O O16 0.968593 0.728871 0.452316
#
# Coordination Sequence:
#
# PCOD9115220 Si02
#       8
#     2   2   2   2   2   2   2   2
#     4  11  24  39  54  83 121 157 202 241 284 347
#     4  10  21  32  55  84 112 146 192 238 288 345
#     4  12  23  35  56  84 121 160 191 230 301 367
#     4  11  22  39  61  82 120 159 201 243 290 342
#     4  10  21  34  57  80 118 159 183 236 289 363
#     4  10  23  41  62  80 110 163 217 253 282 326
#     4  10  20  36  53  80 121 145 194 238 282 357
#     4  12  22  34  50  81 121 153 182 227 292 351
#
# _framework density 20.396357999999999
#
# number of rings (size 3 to 8) (size 9 to 14) (size 15 to 20)
#    0.750    0.500    5.000    1.500    1.750    5.000 
#    0.000    0.000    0.000    0.000    0.000    3.500 
#    0.000    0.000    0.000    0.000    0.000    0.000 
#
# Total GULP energy -89147.950940 kJ/mol
# GULP energy per Si atom -5571.746934 kJ/mol
# Density = 2.034994 g / cm^3
# Si number density = 20.396358 Si / 1000 Ang^3
#
#
#
# Elastic Constant Matrix: (Units=GPa)
#
#
# Indices 1 2 3 4 5 6 
#
# 1 65.3358 1.9417 12.6371 0.0000 -21.4454 0.0000
# 2 1.9417 98.3663 9.6812 0.0000 -1.3714 0.0000
# 3 12.6371 9.6812 22.9489 0.0000 -9.2522 0.0000
# 4 0.0000 0.0000 0.0000 21.1387 0.0000 -3.3963
# 5 -21.4454 -1.3714 -9.2522 0.0000 37.4948 0.0000
# 6 0.0000 0.0000 0.0000 -3.3963 0.0000 26.0926
#
#
#
# Elastic Compliance Matrix: (Units=1/GPa)
#
#
# Indices 1 2 3 4 5 6 
#
# 1 0.019838 0.000456 -0.007257 0.000000 0.009572 0.000000
# 2 0.000456 0.010638 -0.004972 0.000000 -0.000577 0.000000
# 3 -0.007257 -0.004972 0.053216 0.000000 0.008799 0.000000
# 4 0.000000 0.000000 0.000000 0.048317 0.000000 0.006289
# 5 0.009572 -0.000577 0.008799 0.000000 0.034295 0.000000
# 6 0.000000 0.000000 0.000000 0.006289 0.000000 0.039144
#
#
# Mechanical properties :
#
#
# Convention : Reuss Voigt Hill
#
# Bulk Modulus (GPa) = 16.62597 26.13011 21.37804
# Shear Modulus (GPa) = 20.07692 27.77128 23.92410
#
# Velocity S-wave (km/s) = 3.14082 3.69396 3.42856
# Velocity P-wave (km/s) = 4.61759 5.57071 5.11639
#
# Compressibility (1/GPa) = 0.06014688
#
# Stress axis : x y z
#
# Youngs Moduli (GPa) = 50.40948 93.99957 18.79130
#
# Poissons Ratio (x) = -0.04287 0.13637
# Poissons Ratio (y) = -0.02299 0.09342
# Poissons Ratio (z) = 0.36582 0.46733
#
# Static dielectric constant tensor:
#      x y z
#    x 1.781950 0.000000 -0.022010 
#    y 0.000000 1.807110 0.000000 
#    z -0.022010 0.000000 1.739300 
# 
# From -- ./inp_files/12811.got.cif
#   From: 2010.05.17/outbox.cif.g08.bks.cpg/sg4_7_cif.got.tgz:12811.got - 2010.06.03 18:43:04.
