data_PCOD9115944
_publ_section_title
;
Structure prediction by ZEFSAII (Michael W. Deem and Ramdas Pophale) SiO2 
 PCOD9115944
Probable space group: P 21
;
_chemical_formula_sum "Si O2"
_cell_formula_units_Z 16
_cell_length_a 7.966344
_cell_length_b 17.172735
_cell_length_c 5.755115
_cell_angle_alpha 90.000000
_cell_angle_beta 120.693834
_cell_angle_gamma 90.000000
_cell_volume 677.024088
_symmetry_space_group_name_H-M "P 21"
_symmetry_group_IT_number 4
_symmetry_cell_setting 'monoclinic'
loop_
_space_group_symop_operation_xyz
x,y,z
-x,1/2+y,-z
loop_
_atom_site_type_symbol
_atom_site_label
_atom_site_fract_x
_atom_site_fract_y
_atom_site_fract_z
Si Si1 0.631925 0.714450 0.176270
Si Si2 0.976988 0.178828 0.306898
Si Si3 0.615901 0.513530 0.668188
Si Si4 0.556582 0.840084 0.474632
Si Si5 0.089095 0.284876 0.010727
Si Si6 0.645102 0.077723 0.186305
Si Si7 0.213480 0.821472 0.552604
Si Si8 0.318806 0.985650 0.797235
O O1 0.536667 0.789013 0.230590
O O2 0.795882 0.680849 0.466448
O O3 0.757283 0.743537 0.048848
O O4 0.477656 0.648826 0.008538
O O5 0.865965 0.099692 0.291537
O O6 0.871975 0.246669 0.381512
O O7 0.969145 0.214396 0.043856
O O8 0.523351 0.426876 0.606041
O O9 0.432395 0.569367 0.603096
O O10 0.713529 0.519127 0.485548
O O11 0.746352 0.521232 0.997871
O O12 0.781518 0.833047 0.713661
O O13 0.416794 0.803569 0.571478
O O14 0.943702 0.338324 0.761697
O O15 0.554038 0.000819 0.998047
O O16 0.245721 0.897535 0.730865
#
# Coordination Sequence:
#
# PCOD9115944 Si02
#       8
#     2   2   2   2   2   2   2   2
#     4  10  22  39  60  94 121 159 208 254 309 367
#     4  10  22  39  60  94 121 159 208 254 309 367
#     4   9  22  39  62  92 123 161 210 249 309 373
#     4  10  21  38  65  89 125 158 209 259 309 366
#     4  10  22  36  62  96 122 158 206 264 306 364
#     4  10  22  38  62  84 130 166 204 250 310 370
#     4  10  21  38  65  89 125 158 209 259 309 366
#     4   9  22  39  62  92 123 161 210 249 309 373
#
# _framework density 23.632838
#
# number of rings (size 3 to 8) (size 9 to 14) (size 15 to 20)
#    0.750    1.500    0.000    1.500    8.750    5.000 
#    0.000    8.750    0.000    1.500    0.000    0.000 
#    0.000    0.000    0.000    0.000    0.000    0.000 
#
# Total GULP energy -89227.961355 kJ/mol
# GULP energy per Si atom -5576.747585 kJ/mol
# Density = 2.357905 g / cm^3
# Si number density = 23.632838 Si / 1000 Ang^3
#
#
#
# Elastic Constant Matrix: (Units=GPa)
#
#
# Indices 1 2 3 4 5 6 
#
# 1 53.7838 7.0979 11.0918 0.0000 2.1355 0.0000
# 2 7.0979 75.6186 9.5570 0.0000 9.5639 0.0000
# 3 11.0918 9.5570 84.4244 0.0000 -8.1470 0.0000
# 4 0.0000 0.0000 0.0000 9.1687 0.0000 -4.0318
# 5 2.1355 9.5639 -8.1470 0.0000 40.7722 0.0000
# 6 0.0000 0.0000 0.0000 -4.0318 0.0000 30.1292
#
#
#
# Elastic Compliance Matrix: (Units=1/GPa)
#
#
# Indices 1 2 3 4 5 6 
#
# 1 0.019334 -0.001347 -0.002503 0.000000 -0.001197 0.000000
# 2 -0.001347 0.014024 -0.001755 0.000000 -0.003570 0.000000
# 3 -0.002503 -0.001755 0.012669 0.000000 0.003074 0.000000
# 4 0.000000 0.000000 0.000000 0.115885 0.000000 0.015507
# 5 -0.001197 -0.003570 0.003074 0.000000 0.026041 0.000000
# 6 0.000000 0.000000 0.000000 0.015507 0.000000 0.035266
#
#
# Mechanical properties :
#
#
# Convention : Reuss Voigt Hill
#
# Bulk Modulus (GPa) = 28.72160 29.92445 29.32302
# Shear Modulus (GPa) = 20.32226 28.41936 24.37081
#
# Velocity S-wave (km/s) = 2.93561 3.47152 3.21476
# Velocity P-wave (km/s) = 4.86519 5.36268 5.11998
#
# Compressibility (1/GPa) = 0.03481700
#
# Stress axis : x y z
#
# Youngs Moduli (GPa) = 51.72103 71.30636 78.93198
#
# Poissons Ratio (x) = 0.09605 0.19758
# Poissons Ratio (y) = 0.06967 0.13853
# Poissons Ratio (z) = 0.12947 0.12515
#
# Static dielectric constant tensor:
#      x y z
#    x 1.876990 0.000000 -0.020190 
#    y 0.000000 1.902850 0.000000 
#    z -0.020190 0.000000 2.026430 
# 
# From -- ./inp_files/2161.got.cif
#   From: 2010.05.17/outbox.cif.g08.bks.cpg/sg4_2_cif.got.tgz:2161.got - 2010.06.03 18:43:04.
