data_PCOD9115475
_publ_section_title
;
Structure prediction by ZEFSAII (Michael W. Deem and Ramdas Pophale) SiO2 
 PCOD9115475
Probable space group: P 21
;
_chemical_formula_sum "Si O2"
_cell_formula_units_Z 16
_cell_length_a 8.230446
_cell_length_b 12.264603
_cell_length_c 11.738066
_cell_angle_alpha 90.000000
_cell_angle_beta 35.666163
_cell_angle_gamma 90.000000
_cell_volume 690.856411
_symmetry_space_group_name_H-M "P 21"
_symmetry_group_IT_number 4
_symmetry_cell_setting 'monoclinic'
loop_
_space_group_symop_operation_xyz
x,y,z
-x,1/2+y,-z
loop_
_atom_site_type_symbol
_atom_site_label
_atom_site_fract_x
_atom_site_fract_y
_atom_site_fract_z
Si Si1 0.611573 0.297890 0.256383
Si Si2 0.242257 0.533129 0.053044
Si Si3 0.810970 0.712919 0.960118
Si Si4 0.591989 0.752592 0.401313
Si Si5 0.284674 0.046636 0.807377
Si Si6 0.799387 0.273618 0.911639
Si Si7 0.023346 0.842164 0.646593
Si Si8 0.691625 0.379225 0.741604
O O1 0.409667 0.240190 0.460911
O O2 0.587675 0.428155 0.277909
O O3 0.912416 0.256701 0.132763
O O4 0.585882 0.276007 0.137831
O O5 0.230169 0.650862 0.117751
O O6 0.019630 0.539778 0.077247
O O7 0.133694 0.442073 0.203166
O O8 0.533854 0.494767 0.833543
O O9 0.878152 0.736510 0.788883
O O10 0.746860 0.593852 0.046860
O O11 0.553400 0.790232 0.141339
O O12 0.555549 0.638524 0.357045
O O13 0.344340 0.833149 0.508073
O O14 0.901168 0.793169 0.200492
O O15 0.775435 0.356559 0.823302
O O16 0.066536 0.860470 0.488072
#
# Coordination Sequence:
#
# PCOD9115475 Si02
#       8
#     2   2   2   2   2   2   2   2
#     4  11  21  41  63  94 126 162 213 270 307 370
#     4  10  22  40  67  90 121 175 209 259 323 369
#     4  10  20  39  63  95 120 160 215 261 304 369
#     4  10  21  38  62  96 123 158 211 267 304 370
#     4  11  19  39  66  96 126 158 211 270 321 358
#     4  11  25  42  61  95 134 163 210 263 315 382
#     4  10  20  41  65  93 120 166 214 256 315 370
#     4  11  22  42  65  85 134 172 205 254 317 388
#
# _framework density 23.159662000000001
#
# number of rings (size 3 to 8) (size 9 to 14) (size 15 to 20)
#    0.000    1.500    7.500    0.000    0.000    5.000 
#    4.500    1.250    0.000    0.000    0.000    0.000 
#    0.000    0.000    0.000    0.000    0.000    0.000 
#
# Total GULP energy -89328.697434 kJ/mol
# GULP energy per Si atom -5583.043590 kJ/mol
# Density = 2.310695 g / cm^3
# Si number density = 23.159662 Si / 1000 Ang^3
#
#
#
# Elastic Constant Matrix: (Units=GPa)
#
#
# Indices 1 2 3 4 5 6 
#
# 1 40.7378 8.9633 23.9880 0.0000 18.5433 0.0000
# 2 8.9633 68.1157 15.2052 0.0000 5.1057 0.0000
# 3 23.9880 15.2052 128.9656 0.0000 28.6571 0.0000
# 4 0.0000 0.0000 0.0000 27.6225 0.0000 1.0854
# 5 18.5433 5.1057 28.6571 0.0000 39.8358 0.0000
# 6 0.0000 0.0000 0.0000 1.0854 0.0000 23.2914
#
#
#
# Elastic Compliance Matrix: (Units=1/GPa)
#
#
# Indices 1 2 3 4 5 6 
#
# 1 0.032668 -0.002690 -0.002924 0.000000 -0.012759 0.000000
# 2 -0.002690 0.015319 -0.001366 0.000000 0.000271 0.000000
# 3 -0.002924 -0.001366 0.009662 0.000000 -0.005414 0.000000
# 4 0.000000 0.000000 0.000000 0.036269 0.000000 -0.001690
# 5 -0.012759 0.000271 -0.005414 0.000000 0.034902 0.000000
# 6 0.000000 0.000000 0.000000 -0.001690 0.000000 0.043013
#
#
# Mechanical properties :
#
#
# Convention : Reuss Voigt Hill
#
# Bulk Modulus (GPa) = 22.88868 37.12579 30.00724
# Shear Modulus (GPa) = 24.95535 30.79410 27.87472
#
# Velocity S-wave (km/s) = 3.28614 3.65038 3.47304
# Velocity P-wave (km/s) = 4.92978 5.81655 5.39143
#
# Compressibility (1/GPa) = 0.04368971
#
# Stress axis : x y z
#
# Youngs Moduli (GPa) = 30.61057 65.27642 103.49684
#
# Poissons Ratio (x) = 0.17557 0.30266
# Poissons Ratio (y) = 0.08233 0.14140
# Poissons Ratio (z) = 0.08951 0.08918
#
# Static dielectric constant tensor:
#      x y z
#    x 1.951370 0.000000 0.012550 
#    y 0.000000 1.878760 0.000000 
#    z 0.012550 0.000000 1.905330 
# 
# From -- ./inp_files/11137.got.cif
#   From: 2010.05.17/outbox.cif.g08.bks.cpg/sg4_6_cif.got.tgz:11137.got - 2010.06.03 18:43:04.
