data_PCOD9115183
_publ_section_title
;
Structure prediction by ZEFSAII (Michael W. Deem and Ramdas Pophale) SiO2 
 PCOD9115183
Probable space group: P 21
;
_chemical_formula_sum "Si O2"
_cell_formula_units_Z 16
_cell_length_a 11.139145
_cell_length_b 8.133151
_cell_length_c 6.595198
_cell_angle_alpha 90.000000
_cell_angle_beta 101.753791
_cell_angle_gamma 90.000000
_cell_volume 584.972455
_symmetry_space_group_name_H-M "P 21"
_symmetry_group_IT_number 4
_symmetry_cell_setting 'monoclinic'
loop_
_space_group_symop_operation_xyz
x,y,z
-x,1/2+y,-z
loop_
_atom_site_type_symbol
_atom_site_label
_atom_site_fract_x
_atom_site_fract_y
_atom_site_fract_z
Si Si1 0.886481 0.659920 0.453382
Si Si2 0.139757 0.790768 0.522567
Si Si3 0.363053 0.234485 0.529962
Si Si4 0.163415 0.251073 0.000049
Si Si5 0.910658 0.372988 0.969082
Si Si6 0.615665 0.120482 0.493128
Si Si7 0.412130 0.129698 0.008711
Si Si8 0.660490 0.251505 0.961592
O O1 0.870624 0.471229 0.388965
O O2 0.777597 0.695033 0.573633
O O3 0.857761 0.775004 0.250982
O O4 0.026309 0.683705 0.561388
O O5 0.111683 0.819292 0.272301
O O6 0.275611 0.719505 0.578205
O O7 0.472969 0.170775 0.427547
O O8 0.374133 0.429015 0.548416
O O9 0.383544 0.146854 0.755457
O O10 0.311252 0.256945 0.066943
O O11 0.055518 0.356095 0.066024
O O12 0.123496 0.062982 0.023667
O O13 0.807032 0.262464 0.047400
O O14 0.643963 0.162394 0.739623
O O15 0.556709 0.168084 0.066025
O O16 0.381624 0.943364 0.063087
#
# Coordination Sequence:
#
# PCOD9115183 Si02
#       8
#     2   2   2   2   2   2   2   2
#     4  10  20  35  55  82 115 150 191 243 295 349
#     4  10  20  35  55  82 115 150 191 243 295 349
#     4  10  20  37  59  85 115 152 197 247 297 353
#     4   9  19  35  53  75 106 142 184 228 278 337
#     4   9  19  35  53  75 106 142 184 228 278 337
#     4  10  20  37  59  85 115 152 197 247 297 353
#     4   9  19  37  57  82 115 152 192 240 294 353
#     4   9  19  37  57  82 115 152 192 240 294 353
#
# _framework density 27.351714999999999
#
# number of rings (size 3 to 8) (size 9 to 14) (size 15 to 20)
#    0.000    2.500    0.000    1.500    0.000    2.000 
#    0.000   20.000    0.000    0.000    0.000    0.000 
#    0.000    0.000    0.000    0.000    0.000    0.000 
#
# Total GULP energy -89596.308451 kJ/mol
# GULP energy per Si atom -5599.769278 kJ/mol
# Density = 2.728946 g / cm^3
# Si number density = 27.351715 Si / 1000 Ang^3
#
#
#
# Elastic Constant Matrix: (Units=GPa)
#
#
# Indices 1 2 3 4 5 6 
#
# 1 244.2085 46.0981 42.9116 0.0000 4.5431 0.0000
# 2 46.0981 108.3251 3.9499 0.0000 3.1406 0.0000
# 3 42.9116 3.9499 81.6825 0.0000 -6.5812 0.0000
# 4 0.0000 0.0000 0.0000 16.7787 0.0000 -3.1821
# 5 4.5431 3.1406 -6.5812 0.0000 62.2071 0.0000
# 6 0.0000 0.0000 0.0000 -3.1821 0.0000 58.2832
#
#
#
# Elastic Compliance Matrix: (Units=1/GPa)
#
#
# Indices 1 2 3 4 5 6 
#
# 1 0.004925 -0.001988 -0.002534 0.000000 -0.000527 0.000000
# 2 -0.001988 0.010067 0.000533 0.000000 -0.000307 0.000000
# 3 -0.002534 0.000533 0.013677 0.000000 0.001605 0.000000
# 4 0.000000 0.000000 0.000000 0.060223 0.000000 0.003288
# 5 -0.000527 -0.000307 0.001605 0.000000 0.016299 0.000000
# 6 0.000000 0.000000 0.000000 0.003288 0.000000 0.017337
#
#
# Mechanical properties :
#
#
# Convention : Reuss Voigt Hill
#
# Bulk Modulus (GPa) = 48.32932 68.90391 58.61661
# Shear Modulus (GPa) = 36.38903 50.20423 43.29663
#
# Velocity S-wave (km/s) = 3.65144 4.28893 3.98296
# Velocity P-wave (km/s) = 5.95695 7.05500 6.52910
#
# Compressibility (1/GPa) = 0.02069137
#
# Stress axis : x y z
#
# Youngs Moduli (GPa) = 203.03669 99.33408 73.11440
#
# Poissons Ratio (x) = 0.19750 0.18526
# Poissons Ratio (y) = 0.40369 -0.03897
# Poissons Ratio (z) = 0.51445 -0.05295
#
# Static dielectric constant tensor:
#      x y z
#    x 2.144120 0.000000 0.013300 
#    y 0.000000 1.971830 0.000000 
#    z 0.013300 0.000000 2.403730 
# 
# From -- ./inp_files/7712.got.cif
#   From: 2010.05.17/outbox.cif.g08.bks.cpg/sg4_4_cif.got.tgz:7712.got - 2010.06.03 18:43:04.
