data_PCOD9115511
_publ_section_title
;
Structure prediction by ZEFSAII (Michael W. Deem and Ramdas Pophale) SiO2 
 PCOD9115511
Probable space group: P 21
;
_chemical_formula_sum "Si O2"
_cell_formula_units_Z 12
_cell_length_a 6.975559
_cell_length_b 8.155574
_cell_length_c 11.192490
_cell_angle_alpha 90.000000
_cell_angle_beta 135.909793
_cell_angle_gamma 90.000000
_cell_volume 443.035446
_symmetry_space_group_name_H-M "P 21"
_symmetry_group_IT_number 4
_symmetry_cell_setting 'monoclinic'
loop_
_space_group_symop_operation_xyz
x,y,z
-x,1/2+y,-z
loop_
_atom_site_type_symbol
_atom_site_label
_atom_site_fract_x
_atom_site_fract_y
_atom_site_fract_z
Si Si1 0.657818 0.591050 0.783167
Si Si2 0.182123 0.412716 0.005605
Si Si3 0.999231 0.016904 0.539462
Si Si4 0.073668 0.323632 0.719686
Si Si5 0.328030 0.619882 0.287845
Si Si6 0.801783 0.793345 0.626484
O O1 0.699493 0.740778 0.892517
O O2 0.333692 0.557851 0.617232
O O3 0.809280 0.655045 0.730267
O O4 0.855082 0.436969 0.900423
O O5 0.299194 0.560832 0.139391
O O6 0.258678 0.421387 0.898367
O O7 0.043750 0.869359 0.654956
O O8 0.061456 0.950103 0.435050
O O9 0.141441 0.174137 0.661786
O O10 0.899763 0.226439 0.742723
O O11 0.589906 0.725932 0.435935
O O12 0.320371 0.448058 0.356459
#
# Coordination Sequence:
#
# PCOD9115511 Si02
#       6
#     2   2   2   2   2   2
#     4  11  23  42  68 103 130 182 231 281 332 402
#     4  11  24  42  71 100 142 172 230 283 340 399
#     4  11  26  43  70  99 138 179 229 279 344 407
#     4  11  24  47  62 105 138 178 226 282 340 407
#     4  10  21  41  70  99 130 184 227 287 324 403
#     4  10  20  39  69  98 130 175 243 272 328 406
#
# _framework density 27.085868000000001
#
# number of rings (size 3 to 8) (size 9 to 14) (size 15 to 20)
#    0.000    1.333    5.000    1.000    2.333    0.000 
#    3.000    0.000    0.000    0.000    0.000    0.000 
#    0.000    0.000    0.000    0.000    0.000    0.000 
#
# Total GULP energy -66958.290557 kJ/mol
# GULP energy per Si atom -5579.857546 kJ/mol
# Density = 2.702422 g / cm^3
# Si number density = 27.085868 Si / 1000 Ang^3
#
#
#
# Elastic Constant Matrix: (Units=GPa)
#
#
# Indices 1 2 3 4 5 6 
#
# 1 85.7190 28.5544 52.2030 0.0000 -24.5716 0.0000
# 2 28.5544 94.3554 34.4407 0.0000 -8.4134 0.0000
# 3 52.2030 34.4407 107.2899 0.0000 -39.0852 0.0000
# 4 0.0000 0.0000 0.0000 58.9243 0.0000 -13.2884
# 5 -24.5716 -8.4134 -39.0852 0.0000 58.6494 0.0000
# 6 0.0000 0.0000 0.0000 -13.2884 0.0000 9.7907
#
#
#
# Elastic Compliance Matrix: (Units=1/GPa)
#
#
# Indices 1 2 3 4 5 6 
#
# 1 0.017302 -0.002570 -0.006718 0.000000 0.002403 0.000000
# 2 -0.002570 0.012442 -0.003283 0.000000 -0.001479 0.000000
# 3 -0.006718 -0.003283 0.016437 0.000000 0.007668 0.000000
# 4 0.000000 0.000000 0.000000 0.024457 0.000000 0.033194
# 5 0.002403 -0.001479 0.007668 0.000000 0.022955 0.000000
# 6 0.000000 0.000000 0.000000 0.033194 0.000000 0.147191
#
#
# Mechanical properties :
#
#
# Convention : Reuss Voigt Hill
#
# Bulk Modulus (GPa) = 47.52868 57.52895 52.52882
# Shear Modulus (GPa) = 18.31915 36.95062 27.63488
#
# Velocity S-wave (km/s) = 2.60347 3.69752 3.19763
# Velocity P-wave (km/s) = 5.15974 6.28605 5.75054
#
# Compressibility (1/GPa) = 0.02103993
#
# Stress axis : x y z
#
# Youngs Moduli (GPa) = 57.79571 80.37197 60.83981
#
# Poissons Ratio (x) = 0.20652 0.40874
# Poissons Ratio (y) = 0.14851 0.19972
# Poissons Ratio (z) = 0.38829 0.26383
#
# Static dielectric constant tensor:
#      x y z
#    x 2.264670 0.000000 0.006960 
#    y 0.000000 2.237530 0.000000 
#    z 0.006960 0.000000 2.295690 
# 
# From -- ./inp_files/11093.got.cif
#   From: 2010.05.17/outbox.cif.g08.bks.cpg/sg4_6_cif.got.tgz:11093.got - 2010.06.03 18:43:04.
