data_PCOD9115714
_publ_section_title
;
Structure prediction by ZEFSAII (Michael W. Deem and Ramdas Pophale) SiO2 
 PCOD9115714
Probable space group: P 21
;
_chemical_formula_sum "Si O2"
_cell_formula_units_Z 16
_cell_length_a 14.025303
_cell_length_b 8.999202
_cell_length_c 11.782161
_cell_angle_alpha 90.000000
_cell_angle_beta 150.226470
_cell_angle_gamma 90.000000
_cell_volume 738.455478
_symmetry_space_group_name_H-M "P 21"
_symmetry_group_IT_number 4
_symmetry_cell_setting 'monoclinic'
loop_
_space_group_symop_operation_xyz
x,y,z
-x,1/2+y,-z
loop_
_atom_site_type_symbol
_atom_site_label
_atom_site_fract_x
_atom_site_fract_y
_atom_site_fract_z
Si Si1 0.650669 0.492410 0.936170
Si Si2 0.617317 0.420259 0.366960
Si Si3 0.729719 0.653434 0.783800
Si Si4 0.577198 0.967319 0.627937
Si Si5 0.168232 0.655352 0.277728
Si Si6 0.391045 0.238469 0.713044
Si Si7 0.091176 0.482837 0.429296
Si Si8 0.611564 0.186156 0.170010
O O1 0.864369 0.459444 0.200471
O O2 0.674030 0.603855 0.854247
O O3 0.525832 0.346806 0.775817
O O4 0.527963 0.575406 0.904796
O O5 0.418956 0.450178 0.231616
O O6 0.737797 0.299108 0.564802
O O7 0.689451 0.587607 0.423552
O O8 0.599965 0.340426 0.227287
O O9 0.640033 0.519097 0.620613
O O10 0.630546 0.804324 0.642125
O O11 0.955248 0.680702 0.011302
O O12 0.705912 0.084490 0.692737
O O13 0.141922 0.538213 0.353691
O O14 0.213397 0.335171 0.574350
O O15 0.532620 0.200351 0.963011
O O16 0.178364 0.611818 0.599756
#
# Coordination Sequence:
#
# PCOD9115714 Si02
#       8
#     2   2   2   2   2   2   2   2
#     4  10  21  44  63  89 130 166 212 263 318 374
#     4  11  23  42  65  96 131 170 211 265 319 380
#     4  11  25  43  66  91 125 176 211 267 316 381
#     4  12  23  42  65  92 130 166 215 258 317 387
#     4  10  24  44  62  92 131 169 215 263 317 383
#     4  11  23  39  66  96 127 166 214 266 324 378
#     4   9  21  41  64  87 126 168 209 264 315 374
#     4  10  20  43  67  91 126 167 215 266 320 373
#
# _framework density 21.666844999999999
#
# number of rings (size 3 to 8) (size 9 to 14) (size 15 to 20)
#    0.000    1.500    2.500    3.000    5.250    1.000 
#    4.500    1.250    0.000    0.000    0.000    0.000 
#    0.000    0.000    0.000    0.000    0.000    0.000 
#
# Total GULP energy -89310.460550 kJ/mol
# GULP energy per Si atom -5581.903784 kJ/mol
# Density = 2.161753 g / cm^3
# Si number density = 21.666845 Si / 1000 Ang^3
#
#
#
# Elastic Constant Matrix: (Units=GPa)
#
#
# Indices 1 2 3 4 5 6 
#
# 1 34.6834 11.1143 16.8318 0.0000 4.2080 0.0000
# 2 11.1143 115.2306 44.9821 0.0000 11.9116 0.0000
# 3 16.8318 44.9821 104.5609 0.0000 13.1908 0.0000
# 4 0.0000 0.0000 0.0000 20.7121 0.0000 -8.0628
# 5 4.2080 11.9116 13.1908 0.0000 26.8020 0.0000
# 6 0.0000 0.0000 0.0000 -8.0628 0.0000 20.8604
#
#
#
# Elastic Compliance Matrix: (Units=1/GPa)
#
#
# Indices 1 2 3 4 5 6 
#
# 1 0.031564 -0.001123 -0.004303 0.000000 -0.002339 0.000000
# 2 -0.001123 0.010641 -0.004076 0.000000 -0.002547 0.000000
# 3 -0.004303 -0.004076 0.012470 0.000000 -0.003650 0.000000
# 4 0.000000 0.000000 0.000000 0.056832 0.000000 0.021966
# 5 -0.002339 -0.002547 -0.003650 0.000000 0.040606 0.000000
# 6 0.000000 0.000000 0.000000 0.021966 0.000000 0.056428
#
#
# Mechanical properties :
#
#
# Convention : Reuss Voigt Hill
#
# Bulk Modulus (GPa) = 28.03299 44.48126 36.25712
# Shear Modulus (GPa) = 20.88246 25.77802 23.33024
#
# Velocity S-wave (km/s) = 3.10788 3.45301 3.28498
# Velocity P-wave (km/s) = 5.08378 6.03920 5.58197
#
# Compressibility (1/GPa) = 0.03567226
#
# Stress axis : x y z
#
# Youngs Moduli (GPa) = 31.68164 93.97768 80.19048
#
# Poissons Ratio (x) = 0.10553 0.34505
# Poissons Ratio (y) = 0.03558 0.32682
# Poissons Ratio (z) = 0.13632 0.38302
#
# Static dielectric constant tensor:
#      x y z
#    x 1.834950 0.000000 -0.028610 
#    y 0.000000 1.813080 0.000000 
#    z -0.028610 0.000000 1.812970 
# 
# From -- ./inp_files/12564.got.cif
#   From: 2010.05.17/outbox.cif.g08.bks.cpg/sg4_7_cif.got.tgz:12564.got - 2010.06.03 18:43:04.
