data_PCOD9115663
_publ_section_title
;
Structure prediction by ZEFSAII (Michael W. Deem and Ramdas Pophale) SiO2 
 PCOD9115663
Probable space group: P 21
;
_chemical_formula_sum "Si O2"
_cell_formula_units_Z 16
_cell_length_a 13.017940
_cell_length_b 5.056598
_cell_length_c 16.172966
_cell_angle_alpha 90.000000
_cell_angle_beta 37.311181
_cell_angle_gamma 90.000000
_cell_volume 645.306303
_symmetry_space_group_name_H-M "P 21"
_symmetry_group_IT_number 4
_symmetry_cell_setting 'monoclinic'
loop_
_space_group_symop_operation_xyz
x,y,z
-x,1/2+y,-z
loop_
_atom_site_type_symbol
_atom_site_label
_atom_site_fract_x
_atom_site_fract_y
_atom_site_fract_z
Si Si1 0.166204 0.857750 0.786457
Si Si2 0.574739 0.829058 0.234209
Si Si3 0.865321 0.152672 0.009316
Si Si4 0.360749 0.950476 0.511132
Si Si5 0.529133 0.607785 0.031349
Si Si6 0.827185 0.948131 0.439382
Si Si7 0.395721 0.337820 0.278705
Si Si8 0.116646 0.042660 0.139373
O O1 0.170425 0.766313 0.877627
O O2 0.333904 0.886547 0.624438
O O3 0.031673 0.691833 0.816922
O O4 0.064106 0.131050 0.863317
O O5 0.539674 0.905801 0.352035
O O6 0.513889 0.534322 0.257847
O O7 0.764087 0.878590 0.082782
O O8 0.462660 0.041212 0.253014
O O9 0.805134 0.316995 0.969590
O O10 0.242415 0.741117 0.536631
O O11 0.285502 0.237894 0.540260
O O12 0.421354 0.460407 0.172097
O O13 0.443782 0.871858 0.051766
O O14 0.716993 0.698869 0.939479
O O15 0.786341 0.876021 0.560580
O O16 0.016336 0.931294 0.283211
#
# Coordination Sequence:
#
# PCOD9115663 Si02
#       8
#     2   2   2   2   2   2   2   2
#     4  11  23  38  61  94 132 171 219 262 318 386
#     4  10  21  37  65  90 125 177 207 257 317 370
#     4  12  22  37  62  96 127 174 213 263 319 383
#     4   9  19  37  57  89 126 165 215 252 303 377
#     4  12  27  43  66  98 125 163 213 267 326 389
#     4   9  19  36  66  89 118 168 207 251 323 375
#     4  10  20  42  64  92 126 165 210 260 317 385
#     4  11  23  42  63  92 129 171 206 274 317 381
#
# _framework density 24.794426999999999
#
# number of rings (size 3 to 8) (size 9 to 14) (size 15 to 20)
#    0.000    1.500    3.750    1.500    1.750    0.000 
#    0.000    8.750    0.000    0.000    0.000    0.000 
#    0.000    0.000    0.000    0.000    0.000    0.000 
#
# Total GULP energy -89418.788469 kJ/mol
# GULP energy per Si atom -5588.674279 kJ/mol
# Density = 2.473799 g / cm^3
# Si number density = 24.794427 Si / 1000 Ang^3
#
#
#
# Elastic Constant Matrix: (Units=GPa)
#
#
# Indices 1 2 3 4 5 6 
#
# 1 49.0762 20.4731 21.9613 0.0000 7.5375 0.0000
# 2 20.4731 87.8012 1.4852 0.0000 -1.1193 0.0000
# 3 21.9613 1.4852 178.5586 0.0000 19.2725 0.0000
# 4 0.0000 0.0000 0.0000 32.8501 0.0000 3.2937
# 5 7.5375 -1.1193 19.2725 0.0000 24.5567 0.0000
# 6 0.0000 0.0000 0.0000 3.2937 0.0000 42.5839
#
#
#
# Elastic Compliance Matrix: (Units=1/GPa)
#
#
# Indices 1 2 3 4 5 6 
#
# 1 0.024779 -0.005815 -0.002349 0.000000 -0.006028 0.000000
# 2 -0.005815 0.012765 0.000386 0.000000 0.002064 0.000000
# 3 -0.002349 0.000386 0.006344 0.000000 -0.004240 0.000000
# 4 0.000000 0.000000 0.000000 0.030679 0.000000 -0.002373
# 5 -0.006028 0.002064 -0.004240 0.000000 0.045994 0.000000
# 6 0.000000 0.000000 0.000000 -0.002373 0.000000 0.023667
#
#
# Mechanical properties :
#
#
# Convention : Reuss Voigt Hill
#
# Bulk Modulus (GPa) = 35.29439 44.80833 40.05136
# Shear Modulus (GPa) = 29.54613 38.09923 33.82268
#
# Velocity S-wave (km/s) = 3.45576 3.92421 3.69741
# Velocity P-wave (km/s) = 5.49443 6.21641 5.86654
#
# Compressibility (1/GPa) = 0.02833312
#
# Stress axis : x y z
#
# Youngs Moduli (GPa) = 40.35659 78.33887 157.63641
#
# Poissons Ratio (x) = 0.45554 0.37024
# Poissons Ratio (y) = 0.23467 -0.06089
# Poissons Ratio (z) = 0.09478 -0.03026
#
# Static dielectric constant tensor:
#      x y z
#    x 1.976840 0.000000 0.037690 
#    y 0.000000 2.016920 0.000000 
#    z 0.037690 0.000000 1.998830 
# 
# From -- ./inp_files/12515.got.cif
#   From: 2010.05.17/outbox.cif.g08.bks.cpg/sg4_7_cif.got.tgz:12515.got - 2010.06.03 18:43:04.
