data_PCOD9115208
_publ_section_title
;
Structure prediction by ZEFSAII (Michael W. Deem and Ramdas Pophale) SiO2 
 PCOD9115208
Probable space group: P 21
;
_chemical_formula_sum "Si O2"
_cell_formula_units_Z 14
_cell_length_a 9.261471
_cell_length_b 5.209365
_cell_length_c 29.194648
_cell_angle_alpha 90.000000
_cell_angle_beta 27.595784
_cell_angle_gamma 90.000000
_cell_volume 652.477369
_symmetry_space_group_name_H-M "P 21"
_symmetry_group_IT_number 4
_symmetry_cell_setting 'monoclinic'
loop_
_space_group_symop_operation_xyz
x,y,z
-x,1/2+y,-z
loop_
_atom_site_type_symbol
_atom_site_label
_atom_site_fract_x
_atom_site_fract_y
_atom_site_fract_z
Si Si1 0.398576 0.894200 0.745342
Si Si2 0.282299 0.114730 0.257936
Si Si3 0.950489 0.203706 0.606784
Si Si4 0.681785 0.946670 0.966779
Si Si5 0.202908 0.247404 0.448763
Si Si6 0.703038 0.345406 0.437542
Si Si7 0.195016 0.448131 0.958971
O O1 0.496799 0.755786 0.765925
O O2 0.520137 0.752066 0.665270
O O3 0.033617 0.938819 0.848549
O O4 0.602398 0.156893 0.685679
O O5 0.502117 0.016109 0.156170
O O6 0.981031 0.275563 0.324239
O O7 0.115830 0.879923 0.331238
O O8 0.224371 0.308353 0.496939
O O9 0.067805 0.917476 0.584814
O O10 0.492793 0.701852 0.001195
O O11 0.719851 0.939449 0.011292
O O12 0.956315 0.469548 0.505578
O O13 0.516728 0.610903 0.487829
O O14 0.049843 0.178452 0.982629
#
# Coordination Sequence:
#
# PCOD9115208 Si02
#       7
#     2   2   2   2   2   2   2
#     4  10  22  42  68  99 134 184 235 293 351 421
#     4  11  22  42  75  99 133 182 252 293 349 418
#     4  10  21  39  69 100 133 179 233 291 340 432
#     4  12  28  50  70 105 152 190 233 312 380 423
#     4  10  20  35  63  97 128 160 216 273 340 406
#     4  11  23  41  60  94 140 180 214 286 358 416
#     4  12  26  47  81 110 136 191 261 308 354 440
#
# _framework density 21.456683000000002
#
# number of rings (size 3 to 8) (size 9 to 14) (size 15 to 20)
#    0.000    1.143    4.286    1.714    4.000    0.000 
#    2.571    1.429    0.000    0.000    0.000    0.000 
#    0.000    0.000    0.000    0.000    0.000    0.000 
#
# Total GULP energy -77963.137546 kJ/mol
# GULP energy per Si atom -5568.795539 kJ/mol
# Density = 2.140785 g / cm^3
# Si number density = 21.456683 Si / 1000 Ang^3
#
#
#
# Elastic Constant Matrix: (Units=GPa)
#
#
# Indices 1 2 3 4 5 6 
#
# 1 82.9208 38.9804 45.6272 0.0000 5.3031 0.0000
# 2 38.9804 98.2229 16.4496 0.0000 -15.6541 0.0000
# 3 45.6272 16.4496 160.3594 0.0000 -6.6898 0.0000
# 4 0.0000 0.0000 0.0000 31.7061 0.0000 -7.8258
# 5 5.3031 -15.6541 -6.6898 0.0000 48.1832 0.0000
# 6 0.0000 0.0000 0.0000 -7.8258 0.0000 42.2487
#
#
#
# Elastic Compliance Matrix: (Units=1/GPa)
#
#
# Indices 1 2 3 4 5 6 
#
# 1 0.018413 -0.007327 -0.004699 0.000000 -0.005059 0.000000
# 2 -0.007327 0.013802 0.000895 0.000000 0.005415 0.000000
# 3 -0.004699 0.000895 0.007559 0.000000 0.001857 0.000000
# 4 0.000000 0.000000 0.000000 0.033051 0.000000 0.006122
# 5 -0.005059 0.005415 0.001857 0.000000 0.023328 0.000000
# 6 0.000000 0.000000 0.000000 0.006122 0.000000 0.024803
#
#
# Mechanical properties :
#
#
# Convention : Reuss Voigt Hill
#
# Bulk Modulus (GPa) = 57.10299 60.40196 58.75248
# Shear Modulus (GPa) = 33.54501 40.45730 37.00115
#
# Velocity S-wave (km/s) = 3.95825 4.34698 4.15716
# Velocity P-wave (km/s) = 6.89647 7.30800 7.10521
#
# Compressibility (1/GPa) = 0.01751222
#
# Stress axis : x y z
#
# Youngs Moduli (GPa) = 54.30990 72.45500 132.30035
#
# Poissons Ratio (x) = 0.53086 0.62162
# Poissons Ratio (y) = 0.39791 -0.11838
# Poissons Ratio (z) = 0.25518 -0.06483
#
# Static dielectric constant tensor:
#      x y z
#    x 2.011160 0.000000 0.054910 
#    y 0.000000 1.839610 0.000000 
#    z 0.054910 0.000000 1.822170 
# 
# From -- ./inp_files/16336.got.cif
#   From: 2010.05.17/outbox.cif.g08.bks.cpg/sg4_9_cif.got.tgz:16336.got - 2010.06.03 18:43:04.
