data_PCOD9115742
_publ_section_title
;
Structure prediction by ZEFSAII (Michael W. Deem and Ramdas Pophale) SiO2 
 PCOD9115742
Probable space group: P 21
;
_chemical_formula_sum "Si O2"
_cell_formula_units_Z 16
_cell_length_a 11.147929
_cell_length_b 11.781306
_cell_length_c 5.408928
_cell_angle_alpha 90.000000
_cell_angle_beta 113.312090
_cell_angle_gamma 90.000000
_cell_volume 652.398810
_symmetry_space_group_name_H-M "P 21"
_symmetry_group_IT_number 4
_symmetry_cell_setting 'monoclinic'
loop_
_space_group_symop_operation_xyz
x,y,z
-x,1/2+y,-z
loop_
_atom_site_type_symbol
_atom_site_label
_atom_site_fract_x
_atom_site_fract_y
_atom_site_fract_z
Si Si1 0.525857 0.137610 0.509280
Si Si2 0.945754 0.193719 0.726995
Si Si3 0.210199 0.321285 0.974910
Si Si4 0.110792 0.019585 0.698984
Si Si5 0.791098 0.085690 0.969912
Si Si6 0.756058 0.301690 0.272489
Si Si7 0.512279 0.774872 0.023403
Si Si8 0.753874 0.607270 0.690094
O O1 0.665679 0.083684 0.679947
O O2 0.514900 0.185713 0.223227
O O3 0.395496 0.063677 0.434182
O O4 0.503771 0.229872 0.711367
O O5 0.923857 0.141786 0.976445
O O6 0.815677 0.268393 0.585134
O O7 0.968837 0.078327 0.587795
O O8 0.073186 0.267091 0.777101
O O9 0.185348 0.454035 0.972889
O O10 0.339449 0.310615 0.909811
O O11 0.241157 0.243786 0.245294
O O12 0.132205 0.885693 0.732005
O O13 0.181819 0.066541 0.511467
O O14 0.179739 0.060411 0.007570
O O15 0.750061 0.179453 0.136561
O O16 0.613298 0.356305 0.126770
#
# Coordination Sequence:
#
# PCOD9115742 Si02
#       8
#     2   2   2   2   2   2   2   2
#     4  10  20  44  71 100 149 177 246 286 372 418
#     4  11  26  45  70 105 145 195 242 297 362 445
#     4  10  25  47  76 104 149 191 252 298 374 434
#     4  11  27  44  78 103 144 197 244 302 368 438
#     4  11  26  46  70 109 146 200 236 314 358 450
#     4  11  27  46  74 103 153 188 252 301 378 426
#     4  10  22  47  70 107 137 194 232 310 349 437
#     4  10  23  47  73 109 139 192 244 306 361 442
#
# _framework density 24.524875000000002
#
# number of rings (size 3 to 8) (size 9 to 14) (size 15 to 20)
#    0.000    1.500    1.250    2.250   10.500    0.000 
#   11.250    0.000    0.000    0.000    0.000    0.000 
#    0.000    0.000    0.000    0.000    0.000    0.000 
#
# Total GULP energy -89141.177346 kJ/mol
# GULP energy per Si atom -5571.323584 kJ/mol
# Density = 2.446906 g / cm^3
# Si number density = 24.524875 Si / 1000 Ang^3
#
#
#
# Elastic Constant Matrix: (Units=GPa)
#
#
# Indices 1 2 3 4 5 6 
#
# 1 118.8472 16.1654 28.0469 0.0000 3.4739 0.0000
# 2 16.1654 109.7528 28.1968 0.0000 -2.6684 0.0000
# 3 28.0469 28.1968 89.7058 0.0000 1.0416 0.0000
# 4 0.0000 0.0000 0.0000 23.3046 0.0000 -2.8080
# 5 3.4739 -2.6684 1.0416 0.0000 47.3106 0.0000
# 6 0.0000 0.0000 0.0000 -2.8080 0.0000 14.5278
#
#
#
# Elastic Compliance Matrix: (Units=1/GPa)
#
#
# Indices 1 2 3 4 5 6 
#
# 1 0.009149 -0.000686 -0.002637 0.000000 -0.000652 0.000000
# 2 -0.000686 0.009982 -0.002931 0.000000 0.000678 0.000000
# 3 -0.002637 -0.002931 0.012896 0.000000 -0.000256 0.000000
# 4 0.000000 0.000000 0.000000 0.043933 0.000000 0.008492
# 5 -0.000652 0.000678 -0.000256 0.000000 0.021229 0.000000
# 6 0.000000 0.000000 0.000000 0.008492 0.000000 0.070475
#
#
# Mechanical properties :
#
#
# Convention : Reuss Voigt Hill
#
# Bulk Modulus (GPa) = 51.23242 51.45822 51.34532
# Shear Modulus (GPa) = 26.78399 33.42170 30.10285
#
# Velocity S-wave (km/s) = 3.30830 3.69557 3.50729
# Velocity P-wave (km/s) = 5.96058 6.26397 6.11415
#
# Compressibility (1/GPa) = 0.01951889
#
# Stress axis : x y z
#
# Youngs Moduli (GPa) = 109.30278 100.18144 77.54130
#
# Poissons Ratio (x) = 0.06871 0.20450
# Poissons Ratio (y) = 0.07497 0.22727
# Poissons Ratio (z) = 0.28826 0.29363
#
# Static dielectric constant tensor:
#      x y z
#    x 2.106090 0.000000 0.056650 
#    y 0.000000 2.007890 0.000000 
#    z 0.056650 0.000000 2.033520 
# 
# From -- ./inp_files/2889.got.cif
#   From: 2010.05.17/outbox.cif.g08.bks.cpg/sg4_2_cif.got.tgz:2889.got - 2010.06.03 18:43:04.
