data_PCOD9115191
_publ_section_title
;
Structure prediction by ZEFSAII (Michael W. Deem and Ramdas Pophale) SiO2 
 PCOD9115191
Probable space group: P 21
;
_chemical_formula_sum "Si O2"
_cell_formula_units_Z 16
_cell_length_a 5.238925
_cell_length_b 13.687441
_cell_length_c 8.627070
_cell_angle_alpha 90.000000
_cell_angle_beta 114.225159
_cell_angle_gamma 90.000000
_cell_volume 564.149285
_symmetry_space_group_name_H-M "P 21"
_symmetry_group_IT_number 4
_symmetry_cell_setting 'monoclinic'
loop_
_space_group_symop_operation_xyz
x,y,z
-x,1/2+y,-z
loop_
_atom_site_type_symbol
_atom_site_label
_atom_site_fract_x
_atom_site_fract_y
_atom_site_fract_z
Si Si1 0.711576 0.584200 0.805901
Si Si2 0.144596 0.285398 0.587497
Si Si3 0.435062 0.496346 0.276638
Si Si4 0.518983 0.267706 0.405791
Si Si5 0.734905 0.991801 0.125905
Si Si6 0.992225 0.976244 0.610609
Si Si7 0.262031 0.839825 0.950897
Si Si8 0.801450 0.732479 0.045820
O O1 0.694061 0.685884 0.709821
O O2 0.396501 0.558671 0.773630
O O3 0.928336 0.505765 0.791503
O O4 0.838523 0.621719 0.001717
O O5 0.842832 0.246651 0.454710
O O6 0.098950 0.402279 0.546412
O O7 0.428436 0.268027 0.563590
O O8 0.155417 0.250483 0.764416
O O9 0.461355 0.379210 0.328786
O O10 0.743747 0.538644 0.371267
O O11 0.248957 0.536264 0.368585
O O12 0.334910 0.510544 0.076020
O O13 0.506942 0.904298 0.090384
O O14 0.111355 0.906806 0.783554
O O15 0.470583 0.757787 0.933645
O O16 0.026541 0.798991 0.008273
#
# Coordination Sequence:
#
# PCOD9115191 Si02
#       8
#     2   2   2   2   2   2   2   2
#     4  12  23  36  60  91 116 152 199 240 286 349
#     4  10  20  35  58  86 115 146 190 244 287 330
#     4   9  17  32  56  81 105 141 190 235 273 327
#     4  10  20  38  61  82 110 157 202 228 275 355
#     4  11  22  36  58  89 121 150 188 245 299 340
#     4   9  16  31  56  81 103 144 188 222 271 336
#     4  11  21  39  62  86 116 151 194 245 291 344
#     4  12  23  37  61  92 118 145 195 253 292 331
#
# _framework density 28.361286
#
# number of rings (size 3 to 8) (size 9 to 14) (size 15 to 20)
#    0.000    1.500    0.000    9.750    0.000    0.000 
#    0.000    0.000    0.000   39.000    0.000    0.000 
#    0.000    0.000    0.000    0.000    0.000    0.000 
#
# Total GULP energy -89436.347929 kJ/mol
# GULP energy per Si atom -5589.771746 kJ/mol
# Density = 2.829673 g / cm^3
# Si number density = 28.361286 Si / 1000 Ang^3
#
#
#
# Elastic Constant Matrix: (Units=GPa)
#
#
# Indices 1 2 3 4 5 6 
#
# 1 221.7160 26.4489 31.1037 0.0000 -36.5671 0.0000
# 2 26.4489 66.5371 19.5149 0.0000 -8.5566 0.0000
# 3 31.1037 19.5149 94.9185 0.0000 -11.2670 0.0000
# 4 0.0000 0.0000 0.0000 41.1756 0.0000 2.8172
# 5 -36.5671 -8.5566 -11.2670 0.0000 53.1756 0.0000
# 6 0.0000 0.0000 0.0000 2.8172 0.0000 42.4988
#
#
#
# Elastic Compliance Matrix: (Units=1/GPa)
#
#
# Indices 1 2 3 4 5 6 
#
# 1 0.005362 -0.001397 -0.001086 0.000000 0.003233 0.000000
# 2 -0.001397 0.016552 -0.002814 0.000000 0.001106 0.000000
# 3 -0.001086 -0.002814 0.011620 0.000000 0.001262 0.000000
# 4 0.000000 0.000000 0.000000 0.024397 0.000000 -0.001617
# 5 0.003233 0.001106 0.001262 0.000000 0.021474 0.000000
# 6 0.000000 0.000000 0.000000 -0.001617 0.000000 0.023637
#
#
# Mechanical properties :
#
#
# Convention : Reuss Voigt Hill
#
# Bulk Modulus (GPa) = 43.59286 59.70073 51.64680
# Shear Modulus (GPa) = 41.22559 47.77695 44.50127
#
# Velocity S-wave (km/s) = 3.81673 4.10882 3.96547
# Velocity P-wave (km/s) = 5.90145 6.60346 6.26230
#
# Compressibility (1/GPa) = 0.02293954
#
# Stress axis : x y z
#
# Youngs Moduli (GPa) = 186.48041 60.41486 86.06114
#
# Poissons Ratio (x) = 0.08442 0.09348
# Poissons Ratio (y) = 0.26057 0.24216
# Poissons Ratio (z) = 0.20256 0.17000
#
# Static dielectric constant tensor:
#      x y z
#    x 2.293530 0.000000 0.009570 
#    y 0.000000 2.394110 0.000000 
#    z 0.009570 0.000000 2.293940 
# 
# From -- ./inp_files/4769.got.cif
#   From: 2010.05.17/outbox.cif.g08.bks.cpg/sg4_3_cif.got.tgz:4769.got - 2010.06.03 18:43:04.
