data_PCOD9115235
_publ_section_title
;
Structure prediction by ZEFSAII (Michael W. Deem and Ramdas Pophale) SiO2 
 PCOD9115235
Probable space group: P 21
;
_chemical_formula_sum "Si O2"
_cell_formula_units_Z 16
_cell_length_a 16.510191
_cell_length_b 8.603875
_cell_length_c 4.989770
_cell_angle_alpha 90.000000
_cell_angle_beta 108.100428
_cell_angle_gamma 90.000000
_cell_volume 673.728573
_symmetry_space_group_name_H-M "P 21"
_symmetry_group_IT_number 4
_symmetry_cell_setting 'monoclinic'
loop_
_space_group_symop_operation_xyz
x,y,z
-x,1/2+y,-z
loop_
_atom_site_type_symbol
_atom_site_label
_atom_site_fract_x
_atom_site_fract_y
_atom_site_fract_z
Si Si1 0.933440 0.561270 0.228463
Si Si2 0.777238 0.724917 0.247840
Si Si3 0.602320 0.806918 0.011158
Si Si4 0.424144 0.892379 0.933037
Si Si5 0.536646 0.601085 0.536443
Si Si6 0.353260 0.611534 0.622364
Si Si7 0.194932 0.439902 0.229912
Si Si8 0.016414 0.419144 0.833504
O O1 0.837091 0.582415 0.234886
O O2 0.962833 0.737100 0.184450
O O3 0.989803 0.493255 0.525828
O O4 0.944830 0.454982 0.980349
O O5 0.678337 0.699900 0.205650
O O6 0.817244 0.823787 0.530635
O O7 0.772812 0.835153 0.982656
O O8 0.629488 0.977919 0.137405
O O9 0.509631 0.786342 0.050222
O O10 0.583566 0.761454 0.681405
O O11 0.449021 0.005697 0.716778
O O12 0.350329 0.776601 0.768470
O O13 0.419660 0.985375 0.200107
O O14 0.436493 0.616574 0.513679
O O15 0.266654 0.563212 0.384772
O O16 0.102641 0.497086 0.040341
#
# Coordination Sequence:
#
# PCOD9115235 Si02
#       8
#     2   2   2   2   2   2   2   2
#     4  11  22  40  63  88 117 151 191 239 293 348
#     4  10  20  36  59  86 112 146 194 237 274 336
#     4   9  20  37  60  83 111 154 198 232 277 341
#     4  10  21  36  55  83 118 150 187 239 290 331
#     4  10  21  36  55  83 118 150 187 239 290 331
#     4   9  20  37  60  83 111 154 198 232 277 341
#     4  10  20  36  59  86 112 146 194 237 274 336
#     4  11  22  40  63  88 117 151 191 239 293 348
#
# _framework density 23.748436000000002
#
# number of rings (size 3 to 8) (size 9 to 14) (size 15 to 20)
#    0.000    2.000    0.000    4.500    0.000   12.000 
#    0.000    3.750    0.000    0.000    0.000    0.000 
#    0.000    0.000    0.000    0.000    0.000    0.000 
#
# Total GULP energy -89450.231576 kJ/mol
# GULP energy per Si atom -5590.639474 kJ/mol
# Density = 2.369438 g / cm^3
# Si number density = 23.748436 Si / 1000 Ang^3
#
#
#
# Elastic Constant Matrix: (Units=GPa)
#
#
# Indices 1 2 3 4 5 6 
#
# 1 53.1381 8.1568 -5.8863 0.0000 -1.3485 0.0000
# 2 8.1568 62.2420 24.5717 0.0000 -10.1976 0.0000
# 3 -5.8863 24.5717 96.6955 0.0000 -12.3755 0.0000
# 4 0.0000 0.0000 0.0000 44.7026 0.0000 -0.6373
# 5 -1.3485 -10.1976 -12.3755 0.0000 27.1552 0.0000
# 6 0.0000 0.0000 0.0000 -0.6373 0.0000 28.3212
#
#
#
# Elastic Compliance Matrix: (Units=1/GPa)
#
#
# Indices 1 2 3 4 5 6 
#
# 1 0.019576 -0.003286 0.002117 0.000000 0.000703 0.000000
# 2 -0.003286 0.019052 -0.004403 0.000000 0.004985 0.000000
# 3 0.002117 -0.004403 0.012097 0.000000 0.003964 0.000000
# 4 0.000000 0.000000 0.000000 0.022377 0.000000 0.000504
# 5 0.000703 0.004985 0.003964 0.000000 0.040539 0.000000
# 6 0.000000 0.000000 0.000000 0.000504 0.000000 0.035321
#
#
# Mechanical properties :
#
#
# Convention : Reuss Voigt Hill
#
# Bulk Modulus (GPa) = 25.26585 29.52888 27.39737
# Shear Modulus (GPa) = 28.85178 32.38470 30.61824
#
# Velocity S-wave (km/s) = 3.48931 3.69678 3.59454
# Velocity P-wave (km/s) = 5.18611 5.53919 5.36555
#
# Compressibility (1/GPa) = 0.03957912
#
# Stress axis : x y z
#
# Youngs Moduli (GPa) = 51.08411 52.48803 82.66549
#
# Poissons Ratio (x) = 0.17247 -0.17497
# Poissons Ratio (y) = 0.16785 0.36401
# Poissons Ratio (z) = -0.10812 0.23113
#
# Static dielectric constant tensor:
#      x y z
#    x 2.045710 0.000000 -0.002200 
#    y 0.000000 1.996680 0.000000 
#    z -0.002200 0.000000 1.916830 
# 
# From -- ./inp_files/4074.got.cif
#   From: 2010.05.17/outbox.cif.g08.bks.cpg/sg4_3_cif.got.tgz:4074.got - 2010.06.03 18:43:04.
