data_PCOD9115869
_publ_section_title
;
Structure prediction by ZEFSAII (Michael W. Deem and Ramdas Pophale) SiO2 
 PCOD9115869
Probable space group: P 21
;
_chemical_formula_sum "Si O2"
_cell_formula_units_Z 14
_cell_length_a 10.203911
_cell_length_b 5.131688
_cell_length_c 21.300543
_cell_angle_alpha 90.000000
_cell_angle_beta 30.391705
_cell_angle_gamma 90.000000
_cell_volume 564.273806
_symmetry_space_group_name_H-M "P 21"
_symmetry_group_IT_number 4
_symmetry_cell_setting 'monoclinic'
loop_
_space_group_symop_operation_xyz
x,y,z
-x,1/2+y,-z
loop_
_atom_site_type_symbol
_atom_site_label
_atom_site_fract_x
_atom_site_fract_y
_atom_site_fract_z
Si Si1 0.149212 0.923900 0.727475
Si Si2 0.547849 0.043310 0.204998
Si Si3 0.448924 0.041423 0.726847
Si Si4 0.819454 0.422408 0.880467
Si Si5 0.927926 0.078076 0.457148
Si Si6 0.081567 0.077337 0.619064
Si Si7 0.486986 0.738694 0.108131
O O1 0.352256 0.953811 0.698957
O O2 0.217383 0.014702 0.629035
O O3 0.038997 0.632023 0.771349
O O4 0.929912 0.132742 0.838703
O O5 0.639898 0.828065 0.217045
O O6 0.600486 0.921299 0.115358
O O7 0.234827 0.055550 0.339211
O O8 0.638832 0.330138 0.185705
O O9 0.760684 0.044222 0.589098
O O10 0.617632 0.413578 0.906208
O O11 0.685220 0.532844 0.997744
O O12 0.859220 0.854789 0.435136
O O13 0.858344 0.352949 0.455006
O O14 0.770002 0.087927 0.760815
#
# Coordination Sequence:
#
# PCOD9115869 Si02
#       7
#     2   2   2   2   2   2   2
#     4  11  24  41  60  93 131 166 205 248 312 381
#     4  11  23  40  63  91 122 162 212 258 302 369
#     4  12  25  41  61  87 131 176 203 244 307 378
#     4  11  23  41  69  96 121 156 206 266 317 366
#     4  11  22  39  64  92 120 161 215 264 307 352
#     4  10  21  37  63  94 122 152 206 271 313 360
#     4  10  22  41  70  97 121 155 207 271 324 352
#
# _framework density 24.810651
#
# number of rings (size 3 to 8) (size 9 to 14) (size 15 to 20)
#    0.000    1.143    0.000    8.571    0.000    6.857 
#    0.000    2.857    0.000    0.000    0.000    0.000 
#    0.000    0.000    0.000    0.000    0.000    0.000 
#
# Total GULP energy -78466.627037 kJ/mol
# GULP energy per Si atom -5604.759074 kJ/mol
# Density = 2.475418 g / cm^3
# Si number density = 24.810651 Si / 1000 Ang^3
#
#
#
# Elastic Constant Matrix: (Units=GPa)
#
#
# Indices 1 2 3 4 5 6 
#
# 1 80.7623 16.3165 -6.0597 0.0000 10.5425 0.0000
# 2 16.3165 80.1208 9.6281 0.0000 4.4061 0.0000
# 3 -6.0597 9.6281 46.4361 0.0000 20.6745 0.0000
# 4 0.0000 0.0000 0.0000 40.2377 0.0000 17.0561
# 5 10.5425 4.4061 20.6745 0.0000 24.3371 0.0000
# 6 0.0000 0.0000 0.0000 17.0561 0.0000 35.8712
#
#
#
# Elastic Compliance Matrix: (Units=1/GPa)
#
#
# Indices 1 2 3 4 5 6 
#
# 1 0.015509 -0.003468 0.008772 0.000000 -0.013542 0.000000
# 2 -0.003468 0.013576 -0.004571 0.000000 0.002927 0.000000
# 3 0.008772 -0.004571 0.040128 0.000000 -0.037061 0.000000
# 4 0.000000 0.000000 0.000000 0.031126 0.000000 -0.014800
# 5 -0.013542 0.002927 -0.037061 0.000000 0.077910 0.000000
# 6 0.000000 0.000000 0.000000 -0.014800 0.000000 0.034914
#
#
# Mechanical properties :
#
#
# Convention : Reuss Voigt Hill
#
# Bulk Modulus (GPa) = 14.14828 27.45436 20.80132
# Shear Modulus (GPa) = 21.25360 32.58481 26.91920
#
# Velocity S-wave (km/s) = 2.93000 3.62793 3.29749
# Velocity P-wave (km/s) = 4.14264 5.35152 4.78541
#
# Compressibility (1/GPa) = 0.07067999
#
# Stress axis : x y z
#
# Youngs Moduli (GPa) = 64.48056 73.66146 24.92023
#
# Poissons Ratio (x) = 0.25544 -0.21860
# Poissons Ratio (y) = 0.22360 0.11390
# Poissons Ratio (z) = -0.56563 0.33667
#
# Static dielectric constant tensor:
#      x y z
#    x 1.983610 0.000000 -0.041610 
#    y 0.000000 1.919680 0.000000 
#    z -0.041610 0.000000 1.995570 
# 
# From -- ./inp_files/14757.got.cif
#   From: 2010.05.17/outbox.cif.g08.bks.cpg/sg4_8_cif.got.tgz:14757.got - 2010.06.03 18:43:04.
