data_PCOD9115272
_publ_section_title
;
Structure prediction by ZEFSAII (Michael W. Deem and Ramdas Pophale) SiO2 
 PCOD9115272
Probable space group: P 21
;
_chemical_formula_sum "Si O2"
_cell_formula_units_Z 14
_cell_length_a 4.988409
_cell_length_b 15.861755
_cell_length_c 9.173403
_cell_angle_alpha 90.000000
_cell_angle_beta 81.224338
_cell_angle_gamma 90.000000
_cell_volume 717.347528
_symmetry_space_group_name_H-M "P 21"
_symmetry_group_IT_number 4
_symmetry_cell_setting 'monoclinic'
loop_
_space_group_symop_operation_xyz
x,y,z
-x,1/2+y,-z
loop_
_atom_site_type_symbol
_atom_site_label
_atom_site_fract_x
_atom_site_fract_y
_atom_site_fract_z
Si Si1 0.232066 0.053340 0.049986
Si Si2 0.922910 0.590719 0.423164
Si Si3 0.630903 0.858947 0.544352
Si Si4 0.528707 0.028511 0.727012
Si Si5 0.948988 0.976530 0.323030
Si Si6 0.707234 0.124890 0.178967
Si Si7 0.113483 0.750036 0.593740
O O1 0.389386 0.024437 0.895248
O O2 0.420692 0.118001 0.125341
O O3 0.948630 0.101247 0.047333
O O4 0.149385 0.977625 0.167961
O O5 0.645186 0.592717 0.358231
O O6 0.162815 0.559325 0.297967
O O7 0.906159 0.519801 0.551008
O O8 0.014518 0.676314 0.493300
O O9 0.526086 0.939131 0.644550
O O10 0.799029 0.894153 0.391680
O O11 0.375339 0.802505 0.520915
O O12 0.851046 0.809631 0.624188
O O13 0.728255 0.046742 0.291351
O O14 0.787802 0.206315 0.264451
#
# Coordination Sequence:
#
# PCOD9115272 Si02
#       7
#     2   2   2   2   2   2   2
#     4  10  20  36  64  82 115 149 203 243 289 340
#     4  10  21  37  61  86 117 149 208 243 287 347
#     4  11  22  35  61  91 125 151 194 256 307 341
#     4  11  22  38  62  94 114 154 204 255 282 351
#     4   8  21  34  62  83 112 152 202 235 284 354
#     4   9  20  35  61  84 111 160 203 233 276 373
#     4  11  22  37  61  90 122 155 198 249 307 348
#
# _framework density 19.516344
#
# number of rings (size 3 to 8) (size 9 to 14) (size 15 to 20)
#    0.857    1.143    0.000    4.286    8.000    0.000 
#    0.000    0.000   12.571    0.000    0.000    0.000 
#    0.000    0.000    0.000    0.000    0.000    0.000 
#
# Total GULP energy -78039.391363 kJ/mol
# GULP energy per Si atom -5574.242240 kJ/mol
# Density = 1.947192 g / cm^3
# Si number density = 19.516344 Si / 1000 Ang^3
#
#
#
# Elastic Constant Matrix: (Units=GPa)
#
#
# Indices 1 2 3 4 5 6 
#
# 1 83.4574 19.5682 6.6870 0.0000 0.2672 0.0000
# 2 19.5682 68.4921 17.2113 0.0000 -1.6032 0.0000
# 3 6.6870 17.2113 103.4630 0.0000 -19.3630 0.0000
# 4 0.0000 0.0000 0.0000 7.9605 0.0000 -5.9464
# 5 0.2672 -1.6032 -19.3630 0.0000 28.7838 0.0000
# 6 0.0000 0.0000 0.0000 -5.9464 0.0000 29.9520
#
#
#
# Elastic Compliance Matrix: (Units=1/GPa)
#
#
# Indices 1 2 3 4 5 6 
#
# 1 0.012855 -0.003602 -0.000334 0.000000 -0.000544 0.000000
# 2 -0.003602 0.016270 -0.002629 0.000000 -0.000829 0.000000
# 3 -0.000334 -0.002629 0.011552 0.000000 0.007628 0.000000
# 4 0.000000 0.000000 0.000000 0.147494 0.000000 0.029282
# 5 -0.000544 -0.000829 0.007628 0.000000 0.039832 0.000000
# 6 0.000000 0.000000 0.000000 0.029282 0.000000 0.039200
#
#
# Mechanical properties :
#
#
# Convention : Reuss Voigt Hill
#
# Bulk Modulus (GPa) = 36.29916 38.03841 37.16878
# Shear Modulus (GPa) = 17.27031 27.46900 22.36966
#
# Velocity S-wave (km/s) = 2.97798 3.75572 3.38923
# Velocity P-wave (km/s) = 5.51944 6.19194 5.86534
#
# Compressibility (1/GPa) = 0.02754885
#
# Stress axis : x y z
#
# Youngs Moduli (GPa) = 77.79010 61.46120 86.56766
#
# Poissons Ratio (x) = 0.22136 0.02888
# Poissons Ratio (y) = 0.28017 0.22758
# Poissons Ratio (z) = 0.02595 0.16158
#
# Static dielectric constant tensor:
#      x y z
#    x 1.699910 0.000000 -0.010040 
#    y 0.000000 1.687820 0.000000 
#    z -0.010040 0.000000 1.691160 
# 
# From -- ./inp_files/4825.got.cif
#   From: 2010.05.17/outbox.cif.g08.bks.cpg/sg4_3_cif.got.tgz:4825.got - 2010.06.03 18:43:04.
