data_PCOD9115844
_publ_section_title
;
Structure prediction by ZEFSAII (Michael W. Deem and Ramdas Pophale) SiO2 
 PCOD9115844
Probable space group: P 21
;
_chemical_formula_sum "Si O2"
_cell_formula_units_Z 16
_cell_length_a 6.635571
_cell_length_b 10.737003
_cell_length_c 10.523823
_cell_angle_alpha 90.000000
_cell_angle_beta 125.805357
_cell_angle_gamma 90.000000
_cell_volume 608.079902
_symmetry_space_group_name_H-M "P 21"
_symmetry_group_IT_number 4
_symmetry_cell_setting 'monoclinic'
loop_
_space_group_symop_operation_xyz
x,y,z
-x,1/2+y,-z
loop_
_atom_site_type_symbol
_atom_site_label
_atom_site_fract_x
_atom_site_fract_y
_atom_site_fract_z
Si Si1 0.589659 0.917430 0.372460
Si Si2 0.491535 0.748378 0.578259
Si Si3 0.970421 0.797813 0.348846
Si Si4 0.960689 0.525512 0.312502
Si Si5 0.069719 0.356811 0.106154
Si Si6 0.465360 0.449027 0.090366
Si Si7 0.834141 0.547077 0.704886
Si Si8 0.306101 0.701163 0.938747
O O1 0.516193 0.845159 0.473091
O O2 0.708064 0.821082 0.318030
O O3 0.342126 0.994044 0.243308
O O4 0.831587 0.997004 0.505259
O O5 0.684276 0.779431 0.760692
O O6 0.598392 0.620710 0.555797
O O7 0.211362 0.764106 0.523900
O O8 0.962457 0.668771 0.270079
O O9 0.036747 0.925293 0.303930
O O10 0.690961 0.486485 0.266991
O O11 0.002094 0.439153 0.204585
O O12 0.187257 0.442196 0.041797
O O13 0.838727 0.265787 0.994361
O O14 0.535679 0.315487 0.057948
O O15 0.459307 0.574148 0.003761
O O16 0.053055 0.650258 0.778279
#
# Coordination Sequence:
#
# PCOD9115844 Si02
#       8
#     2   2   2   2   2   2   2   2
#     4  10  21  37  59  92 124 167 213 259 324 388
#     4   9  19  37  59  86 129 160 210 259 316 394
#     4  11  22  34  62  94 126 175 210 275 321 394
#     4  10  22  40  60  98 129 166 220 267 325 395
#     4   9  21  43  67  91 127 176 208 270 336 387
#     4  11  24  45  73  95 132 172 218 281 330 395
#     4  10  22  39  58  89 130 164 212 275 324 389
#     4  10  25  45  68  99 125 170 225 278 326 396
#
# _framework density 26.312328999999998
#
# number of rings (size 3 to 8) (size 9 to 14) (size 15 to 20)
#    0.000    2.000    1.250    1.500    3.500    6.000 
#    2.250    0.000    0.000    0.000    0.000    0.000 
#    0.000    0.000    0.000    0.000    0.000    0.000 
#
# Total GULP energy -89122.565741 kJ/mol
# GULP energy per Si atom -5570.160359 kJ/mol
# Density = 2.625244 g / cm^3
# Si number density = 26.312329 Si / 1000 Ang^3
#
#
#
# Elastic Constant Matrix: (Units=GPa)
#
#
# Indices 1 2 3 4 5 6 
#
# 1 111.2784 31.1570 32.1811 0.0000 29.5966 0.0000
# 2 31.1570 187.7209 18.7475 0.0000 6.8443 0.0000
# 3 32.1811 18.7475 52.1819 0.0000 28.8119 0.0000
# 4 0.0000 0.0000 0.0000 23.8521 0.0000 17.0062
# 5 29.5966 6.8443 28.8119 0.0000 37.4148 0.0000
# 6 0.0000 0.0000 0.0000 17.0062 0.0000 63.5268
#
#
#
# Elastic Compliance Matrix: (Units=1/GPa)
#
#
# Indices 1 2 3 4 5 6 
#
# 1 0.012142 -0.001449 -0.003150 0.000000 -0.006914 0.000000
# 2 -0.001449 0.005716 -0.002115 0.000000 0.001729 0.000000
# 3 -0.003150 -0.002115 0.035275 0.000000 -0.024286 0.000000
# 4 0.000000 0.000000 0.000000 0.051815 0.000000 -0.013871
# 5 -0.006914 0.001729 -0.024286 0.000000 0.050582 0.000000
# 6 0.000000 0.000000 0.000000 -0.013871 0.000000 0.019455
#
#
# Mechanical properties :
#
#
# Convention : Reuss Voigt Hill
#
# Bulk Modulus (GPa) = 25.18490 57.26140 41.22315
# Shear Modulus (GPa) = 24.79587 42.89846 33.84716
#
# Velocity S-wave (km/s) = 3.07313 4.04215 3.59048
# Velocity P-wave (km/s) = 4.71004 6.60263 5.73494
#
# Compressibility (1/GPa) = 0.03970634
#
# Stress axis : x y z
#
# Youngs Moduli (GPa) = 82.35907 174.95847 28.34835
#
# Poissons Ratio (x) = 0.25344 0.08930
# Poissons Ratio (y) = 0.11930 0.05995
# Poissons Ratio (z) = 0.25944 0.36997
#
# Static dielectric constant tensor:
#      x y z
#    x 2.158530 0.000000 0.006110 
#    y 0.000000 2.219200 0.000000 
#    z 0.006110 0.000000 2.183680 
# 
# From -- ./inp_files/10552.got.cif
#   From: 2010.05.17/outbox.cif.g08.bks.cpg/sg4_6_cif.got.tgz:10552.got - 2010.06.03 18:43:04.
