data_PCOD9115514
_publ_section_title
;
Structure prediction by ZEFSAII (Michael W. Deem and Ramdas Pophale) SiO2 
 PCOD9115514
Probable space group: P 21
;
_chemical_formula_sum "Si O2"
_cell_formula_units_Z 16
_cell_length_a 9.521903
_cell_length_b 5.516670
_cell_length_c 23.431674
_cell_angle_alpha 90.000000
_cell_angle_beta 140.693166
_cell_angle_gamma 90.000000
_cell_volume 779.708556
_symmetry_space_group_name_H-M "P 21"
_symmetry_group_IT_number 4
_symmetry_cell_setting 'monoclinic'
loop_
_space_group_symop_operation_xyz
x,y,z
-x,1/2+y,-z
loop_
_atom_site_type_symbol
_atom_site_label
_atom_site_fract_x
_atom_site_fract_y
_atom_site_fract_z
Si Si1 0.475392 0.392930 0.213686
Si Si2 0.425680 0.212161 0.507813
Si Si3 0.987727 0.478142 0.354849
Si Si4 0.422885 0.107701 0.314673
Si Si5 0.212729 0.511638 0.307756
Si Si6 0.116591 0.203405 0.018714
Si Si7 0.916198 0.150750 0.498331
Si Si8 0.127801 0.712973 0.164202
O O1 0.727807 0.428461 0.275319
O O2 0.476126 0.271241 0.275842
O O3 0.318854 0.623236 0.179852
O O4 0.345865 0.244746 0.124057
O O5 0.518783 0.457972 0.506847
O O6 0.569435 0.175768 0.611166
O O7 0.161948 0.263180 0.426845
O O8 0.057466 0.549462 0.312978
O O9 0.034643 0.673417 0.418986
O O10 0.312642 0.244497 0.333259
O O11 0.670553 0.047665 0.411496
O O12 0.235306 0.940238 0.228810
O O13 0.099696 0.544773 0.210790
O O14 0.091163 0.236346 0.942573
O O15 0.967836 0.430796 0.994793
O O16 0.939043 0.420378 0.478832
#
# Coordination Sequence:
#
# PCOD9115514 Si02
#       8
#     2   2   2   2   2   2   2   2
#     4  10  21  42  64  98 124 163 212 270 322 372
#     4  10  24  42  59  89 126 178 218 251 302 381
#     4  11  24  42  65  93 134 167 218 260 323 372
#     4  11  22  40  62  91 125 166 213 261 310 383
#     4  10  25  39  64  90 129 174 215 258 314 389
#     4  10  20  39  70  98 123 162 214 268 321 385
#     4  12  27  42  62  93 131 167 211 267 316 366
#     4  10  21  40  68  92 126 163 217 263 322 382
#
# _framework density 20.520489999999999
#
# number of rings (size 3 to 8) (size 9 to 14) (size 15 to 20)
#    0.000    1.500    2.500    1.500   14.000    0.000 
#    4.500    0.000    2.750    0.000    0.000    0.000 
#    0.000    0.000    0.000    0.000    0.000    0.000 
#
# Total GULP energy -89089.813357 kJ/mol
# GULP energy per Si atom -5568.113335 kJ/mol
# Density = 2.047378 g / cm^3
# Si number density = 20.520490 Si / 1000 Ang^3
#
#
#
# Elastic Constant Matrix: (Units=GPa)
#
#
# Indices 1 2 3 4 5 6 
#
# 1 91.8942 11.4136 39.2371 0.0000 -6.0300 0.0000
# 2 11.4136 52.2253 -6.4886 0.0000 2.8367 0.0000
# 3 39.2371 -6.4886 125.4702 0.0000 -16.1668 0.0000
# 4 0.0000 0.0000 0.0000 35.9809 0.0000 -11.9338
# 5 -6.0300 2.8367 -16.1668 0.0000 32.7227 0.0000
# 6 0.0000 0.0000 0.0000 -11.9338 0.0000 23.5808
#
#
#
# Elastic Compliance Matrix: (Units=1/GPa)
#
#
# Indices 1 2 3 4 5 6 
#
# 1 0.013146 -0.003430 -0.004206 0.000000 0.000642 0.000000
# 2 -0.003430 0.020215 0.001934 0.000000 -0.001429 0.000000
# 3 -0.004206 0.001934 0.009894 0.000000 0.003945 0.000000
# 4 0.000000 0.000000 0.000000 0.033399 0.000000 0.016902
# 5 0.000642 -0.001429 0.003945 0.000000 0.032751 0.000000
# 6 0.000000 0.000000 0.000000 0.016902 0.000000 0.050961
#
#
# Mechanical properties :
#
#
# Convention : Reuss Voigt Hill
#
# Bulk Modulus (GPa) = 31.39628 39.76822 35.58225
# Shear Modulus (GPa) = 27.41417 33.48537 30.44977
#
# Velocity S-wave (km/s) = 3.65902 4.04394 3.85628
# Velocity P-wave (km/s) = 5.76059 6.42078 6.09962
#
# Compressibility (1/GPa) = 0.03185091
#
# Stress axis : x y z
#
# Youngs Moduli (GPa) = 76.06850 49.46721 101.07543
#
# Poissons Ratio (x) = 0.16969 0.42509
# Poissons Ratio (y) = 0.26095 -0.19549
# Poissons Ratio (z) = 0.31992 -0.09567
#
# Static dielectric constant tensor:
#      x y z
#    x 1.797370 0.000000 -0.032640 
#    y 0.000000 1.879140 0.000000 
#    z -0.032640 0.000000 1.787420 
# 
# From -- ./inp_files/8655.got.cif
#   From: 2010.05.17/outbox.cif.g08.bks.cpg/sg4_5_cif.got.tgz:8655.got - 2010.06.03 18:43:04.
