data_PCOD9115952
_publ_section_title
;
Structure prediction by ZEFSAII (Michael W. Deem and Ramdas Pophale) SiO2 
 PCOD9115952
Probable space group: P 21
;
_chemical_formula_sum "Si O2"
_cell_formula_units_Z 12
_cell_length_a 7.974371
_cell_length_b 4.929529
_cell_length_c 12.502427
_cell_angle_alpha 90.000000
_cell_angle_beta 78.936931
_cell_angle_gamma 90.000000
_cell_volume 482.335880
_symmetry_space_group_name_H-M "P 21"
_symmetry_group_IT_number 4
_symmetry_cell_setting 'monoclinic'
loop_
_space_group_symop_operation_xyz
x,y,z
-x,1/2+y,-z
loop_
_atom_site_type_symbol
_atom_site_label
_atom_site_fract_x
_atom_site_fract_y
_atom_site_fract_z
Si Si1 0.941857 0.557410 0.707239
Si Si2 0.266931 0.049565 0.055169
Si Si3 0.664779 0.057022 0.077509
Si Si4 0.779712 0.037125 0.629622
Si Si5 0.299315 0.344974 0.601217
Si Si6 0.570363 0.314831 0.304372
O O1 0.862889 0.603362 0.833459
O O2 0.827740 0.342710 0.652916
O O3 0.128131 0.431301 0.683869
O O4 0.933490 0.844693 0.648777
O O5 0.461529 0.056522 0.076122
O O6 0.266550 0.257649 0.955425
O O7 0.239318 0.746881 0.018103
O O8 0.672816 0.208986 0.189271
O O9 0.548955 0.040885 0.375907
O O10 0.738570 0.942693 0.514341
O O11 0.607278 0.946694 0.711994
O O12 0.343193 0.040448 0.630482
#
# Coordination Sequence:
#
# PCOD9115952 Si02
#       6
#     2   2   2   2   2   2
#     4  12  24  43  69  99 133 179 224 277 334 397
#     4  10  21  38  65  98 123 162 227 278 318 383
#     4  10  21  38  65  98 123 164 222 281 319 386
#     4  12  24  43  70  97 132 183 234 265 323 409
#     4  12  26  43  64 101 144 174 215 281 342 404
#     4  12  24  43  67  99 135 178 220 276 342 397
#
# _framework density 24.87893
#
# number of rings (size 3 to 8) (size 9 to 14) (size 15 to 20)
#    0.000    0.667    1.667    7.000    4.667    0.000 
#    0.000    3.333    0.000    0.000    0.000    0.000 
#    0.000    0.000    0.000    0.000    0.000    0.000 
#
# Total GULP energy -67158.965938 kJ/mol
# GULP energy per Si atom -5596.580495 kJ/mol
# Density = 2.482230 g / cm^3
# Si number density = 24.878930 Si / 1000 Ang^3
#
#
#
# Elastic Constant Matrix: (Units=GPa)
#
#
# Indices 1 2 3 4 5 6 
#
# 1 71.4638 14.9221 6.0375 0.0000 -8.6586 0.0000
# 2 14.9221 110.2545 24.1291 0.0000 3.1412 0.0000
# 3 6.0375 24.1291 90.1342 0.0000 -10.2565 0.0000
# 4 0.0000 0.0000 0.0000 45.7309 0.0000 12.9327
# 5 -8.6586 3.1412 -10.2565 0.0000 23.8453 0.0000
# 6 0.0000 0.0000 0.0000 12.9327 0.0000 14.5225
#
#
#
# Elastic Compliance Matrix: (Units=1/GPa)
#
#
# Indices 1 2 3 4 5 6 
#
# 1 0.015164 -0.002280 0.000268 0.000000 0.005922 0.000000
# 2 -0.002280 0.010121 -0.002947 0.000000 -0.003429 0.000000
# 3 0.000268 -0.002947 0.012534 0.000000 0.005877 0.000000
# 4 0.000000 0.000000 0.000000 0.029228 0.000000 -0.026028
# 5 0.005922 -0.003429 0.005877 0.000000 0.047067 0.000000
# 6 0.000000 0.000000 0.000000 -0.026028 0.000000 0.092037
#
#
# Mechanical properties :
#
#
# Convention : Reuss Voigt Hill
#
# Bulk Modulus (GPa) = 35.83866 40.22556 38.03211
# Shear Modulus (GPa) = 22.18587 31.93732 27.06160
#
# Velocity S-wave (km/s) = 2.98946 3.58678 3.30166
# Velocity P-wave (km/s) = 5.13345 5.77554 5.46394
#
# Compressibility (1/GPa) = 0.02790283
#
# Stress axis : x y z
#
# Youngs Moduli (GPa) = 65.94575 98.80361 79.78156
#
# Poissons Ratio (x) = 0.22525 -0.02142
# Poissons Ratio (y) = 0.15034 0.23511
# Poissons Ratio (z) = -0.01770 0.29116
#
# Static dielectric constant tensor:
#      x y z
#    x 2.011880 0.000000 0.008270 
#    y 0.000000 1.911930 0.000000 
#    z 0.008270 0.000000 1.995800 
# 
# From -- ./inp_files/10694.got.cif
#   From: 2010.05.17/outbox.cif.g08.bks.cpg/sg4_6_cif.got.tgz:10694.got - 2010.06.03 18:43:04.
