data_PCOD9115802
_publ_section_title
;
Structure prediction by ZEFSAII (Michael W. Deem and Ramdas Pophale) SiO2 
 PCOD9115802
Probable space group: P 21
;
_chemical_formula_sum "Si O2"
_cell_formula_units_Z 14
_cell_length_a 12.584525
_cell_length_b 4.996420
_cell_length_c 18.804949
_cell_angle_alpha 90.000000
_cell_angle_beta 145.603563
_cell_angle_gamma 90.000000
_cell_volume 667.961704
_symmetry_space_group_name_H-M "P 21"
_symmetry_group_IT_number 4
_symmetry_cell_setting 'monoclinic'
loop_
_space_group_symop_operation_xyz
x,y,z
-x,1/2+y,-z
loop_
_atom_site_type_symbol
_atom_site_label
_atom_site_fract_x
_atom_site_fract_y
_atom_site_fract_z
Si Si1 0.977809 0.913710 0.084443
Si Si2 0.794085 0.911862 0.826342
Si Si3 0.308698 0.109846 0.981436
Si Si4 0.417670 0.761748 0.670959
Si Si5 0.693197 0.459059 0.180356
Si Si6 0.490553 0.268234 0.811953
Si Si7 0.978650 0.039419 0.536942
O O1 0.147649 0.703330 0.166846
O O2 0.077263 0.198263 0.142608
O O3 0.848138 0.813036 0.076794
O O4 0.852999 0.897817 0.942821
O O5 0.575174 0.835085 0.700649
O O6 0.272073 0.997846 0.883191
O O7 0.509494 0.270292 0.089370
O O8 0.319032 0.867942 0.044459
O O9 0.469529 0.495947 0.742332
O O10 0.443163 0.998637 0.743004
O O11 0.204329 0.690150 0.531919
O O12 0.634045 0.737825 0.185595
O O13 0.882748 0.403767 0.329061
O O14 0.931805 0.786132 0.459574
#
# Coordination Sequence:
#
# PCOD9115802 Si02
#       7
#     2   2   2   2   2   2   2
#     4  10  22  35  58  88 123 154 204 256 306 369
#     4  10  21  36  58  86 117 159 204 257 312 352
#     4  12  25  39  63  94 135 167 200 255 319 388
#     4  12  22  39  65  87 125 161 205 261 310 358
#     4  12  25  39  63  92 128 169 203 243 321 380
#     4  12  21  37  61  87 122 162 196 247 310 370
#     4  12  24  41  62  90 124 164 212 257 300 371
#
# _framework density 20.959285999999999
#
# number of rings (size 3 to 8) (size 9 to 14) (size 15 to 20)
#    0.000    0.571    7.143    0.857    6.000    0.000 
#    0.000    0.000    0.000    1.714    0.000    0.000 
#    0.000    0.000    0.000    0.000    0.000    0.000 
#
# Total GULP energy -78062.719874 kJ/mol
# GULP energy per Si atom -5575.908562 kJ/mol
# Density = 2.091158 g / cm^3
# Si number density = 20.959286 Si / 1000 Ang^3
#
#
#
# Elastic Constant Matrix: (Units=GPa)
#
#
# Indices 1 2 3 4 5 6 
#
# 1 76.5092 0.5446 32.9642 0.0000 18.0336 0.0000
# 2 0.5446 53.2342 15.0057 0.0000 -11.2965 0.0000
# 3 32.9642 15.0057 97.7763 0.0000 12.8667 0.0000
# 4 0.0000 0.0000 0.0000 20.0783 0.0000 6.7247
# 5 18.0336 -11.2965 12.8667 0.0000 29.1848 0.0000
# 6 0.0000 0.0000 0.0000 6.7247 0.0000 23.7304
#
#
#
# Elastic Compliance Matrix: (Units=1/GPa)
#
#
# Indices 1 2 3 4 5 6 
#
# 1 0.017102 -0.000805 -0.004470 0.000000 -0.008908 0.000000
# 2 -0.000805 0.022497 -0.004663 0.000000 0.011261 0.000000
# 3 -0.004470 -0.004663 0.013083 0.000000 -0.004811 0.000000
# 4 0.000000 0.000000 0.000000 0.055028 0.000000 -0.015594
# 5 -0.008908 0.011261 -0.004811 0.000000 0.046249 0.000000
# 6 0.000000 0.000000 0.000000 -0.015594 0.000000 0.046559
#
#
# Mechanical properties :
#
#
# Convention : Reuss Voigt Hill
#
# Bulk Modulus (GPa) = 30.48261 36.06097 33.27179
# Shear Modulus (GPa) = 21.61418 26.53238 24.07328
#
# Velocity S-wave (km/s) = 3.21479 3.56181 3.39274
# Velocity P-wave (km/s) = 5.32495 5.84448 5.59075
#
# Compressibility (1/GPa) = 0.03280559
#
# Stress axis : x y z
#
# Youngs Moduli (GPa) = 58.47397 44.44976 76.43466
#
# Poissons Ratio (x) = 0.03580 0.34164
# Poissons Ratio (y) = 0.04710 0.35642
# Poissons Ratio (z) = 0.26136 0.20727
#
# Static dielectric constant tensor:
#      x y z
#    x 1.804460 0.000000 0.084720 
#    y 0.000000 1.808240 0.000000 
#    z 0.084720 0.000000 1.813360 
# 
# From -- ./inp_files/15042.got.cif
#   From: 2010.05.17/outbox.cif.g08.bks.cpg/sg4_8_cif.got.tgz:15042.got - 2010.06.03 18:43:04.
