data_PCOD9115070
_publ_section_title
;
Structure prediction by ZEFSAII (Michael W. Deem and Ramdas Pophale) SiO2 
 PCOD9115070
Probable space group: P 21
;
_chemical_formula_sum "Si O2"
_cell_formula_units_Z 12
_cell_length_a 7.368558
_cell_length_b 7.911260
_cell_length_c 8.128091
_cell_angle_alpha 90.000000
_cell_angle_beta 72.766526
_cell_angle_gamma 90.000000
_cell_volume 452.551531
_symmetry_space_group_name_H-M "P 21"
_symmetry_group_IT_number 4
_symmetry_cell_setting 'monoclinic'
loop_
_space_group_symop_operation_xyz
x,y,z
-x,1/2+y,-z
loop_
_atom_site_type_symbol
_atom_site_label
_atom_site_fract_x
_atom_site_fract_y
_atom_site_fract_z
Si Si1 0.438440 0.161690 0.037702
Si Si2 0.716550 0.342823 0.758296
Si Si3 0.903034 0.990239 0.241247
Si Si4 0.574877 0.188891 0.457335
Si Si5 0.718290 0.518715 0.268221
Si Si6 0.904979 0.853686 0.877200
O O1 0.646576 0.221544 0.926866
O O2 0.339169 0.091982 0.894718
O O3 0.307921 0.320832 0.127683
O O4 0.407474 0.012961 0.175904
O O5 0.663921 0.257863 0.602952
O O6 0.935904 0.391812 0.702362
O O7 0.701346 0.026712 0.375884
O O8 0.885909 0.896174 0.073742
O O9 0.992007 0.175188 0.183235
O O10 0.613003 0.337408 0.317512
O O11 0.364688 0.134229 0.564513
O O12 0.942944 0.489153 0.228434
#
# Coordination Sequence:
#
# PCOD9115070 Si02
#       6
#     2   2   2   2   2   2
#     4  10  22  41  67  96 123 173 217 261 316 380
#     4  10  22  44  62  98 136 163 214 265 332 375
#     4  10  22  41  67  98 128 173 213 267 318 384
#     4  10  24  40  66  96 136 163 210 269 331 374
#     4  10  21  42  62  99 122 171 217 258 318 379
#     4  10  19  40  70  91 125 165 229 252 307 388
#
# _framework density 26.51632
#
# number of rings (size 3 to 8) (size 9 to 14) (size 15 to 20)
#    0.000    2.000    3.333    0.000    4.667    2.667 
#    3.000    8.333    0.000    0.000    0.000    0.000 
#    0.000    0.000    0.000    0.000    0.000    0.000 
#
# Total GULP energy -67273.273395 kJ/mol
# GULP energy per Si atom -5606.106116 kJ/mol
# Density = 2.645597 g / cm^3
# Si number density = 26.516320 Si / 1000 Ang^3
#
#
#
# Elastic Constant Matrix: (Units=GPa)
#
#
# Indices 1 2 3 4 5 6 
#
# 1 99.8752 39.2314 63.6916 0.0000 -26.8937 0.0000
# 2 39.2314 98.6905 22.7323 0.0000 -16.8426 0.0000
# 3 63.6916 22.7323 114.2492 0.0000 -20.6925 0.0000
# 4 0.0000 0.0000 0.0000 54.5772 0.0000 -13.5017
# 5 -26.8937 -16.8426 -20.6925 0.0000 27.2300 0.0000
# 6 0.0000 0.0000 0.0000 -13.5017 0.0000 44.3919
#
#
#
# Elastic Compliance Matrix: (Units=1/GPa)
#
#
# Indices 1 2 3 4 5 6 
#
# 1 0.019797 -0.004137 -0.008274 0.000000 0.010706 0.000000
# 2 -0.004137 0.012323 0.000574 0.000000 0.003972 0.000000
# 3 -0.008274 0.000574 0.013724 0.000000 0.002612 0.000000
# 4 0.000000 0.000000 0.000000 0.019813 0.000000 0.006026
# 5 0.010706 0.003972 0.002612 0.000000 0.051740 0.000000
# 6 0.000000 0.000000 0.000000 0.006026 0.000000 0.024360
#
#
# Mechanical properties :
#
#
# Convention : Reuss Voigt Hill
#
# Bulk Modulus (GPa) = 45.10640 62.68062 53.89351
# Shear Modulus (GPa) = 28.93158 37.71711 33.32435
#
# Velocity S-wave (km/s) = 3.30674 3.77558 3.54891
# Velocity P-wave (km/s) = 5.62380 6.53425 6.09605
#
# Compressibility (1/GPa) = 0.02216981
#
# Stress axis : x y z
#
# Youngs Moduli (GPa) = 50.51327 81.14976 72.86251
#
# Poissons Ratio (x) = 0.33569 0.60288
# Poissons Ratio (y) = 0.20896 -0.04180
# Poissons Ratio (z) = 0.41796 -0.04655
#
# Static dielectric constant tensor:
#      x y z
#    x 2.050420 0.000000 -0.022180 
#    y 0.000000 2.152320 0.000000 
#    z -0.022180 0.000000 2.050280 
# 
# From -- ./inp_files/5325.got.cif
#   From: 2010.05.17/outbox.cif.g08.bks.cpg/sg4_3_cif.got.tgz:5325.got - 2010.06.03 18:43:04.
