data_PCOD9115608
_publ_section_title
;
Structure prediction by ZEFSAII (Michael W. Deem and Ramdas Pophale) SiO2 
 PCOD9115608
Probable space group: P 21
;
_chemical_formula_sum "Si O2"
_cell_formula_units_Z 14
_cell_length_a 5.270275
_cell_length_b 19.611021
_cell_length_c 5.255875
_cell_angle_alpha 90.000000
_cell_angle_beta 97.111517
_cell_angle_gamma 90.000000
_cell_volume 539.044472
_symmetry_space_group_name_H-M "P 21"
_symmetry_group_IT_number 4
_symmetry_cell_setting 'monoclinic'
loop_
_space_group_symop_operation_xyz
x,y,z
-x,1/2+y,-z
loop_
_atom_site_type_symbol
_atom_site_label
_atom_site_fract_x
_atom_site_fract_y
_atom_site_fract_z
Si Si1 0.074596 0.714150 0.077612
Si Si2 0.511789 0.263009 0.557076
Si Si3 0.748104 0.097966 0.183152
Si Si4 0.092724 0.459230 0.795407
Si Si5 0.558489 0.502482 0.555066
Si Si6 0.225198 0.124394 0.619831
Si Si7 0.714105 0.824127 0.945321
O O1 0.194562 0.747863 0.341961
O O2 0.870027 0.657917 0.130899
O O3 0.949404 0.774363 0.907814
O O4 0.283629 0.668507 0.963664
O O5 0.380846 0.188266 0.516652
O O6 0.401165 0.297516 0.801020
O O7 0.474436 0.311437 0.311551
O O8 0.489441 0.066953 0.262533
O O9 0.963320 0.110030 0.428911
O O10 0.864576 0.031502 0.057192
O O11 0.293082 0.463721 0.580336
O O12 0.181449 0.398635 0.985020
O O13 0.801747 0.457558 0.662853
O O14 0.633001 0.551242 0.328199
#
# Coordination Sequence:
#
# PCOD9115608 Si02
#       7
#     2   2   2   2   2   2   2
#     4  11  24  40  76 109 145 194 250 318 376 445
#     4  11  26  41  77 104 148 197 241 316 371 457
#     4   9  20  41  69 103 145 185 246 313 369 440
#     4   9  22  43  72 100 145 201 245 308 371 454
#     4   9  20  40  74  97 144 188 245 300 373 438
#     4  10  20  41  64 108 139 183 243 304 374 434
#     4  11  26  48  68 109 150 198 254 303 380 454
#
# _framework density 25.971879999999999
#
# number of rings (size 3 to 8) (size 9 to 14) (size 15 to 20)
#    0.857    1.143    1.429    0.857    6.000    1.143 
#    5.143    0.000    0.000    0.000    0.000    0.000 
#    0.000    0.000    0.000    0.000    0.000    0.000 
#
# Total GULP energy -78181.272930 kJ/mol
# GULP energy per Si atom -5584.376638 kJ/mol
# Density = 2.591277 g / cm^3
# Si number density = 25.971880 Si / 1000 Ang^3
#
#
#
# Elastic Constant Matrix: (Units=GPa)
#
#
# Indices 1 2 3 4 5 6 
#
# 1 114.4156 -3.9422 18.1081 0.0000 6.2367 0.0000
# 2 -3.9422 76.9156 19.0713 0.0000 4.7953 0.0000
# 3 18.1081 19.0713 82.3565 0.0000 5.8713 0.0000
# 4 0.0000 0.0000 0.0000 27.7036 0.0000 -5.3468
# 5 6.2367 4.7953 5.8713 0.0000 28.2202 0.0000
# 6 0.0000 0.0000 0.0000 -5.3468 0.0000 19.2481
#
#
#
# Elastic Compliance Matrix: (Units=1/GPa)
#
#
# Indices 1 2 3 4 5 6 
#
# 1 0.009217 0.001119 -0.002159 0.000000 -0.001778 0.000000
# 2 0.001119 0.014010 -0.003353 0.000000 -0.001930 0.000000
# 3 -0.002159 -0.003353 0.013519 0.000000 -0.001766 0.000000
# 4 0.000000 0.000000 0.000000 0.038141 0.000000 0.010595
# 5 -0.001778 -0.001930 -0.001766 0.000000 0.036524 0.000000
# 6 0.000000 0.000000 0.000000 0.010595 0.000000 0.054896
#
#
# Mechanical properties :
#
#
# Convention : Reuss Voigt Hill
#
# Bulk Modulus (GPa) = 35.76449 37.79578 36.78013
# Shear Modulus (GPa) = 27.11286 31.06443 29.08864
#
# Velocity S-wave (km/s) = 3.23450 3.46219 3.35028
# Velocity P-wave (km/s) = 5.26779 5.52870 5.39982
#
# Compressibility (1/GPa) = 0.02796070
#
# Stress axis : x y z
#
# Youngs Moduli (GPa) = 108.49277 71.37637 73.96830
#
# Poissons Ratio (x) = -0.07984 0.15969
# Poissons Ratio (y) = -0.12136 0.24799
# Poissons Ratio (z) = 0.23423 0.23930
#
# Static dielectric constant tensor:
#      x y z
#    x 2.137850 0.000000 -0.055100 
#    y 0.000000 2.057010 0.000000 
#    z -0.055100 0.000000 2.150020 
# 
# From -- ./inp_files/621.got.cif
#   From: 2010.05.17/outbox.cif.g08.bks.cpg/sg4_1_cif.got.tgz:621.got - 2010.06.03 18:43:04.
