data_PCOD9115670
_publ_section_title
;
Structure prediction by ZEFSAII (Michael W. Deem and Ramdas Pophale) SiO2 
 PCOD9115670
Probable space group: P 21
;
_chemical_formula_sum "Si O2"
_cell_formula_units_Z 16
_cell_length_a 8.741412
_cell_length_b 12.899344
_cell_length_c 7.185819
_cell_angle_alpha 90.000000
_cell_angle_beta 58.268200
_cell_angle_gamma 90.000000
_cell_volume 689.143523
_symmetry_space_group_name_H-M "P 21"
_symmetry_group_IT_number 4
_symmetry_cell_setting 'monoclinic'
loop_
_space_group_symop_operation_xyz
x,y,z
-x,1/2+y,-z
loop_
_atom_site_type_symbol
_atom_site_label
_atom_site_fract_x
_atom_site_fract_y
_atom_site_fract_z
Si Si1 0.078758 0.717840 0.986922
Si Si2 0.328684 0.926621 0.489739
Si Si3 0.279181 0.333110 0.141246
Si Si4 0.366733 0.117337 0.059189
Si Si5 0.668520 0.033261 0.080349
Si Si6 0.114762 0.121825 0.570439
Si Si7 0.342286 0.895098 0.911160
Si Si8 0.918723 0.259454 0.454524
O O1 0.207879 0.617014 0.902312
O O2 0.182842 0.811061 0.026505
O O3 0.055883 0.743382 0.784299
O O4 0.910403 0.685512 0.223387
O O5 0.501397 0.984949 0.299936
O O6 0.372847 0.898790 0.671194
O O7 0.259651 0.828133 0.415395
O O8 0.158793 0.004561 0.597479
O O9 0.325672 0.227964 0.995701
O O10 0.468922 0.360859 0.118128
O O11 0.104807 0.319141 0.385154
O O12 0.229343 0.431055 0.047760
O O13 0.275503 0.139407 0.319455
O O14 0.572863 0.092233 0.969084
O O15 0.292930 0.010746 0.017714
O O16 0.940928 0.154080 0.557758
#
# Coordination Sequence:
#
# PCOD9115670 Si02
#       8
#     2   2   2   2   2   2   2   2
#     4  11  23  44  67 100 132 181 220 281 330 404
#     4  10  23  44  65  98 136 177 224 276 335 402
#     4  10  20  42  65  96 130 170 219 282 331 396
#     4   9  20  40  66  95 130 172 219 273 336 396
#     4  10  21  41  64  95 133 168 227 273 324 408
#     4  10  23  39  70  95 131 172 220 273 338 392
#     4  10  22  42  72  94 137 179 222 279 338 399
#     4  10  24  44  65  99 135 171 227 277 338 399
#
# _framework density 23.217224000000002
#
# number of rings (size 3 to 8) (size 9 to 14) (size 15 to 20)
#    0.000    2.000    1.250    0.750    8.750    0.000 
#   15.750    0.000    0.000    0.000    0.000    0.000 
#    0.000    0.000    0.000    0.000    0.000    0.000 
#
# Total GULP energy -89157.685854 kJ/mol
# GULP energy per Si atom -5572.355366 kJ/mol
# Density = 2.316438 g / cm^3
# Si number density = 23.217224 Si / 1000 Ang^3
#
#
#
# Elastic Constant Matrix: (Units=GPa)
#
#
# Indices 1 2 3 4 5 6 
#
# 1 61.4784 46.1420 26.1753 0.0000 8.0212 0.0000
# 2 46.1420 97.2551 1.9393 0.0000 -13.7989 0.0000
# 3 26.1753 1.9393 64.5601 0.0000 -13.2118 0.0000
# 4 0.0000 0.0000 0.0000 28.4910 0.0000 -1.8237
# 5 8.0212 -13.7989 -13.2118 0.0000 33.8401 0.0000
# 6 0.0000 0.0000 0.0000 -1.8237 0.0000 26.0205
#
#
#
# Elastic Compliance Matrix: (Units=1/GPa)
#
#
# Indices 1 2 3 4 5 6 
#
# 1 0.060451 -0.033796 -0.031786 0.000000 -0.040520 0.000000
# 2 -0.033796 0.029832 0.018405 0.000000 0.027361 0.000000
# 3 -0.031786 0.018405 0.033585 0.000000 0.028152 0.000000
# 4 0.000000 0.000000 0.000000 0.035257 0.000000 0.002471
# 5 -0.040520 0.027361 0.028152 0.000000 0.061303 0.000000
# 6 0.000000 0.000000 0.000000 0.002471 0.000000 0.038604
#
#
# Mechanical properties :
#
#
# Convention : Reuss Voigt Hill
#
# Bulk Modulus (GPa) = 33.88205 41.31186 37.59695
# Shear Modulus (GPa) = 13.76559 27.60611 20.68585
#
# Velocity S-wave (km/s) = 2.43760 3.45198 2.98815
# Velocity P-wave (km/s) = 4.74844 5.80693 5.30416
#
# Compressibility (1/GPa) = 0.02951415
#
# Stress axis : x y z
#
# Youngs Moduli (GPa) = 16.54225 33.52157 29.77504
#
# Poissons Ratio (x) = 1.13289 0.94644
# Poissons Ratio (y) = 0.55906 -0.54802
# Poissons Ratio (z) = 0.52582 -0.61698
#
# Static dielectric constant tensor:
#      x y z
#    x 1.883260 0.000000 0.016130 
#    y 0.000000 1.981130 0.000000 
#    z 0.016130 0.000000 1.942740 
# 
# From -- ./inp_files/6410.got.cif
#   From: 2010.05.17/outbox.cif.g08.bks.cpg/sg4_4_cif.got.tgz:6410.got - 2010.06.03 18:43:04.
