data_PCOD9115169
_publ_section_title
;
Structure prediction by ZEFSAII (Michael W. Deem and Ramdas Pophale) SiO2 
 PCOD9115169
Probable space group: P 21
;
_chemical_formula_sum "Si O2"
_cell_formula_units_Z 16
_cell_length_a 24.664933
_cell_length_b 6.383823
_cell_length_c 9.178089
_cell_angle_alpha 90.000000
_cell_angle_beta 27.204979
_cell_angle_gamma 90.000000
_cell_volume 660.686937
_symmetry_space_group_name_H-M "P 21"
_symmetry_group_IT_number 4
_symmetry_cell_setting 'monoclinic'
loop_
_space_group_symop_operation_xyz
x,y,z
-x,1/2+y,-z
loop_
_atom_site_type_symbol
_atom_site_label
_atom_site_fract_x
_atom_site_fract_y
_atom_site_fract_z
Si Si1 0.161815 0.661130 0.644328
Si Si2 0.835265 0.270914 0.834140
Si Si3 0.801025 0.911747 0.728383
Si Si4 0.060023 0.484403 0.161001
Si Si5 0.396050 0.422068 0.165190
Si Si6 0.783329 0.711157 0.046398
Si Si7 0.478226 0.278789 0.279598
Si Si8 0.304109 0.047193 0.204680
O O1 0.139679 0.512587 0.556796
O O2 0.283644 0.578936 0.430345
O O3 0.195923 0.895335 0.511713
O O4 0.064825 0.609390 0.998250
O O5 0.937833 0.369806 0.488474
O O6 0.757455 0.122867 0.915613
O O7 0.895563 0.138421 0.818010
O O8 0.774196 0.464214 0.057810
O O9 0.726070 0.718304 0.845569
O O10 0.861443 0.798034 0.722932
O O11 0.156993 0.295776 0.949258
O O12 0.458773 0.387517 0.168426
O O13 0.347818 0.198719 0.229094
O O14 0.483964 0.538855 0.842518
O O15 0.650691 0.794312 0.342913
O O16 0.585889 0.397833 0.099219
#
# Coordination Sequence:
#
# PCOD9115169 Si02
#       8
#     2   2   2   2   2   2   2   2
#     4  10  22  42  69  96 134 183 230 290 358 418
#     4  11  24  44  69 101 143 181 240 297 357 428
#     4  10  24  47  66  95 140 189 232 293 350 429
#     4  11  23  42  72 104 134 183 238 298 360 419
#     4  10  20  34  62  99 134 169 226 290 344 417
#     4  11  24  43  69  98 141 184 235 294 360 420
#     4  11  21  36  64  98 138 182 230 290 352 420
#     4  10  22  42  65  97 140 181 237 286 349 431
#
# _framework density 24.217220000000001
#
# number of rings (size 3 to 8) (size 9 to 14) (size 15 to 20)
#    0.000    1.500    3.750    0.750    1.750    2.000 
#    9.000    0.000    0.000    0.000    0.000    0.000 
#    0.000    0.000    0.000    0.000    0.000    0.000 
#
# Total GULP energy -89271.999121 kJ/mol
# GULP energy per Si atom -5579.499945 kJ/mol
# Density = 2.416210 g / cm^3
# Si number density = 24.217220 Si / 1000 Ang^3
#
#
#
# Elastic Constant Matrix: (Units=GPa)
#
#
# Indices 1 2 3 4 5 6 
#
# 1 80.2843 54.2762 15.2216 0.0000 15.8002 0.0000
# 2 54.2762 165.9934 46.8060 0.0000 6.9392 0.0000
# 3 15.2216 46.8060 87.8976 0.0000 -0.5530 0.0000
# 4 0.0000 0.0000 0.0000 28.1843 0.0000 -1.0252
# 5 15.8002 6.9392 -0.5530 0.0000 18.4330 0.0000
# 6 0.0000 0.0000 0.0000 -1.0252 0.0000 53.6129
#
#
#
# Elastic Compliance Matrix: (Units=1/GPa)
#
#
# Indices 1 2 3 4 5 6 
#
# 1 0.019083 -0.005513 -0.000459 0.000000 -0.014296 0.000000
# 2 -0.005513 0.008827 -0.003738 0.000000 0.001290 0.000000
# 3 -0.000459 -0.003738 0.013461 0.000000 0.002204 0.000000
# 4 0.000000 0.000000 0.000000 0.035505 0.000000 0.000679
# 5 -0.014296 0.001290 0.002204 0.000000 0.066085 0.000000
# 6 0.000000 0.000000 0.000000 0.000679 0.000000 0.018665
#
#
# Mechanical properties :
#
#
# Convention : Reuss Voigt Hill
#
# Bulk Modulus (GPa) = 45.55444 62.97588 54.26516
# Shear Modulus (GPa) = 26.54462 34.57081 30.55772
#
# Velocity S-wave (km/s) = 3.31434 3.78237 3.55606
# Velocity P-wave (km/s) = 5.78775 6.71834 6.27033
#
# Compressibility (1/GPa) = 0.02195176
#
# Stress axis : x y z
#
# Youngs Moduli (GPa) = 52.40234 113.29106 74.29131
#
# Poissons Ratio (x) = 0.62454 0.03411
# Poissons Ratio (y) = 0.28888 0.27767
# Poissons Ratio (z) = 0.02406 0.42343
#
# Static dielectric constant tensor:
#      x y z
#    x 1.952860 0.000000 0.006650 
#    y 0.000000 1.978130 0.000000 
#    z 0.006650 0.000000 1.990260 
# 
# From -- ./inp_files/10156.got.cif
#   From: 2010.05.17/outbox.cif.g08.bks.cpg/sg4_6_cif.got.tgz:10156.got - 2010.06.03 18:43:04.
