data_PCOD9115095
_publ_section_title
;
Structure prediction by ZEFSAII (Michael W. Deem and Ramdas Pophale) SiO2 
 PCOD9115095
Probable space group: P 21
;
_chemical_formula_sum "Si O2"
_cell_formula_units_Z 16
_cell_length_a 16.122328
_cell_length_b 8.911405
_cell_length_c 5.162444
_cell_angle_alpha 90.000000
_cell_angle_beta 63.149795
_cell_angle_gamma 90.000000
_cell_volume 661.739155
_symmetry_space_group_name_H-M "P 21"
_symmetry_group_IT_number 4
_symmetry_cell_setting 'monoclinic'
loop_
_space_group_symop_operation_xyz
x,y,z
-x,1/2+y,-z
loop_
_atom_site_type_symbol
_atom_site_label
_atom_site_fract_x
_atom_site_fract_y
_atom_site_fract_z
Si Si1 0.189864 0.857730 0.555289
Si Si2 0.900235 0.488456 0.829037
Si Si3 0.425965 0.259552 0.356331
Si Si4 0.281809 0.627866 0.160704
Si Si5 0.049022 0.227894 0.556909
Si Si6 0.123088 0.595899 0.976553
Si Si7 0.464694 0.460084 0.789949
Si Si8 0.221513 0.344709 0.593323
O O1 0.152601 0.943854 0.359700
O O2 0.286738 0.777277 0.333446
O O3 0.132786 0.705991 0.716644
O O4 0.168732 0.958563 0.835334
O O5 0.935663 0.657877 0.748413
O O6 0.989344 0.377221 0.698981
O O7 0.470047 0.351014 0.534999
O O8 0.456064 0.086215 0.296628
O O9 0.314459 0.265463 0.553639
O O10 0.452054 0.353502 0.059626
O O11 0.256325 0.485439 0.372322
O O12 0.197947 0.658363 0.078743
O O13 0.373913 0.569825 0.890041
O O14 0.150249 0.250979 0.527431
O O15 0.981867 0.104008 0.782851
O O16 0.159726 0.428984 0.892319
#
# Coordination Sequence:
#
# PCOD9115095 Si02
#       8
#     2   2   2   2   2   2   2   2
#     4  10  21  40  61  91 132 170 239 289 341 409
#     4  11  25  41  60  95 135 184 236 300 346 410
#     4  11  24  49  76 114 144 191 238 307 370 450
#     4  10  19  43  72  98 133 192 236 282 357 444
#     4  11  24  41  66  96 141 191 243 292 351 416
#     4  10  20  39  67  97 132 184 240 278 344 422
#     4  11  24  45  81 109 148 187 243 298 377 439
#     4  10  23  42  69 100 141 193 235 290 356 434
#
# _framework density 24.178712000000001
#
# number of rings (size 3 to 8) (size 9 to 14) (size 15 to 20)
#    0.000    1.500    3.750    1.500    5.250    1.000 
#    4.500    0.000    0.000    0.000    0.000    0.000 
#    0.000    0.000    0.000    0.000    0.000    0.000 
#
# Total GULP energy -89367.026694 kJ/mol
# GULP energy per Si atom -5585.439168 kJ/mol
# Density = 2.412368 g / cm^3
# Si number density = 24.178712 Si / 1000 Ang^3
#
#
#
# Elastic Constant Matrix: (Units=GPa)
#
#
# Indices 1 2 3 4 5 6 
#
# 1 48.8540 24.6742 11.7798 0.0000 7.5947 0.0000
# 2 24.6742 87.4613 32.9881 0.0000 -4.5023 0.0000
# 3 11.7798 32.9881 75.1834 0.0000 28.8990 0.0000
# 4 0.0000 0.0000 0.0000 41.0957 0.0000 9.2943
# 5 7.5947 -4.5023 28.8990 0.0000 36.5471 0.0000
# 6 0.0000 0.0000 0.0000 9.2943 0.0000 28.4801
#
#
#
# Elastic Compliance Matrix: (Units=1/GPa)
#
#
# Indices 1 2 3 4 5 6 
#
# 1 0.025606 -0.009001 0.003461 0.000000 -0.009166 0.000000
# 2 -0.009001 0.019455 -0.012594 0.000000 0.014226 0.000000
# 3 0.003461 -0.012594 0.027523 0.000000 -0.024034 0.000000
# 4 0.000000 0.000000 0.000000 0.026273 0.000000 -0.008574
# 5 -0.009166 0.014226 -0.024034 0.000000 0.050023 0.000000
# 6 0.000000 0.000000 0.000000 -0.008574 0.000000 0.037910
#
#
# Mechanical properties :
#
#
# Convention : Reuss Voigt Hill
#
# Bulk Modulus (GPa) = 27.53702 38.93144 33.23423
# Shear Modulus (GPa) = 21.26176 30.69501 25.97838
#
# Velocity S-wave (km/s) = 2.96862 3.56688 3.28141
# Velocity P-wave (km/s) = 4.81289 5.75326 5.30396
#
# Compressibility (1/GPa) = 0.03631475
#
# Stress axis : x y z
#
# Youngs Moduli (GPa) = 39.05393 51.39939 36.33374
#
# Poissons Ratio (x) = 0.46264 -0.12574
# Poissons Ratio (y) = 0.35152 0.45760
# Poissons Ratio (z) = -0.13516 0.64734
#
# Static dielectric constant tensor:
#      x y z
#    x 1.941070 0.000000 0.013350 
#    y 0.000000 1.974570 0.000000 
#    z 0.013350 0.000000 2.028070 
# 
# From -- ./inp_files/4032.got.cif
#   From: 2010.05.17/outbox.cif.g08.bks.cpg/sg4_3_cif.got.tgz:4032.got - 2010.06.03 18:43:04.
