data_PCOD9115630
_publ_section_title
;
Structure prediction by ZEFSAII (Michael W. Deem and Ramdas Pophale) SiO2 
 PCOD9115630
Probable space group: P 21
;
_chemical_formula_sum "Si O2"
_cell_formula_units_Z 16
_cell_length_a 7.069716
_cell_length_b 5.270785
_cell_length_c 19.341820
_cell_angle_alpha 90.000000
_cell_angle_beta 74.321384
_cell_angle_gamma 90.000000
_cell_volume 693.916770
_symmetry_space_group_name_H-M "P 21"
_symmetry_group_IT_number 4
_symmetry_cell_setting 'monoclinic'
loop_
_space_group_symop_operation_xyz
x,y,z
-x,1/2+y,-z
loop_
_atom_site_type_symbol
_atom_site_label
_atom_site_fract_x
_atom_site_fract_y
_atom_site_fract_z
Si Si1 0.967284 0.920730 0.887299
Si Si2 0.605738 0.870823 0.017549
Si Si3 0.808893 0.431607 0.657837
Si Si4 0.872553 0.556454 0.354931
Si Si5 0.550118 0.633751 0.278241
Si Si6 0.117975 0.003824 0.492572
Si Si7 0.758896 0.824454 0.764170
Si Si8 0.770279 0.923144 0.146490
O O1 0.827561 0.890218 0.967013
O O2 0.830133 0.884394 0.833410
O O3 0.124788 0.694167 0.867842
O O4 0.071298 0.193915 0.876678
O O5 0.515051 0.603445 0.003356
O O6 0.617783 0.899396 0.098560
O O7 0.639351 0.226434 0.661744
O O8 0.787918 0.593951 0.589499
O O9 0.749463 0.537421 0.739043
O O10 0.032819 0.338042 0.645929
O O11 0.705996 0.518048 0.315103
O O12 0.795037 0.490034 0.439057
O O13 0.065508 0.416337 0.305246
O O14 0.450332 0.449577 0.231946
O O15 0.665085 0.859636 0.228712
O O16 0.949340 0.217121 0.516896
#
# Coordination Sequence:
#
# PCOD9115630 Si02
#       8
#     2   2   2   2   2   2   2   2
#     4  12  26  45  73  99 138 184 230 274 338 407
#     4  12  26  46  72 106 143 178 226 282 336 398
#     4  10  23  40  65  94 133 179 227 285 339 410
#     4  10  21  44  63  95 132 182 224 283 344 405
#     4  11  25  41  66 101 136 175 233 280 340 404
#     4  10  20  41  68  92 131 181 225 279 346 407
#     4  11  23  41  68  96 136 177 231 280 341 399
#     4  12  26  46  71 101 139 184 228 275 338 406
#
# _framework density 23.05752
#
# number of rings (size 3 to 8) (size 9 to 14) (size 15 to 20)
#    0.000    1.000    2.500    3.750    5.250    1.000 
#    2.250    0.000    0.000    0.000    0.000    0.000 
#    0.000    0.000    0.000    0.000    0.000    0.000 
#
# Total GULP energy -89288.202166 kJ/mol
# GULP energy per Si atom -5580.512635 kJ/mol
# Density = 2.300504 g / cm^3
# Si number density = 23.057520 Si / 1000 Ang^3
#
#
#
# Elastic Constant Matrix: (Units=GPa)
#
#
# Indices 1 2 3 4 5 6 
#
# 1 94.1560 7.3477 14.5354 0.0000 16.4149 0.0000
# 2 7.3477 44.2877 -2.2217 0.0000 -6.3857 0.0000
# 3 14.5354 -2.2217 82.0294 0.0000 25.1384 0.0000
# 4 0.0000 0.0000 0.0000 29.6866 0.0000 -1.1880
# 5 16.4149 -6.3857 25.1384 0.0000 31.6311 0.0000
# 6 0.0000 0.0000 0.0000 -1.1880 0.0000 38.6977
#
#
#
# Elastic Compliance Matrix: (Units=1/GPa)
#
#
# Indices 1 2 3 4 5 6 
#
# 1 0.012051 -0.002978 -0.000152 0.000000 -0.006734 0.000000
# 2 -0.002978 0.024064 -0.001035 0.000000 0.007226 0.000000
# 3 -0.000152 -0.001035 0.016167 0.000000 -0.012978 0.000000
# 4 0.000000 0.000000 0.000000 0.033727 0.000000 0.001035
# 5 -0.006734 0.007226 -0.012978 0.000000 0.046882 0.000000
# 6 0.000000 0.000000 0.000000 0.001035 0.000000 0.025873
#
#
# Mechanical properties :
#
#
# Convention : Reuss Voigt Hill
#
# Bulk Modulus (GPa) = 22.75276 28.86621 25.80948
# Shear Modulus (GPa) = 27.51124 33.39051 30.45088
#
# Velocity S-wave (km/s) = 3.45796 3.80957 3.63802
# Velocity P-wave (km/s) = 5.08257 5.64773 5.37259
#
# Compressibility (1/GPa) = 0.04395071
#
# Stress axis : x y z
#
# Youngs Moduli (GPa) = 82.98401 41.55645 61.85421
#
# Poissons Ratio (x) = 0.12375 0.00943
# Poissons Ratio (y) = 0.24711 0.06402
# Poissons Ratio (z) = 0.01265 0.04301
#
# Static dielectric constant tensor:
#      x y z
#    x 1.831540 0.000000 -0.017380 
#    y 0.000000 2.043010 0.000000 
#    z -0.017380 0.000000 1.901310 
# 
# From -- ./inp_files/4012.got.cif
#   From: 2010.05.17/outbox.cif.g08.bks.cpg/sg4_3_cif.got.tgz:4012.got - 2010.06.03 18:43:04.
