data_PCOD9115137
_publ_section_title
;
Structure prediction by ZEFSAII (Michael W. Deem and Ramdas Pophale) SiO2 
 PCOD9115137
Probable space group: P 21
;
_chemical_formula_sum "Si O2"
_cell_formula_units_Z 14
_cell_length_a 9.594125
_cell_length_b 5.239161
_cell_length_c 15.859255
_cell_angle_alpha 90.000000
_cell_angle_beta 54.971072
_cell_angle_gamma 90.000000
_cell_volume 652.770924
_symmetry_space_group_name_H-M "P 21"
_symmetry_group_IT_number 4
_symmetry_cell_setting 'monoclinic'
loop_
_space_group_symop_operation_xyz
x,y,z
-x,1/2+y,-z
loop_
_atom_site_type_symbol
_atom_site_label
_atom_site_fract_x
_atom_site_fract_y
_atom_site_fract_z
Si Si1 0.370762 0.040960 0.160678
Si Si2 0.788238 0.484226 0.072013
Si Si3 0.050093 0.720995 0.200484
Si Si4 0.155745 0.477066 0.863185
Si Si5 0.813635 0.495204 0.620227
Si Si6 0.981662 0.496166 0.397196
Si Si7 0.707972 0.846394 0.957227
O O1 0.355723 0.033965 0.266191
O O2 0.216212 0.860696 0.181474
O O3 0.550497 0.975492 0.057750
O O4 0.327340 0.305411 0.129379
O O5 0.749637 0.230055 0.138030
O O6 0.719589 0.578726 0.004352
O O7 0.744677 0.722709 0.146369
O O8 0.987037 0.469551 0.980003
O O9 0.959756 0.565780 0.307075
O O10 0.123904 0.522847 0.104466
O O11 0.923411 0.926771 0.201818
O O12 0.889003 0.214889 0.613545
O O13 0.821960 0.522251 0.516488
O O14 0.936706 0.716767 0.616659
#
# Coordination Sequence:
#
# PCOD9115137 Si02
#       7
#     2   2   2   2   2   2   2
#     4  11  22  32  51  80 121 162 187 224 277 359
#     4  10  21  34  49  70 105 149 186 228 274 327
#     4  11  20  33  54  81 113 151 196 237 290 341
#     4  10  20  34  52  71 101 143 189 239 276 317
#     4   9  18  34  48  74 113 152 189 222 282 340
#     4   9  18  31  53  75 107 150 186 238 281 336
#     4  12  21  34  51  79 122 159 195 222 282 358
#
# _framework density 21.447033999999999
#
# number of rings (size 3 to 8) (size 9 to 14) (size 15 to 20)
#    0.000    1.714    4.286    2.571    0.000    0.000 
#    0.000    0.000    0.000    0.000    0.000    0.000 
#    0.000   36.571    0.000    0.000    0.000    0.000 
#
# Total GULP energy -77979.470047 kJ/mol
# GULP energy per Si atom -5569.962146 kJ/mol
# Density = 2.139822 g / cm^3
# Si number density = 21.447034 Si / 1000 Ang^3
#
#
#
# Elastic Constant Matrix: (Units=GPa)
#
#
# Indices 1 2 3 4 5 6 
#
# 1 29.8573 11.5975 22.2674 0.0000 13.2825 0.0000
# 2 11.5975 109.3221 0.2337 0.0000 2.0936 0.0000
# 3 22.2674 0.2337 128.5798 0.0000 5.4371 0.0000
# 4 0.0000 0.0000 0.0000 27.0809 0.0000 6.7233
# 5 13.2825 2.0936 5.4371 0.0000 16.7533 0.0000
# 6 0.0000 0.0000 0.0000 6.7233 0.0000 28.6377
#
#
#
# Elastic Compliance Matrix: (Units=1/GPa)
#
#
# Indices 1 2 3 4 5 6 
#
# 1 0.063024 -0.005779 -0.008944 0.000000 -0.046342 0.000000
# 2 -0.005779 0.009699 0.000852 0.000000 0.003093 0.000000
# 3 -0.008944 0.000852 0.009155 0.000000 0.004014 0.000000
# 4 0.000000 0.000000 0.000000 0.039212 0.000000 -0.009206
# 5 -0.046342 0.003093 0.004014 0.000000 0.094742 0.000000
# 6 0.000000 0.000000 0.000000 -0.009206 0.000000 0.037080
#
#
# Mechanical properties :
#
#
# Convention : Reuss Voigt Hill
#
# Bulk Modulus (GPa) = 18.47198 37.32848 27.90023
# Shear Modulus (GPa) = 16.73915 30.07176 23.40545
#
# Velocity S-wave (km/s) = 2.79675 3.74858 3.30709
# Velocity P-wave (km/s) = 4.36585 6.01486 5.25543
#
# Compressibility (1/GPa) = 0.05413604
#
# Stress axis : x y z
#
# Youngs Moduli (GPa) = 15.86687 103.09986 109.23006
#
# Poissons Ratio (x) = 0.59585 0.97700
# Poissons Ratio (y) = 0.09170 -0.09311
# Poissons Ratio (z) = 0.14192 -0.08789
#
# Static dielectric constant tensor:
#      x y z
#    x 1.830230 0.000000 0.049860 
#    y 0.000000 1.924270 0.000000 
#    z 0.049860 0.000000 1.814320 
# 
# From -- ./inp_files/13796.got.cif
#   From: 2010.05.17/outbox.cif.g08.bks.cpg/sg4_7_cif.got.tgz:13796.got - 2010.06.03 18:43:04.
