data_PCOD9115351
_publ_section_title
;
Structure prediction by ZEFSAII (Michael W. Deem and Ramdas Pophale) SiO2 
 PCOD9115351
Probable space group: P 21
;
_chemical_formula_sum "Si O2"
_cell_formula_units_Z 12
_cell_length_a 9.769617
_cell_length_b 8.888610
_cell_length_c 5.274086
_cell_angle_alpha 90.000000
_cell_angle_beta 103.245550
_cell_angle_gamma 90.000000
_cell_volume 445.808788
_symmetry_space_group_name_H-M "P 21"
_symmetry_group_IT_number 4
_symmetry_cell_setting 'monoclinic'
loop_
_space_group_symop_operation_xyz
x,y,z
-x,1/2+y,-z
loop_
_atom_site_type_symbol
_atom_site_label
_atom_site_fract_x
_atom_site_fract_y
_atom_site_fract_z
Si Si1 0.658608 0.983140 0.285487
Si Si2 0.498320 0.450974 0.275192
Si Si3 0.201736 0.994826 0.402439
Si Si4 0.989146 0.896797 0.984089
Si Si5 0.059434 0.656175 0.691731
Si Si6 0.297127 0.221568 0.032286
O O1 0.576581 0.008523 0.506446
O O2 0.804863 0.073530 0.357343
O O3 0.565976 0.029717 0.000706
O O4 0.681075 0.801876 0.237606
O O5 0.664401 0.459251 0.373111
O O6 0.438187 0.283410 0.223728
O O7 0.261084 0.065689 0.159219
O O8 0.090542 0.108558 0.488853
O O9 0.100714 0.862097 0.257173
O O10 0.059228 0.830092 0.763526
O O11 0.959486 0.070534 0.038442
O O12 0.837265 0.821563 0.936950
#
# Coordination Sequence:
#
# PCOD9115351 Si02
#       6
#     2   2   2   2   2   2
#     4   9  20  39  60  81 119 157 190 241 300 346
#     4  10  20  38  57  88 118 153 190 245 299 348
#     4   9  17  34  59  89 114 155 202 241 291 353
#     4   8  15  32  62  82 120 152 205 239 294 346
#     4   8  16  34  60  83 118 155 201 243 291 351
#     4   8  18  37  58  81 121 154 192 245 297 346
#
# _framework density 26.917368
#
# number of rings (size 3 to 8) (size 9 to 14) (size 15 to 20)
#    2.000    1.333    0.000    0.000    0.000    1.333 
#    6.000    3.333   22.000    0.000    0.000    0.000 
#    0.000    0.000    0.000    0.000    0.000    0.000 
#
# Total GULP energy -66862.296511 kJ/mol
# GULP energy per Si atom -5571.858043 kJ/mol
# Density = 2.685610 g / cm^3
# Si number density = 26.917368 Si / 1000 Ang^3
#
#
#
# Elastic Constant Matrix: (Units=GPa)
#
#
# Indices 1 2 3 4 5 6 
#
# 1 166.9244 27.2484 79.5899 0.0000 32.0826 0.0000
# 2 27.2484 62.2692 33.0382 0.0000 7.5159 0.0000
# 3 79.5899 33.0382 134.0850 0.0000 2.2508 0.0000
# 4 0.0000 0.0000 0.0000 36.5483 0.0000 6.0727
# 5 32.0826 7.5159 2.2508 0.0000 59.7446 0.0000
# 6 0.0000 0.0000 0.0000 6.0727 0.0000 31.9337
#
#
#
# Elastic Compliance Matrix: (Units=1/GPa)
#
#
# Indices 1 2 3 4 5 6 
#
# 1 0.009658 -0.000734 -0.005470 0.000000 -0.004888 0.000000
# 2 -0.000734 0.018812 -0.004169 0.000000 -0.001815 0.000000
# 3 -0.005470 -0.004169 0.011681 0.000000 0.003022 0.000000
# 4 0.000000 0.000000 0.000000 0.028254 0.000000 -0.005373
# 5 -0.004888 -0.001815 0.003022 0.000000 0.019477 0.000000
# 6 0.000000 0.000000 0.000000 -0.005373 0.000000 0.032337
#
#
# Mechanical properties :
#
#
# Convention : Reuss Voigt Hill
#
# Bulk Modulus (GPa) = 51.53298 71.44794 61.49046
# Shear Modulus (GPa) = 33.91380 40.53880 37.22630
#
# Velocity S-wave (km/s) = 3.55339 3.88499 3.72288
# Velocity P-wave (km/s) = 6.00182 6.83559 6.43223
#
# Compressibility (1/GPa) = 0.01940505
#
# Stress axis : x y z
#
# Youngs Moduli (GPa) = 103.54032 53.15892 85.60750
#
# Poissons Ratio (x) = 0.03903 0.46826
# Poissons Ratio (y) = 0.07601 0.35689
# Poissons Ratio (z) = 0.56635 0.22161
#
# Static dielectric constant tensor:
#      x y z
#    x 2.054920 0.000000 -0.021780 
#    y 0.000000 2.265990 0.000000 
#    z -0.021780 0.000000 2.215630 
# 
# From -- ./inp_files/2851.got.cif
#   From: 2010.05.17/outbox.cif.g08.bks.cpg/sg4_2_cif.got.tgz:2851.got - 2010.06.03 18:43:04.
