data_PCOD9115618
_publ_section_title
;
Structure prediction by ZEFSAII (Michael W. Deem and Ramdas Pophale) SiO2 
 PCOD9115618
Probable space group: P 21
;
_chemical_formula_sum "Si O2"
_cell_formula_units_Z 16
_cell_length_a 17.275209
_cell_length_b 8.812820
_cell_length_c 8.587310
_cell_angle_alpha 90.000000
_cell_angle_beta 148.320060
_cell_angle_gamma 90.000000
_cell_volume 686.591389
_symmetry_space_group_name_H-M "P 21"
_symmetry_group_IT_number 4
_symmetry_cell_setting 'monoclinic'
loop_
_space_group_symop_operation_xyz
x,y,z
-x,1/2+y,-z
loop_
_atom_site_type_symbol
_atom_site_label
_atom_site_fract_x
_atom_site_fract_y
_atom_site_fract_z
Si Si1 0.071332 0.357620 0.974636
Si Si2 0.267744 0.887501 0.567534
Si Si3 0.264885 0.060991 0.849436
Si Si4 0.487348 0.254686 0.439742
Si Si5 0.777642 0.162281 0.789379
Si Si6 0.076540 0.056394 0.813597
Si Si7 0.095128 0.295174 0.360360
Si Si8 0.605174 0.544026 0.487987
O O1 0.057612 0.234726 0.815575
O O2 0.908198 0.425553 0.728869
O O3 0.191548 0.485246 0.157257
O O4 0.117030 0.280215 0.214291
O O5 0.266135 0.734975 0.455680
O O6 0.307842 0.916879 0.816961
O O7 0.377435 0.998692 0.661069
O O8 0.124827 0.024460 0.720044
O O9 0.215109 0.199608 0.654780
O O10 0.389254 0.137547 0.169575
O O11 0.654170 0.205417 0.699304
O O12 0.493623 0.424631 0.381451
O O13 0.436794 0.211834 0.526939
O O14 0.933078 0.228086 0.110476
O O15 0.225934 0.015396 0.164893
O O16 0.933875 0.967206 0.631625
#
# Coordination Sequence:
#
# PCOD9115618 Si02
#       8
#     2   2   2   2   2   2   2   2
#     4  11  21  39  72  99 119 177 232 267 329 407
#     4  10  20  41  65  95 136 170 217 288 331 391
#     4  11  25  39  62  96 144 170 211 284 347 388
#     4  10  23  43  65  94 132 175 222 278 333 401
#     4  10  21  40  72  91 122 175 231 266 318 415
#     4  11  23  39  65  99 134 172 215 286 336 385
#     4  11  20  41  64  95 126 171 218 283 324 391
#     4  10  21  44  67  91 127 180 232 264 328 412
#
# _framework density 23.303525
#
# number of rings (size 3 to 8) (size 9 to 14) (size 15 to 20)
#    0.000    1.500    5.000    2.250    5.250    0.000 
#    4.500    2.500    0.000    0.000    0.000    0.000 
#    0.000    0.000    0.000    0.000    0.000    0.000 
#
# Total GULP energy -89235.341649 kJ/mol
# GULP energy per Si atom -5577.208853 kJ/mol
# Density = 2.325049 g / cm^3
# Si number density = 23.303525 Si / 1000 Ang^3
#
#
#
# Elastic Constant Matrix: (Units=GPa)
#
#
# Indices 1 2 3 4 5 6 
#
# 1 97.8092 29.5897 -13.9350 0.0000 -11.7836 0.0000
# 2 29.5897 81.9226 6.2329 0.0000 -1.4573 0.0000
# 3 -13.9350 6.2329 23.8805 0.0000 -6.9678 0.0000
# 4 0.0000 0.0000 0.0000 28.5477 0.0000 4.1872
# 5 -11.7836 -1.4573 -6.9678 0.0000 27.0201 0.0000
# 6 0.0000 0.0000 0.0000 4.1872 0.0000 45.9024
#
#
#
# Elastic Compliance Matrix: (Units=1/GPa)
#
#
# Indices 1 2 3 4 5 6 
#
# 1 0.015225 -0.006344 0.013384 0.000000 0.009749 0.000000
# 2 -0.006344 0.015098 -0.008880 0.000000 -0.004242 0.000000
# 3 0.013384 -0.008880 0.057925 0.000000 0.020295 0.000000
# 4 0.000000 0.000000 0.000000 0.035504 0.000000 -0.003239
# 5 0.009749 -0.004242 0.020295 0.000000 0.046266 0.000000
# 6 0.000000 0.000000 0.000000 -0.003239 0.000000 0.022081
#
#
# Mechanical properties :
#
#
# Convention : Reuss Voigt Hill
#
# Bulk Modulus (GPa) = 11.82485 27.48749 19.65617
# Shear Modulus (GPa) = 22.32469 32.40902 27.36685
#
# Velocity S-wave (km/s) = 3.09851 3.73330 3.43062
# Velocity P-wave (km/s) = 4.22922 5.51402 4.91379
#
# Compressibility (1/GPa) = 0.08456766
#
# Stress axis : x y z
#
# Youngs Moduli (GPa) = 65.68351 66.23329 17.26377
#
# Poissons Ratio (x) = 0.42017 -0.23106
# Poissons Ratio (y) = 0.41669 0.15331
# Poissons Ratio (z) = -0.87912 0.58817
#
# Static dielectric constant tensor:
#      x y z
#    x 1.912920 0.000000 -0.053300 
#    y 0.000000 2.045210 0.000000 
#    z -0.053300 0.000000 1.873520 
# 
# From -- ./inp_files/9606.got.cif
#   From: 2010.05.17/outbox.cif.g08.bks.cpg/sg4_5_cif.got.tgz:9606.got - 2010.06.03 18:43:04.
