data_PCOD9115506
_publ_section_title
;
Structure prediction by ZEFSAII (Michael W. Deem and Ramdas Pophale) SiO2 
 PCOD9115506
Probable space group: P 21
;
_chemical_formula_sum "Si O2"
_cell_formula_units_Z 16
_cell_length_a 17.596669
_cell_length_b 8.366641
_cell_length_c 8.773248
_cell_angle_alpha 90.000000
_cell_angle_beta 36.236028
_cell_angle_gamma 90.000000
_cell_volume 763.506074
_symmetry_space_group_name_H-M "P 21"
_symmetry_group_IT_number 4
_symmetry_cell_setting 'monoclinic'
loop_
_space_group_symop_operation_xyz
x,y,z
-x,1/2+y,-z
loop_
_atom_site_type_symbol
_atom_site_label
_atom_site_fract_x
_atom_site_fract_y
_atom_site_fract_z
Si Si1 0.096342 0.207320 0.734669
Si Si2 0.462298 0.348651 0.865302
Si Si3 0.143206 0.725147 0.032570
Si Si4 0.368526 0.808453 0.867934
Si Si5 0.394923 0.163938 0.692882
Si Si6 0.617423 0.158996 0.836414
Si Si7 0.264111 0.010508 0.650537
Si Si8 0.848532 0.066408 0.266949
O O1 0.140879 0.385704 0.695792
O O2 0.209351 0.082351 0.583068
O O3 0.010867 0.202491 0.718582
O O4 0.988060 0.150258 0.033008
O O5 0.383862 0.291763 0.845611
O O6 0.503245 0.200772 0.905154
O O7 0.598537 0.425729 0.593520
O O8 0.394181 0.483922 0.073132
O O9 0.226511 0.750103 0.047115
O O10 0.172443 0.882639 0.881629
O O11 0.195353 0.582964 0.839112
O O12 0.470607 0.702253 0.608352
O O13 0.390676 0.989534 0.778040
O O14 0.388189 0.780803 0.014069
O O15 0.289931 0.153818 0.728685
O O16 0.749949 0.162843 0.530024
#
# Coordination Sequence:
#
# PCOD9115506 Si02
#       8
#     2   2   2   2   2   2   2   2
#     4  10  20  39  68  90 112 169 223 258 315 381
#     4  12  24  42  58  97 139 165 213 262 336 386
#     4   9  18  39  63  85 119 160 211 267 296 379
#     4  11  21  38  63  92 128 172 211 262 330 376
#     4  11  21  40  64  90 128 175 219 261 308 398
#     4  12  25  38  61  95 137 167 204 273 336 386
#     4  11  20  38  66  90 121 160 220 264 303 380
#     4  10  21  38  65  87 122 160 219 265 318 370
#
# _framework density 20.955956
#
# number of rings (size 3 to 8) (size 9 to 14) (size 15 to 20)
#    0.750    0.500    6.250    0.750    1.750    3.000 
#    0.000    0.000    8.250    0.000    0.000    0.000 
#    0.000    0.000    0.000    0.000    0.000    0.000 
#
# Total GULP energy -89223.805717 kJ/mol
# GULP energy per Si atom -5576.487857 kJ/mol
# Density = 2.090826 g / cm^3
# Si number density = 20.955956 Si / 1000 Ang^3
#
#
#
# Elastic Constant Matrix: (Units=GPa)
#
#
# Indices 1 2 3 4 5 6 
#
# 1 63.0547 -1.2423 -5.2884 0.0000 -1.0410 0.0000
# 2 -1.2423 46.4673 4.2582 0.0000 -3.0576 0.0000
# 3 -5.2884 4.2582 29.4951 0.0000 5.9388 0.0000
# 4 0.0000 0.0000 0.0000 26.2581 0.0000 1.7830
# 5 -1.0410 -3.0576 5.9388 0.0000 18.9866 0.0000
# 6 0.0000 0.0000 0.0000 1.7830 0.0000 42.8725
#
#
#
# Elastic Compliance Matrix: (Units=1/GPa)
#
#
# Indices 1 2 3 4 5 6 
#
# 1 0.016103 0.000169 0.002860 0.000000 0.000016 0.000000
# 2 0.000169 0.022228 -0.004164 0.000000 0.004891 0.000000
# 3 0.002860 -0.004164 0.037482 0.000000 -0.012237 0.000000
# 4 0.000000 0.000000 0.000000 0.038191 0.000000 -0.001588
# 5 0.000016 0.004891 -0.012237 0.000000 0.057285 0.000000
# 6 0.000000 0.000000 0.000000 -0.001588 0.000000 0.023391
#
#
# Mechanical properties :
#
#
# Convention : Reuss Voigt Hill
#
# Bulk Modulus (GPa) = 13.59734 14.94135 14.26935
# Shear Modulus (GPa) = 22.57706 27.04275 24.80991
#
# Velocity S-wave (km/s) = 3.28587 3.59619 3.44453
# Velocity P-wave (km/s) = 4.57150 4.93850 4.75854
#
# Compressibility (1/GPa) = 0.07354377
#
# Stress axis : x y z
#
# Youngs Moduli (GPa) = 62.10147 44.98747 26.67966
#
# Poissons Ratio (x) = -0.00763 -0.07629
# Poissons Ratio (y) = -0.01053 0.11108
# Poissons Ratio (z) = -0.17758 0.18731
#
# Static dielectric constant tensor:
#      x y z
#    x 1.796530 0.000000 -0.019880 
#    y 0.000000 1.773800 0.000000 
#    z -0.019880 0.000000 1.743400 
# 
# From -- ./inp_files/9558.got.cif
#   From: 2010.05.17/outbox.cif.g08.bks.cpg/sg4_5_cif.got.tgz:9558.got - 2010.06.03 18:43:04.
