data_PCOD9115948
_publ_section_title
;
Structure prediction by ZEFSAII (Michael W. Deem and Ramdas Pophale) SiO2 
 PCOD9115948
Probable space group: P 21
;
_chemical_formula_sum "Si O2"
_cell_formula_units_Z 16
_cell_length_a 10.694544
_cell_length_b 8.839002
_cell_length_c 11.475093
_cell_angle_alpha 90.000000
_cell_angle_beta 138.619261
_cell_angle_gamma 90.000000
_cell_volume 717.071360
_symmetry_space_group_name_H-M "P 21"
_symmetry_group_IT_number 4
_symmetry_cell_setting 'monoclinic'
loop_
_space_group_symop_operation_xyz
x,y,z
-x,1/2+y,-z
loop_
_atom_site_type_symbol
_atom_site_label
_atom_site_fract_x
_atom_site_fract_y
_atom_site_fract_z
Si Si1 0.081642 0.474810 0.005792
Si Si2 0.363268 0.588024 0.857684
Si Si3 0.216218 0.022852 0.843156
Si Si4 0.273465 0.860665 0.642784
Si Si5 0.432523 0.318631 0.342857
Si Si6 0.910569 0.846737 0.245919
Si Si7 0.272908 0.760103 0.032903
Si Si8 0.629885 0.461861 0.706386
O O1 0.103595 0.391661 0.897484
O O2 0.858825 0.472464 0.874143
O O3 0.222095 0.389200 0.192326
O O4 0.158062 0.643935 0.033448
O O5 0.260019 0.693419 0.690853
O O6 0.261220 0.427736 0.806025
O O7 0.578598 0.575701 0.968257
O O8 0.357794 0.670133 0.981000
O O9 0.086828 0.167116 0.747687
O O10 0.260028 0.965424 0.745184
O O11 0.149806 0.887390 0.879192
O O12 0.464270 0.874635 0.702811
O O13 0.103530 0.901213 0.438422
O O14 0.549545 0.381393 0.534707
O O15 0.436095 0.136160 0.340704
O O16 0.416613 0.851440 0.216994
#
# Coordination Sequence:
#
# PCOD9115948 Si02
#       8
#     2   2   2   2   2   2   2   2
#     4  11  23  45  69  95 137 173 221 274 330 388
#     4  10  21  38  65  95 130 173 215 267 330 394
#     4  11  22  39  67  94 130 172 216 269 332 391
#     4  11  22  41  61  98 132 168 221 269 330 394
#     4  12  26  44  71  97 133 178 220 281 329 392
#     4  11  21  39  65  97 134 173 214 272 329 392
#     4  10  22  40  65  95 128 173 218 264 331 392
#     4  12  25  46  67  99 132 172 231 270 331 391
#
# _framework density 22.312982000000002
#
# number of rings (size 3 to 8) (size 9 to 14) (size 15 to 20)
#    0.000    1.000    1.250    7.500    0.000    0.000 
#    4.500    0.000    5.500    0.000    0.000    0.000 
#    0.000    0.000    0.000    0.000    0.000    0.000 
#
# Total GULP energy -89443.485845 kJ/mol
# GULP energy per Si atom -5590.217865 kJ/mol
# Density = 2.226220 g / cm^3
# Si number density = 22.312982 Si / 1000 Ang^3
#
#
#
# Elastic Constant Matrix: (Units=GPa)
#
#
# Indices 1 2 3 4 5 6 
#
# 1 45.9059 8.8125 18.0209 0.0000 -11.0843 0.0000
# 2 8.8125 111.9520 37.1401 0.0000 -13.4247 0.0000
# 3 18.0209 37.1401 110.0598 0.0000 -10.8679 0.0000
# 4 0.0000 0.0000 0.0000 30.7684 0.0000 0.9408
# 5 -11.0843 -13.4247 -10.8679 0.0000 31.6752 0.0000
# 6 0.0000 0.0000 0.0000 0.9408 0.0000 18.7052
#
#
#
# Elastic Compliance Matrix: (Units=1/GPa)
#
#
# Indices 1 2 3 4 5 6 
#
# 1 0.024922 0.000061 -0.003351 0.000000 0.007597 0.000000
# 2 0.000061 0.010384 -0.003185 0.000000 0.003329 0.000000
# 3 -0.003351 -0.003185 0.010827 0.000000 0.001192 0.000000
# 4 0.000000 0.000000 0.000000 0.032551 0.000000 -0.001637
# 5 0.007597 0.003329 0.001192 0.000000 0.036049 0.000000
# 6 0.000000 0.000000 0.000000 -0.001637 0.000000 0.053543
#
#
# Mechanical properties :
#
#
# Convention : Reuss Voigt Hill
#
# Bulk Modulus (GPa) = 30.13678 43.98498 37.06088
# Shear Modulus (GPa) = 26.00278 29.82604 27.91441
#
# Velocity S-wave (km/s) = 3.41745 3.66007 3.54084
# Velocity P-wave (km/s) = 5.39515 6.13327 5.77601
#
# Compressibility (1/GPa) = 0.03318205
#
# Stress axis : x y z
#
# Youngs Moduli (GPa) = 40.12543 96.30648 92.35967
#
# Poissons Ratio (x) = -0.00587 0.30950
# Poissons Ratio (y) = -0.00244 0.29418
# Poissons Ratio (z) = 0.13446 0.30675
#
# Static dielectric constant tensor:
#      x y z
#    x 1.844960 0.000000 -0.011600 
#    y 0.000000 1.862580 0.000000 
#    z -0.011600 0.000000 1.792130 
# 
# From -- ./inp_files/11912.got.cif
#   From: 2010.05.17/outbox.cif.g08.bks.cpg/sg4_6_cif.got.tgz:11912.got - 2010.06.03 18:43:04.
