data_PCOD9115771
_publ_section_title
;
Structure prediction by ZEFSAII (Michael W. Deem and Ramdas Pophale) SiO2 
 PCOD9115771
Probable space group: P 21
;
_chemical_formula_sum "Si O2"
_cell_formula_units_Z 14
_cell_length_a 8.457128
_cell_length_b 8.884478
_cell_length_c 8.320600
_cell_angle_alpha 90.000000
_cell_angle_beta 116.540524
_cell_angle_gamma 90.000000
_cell_volume 559.303278
_symmetry_space_group_name_H-M "P 21"
_symmetry_group_IT_number 4
_symmetry_cell_setting 'monoclinic'
loop_
_space_group_symop_operation_xyz
x,y,z
-x,1/2+y,-z
loop_
_atom_site_type_symbol
_atom_site_label
_atom_site_fract_x
_atom_site_fract_y
_atom_site_fract_z
Si Si1 0.413366 0.882890 0.310909
Si Si2 0.398369 0.156493 0.840268
Si Si3 0.272988 0.438330 0.966551
Si Si4 0.357477 0.669416 0.575671
Si Si5 0.030306 0.822163 0.014065
Si Si6 0.895809 0.182400 0.293676
Si Si7 0.981389 0.634659 0.321269
O O1 0.544548 0.766840 0.280188
O O2 0.387078 0.809735 0.473543
O O3 0.223502 0.888474 0.136981
O O4 0.488113 0.050185 0.348449
O O5 0.355094 0.279951 0.956424
O O6 0.213191 0.063162 0.756445
O O7 0.566307 0.051418 0.938106
O O8 0.143532 0.507082 0.769281
O O9 0.141042 0.428663 0.057010
O O10 0.293700 0.727891 0.719362
O O11 0.182586 0.576953 0.433225
O O12 0.994514 0.718924 0.155943
O O13 0.041885 0.750149 0.844517
O O14 0.020746 0.216248 0.502274
#
# Coordination Sequence:
#
# PCOD9115771 Si02
#       7
#     2   2   2   2   2   2   2
#     4  11  21  46  73 112 151 199 251 330 371 476
#     4  11  22  48  73 111 155 196 255 322 388 461
#     4  11  24  46  76 110 155 203 251 325 387 464
#     4   9  22  44  76 108 152 198 259 313 395 445
#     4  10  22  45  75 106 158 194 262 315 382 451
#     4  10  20  47  76 107 144 211 251 312 387 459
#     4   8  21  44  75 102 147 201 249 317 372 460
#
# _framework density 25.031146
#
# number of rings (size 3 to 8) (size 9 to 14) (size 15 to 20)
#    0.857    1.143    2.857    0.000    0.000    1.143 
#   10.286   12.857    0.000    0.000    0.000    0.000 
#    0.000    0.000    0.000    0.000    0.000    0.000 
#
# Total GULP energy -78022.993000 kJ/mol
# GULP energy per Si atom -5573.070929 kJ/mol
# Density = 2.497417 g / cm^3
# Si number density = 25.031146 Si / 1000 Ang^3
#
#
#
# Elastic Constant Matrix: (Units=GPa)
#
#
# Indices 1 2 3 4 5 6 
#
# 1 170.9171 56.4832 67.6746 0.0000 -3.9979 0.0000
# 2 56.4832 85.9794 46.3208 0.0000 -12.4360 0.0000
# 3 67.6746 46.3208 128.9610 0.0000 -32.5593 0.0000
# 4 0.0000 0.0000 0.0000 34.2369 0.0000 -0.7477
# 5 -3.9979 -12.4360 -32.5593 0.0000 20.6364 0.0000
# 6 0.0000 0.0000 0.0000 -0.7477 0.0000 45.5201
#
#
#
# Elastic Compliance Matrix: (Units=1/GPa)
#
#
# Indices 1 2 3 4 5 6 
#
# 1 0.009440 -0.004489 -0.005921 0.000000 -0.010219 0.000000
# 2 -0.004489 0.016566 -0.002150 0.000000 0.005721 0.000000
# 3 -0.005921 -0.002150 0.018311 0.000000 0.026448 0.000000
# 4 0.000000 0.000000 0.000000 0.029219 0.000000 0.000480
# 5 -0.010219 0.005721 0.026448 0.000000 0.091655 0.000000
# 6 0.000000 0.000000 0.000000 0.000480 0.000000 0.021976
#
#
# Mechanical properties :
#
#
# Convention : Reuss Voigt Hill
#
# Bulk Modulus (GPa) = 52.09439 80.75717 66.42578
# Shear Modulus (GPa) = 22.86384 34.43727 28.65056
#
# Velocity S-wave (km/s) = 3.02556 3.71317 3.38686
# Velocity P-wave (km/s) = 5.74998 7.12153 6.47219
#
# Compressibility (1/GPa) = 0.01919592
#
# Stress axis : x y z
#
# Youngs Moduli (GPa) = 105.93331 60.36574 54.61167
#
# Poissons Ratio (x) = 0.27101 0.32337
# Poissons Ratio (y) = 0.47559 0.11740
# Poissons Ratio (z) = 0.62725 0.12977
#
# Static dielectric constant tensor:
#      x y z
#    x 1.981140 0.000000 0.010120 
#    y 0.000000 2.085370 0.000000 
#    z 0.010120 0.000000 2.051000 
# 
# From -- ./inp_files/5465.got.cif
#   From: 2010.05.17/outbox.cif.g08.bks.cpg/sg4_3_cif.got.tgz:5465.got - 2010.06.03 18:43:04.
