data_PCOD9115536
_publ_section_title
;
Structure prediction by ZEFSAII (Michael W. Deem and Ramdas Pophale) SiO2 
 PCOD9115536
Probable space group: P 21
;
_chemical_formula_sum "Si O2"
_cell_formula_units_Z 16
_cell_length_a 12.145966
_cell_length_b 7.956771
_cell_length_c 7.795748
_cell_angle_alpha 90.000000
_cell_angle_beta 121.744880
_cell_angle_gamma 90.000000
_cell_volume 640.692408
_symmetry_space_group_name_H-M "P 21"
_symmetry_group_IT_number 4
_symmetry_cell_setting 'monoclinic'
loop_
_space_group_symop_operation_xyz
x,y,z
-x,1/2+y,-z
loop_
_atom_site_type_symbol
_atom_site_label
_atom_site_fract_x
_atom_site_fract_y
_atom_site_fract_z
Si Si1 0.132086 0.715040 0.098116
Si Si2 0.165748 0.217899 0.198957
Si Si3 0.112555 0.570045 0.734761
Si Si4 0.376108 0.999062 0.565482
Si Si5 0.850768 0.423470 0.413022
Si Si6 0.233499 0.517297 0.479457
Si Si7 0.247271 0.028607 0.995405
Si Si8 0.509133 0.351898 0.682432
O O1 0.172707 0.591296 0.973398
O O2 0.979286 0.689540 0.981928
O O3 0.167750 0.898463 0.053157
O O4 0.194201 0.681142 0.334725
O O5 0.249604 0.097756 0.390521
O O6 0.157120 0.384265 0.301382
O O7 0.254315 0.203538 0.102007
O O8 0.193145 0.495481 0.643189
O O9 0.972002 0.482810 0.626554
O O10 0.100600 0.759367 0.649551
O O11 0.299984 0.899345 0.651307
O O12 0.472760 0.156084 0.685307
O O13 0.437148 0.884077 0.466914
O O14 0.827200 0.557013 0.241035
O O15 0.381733 0.465363 0.587912
O O16 0.384180 0.932945 0.104347
#
# Coordination Sequence:
#
# PCOD9115536 Si02
#       8
#     2   2   2   2   2   2   2   2
#     4  11  21  39  66  98 130 172 222 281 352 405
#     4  10  20  40  62  96 131 166 226 274 343 415
#     4  11  25  41  68 103 141 168 233 286 352 425
#     4  10  22  41  68  91 131 181 219 283 338 399
#     4  11  24  44  67 103 137 179 223 293 360 400
#     4  11  24  41  67  96 133 186 220 282 347 401
#     4  10  23  42  64  97 133 177 231 280 335 418
#     4  10  23  44  64  92 132 179 236 271 331 417
#
# _framework density 24.972981999999998
#
# number of rings (size 3 to 8) (size 9 to 14) (size 15 to 20)
#    0.000    1.500    1.250    3.750    7.000    2.000 
#    6.750    0.000    0.000    0.000    0.000    0.000 
#    0.000    0.000    0.000    0.000    0.000    0.000 
#
# Total GULP energy -89245.588768 kJ/mol
# GULP energy per Si atom -5577.849298 kJ/mol
# Density = 2.491614 g / cm^3
# Si number density = 24.972982 Si / 1000 Ang^3
#
#
#
# Elastic Constant Matrix: (Units=GPa)
#
#
# Indices 1 2 3 4 5 6 
#
# 1 125.6326 19.1341 7.8579 0.0000 10.9735 0.0000
# 2 19.1341 57.3607 3.8727 0.0000 7.0530 0.0000
# 3 7.8579 3.8727 63.6602 0.0000 8.4741 0.0000
# 4 0.0000 0.0000 0.0000 31.1913 0.0000 5.3082
# 5 10.9735 7.0530 8.4741 0.0000 40.3389 0.0000
# 6 0.0000 0.0000 0.0000 5.3082 0.0000 22.0829
#
#
#
# Elastic Compliance Matrix: (Units=1/GPa)
#
#
# Indices 1 2 3 4 5 6 
#
# 1 0.008548 -0.002593 -0.000667 0.000000 -0.001732 0.000000
# 2 -0.002593 0.018633 -0.000487 0.000000 -0.002450 0.000000
# 3 -0.000667 -0.000487 0.016239 0.000000 -0.003145 0.000000
# 4 0.000000 0.000000 0.000000 0.033428 0.000000 -0.008035
# 5 -0.001732 -0.002450 -0.003145 0.000000 0.026350 0.000000
# 6 0.000000 0.000000 0.000000 -0.008035 0.000000 0.047215
#
#
# Mechanical properties :
#
#
# Convention : Reuss Voigt Hill
#
# Bulk Modulus (GPa) = 27.83611 34.26478 31.05044
# Shear Modulus (GPa) = 29.43218 33.10855 31.27037
#
# Velocity S-wave (km/s) = 3.43674 3.64507 3.54244
# Velocity P-wave (km/s) = 5.18835 5.60945 5.40300
#
# Compressibility (1/GPa) = 0.03592456
#
# Stress axis : x y z
#
# Youngs Moduli (GPa) = 116.99114 53.66890 61.58027
#
# Poissons Ratio (x) = 0.13918 0.04106
# Poissons Ratio (y) = 0.30340 0.03001
# Poissons Ratio (z) = 0.07801 0.02615
#
# Static dielectric constant tensor:
#      x y z
#    x 2.042420 0.000000 -0.105190 
#    y 0.000000 2.215320 0.000000 
#    z -0.105190 0.000000 2.005210 
# 
# From -- ./inp_files/8023.got.cif
#   From: 2010.05.17/outbox.cif.g08.bks.cpg/sg4_5_cif.got.tgz:8023.got - 2010.06.03 18:43:04.
