data_PCOD9115383
_publ_section_title
;
Structure prediction by ZEFSAII (Michael W. Deem and Ramdas Pophale) SiO2 
 PCOD9115383
Probable space group: P 21
;
_chemical_formula_sum "Si O2"
_cell_formula_units_Z 16
_cell_length_a 11.859009
_cell_length_b 10.330519
_cell_length_c 8.597346
_cell_angle_alpha 90.000000
_cell_angle_beta 49.170431
_cell_angle_gamma 90.000000
_cell_volume 796.956145
_symmetry_space_group_name_H-M "P 21"
_symmetry_group_IT_number 4
_symmetry_cell_setting 'monoclinic'
loop_
_space_group_symop_operation_xyz
x,y,z
-x,1/2+y,-z
loop_
_atom_site_type_symbol
_atom_site_label
_atom_site_fract_x
_atom_site_fract_y
_atom_site_fract_z
Si Si1 0.566300 0.592540 0.695848
Si Si2 0.104049 0.735144 0.189312
Si Si3 0.273339 0.624157 0.764581
Si Si4 0.597876 0.242081 0.913052
Si Si5 0.297744 0.323127 0.267055
Si Si6 0.973508 0.714969 0.640626
Si Si7 0.894410 0.969064 0.332917
Si Si8 0.741131 0.326626 0.488012
O O1 0.439753 0.604338 0.678508
O O2 0.675072 0.716713 0.619181
O O3 0.663406 0.464975 0.580512
O O4 0.469833 0.615058 0.942375
O O5 0.261121 0.789572 0.114115
O O6 0.023939 0.684467 0.417382
O O7 0.157329 0.635586 0.011622
O O8 0.998117 0.844967 0.214676
O O9 0.213976 0.511265 0.707025
O O10 0.267352 0.758302 0.671401
O O11 0.652741 0.232729 0.688238
O O12 0.461639 0.341266 0.052420
O O13 0.207681 0.438790 0.424810
O O14 0.193747 0.263225 0.227049
O O15 0.000137 0.589848 0.720849
O O16 0.088619 0.821496 0.604282
#
# Coordination Sequence:
#
# PCOD9115383 Si02
#       8
#     2   2   2   2   2   2   2   2
#     4   9  21  37  59  83 120 151 193 242 291 344
#     4   9  19  40  57  82 122 150 191 239 292 339
#     4  10  22  39  58  89 120 160 194 228 299 351
#     4   8  19  35  57  88 107 151 199 238 291 332
#     4   9  20  35  60  86 114 148 198 235 305 327
#     4   9  20  37  63  87 109 152 198 243 294 339
#     4  10  21  39  62  84 120 152 196 249 281 354
#     4  10  20  38  62  85 120 152 197 242 289 350
#
# _framework density 20.076385999999999
#
# number of rings (size 3 to 8) (size 9 to 14) (size 15 to 20)
#    0.750    2.000    0.000    0.000    7.000    4.000 
#    4.500    5.000    0.000    0.000    0.000    0.000 
#    0.000    0.000    0.000    0.000    0.000    0.000 
#
# Total GULP energy -89070.825701 kJ/mol
# GULP energy per Si atom -5566.926606 kJ/mol
# Density = 2.003069 g / cm^3
# Si number density = 20.076386 Si / 1000 Ang^3
#
#
#
# Elastic Constant Matrix: (Units=GPa)
#
#
# Indices 1 2 3 4 5 6 
#
# 1 92.7116 15.0965 -0.7085 0.0000 -8.4659 0.0000
# 2 15.0965 50.9283 -17.0871 0.0000 -0.6256 0.0000
# 3 -0.7085 -17.0871 20.9761 0.0000 -8.6272 0.0000
# 4 0.0000 0.0000 0.0000 14.0220 0.0000 -5.3696
# 5 -8.4659 -0.6256 -8.6272 0.0000 30.5764 0.0000
# 6 0.0000 0.0000 0.0000 -5.3696 0.0000 26.0388
#
#
#
# Elastic Compliance Matrix: (Units=1/GPa)
#
#
# Indices 1 2 3 4 5 6 
#
# 1 0.011670 -0.004033 -0.001805 0.000000 0.002639 0.000000
# 2 -0.004033 0.030094 0.027346 0.000000 0.007215 0.000000
# 3 -0.001805 0.027346 0.079091 0.000000 0.022375 0.000000
# 4 0.000000 0.000000 0.000000 0.077431 0.000000 0.015968
# 5 0.002639 0.007215 0.022375 0.000000 0.039897 0.000000
# 6 0.000000 0.000000 0.000000 0.015968 0.000000 0.041697
#
#
# Mechanical properties :
#
#
# Convention : Reuss Voigt Hill
#
# Bulk Modulus (GPa) = 6.10234 17.69086 11.89660
# Shear Modulus (GPa) = 17.15339 25.28177 21.21758
#
# Velocity S-wave (km/s) = 2.92619 3.55248 3.25444
# Velocity P-wave (km/s) = 3.80302 5.06535 4.47888
#
# Compressibility (1/GPa) = 0.16387167
#
# Stress axis : x y z
#
# Youngs Moduli (GPa) = 85.69002 33.22890 12.64366
#
# Poissons Ratio (x) = 0.13400 0.02282
# Poissons Ratio (y) = 0.34555 -0.34575
# Poissons Ratio (z) = 0.15469 -0.90867
#
# Static dielectric constant tensor:
#      x y z
#    x 1.708830 0.000000 -0.001500 
#    y 0.000000 1.740800 0.000000 
#    z -0.001500 0.000000 1.733220 
# 
# From -- ./inp_files/8174.got.cif
#   From: 2010.05.17/outbox.cif.g08.bks.cpg/sg4_5_cif.got.tgz:8174.got - 2010.06.03 18:43:04.
