data_PCOD9115652
_publ_section_title
;
Structure prediction by ZEFSAII (Michael W. Deem and Ramdas Pophale) SiO2 
 PCOD9115652
Probable space group: P 21
;
_chemical_formula_sum "Si O2"
_cell_formula_units_Z 12
_cell_length_a 10.047558
_cell_length_b 7.780137
_cell_length_c 8.360587
_cell_angle_alpha 90.000000
_cell_angle_beta 43.058049
_cell_angle_gamma 90.000000
_cell_volume 446.209934
_symmetry_space_group_name_H-M "P 21"
_symmetry_group_IT_number 4
_symmetry_cell_setting 'monoclinic'
loop_
_space_group_symop_operation_xyz
x,y,z
-x,1/2+y,-z
loop_
_atom_site_type_symbol
_atom_site_label
_atom_site_fract_x
_atom_site_fract_y
_atom_site_fract_z
Si Si1 0.143393 0.037710 0.492958
Si Si2 0.901394 0.691561 0.785148
Si Si3 0.399973 0.465976 0.564534
Si Si4 0.198675 0.461366 0.411639
Si Si5 0.597681 0.967662 0.084734
Si Si6 0.194111 0.103033 0.796219
O O1 0.191067 0.255271 0.412961
O O2 0.077801 0.085779 0.736436
O O3 0.368295 0.976876 0.268669
O O4 0.044202 0.842189 0.612069
O O5 0.971455 0.537630 0.600875
O O6 0.688291 0.774355 0.996772
O O7 0.932549 0.609698 0.933121
O O8 0.305774 0.522233 0.478347
O O9 0.360710 0.546558 0.775807
O O10 0.314665 0.277598 0.666652
O O11 0.633741 0.463648 0.340454
O O12 0.299178 0.540840 0.165695
#
# Coordination Sequence:
#
# PCOD9115652 Si02
#       6
#     2   2   2   2   2   2
#     4   9  21  37  63  87 121 165 201 258 314 365
#     4   9  21  37  60  88 122 156 210 259 302 371
#     4  10  22  40  66  91 128 167 207 261 311 371
#     4  10  22  38  61  91 122 161 213 255 309 369
#     4  10  20  42  58  85 128 159 207 260 311 373
#     4  10  20  42  62  92 129 162 210 257 313 377
#
# _framework density 26.893172
#
# number of rings (size 3 to 8) (size 9 to 14) (size 15 to 20)
#    1.000    1.333    0.000    2.000    2.333    0.000 
#   12.000    1.667    0.000    0.000    0.000    0.000 
#    0.000    0.000    0.000    0.000    0.000    0.000 
#
# Total GULP energy -66868.513225 kJ/mol
# GULP energy per Si atom -5572.376102 kJ/mol
# Density = 2.683196 g / cm^3
# Si number density = 26.893172 Si / 1000 Ang^3
#
#
#
# Elastic Constant Matrix: (Units=GPa)
#
#
# Indices 1 2 3 4 5 6 
#
# 1 171.9820 24.7430 117.5612 0.0000 43.2666 0.0000
# 2 24.7430 81.4260 66.2678 0.0000 13.3659 0.0000
# 3 117.5612 66.2678 228.2936 0.0000 41.5231 0.0000
# 4 0.0000 0.0000 0.0000 47.6119 0.0000 -2.1444
# 5 43.2666 13.3659 41.5231 0.0000 67.9530 0.0000
# 6 0.0000 0.0000 0.0000 -2.1444 0.0000 35.0498
#
#
#
# Elastic Compliance Matrix: (Units=1/GPa)
#
#
# Indices 1 2 3 4 5 6 
#
# 1 0.009809 0.001555 -0.004850 0.000000 -0.003588 0.000000
# 2 0.001555 0.016334 -0.005375 0.000000 -0.000919 0.000000
# 3 -0.004850 -0.005375 0.008645 0.000000 -0.001137 0.000000
# 4 0.000000 0.000000 0.000000 0.021061 0.000000 0.001289
# 5 -0.003588 -0.000919 -0.001137 0.000000 0.017876 0.000000
# 6 0.000000 0.000000 0.000000 0.001289 0.000000 0.028610
#
#
# Mechanical properties :
#
#
# Convention : Reuss Voigt Hill
#
# Bulk Modulus (GPa) = 57.31337 99.87171 78.59254
# Shear Modulus (GPa) = 39.84392 48.33157 44.08775
#
# Velocity S-wave (km/s) = 3.85328 4.24390 4.05330
# Velocity P-wave (km/s) = 6.41520 7.82505 7.15493
#
# Compressibility (1/GPa) = 0.01744794
#
# Stress axis : x y z
#
# Youngs Moduli (GPa) = 101.95101 61.22285 115.67397
#
# Poissons Ratio (x) = -0.09523 0.56102
# Poissons Ratio (y) = -0.15858 0.62177
# Poissons Ratio (z) = 0.49446 0.32908
#
# Static dielectric constant tensor:
#      x y z
#    x 2.339430 0.000000 0.114480 
#    y 0.000000 2.064350 0.000000 
#    z 0.114480 0.000000 2.130630 
# 
# From -- ./inp_files/7444.got.cif
#   From: 2010.05.17/outbox.cif.g08.bks.cpg/sg4_4_cif.got.tgz:7444.got - 2010.06.03 18:43:04.
