data_PCOD9115332
_publ_section_title
;
Structure prediction by ZEFSAII (Michael W. Deem and Ramdas Pophale) SiO2 
 PCOD9115332
Probable space group: P 21
;
_chemical_formula_sum "Si O2"
_cell_formula_units_Z 16
_cell_length_a 11.728608
_cell_length_b 8.041707
_cell_length_c 9.400965
_cell_angle_alpha 90.000000
_cell_angle_beta 135.890691
_cell_angle_gamma 90.000000
_cell_volume 617.155746
_symmetry_space_group_name_H-M "P 21"
_symmetry_group_IT_number 4
_symmetry_cell_setting 'monoclinic'
loop_
_space_group_symop_operation_xyz
x,y,z
-x,1/2+y,-z
loop_
_atom_site_type_symbol
_atom_site_label
_atom_site_fract_x
_atom_site_fract_y
_atom_site_fract_z
Si Si1 0.306331 0.493320 0.421462
Si Si2 0.871325 0.089654 0.991319
Si Si3 0.059206 0.203458 0.627423
Si Si4 0.857906 0.474800 0.560008
Si Si5 0.349431 0.107517 0.396124
Si Si6 0.360495 0.414810 0.010683
Si Si7 0.522250 0.065255 0.158745
Si Si8 0.188209 0.959737 0.976503
O O1 0.154169 0.568572 0.199232
O O2 0.316958 0.298223 0.402060
O O3 0.469615 0.578334 0.502062
O O4 0.325273 0.519982 0.605675
O O5 0.881465 0.280666 0.046099
O O6 0.014165 0.987529 0.194826
O O7 0.709037 0.010089 0.916683
O O8 0.093715 0.120876 0.506469
O O9 0.203124 0.336491 0.787577
O O10 0.892769 0.306632 0.503941
O O11 0.083834 0.061731 0.768651
O O12 0.690121 0.504722 0.495090
O O13 0.230239 0.057370 0.159087
O O14 0.446805 0.537392 0.978627
O O15 0.466859 0.252931 0.138477
O O16 0.369409 0.947818 0.066717
#
# Coordination Sequence:
#
# PCOD9115332 Si02
#       8
#     2   2   2   2   2   2   2   2
#     4  11  22  42  66  98 137 173 223 279 328 398
#     4  11  23  41  64  94 134 174 218 277 331 394
#     4  10  22  43  64  94 133 171 227 281 326 398
#     4  11  24  44  69  96 131 179 222 273 336 398
#     4  11  24  43  68  97 131 177 223 273 337 397
#     4  10  21  38  63  95 130 174 224 277 334 394
#     4  10  20  37  63  95 133 176 220 275 335 395
#     4  10  22  40  61  93 133 172 219 279 331 394
#
# _framework density 25.925384999999999
#
# number of rings (size 3 to 8) (size 9 to 14) (size 15 to 20)
#    0.000    1.500    0.000    6.750    0.000    4.000 
#    0.000   20.000    0.000    0.000    0.000    0.000 
#    0.000    0.000    0.000    0.000    0.000    0.000 
#
# Total GULP energy -89731.886227 kJ/mol
# GULP energy per Si atom -5608.242889 kJ/mol
# Density = 2.586638 g / cm^3
# Si number density = 25.925385 Si / 1000 Ang^3
#
#
#
# Elastic Constant Matrix: (Units=GPa)
#
#
# Indices 1 2 3 4 5 6 
#
# 1 75.3892 8.3014 26.9754 0.0000 -17.4860 0.0000
# 2 8.3014 84.7315 -10.4176 0.0000 2.9485 0.0000
# 3 26.9754 -10.4176 78.8793 0.0000 -17.0071 0.0000
# 4 0.0000 0.0000 0.0000 36.6909 0.0000 -7.9885
# 5 -17.4860 2.9485 -17.0071 0.0000 33.9577 0.0000
# 6 0.0000 0.0000 0.0000 -7.9885 0.0000 36.5261
#
#
#
# Elastic Compliance Matrix: (Units=1/GPa)
#
#
# Indices 1 2 3 4 5 6 
#
# 1 0.016694 -0.002431 -0.004631 0.000000 0.006488 0.000000
# 2 -0.002431 0.012353 0.002199 0.000000 -0.001223 0.000000
# 3 -0.004631 0.002199 0.015691 0.000000 0.005283 0.000000
# 4 0.000000 0.000000 0.000000 0.028617 0.000000 0.006259
# 5 0.006488 -0.001223 0.005283 0.000000 0.035541 0.000000
# 6 0.000000 0.000000 0.000000 0.006259 0.000000 0.028747
#
#
# Mechanical properties :
#
#
# Convention : Reuss Voigt Hill
#
# Bulk Modulus (GPa) = 28.56154 32.07983 30.32068
# Shear Modulus (GPa) = 31.43864 35.71097 33.57481
#
# Velocity S-wave (km/s) = 3.48610 3.71543 3.60259
# Velocity P-wave (km/s) = 5.21964 5.55038 5.38755
#
# Compressibility (1/GPa) = 0.03501212
#
# Stress axis : x y z
#
# Youngs Moduli (GPa) = 59.90125 80.95162 63.73142
#
# Poissons Ratio (x) = 0.19677 0.29516
# Poissons Ratio (y) = 0.14561 -0.14015
# Poissons Ratio (z) = 0.27742 -0.17802
#
# Static dielectric constant tensor:
#      x y z
#    x 2.103110 0.000000 0.080450 
#    y 0.000000 1.973090 0.000000 
#    z 0.080450 0.000000 2.022520 
# 
# From -- ./inp_files/8066.got.cif
#   From: 2010.05.17/outbox.cif.g08.bks.cpg/sg4_5_cif.got.tgz:8066.got - 2010.06.03 18:43:04.
