data_PCOD9115313
_publ_section_title
;
Structure prediction by ZEFSAII (Michael W. Deem and Ramdas Pophale) SiO2 
 PCOD9115313
Probable space group: P 21
;
_chemical_formula_sum "Si O2"
_cell_formula_units_Z 14
_cell_length_a 15.055790
_cell_length_b 7.533274
_cell_length_c 11.933441
_cell_angle_alpha 90.000000
_cell_angle_beta 152.967983
_cell_angle_gamma 90.000000
_cell_volume 615.142501
_symmetry_space_group_name_H-M "P 21"
_symmetry_group_IT_number 4
_symmetry_cell_setting 'monoclinic'
loop_
_space_group_symop_operation_xyz
x,y,z
-x,1/2+y,-z
loop_
_atom_site_type_symbol
_atom_site_label
_atom_site_fract_x
_atom_site_fract_y
_atom_site_fract_z
Si Si1 0.625550 0.994870 0.875987
Si Si2 0.415988 0.312360 0.538815
Si Si3 0.950712 0.892457 0.395876
Si Si4 0.423268 0.434944 0.774986
Si Si5 0.309627 0.142338 0.200878
Si Si6 0.134395 0.013883 0.802419
Si Si7 0.625199 0.337239 0.218832
O O1 0.644728 0.817090 0.823034
O O2 0.448750 0.955629 0.762282
O O3 0.581165 0.163339 0.750277
O O4 0.808233 0.020782 0.166193
O O5 0.318265 0.350125 0.549792
O O6 0.283363 0.219381 0.295308
O O7 0.516672 0.494685 0.607192
O O8 0.879754 0.700318 0.278621
O O9 0.170743 0.907163 0.597936
O O10 0.969135 0.906291 0.550695
O O11 0.354214 0.634750 0.719239
O O12 0.647359 0.446906 0.978569
O O13 0.462141 0.340899 0.937218
O O14 0.132326 0.051161 0.932498
#
# Coordination Sequence:
#
# PCOD9115313 Si02
#       7
#     2   2   2   2   2   2   2
#     4  11  22  40  64  91 127 162 211 258 312 379
#     4  11  20  37  66  91 123 170 212 259 308 368
#     4  10  22  35  60  89 127 163 197 260 321 365
#     4  10  21  35  58  93 124 169 210 251 322 374
#     4  10  20  37  61  96 116 165 224 243 306 379
#     4   9  20  36  53  91 119 154 209 244 307 377
#     4  11  21  38  58  93 136 157 207 259 318 388
#
# _framework density 22.758953999999999
#
# number of rings (size 3 to 8) (size 9 to 14) (size 15 to 20)
#    0.000    1.714    5.714    0.857    8.000    0.000 
#    0.000    0.000    0.000   10.286    0.000    0.000 
#    0.000    0.000    0.000    0.000    0.000    0.000 
#
# Total GULP energy -78132.311496 kJ/mol
# GULP energy per Si atom -5580.879393 kJ/mol
# Density = 2.270715 g / cm^3
# Si number density = 22.758954 Si / 1000 Ang^3
#
#
#
# Elastic Constant Matrix: (Units=GPa)
#
#
# Indices 1 2 3 4 5 6 
#
# 1 74.3008 23.7646 37.8035 0.0000 -32.3600 0.0000
# 2 23.7646 86.0970 27.3013 0.0000 -15.8454 0.0000
# 3 37.8035 27.3013 103.1343 0.0000 -32.9894 0.0000
# 4 0.0000 0.0000 0.0000 39.6947 0.0000 -16.4714
# 5 -32.3600 -15.8454 -32.9894 0.0000 51.7539 0.0000
# 6 0.0000 0.0000 0.0000 -16.4714 0.0000 35.6855
#
#
#
# Elastic Compliance Matrix: (Units=1/GPa)
#
#
# Indices 1 2 3 4 5 6 
#
# 1 0.020359 -0.002690 -0.003695 0.000000 0.009551 0.000000
# 2 -0.002690 0.013235 -0.002210 0.000000 0.000962 0.000000
# 3 -0.003695 -0.002210 0.013415 0.000000 0.005564 0.000000
# 4 0.000000 0.000000 0.000000 0.031160 0.000000 0.014383
# 5 0.009551 0.000962 0.005564 0.000000 0.029135 0.000000
# 6 0.000000 0.000000 0.000000 0.014383 0.000000 0.034661
#
#
# Mechanical properties :
#
#
# Convention : Reuss Voigt Hill
#
# Bulk Modulus (GPa) = 33.53611 49.03010 41.28310
# Shear Modulus (GPa) = 29.56894 37.07100 33.31997
#
# Velocity S-wave (km/s) = 3.60838 4.04028 3.83043
# Velocity P-wave (km/s) = 5.66815 6.58446 6.14341
#
# Compressibility (1/GPa) = 0.02981860
#
# Stress axis : x y z
#
# Youngs Moduli (GPa) = 49.11848 75.55706 74.54080
#
# Poissons Ratio (x) = 0.20324 0.27546
# Poissons Ratio (y) = 0.13213 0.16473
# Poissons Ratio (z) = 0.18152 0.16698
#
# Static dielectric constant tensor:
#      x y z
#    x 1.891700 0.000000 -0.051840 
#    y 0.000000 1.896890 0.000000 
#    z -0.051840 0.000000 1.919470 
# 
# From -- ./inp_files/7547.got.cif
#   From: 2010.05.17/outbox.cif.g08.bks.cpg/sg4_4_cif.got.tgz:7547.got - 2010.06.03 18:43:04.
