data_PCOD9115861
_publ_section_title
;
Structure prediction by ZEFSAII (Michael W. Deem and Ramdas Pophale) SiO2 
 PCOD9115861
Probable space group: P 21
;
_chemical_formula_sum "Si O2"
_cell_formula_units_Z 16
_cell_length_a 19.354117
_cell_length_b 5.270654
_cell_length_c 8.886022
_cell_angle_alpha 90.000000
_cell_angle_beta 121.945361
_cell_angle_gamma 90.000000
_cell_volume 769.173399
_symmetry_space_group_name_H-M "P 21"
_symmetry_group_IT_number 4
_symmetry_cell_setting 'monoclinic'
loop_
_space_group_symop_operation_xyz
x,y,z
-x,1/2+y,-z
loop_
_atom_site_type_symbol
_atom_site_label
_atom_site_fract_x
_atom_site_fract_y
_atom_site_fract_z
Si Si1 0.040463 0.560060 0.616991
Si Si2 0.776603 0.043926 0.113866
Si Si3 0.389037 0.477104 0.896196
Si Si4 0.962669 0.068043 0.024598
Si Si5 0.567783 0.476601 0.227420
Si Si6 0.449103 0.113916 0.459083
Si Si7 0.720925 0.744367 0.785296
Si Si8 0.219481 0.744412 0.191544
O O1 0.138153 0.557917 0.703214
O O2 0.029870 0.561717 0.785935
O O3 0.999598 0.310416 0.499903
O O4 0.695820 0.027530 0.118627
O O5 0.775454 0.809972 0.993792
O O6 0.771317 0.263316 0.980772
O O7 0.403652 0.701008 0.792633
O O8 0.393049 0.198815 0.827637
O O9 0.469442 0.493212 0.094197
O O10 0.870847 0.152854 0.879162
O O11 0.018337 0.291256 0.020105
O O12 0.585250 0.532495 0.419491
O O13 0.500650 0.873349 0.464458
O O14 0.369606 0.171093 0.268857
O O15 0.759812 0.523101 0.731563
O O16 0.719958 0.014988 0.698117
#
# Coordination Sequence:
#
# PCOD9115861 Si02
#       8
#     2   2   2   2   2   2   2   2
#     4  11  25  43  67 100 135 165 229 282 329 395
#     4   9  23  38  70  86 122 170 220 243 326 386
#     4  10  21  39  61  83 123 162 203 250 308 382
#     4  11  22  41  69  95 132 175 217 272 342 406
#     4  10  23  38  56  91 122 156 203 259 311 361
#     4  12  24  39  61  88 125 161 210 262 315 367
#     4  10  21  37  62  91 116 163 211 265 296 379
#     4   9  21  37  60  92 119 156 221 257 299 388
#
# _framework density 20.801552999999998
#
# number of rings (size 3 to 8) (size 9 to 14) (size 15 to 20)
#    0.750    1.000    0.000    3.750    7.000    1.000 
#    0.000    7.500    0.000    0.000    0.000    0.000 
#    0.000    0.000    0.000    0.000    0.000    0.000 
#
# Total GULP energy -89259.805956 kJ/mol
# GULP energy per Si atom -5578.737872 kJ/mol
# Density = 2.075421 g / cm^3
# Si number density = 20.801553 Si / 1000 Ang^3
#
#
#
# Elastic Constant Matrix: (Units=GPa)
#
#
# Indices 1 2 3 4 5 6 
#
# 1 79.1900 -2.2944 10.4799 0.0000 7.7414 0.0000
# 2 -2.2944 120.3260 12.6700 0.0000 10.5724 0.0000
# 3 10.4799 12.6700 43.8060 0.0000 7.1055 0.0000
# 4 0.0000 0.0000 0.0000 23.6864 0.0000 0.0662
# 5 7.7414 10.5724 7.1055 0.0000 21.7910 0.0000
# 6 0.0000 0.0000 0.0000 0.0662 0.0000 29.0423
#
#
#
# Elastic Compliance Matrix: (Units=1/GPa)
#
#
# Indices 1 2 3 4 5 6 
#
# 1 0.013446 0.000929 -0.002785 0.000000 -0.004319 0.000000
# 2 0.000929 0.008902 -0.002157 0.000000 -0.003946 0.000000
# 3 -0.002785 -0.002157 0.025116 0.000000 -0.006154 0.000000
# 4 0.000000 0.000000 0.000000 0.042219 0.000000 -0.000096
# 5 -0.004319 -0.003946 -0.006154 0.000000 0.051346 0.000000
# 6 0.000000 0.000000 0.000000 -0.000096 0.000000 0.034433
#
#
# Mechanical properties :
#
#
# Convention : Reuss Voigt Hill
#
# Bulk Modulus (GPa) = 25.35579 31.67033 28.51306
# Shear Modulus (GPa) = 25.42806 29.73504 27.58155
#
# Velocity S-wave (km/s) = 3.50009 3.78492 3.64529
# Velocity P-wave (km/s) = 5.34322 5.86165 5.60843
#
# Compressibility (1/GPa) = 0.03943873
#
# Stress axis : x y z
#
# Youngs Moduli (GPa) = 74.37401 112.33040 39.81487
#
# Poissons Ratio (x) = -0.10437 0.11088
# Poissons Ratio (y) = -0.06910 0.08588
# Poissons Ratio (z) = 0.20711 0.24230
#
# Static dielectric constant tensor:
#      x y z
#    x 1.750940 0.000000 0.003100 
#    y 0.000000 1.787960 0.000000 
#    z 0.003100 0.000000 1.772880 
# 
# From -- ./inp_files/9435.got.cif
#   From: 2010.05.17/outbox.cif.g08.bks.cpg/sg4_5_cif.got.tgz:9435.got - 2010.06.03 18:43:04.
