data_PCOD9115197
_publ_section_title
;
Structure prediction by ZEFSAII (Michael W. Deem and Ramdas Pophale) SiO2 
 PCOD9115197
Probable space group: P 21
;
_chemical_formula_sum "Si O2"
_cell_formula_units_Z 12
_cell_length_a 11.387817
_cell_length_b 4.963332
_cell_length_c 11.114070
_cell_angle_alpha 90.000000
_cell_angle_beta 125.275515
_cell_angle_gamma 90.000000
_cell_volume 512.839730
_symmetry_space_group_name_H-M "P 21"
_symmetry_group_IT_number 4
_symmetry_cell_setting 'monoclinic'
loop_
_space_group_symop_operation_xyz
x,y,z
-x,1/2+y,-z
loop_
_atom_site_type_symbol
_atom_site_label
_atom_site_fract_x
_atom_site_fract_y
_atom_site_fract_z
Si Si1 0.308760 0.170070 0.618854
Si Si2 0.853559 0.427866 0.268436
Si Si3 0.544473 0.977751 0.597607
Si Si4 0.143698 0.667683 0.974814
Si Si5 0.136337 0.688771 0.477332
Si Si6 0.184740 0.172053 0.148276
O O1 0.465859 0.074865 0.673380
O O2 0.262653 0.468529 0.556769
O O3 0.266201 0.101670 0.731335
O O4 0.200942 0.974614 0.480653
O O5 0.905763 0.226136 0.406102
O O6 0.995006 0.602892 0.323914
O O7 0.804523 0.269414 0.123219
O O8 0.552148 0.251393 0.526099
O O9 0.690899 0.814215 0.702884
O O10 0.178201 0.360828 0.025494
O O11 0.204821 0.867233 0.114752
O O12 0.970632 0.696061 0.881692
#
# Coordination Sequence:
#
# PCOD9115197 Si02
#       6
#     2   2   2   2   2   2
#     4  10  22  37  56  96 120 156 205 262 302 376
#     4  10  21  35  64  90 122 167 197 264 316 350
#     4  12  26  43  68  90 129 172 205 263 324 375
#     4  10  23  40  67  85 129 167 208 261 313 363
#     4  10  20  35  58  95 127 149 208 264 297 378
#     4  10  24  44  57  96 123 165 219 254 298 396
#
# _framework density 23.399124
#
# number of rings (size 3 to 8) (size 9 to 14) (size 15 to 20)
#    1.000    0.667    1.667    2.000    7.000    0.000 
#    0.000    1.667    0.000    0.000    0.000    0.000 
#    0.000    0.000    0.000    0.000    0.000    0.000 
#
# Total GULP energy -67047.126728 kJ/mol
# GULP energy per Si atom -5587.260561 kJ/mol
# Density = 2.334587 g / cm^3
# Si number density = 23.399124 Si / 1000 Ang^3
#
#
#
# Elastic Constant Matrix: (Units=GPa)
#
#
# Indices 1 2 3 4 5 6 
#
# 1 65.2470 2.9924 2.6331 0.0000 -3.5756 0.0000
# 2 2.9924 94.4926 -4.5731 0.0000 1.2723 0.0000
# 3 2.6331 -4.5731 45.0418 0.0000 -0.7430 0.0000
# 4 0.0000 0.0000 0.0000 29.9161 0.0000 0.2978
# 5 -3.5756 1.2723 -0.7430 0.0000 29.4826 0.0000
# 6 0.0000 0.0000 0.0000 0.2978 0.0000 33.7766
#
#
#
# Elastic Compliance Matrix: (Units=1/GPa)
#
#
# Indices 1 2 3 4 5 6 
#
# 1 0.015493 -0.000561 -0.000932 0.000000 0.001880 0.000000
# 2 -0.000561 0.010661 0.001107 0.000000 -0.000500 0.000000
# 3 -0.000932 0.001107 0.022375 0.000000 0.000403 0.000000
# 4 0.000000 0.000000 0.000000 0.033430 0.000000 -0.000295
# 5 0.001880 -0.000500 0.000403 0.000000 0.034178 0.000000
# 6 0.000000 0.000000 0.000000 -0.000295 0.000000 0.029609
#
#
# Mechanical properties :
#
#
# Convention : Reuss Voigt Hill
#
# Bulk Modulus (GPa) = 20.93918 22.98732 21.96325
# Shear Modulus (GPa) = 30.78138 32.21700 31.49919
#
# Velocity S-wave (km/s) = 3.63091 3.71461 3.67300
# Velocity P-wave (km/s) = 5.15229 5.31443 5.23399
#
# Compressibility (1/GPa) = 0.04775737
#
# Stress axis : x y z
#
# Youngs Moduli (GPa) = 64.54646 93.80056 44.69253
#
# Poissons Ratio (x) = 0.05262 0.04164
# Poissons Ratio (y) = 0.03621 -0.04947
# Poissons Ratio (z) = 0.06013 -0.10383
#
# Static dielectric constant tensor:
#      x y z
#    x 1.922510 0.000000 -0.015610 
#    y 0.000000 1.868580 0.000000 
#    z -0.015610 0.000000 1.903840 
# 
# From -- ./inp_files/11538.got.cif
#   From: 2010.05.17/outbox.cif.g08.bks.cpg/sg4_6_cif.got.tgz:11538.got - 2010.06.03 18:43:04.
