data_PCOD9115927
_publ_section_title
;
Structure prediction by ZEFSAII (Michael W. Deem and Ramdas Pophale) SiO2 
 PCOD9115927
Probable space group: P 21
;
_chemical_formula_sum "Si O2"
_cell_formula_units_Z 16
_cell_length_a 22.474277
_cell_length_b 5.238437
_cell_length_c 10.062381
_cell_angle_alpha 90.000000
_cell_angle_beta 142.086052
_cell_angle_gamma 90.000000
_cell_volume 727.937409
_symmetry_space_group_name_H-M "P 21"
_symmetry_group_IT_number 4
_symmetry_cell_setting 'monoclinic'
loop_
_space_group_symop_operation_xyz
x,y,z
-x,1/2+y,-z
loop_
_atom_site_type_symbol
_atom_site_label
_atom_site_fract_x
_atom_site_fract_y
_atom_site_fract_z
Si Si1 0.240252 0.695260 0.098337
Si Si2 0.591058 0.557550 0.672383
Si Si3 0.695979 0.772529 0.091778
Si Si4 0.509583 0.653148 0.937588
Si Si5 0.092203 0.883508 0.042337
Si Si6 0.596449 0.914015 0.488955
Si Si7 0.968014 0.376731 0.774416
Si Si8 0.180151 0.759784 0.711078
O O1 0.294168 0.473846 0.275400
O O2 0.331496 0.833337 0.189546
O O3 0.185534 0.852069 0.115202
O O4 0.168398 0.671257 0.845130
O O5 0.581554 0.618064 0.499225
O O6 0.489150 0.515035 0.562999
O O7 0.643771 0.772987 0.855534
O O8 0.610749 0.703426 0.042138
O O9 0.770510 0.537836 0.214723
O O10 0.749293 0.035921 0.218520
O O11 0.524692 0.426663 0.070063
O O12 0.432106 0.525830 0.701188
O O13 0.018010 0.656043 0.866201
O O14 0.102344 0.858319 0.220018
O O15 0.048511 0.162017 0.941290
O O16 0.914261 0.294436 0.545321
#
# Coordination Sequence:
#
# PCOD9115927 Si02
#       8
#     2   2   2   2   2   2   2   2
#     4  11  24  37  65 100 126 162 223 268 315 390
#     4  10  21  38  62  93 126 172 212 259 326 379
#     4  10  22  39  64  89 128 166 213 261 321 386
#     4  11  26  42  59  90 133 176 221 267 316 381
#     4  10  24  43  66  92 124 167 214 262 320 402
#     4  11  22  39  65  88 135 174 213 267 330 377
#     4  10  23  46  65  88 128 170 205 261 343 385
#     4  11  22  40  66  96 124 163 211 269 327 390
#
# _framework density 21.979911999999999
#
# number of rings (size 3 to 8) (size 9 to 14) (size 15 to 20)
#    0.000    1.500    2.500    1.500    3.500    3.000 
#    0.000    0.000    0.000    0.000    0.000    0.000 
#    0.000    0.000    0.000    0.000    0.000    0.000 
#
# Total GULP energy -89182.687790 kJ/mol
# GULP energy per Si atom -5573.917987 kJ/mol
# Density = 2.192989 g / cm^3
# Si number density = 21.979912 Si / 1000 Ang^3
#
#
#
# Elastic Constant Matrix: (Units=GPa)
#
#
# Indices 1 2 3 4 5 6 
#
# 1 57.5502 -9.4213 2.7725 0.0000 -6.3202 0.0000
# 2 -9.4213 61.6605 0.9075 0.0000 0.9950 0.0000
# 3 2.7725 0.9075 43.5783 0.0000 -2.1213 0.0000
# 4 0.0000 0.0000 0.0000 29.8912 0.0000 -2.2353
# 5 -6.3202 0.9950 -2.1213 0.0000 12.6294 0.0000
# 6 0.0000 0.0000 0.0000 -2.2353 0.0000 24.5253
#
#
#
# Elastic Compliance Matrix: (Units=1/GPa)
#
#
# Indices 1 2 3 4 5 6 
#
# 1 0.018863 0.002748 -0.000815 0.000000 0.009086 0.000000
# 2 0.002748 0.016646 -0.000523 0.000000 -0.000024 0.000000
# 3 -0.000815 -0.000523 0.023182 0.000000 0.003527 0.000000
# 4 0.000000 0.000000 0.000000 0.033684 0.000000 0.003070
# 5 0.009086 -0.000024 0.003527 0.000000 0.084322 0.000000
# 6 0.000000 0.000000 0.000000 0.003070 0.000000 0.041054
#
#
# Mechanical properties :
#
#
# Convention : Reuss Voigt Hill
#
# Bulk Modulus (GPa) = 16.25748 16.81182 16.53465
# Shear Modulus (GPa) = 21.23737 24.64454 22.94095
#
# Velocity S-wave (km/s) = 3.11178 3.35211 3.23418
# Velocity P-wave (km/s) = 4.50815 4.75894 4.63524
#
# Compressibility (1/GPa) = 0.06151015
#
# Stress axis : x y z
#
# Youngs Moduli (GPa) = 53.01366 60.07552 43.13763
#
# Poissons Ratio (x) = -0.16506 0.03516
# Poissons Ratio (y) = -0.14566 0.02254
# Poissons Ratio (z) = 0.04321 0.03140
#
# Static dielectric constant tensor:
#      x y z
#    x 1.819570 0.000000 -0.046970 
#    y 0.000000 1.882820 0.000000 
#    z -0.046970 0.000000 1.927650 
# 
# From -- ./inp_files/9035.got.cif
#   From: 2010.05.17/outbox.cif.g08.bks.cpg/sg4_5_cif.got.tgz:9035.got - 2010.06.03 18:43:04.
