data_PCOD9115306
_publ_section_title
;
Structure prediction by ZEFSAII (Michael W. Deem and Ramdas Pophale) SiO2 
 PCOD9115306
Probable space group: P 21
;
_chemical_formula_sum "Si O2"
_cell_formula_units_Z 16
_cell_length_a 7.451717
_cell_length_b 5.575633
_cell_length_c 13.479054
_cell_angle_alpha 90.000000
_cell_angle_beta 95.745512
_cell_angle_gamma 90.000000
_cell_volume 557.214885
_symmetry_space_group_name_H-M "P 21"
_symmetry_group_IT_number 4
_symmetry_cell_setting 'monoclinic'
loop_
_space_group_symop_operation_xyz
x,y,z
-x,1/2+y,-z
loop_
_atom_site_type_symbol
_atom_site_label
_atom_site_fract_x
_atom_site_fract_y
_atom_site_fract_z
Si Si1 0.881816 0.046340 0.871934
Si Si2 0.437623 0.049196 0.336016
Si Si3 0.764257 0.039437 0.480774
Si Si4 0.284247 0.297975 0.772896
Si Si5 0.098936 0.034919 0.608330
Si Si6 0.541596 0.796266 0.864038
Si Si7 0.934220 0.545801 0.759104
Si Si8 0.740967 0.539263 0.034637
O O1 0.901784 0.301455 0.819758
O O2 0.043944 0.026425 0.959932
O O3 0.676445 0.015784 0.894894
O O4 0.907444 0.800233 0.810300
O O5 0.550740 0.059396 0.444107
O O6 0.471093 0.256570 0.254707
O O7 0.223049 0.032787 0.332958
O O8 0.532863 0.837177 0.277630
O O9 0.835408 0.287446 0.435418
O O10 0.880454 0.040636 0.588899
O O11 0.825162 0.778465 0.440527
O O12 0.181031 0.070501 0.721121
O O13 0.299088 0.257252 0.890192
O O14 0.142388 0.510122 0.741911
O O15 0.354315 0.829402 0.909354
O O16 0.645135 0.583312 0.925922
#
# Coordination Sequence:
#
# PCOD9115306 Si02
#       8
#     2   2   2   2   2   2   2   2
#     4  10  24  43  60  83 120 158 194 241 288 337
#     4  10  20  37  61  84 118 154 190 241 291 338
#     4   9  18  33  57  86 113 149 193 233 285 347
#     4  10  20  37  61  84 118 154 190 241 291 338
#     4   9  18  33  57  86 113 149 193 233 285 347
#     4  11  23  37  59  88 119 154 198 240 287 346
#     4  10  22  39  62  89 114 152 200 235 286 353
#     4  11  23  37  59  88 119 154 198 240 287 346
#
# _framework density 28.714237000000001
#
# number of rings (size 3 to 8) (size 9 to 14) (size 15 to 20)
#    0.000    2.000    0.000    3.000    0.000   13.000 
#    0.000    0.000    0.000   18.000    0.000    0.000 
#    0.000    0.000    0.000    0.000    0.000    0.000 
#
# Total GULP energy -89432.706807 kJ/mol
# GULP energy per Si atom -5589.544175 kJ/mol
# Density = 2.864888 g / cm^3
# Si number density = 28.714237 Si / 1000 Ang^3
#
#
#
# Elastic Constant Matrix: (Units=GPa)
#
#
# Indices 1 2 3 4 5 6 
#
# 1 68.7448 47.6675 54.6687 0.0000 32.9322 0.0000
# 2 47.6675 189.2415 52.0607 0.0000 -7.4653 0.0000
# 3 54.6687 52.0607 83.7469 0.0000 36.4438 0.0000
# 4 0.0000 0.0000 0.0000 49.4019 0.0000 -7.3670
# 5 32.9322 -7.4653 36.4438 0.0000 60.0454 0.0000
# 6 0.0000 0.0000 0.0000 -7.3670 0.0000 64.0177
#
#
#
# Elastic Compliance Matrix: (Units=1/GPa)
#
#
# Indices 1 2 3 4 5 6 
#
# 1 0.035389 -0.005169 -0.015168 0.000000 -0.010846 0.000000
# 2 -0.005169 0.008089 -0.004519 0.000000 0.006584 0.000000
# 3 -0.015168 -0.004519 0.028912 0.000000 -0.009791 0.000000
# 4 0.000000 0.000000 0.000000 0.020596 0.000000 0.002370
# 5 -0.010846 0.006584 -0.009791 0.000000 0.029363 0.000000
# 6 0.000000 0.000000 0.000000 0.002370 0.000000 0.015893
#
#
# Mechanical properties :
#
#
# Convention : Reuss Voigt Hill
#
# Bulk Modulus (GPa) = 44.09751 72.28080 58.18915
# Shear Modulus (GPa) = 25.57346 47.18208 36.37777
#
# Velocity S-wave (km/s) = 2.98756 4.05799 3.56320
# Velocity P-wave (km/s) = 5.22412 6.86902 6.10225
#
# Compressibility (1/GPa) = 0.02267702
#
# Stress axis : x y z
#
# Youngs Moduli (GPa) = 28.25756 123.62074 34.58717
#
# Poissons Ratio (x) = 0.63899 0.52463
# Poissons Ratio (y) = 0.14606 0.15631
# Poissons Ratio (z) = 0.42862 0.55869
#
# Static dielectric constant tensor:
#      x y z
#    x 2.287870 0.000000 -0.001300 
#    y 0.000000 2.242710 0.000000 
#    z -0.001300 0.000000 2.204190 
# 
# From -- ./inp_files/10070.got.cif
#   From: 2010.05.17/outbox.cif.g08.bks.cpg/sg4_6_cif.got.tgz:10070.got - 2010.06.03 18:43:04.
