data_PCOD9115284
_publ_section_title
;
Structure prediction by ZEFSAII (Michael W. Deem and Ramdas Pophale) SiO2 
 PCOD9115284
Probable space group: P 21
;
_chemical_formula_sum "Si O2"
_cell_formula_units_Z 16
_cell_length_a 6.838062
_cell_length_b 5.033448
_cell_length_c 16.965329
_cell_angle_alpha 90.000000
_cell_angle_beta 86.558867
_cell_angle_gamma 90.000000
_cell_volume 582.877330
_symmetry_space_group_name_H-M "P 21"
_symmetry_group_IT_number 4
_symmetry_cell_setting 'monoclinic'
loop_
_space_group_symop_operation_xyz
x,y,z
-x,1/2+y,-z
loop_
_atom_site_type_symbol
_atom_site_label
_atom_site_fract_x
_atom_site_fract_y
_atom_site_fract_z
Si Si1 0.134229 0.454140 0.515261
Si Si2 0.359838 0.334084 0.101165
Si Si3 0.646221 0.187932 0.220601
Si Si4 0.877565 0.338483 0.835890
Si Si5 0.970177 0.478571 0.293467
Si Si6 0.646259 0.907371 0.634986
Si Si7 0.885584 0.722485 0.029770
Si Si8 0.644920 0.818072 0.347214
O O1 0.313111 0.339746 0.456632
O O2 0.246573 0.514507 0.595231
O O3 0.033231 0.723155 0.483822
O O4 0.565174 0.271884 0.137873
O O5 0.278021 0.624606 0.123885
O O6 0.319174 0.270896 0.009968
O O7 0.220264 0.120879 0.148885
O O8 0.859510 0.306274 0.230931
O O9 0.497248 0.294160 0.293579
O O10 0.649801 0.890127 0.254211
O O11 0.924804 0.232177 0.749004
O O12 0.075803 0.312174 0.882693
O O13 0.797807 0.578748 0.352640
O O14 0.142026 0.341462 0.334992
O O15 0.570083 0.212394 0.630546
O O16 0.961013 0.422440 0.017926
#
# Coordination Sequence:
#
# PCOD9115284 Si02
#       8
#     2   2   2   2   2   2   2   2
#     4  12  28  47  72  99 135 173 216 272 329 387
#     4  10  20  37  64  95 129 171 221 266 323 387
#     4  11  25  40  68  96 131 173 219 272 323 389
#     4  10  20  36  67  92 128 175 217 266 327 384
#     4  11  23  44  64  97 132 169 220 268 325 385
#     4  11  25  45  68  95 131 173 218 265 328 386
#     4   8  16  32  57  93 124 166 218 262 316 388
#     4  11  27  43  68  97 132 172 219 269 325 390
#
# _framework density 27.450029000000001
#
# number of rings (size 3 to 8) (size 9 to 14) (size 15 to 20)
#    0.000    1.500    2.500    1.500    8.750    2.000 
#    0.000    0.000    2.750    0.000    0.000    0.000 
#    0.000    0.000    0.000    0.000    0.000    0.000 
#
# Total GULP energy -89385.388990 kJ/mol
# GULP energy per Si atom -5586.586812 kJ/mol
# Density = 2.738755 g / cm^3
# Si number density = 27.450029 Si / 1000 Ang^3
#
#
#
# Elastic Constant Matrix: (Units=GPa)
#
#
# Indices 1 2 3 4 5 6 
#
# 1 105.1663 22.9343 26.1293 0.0000 26.5914 0.0000
# 2 22.9343 87.9676 -1.2357 0.0000 -5.1277 0.0000
# 3 26.1293 -1.2357 96.3959 0.0000 37.8073 0.0000
# 4 0.0000 0.0000 0.0000 32.5352 0.0000 4.8902
# 5 26.5914 -5.1277 37.8073 0.0000 57.8228 0.0000
# 6 0.0000 0.0000 0.0000 4.8902 0.0000 34.0040
#
#
#
# Elastic Compliance Matrix: (Units=1/GPa)
#
#
# Indices 1 2 3 4 5 6 
#
# 1 0.011806 -0.003380 -0.001340 0.000000 -0.004853 0.000000
# 2 -0.003380 0.012403 0.000046 0.000000 0.002624 0.000000
# 3 -0.001340 0.000046 0.014114 0.000000 -0.008608 0.000000
# 4 0.000000 0.000000 0.000000 0.031415 0.000000 -0.004518
# 5 -0.004853 0.002624 -0.008608 0.000000 0.025387 0.000000
# 6 0.000000 0.000000 0.000000 -0.004518 0.000000 0.030058
#
#
# Mechanical properties :
#
#
# Convention : Reuss Voigt Hill
#
# Bulk Modulus (GPa) = 34.51328 42.79841 38.65584
# Shear Modulus (GPa) = 34.67700 40.98587 37.83143
#
# Velocity S-wave (km/s) = 3.55812 3.86827 3.71643
# Velocity P-wave (km/s) = 5.42961 5.96461 5.70339
#
# Compressibility (1/GPa) = 0.02897436
#
# Stress axis : x y z
#
# Youngs Moduli (GPa) = 84.70468 80.62870 70.85243
#
# Poissons Ratio (x) = 0.27249 0.09495
# Poissons Ratio (y) = 0.28627 -0.00325
# Poissons Ratio (z) = 0.11352 -0.00370
#
# Static dielectric constant tensor:
#      x y z
#    x 2.130640 0.000000 0.011970 
#    y 0.000000 2.320570 0.000000 
#    z 0.011970 0.000000 2.152160 
# 
# From -- ./inp_files/4170.got.cif
#   From: 2010.05.17/outbox.cif.g08.bks.cpg/sg4_3_cif.got.tgz:4170.got - 2010.06.03 18:43:04.
