data_PCOD9115982
_publ_section_title
;
Structure prediction by ZEFSAII (Michael W. Deem and Ramdas Pophale) SiO2 
 PCOD9115982
Probable space group: P 21
;
_chemical_formula_sum "Si O2"
_cell_formula_units_Z 16
_cell_length_a 5.704336
_cell_length_b 8.845242
_cell_length_c 15.154922
_cell_angle_alpha 90.000000
_cell_angle_beta 111.640835
_cell_angle_gamma 90.000000
_cell_volume 710.762335
_symmetry_space_group_name_H-M "P 21"
_symmetry_group_IT_number 4
_symmetry_cell_setting 'monoclinic'
loop_
_space_group_symop_operation_xyz
x,y,z
-x,1/2+y,-z
loop_
_atom_site_type_symbol
_atom_site_label
_atom_site_fract_x
_atom_site_fract_y
_atom_site_fract_z
Si Si1 0.201836 0.078910 0.465141
Si Si2 0.225652 0.718547 0.461230
Si Si3 0.936887 0.565999 0.269805
Si Si4 0.750703 0.219727 0.085231
Si Si5 0.147366 0.224447 0.274380
Si Si6 0.502757 0.377617 0.220293
Si Si7 0.066475 0.449286 0.028681
Si Si8 0.772519 0.691574 0.057313
O O1 0.486066 0.153528 0.505760
O O2 0.111609 0.123707 0.354121
O O3 0.979980 0.142062 0.499477
O O4 0.229922 0.898284 0.479421
O O5 0.100402 0.678994 0.349353
O O6 0.673645 0.513867 0.278040
O O7 0.860613 0.637605 0.165141
O O8 0.070188 0.400790 0.282118
O O9 0.626229 0.288209 0.156720
O O10 0.830024 0.358945 0.035051
O O11 0.000628 0.157904 0.169079
O O12 0.516128 0.146105 0.001575
O O13 0.433451 0.254390 0.283573
O O14 0.263984 0.446111 0.136157
O O15 0.953689 0.615212 0.008379
O O16 0.179741 0.367190 0.959311
#
# Coordination Sequence:
#
# PCOD9115982 Si02
#       8
#     2   2   2   2   2   2   2   2
#     4  12  28  53  79 113 154 196 249 319 384 462
#     4  12  29  52  78 117 150 197 251 316 387 461
#     4  11  23  42  70 102 139 190 245 306 375 439
#     4   9  20  37  60  94 131 185 231 288 349 430
#     4  10  21  42  73  98 136 189 243 296 378 438
#     4   9  18  38  65  91 131 180 241 287 361 433
#     4  10  21  39  59  91 133 184 240 285 349 424
#     4  11  22  39  62  96 140 189 236 295 357 429
#
# _framework density 22.511040000000001
#
# number of rings (size 3 to 8) (size 9 to 14) (size 15 to 20)
#    0.000    1.500    3.750    2.250    8.750    0.000 
#    9.000    0.000    0.000    0.000    0.000    0.000 
#    0.000    0.000    0.000    0.000    0.000    0.000 
#
# Total GULP energy -89135.545957 kJ/mol
# GULP energy per Si atom -5570.971622 kJ/mol
# Density = 2.245980 g / cm^3
# Si number density = 22.511040 Si / 1000 Ang^3
#
#
#
# Elastic Constant Matrix: (Units=GPa)
#
#
# Indices 1 2 3 4 5 6 
#
# 1 92.7851 41.5313 23.1604 0.0000 0.1049 0.0000
# 2 41.5313 114.5766 34.2489 0.0000 -2.8112 0.0000
# 3 23.1604 34.2489 106.9008 0.0000 2.5650 0.0000
# 4 0.0000 0.0000 0.0000 29.3339 0.0000 -3.0646
# 5 0.1049 -2.8112 2.5650 0.0000 24.4581 0.0000
# 6 0.0000 0.0000 0.0000 -3.0646 0.0000 46.1491
#
#
#
# Elastic Compliance Matrix: (Units=1/GPa)
#
#
# Indices 1 2 3 4 5 6 
#
# 1 0.013070 -0.004317 -0.001439 0.000000 -0.000401 0.000000
# 2 -0.004317 0.011129 -0.002668 0.000000 0.001577 0.000000
# 3 -0.001439 -0.002668 0.010555 0.000000 -0.001407 0.000000
# 4 0.000000 0.000000 0.000000 0.034328 0.000000 0.002280
# 5 -0.000401 0.001577 -0.001407 0.000000 0.041217 0.000000
# 6 0.000000 0.000000 0.000000 0.002280 0.000000 0.021820
#
#
# Mechanical properties :
#
#
# Convention : Reuss Voigt Hill
#
# Bulk Modulus (GPa) = 55.84954 56.90486 56.37720
# Shear Modulus (GPa) = 32.27155 34.34300 33.30727
#
# Velocity S-wave (km/s) = 3.79038 3.91014 3.85073
# Velocity P-wave (km/s) = 6.63473 6.76159 6.69846
#
# Compressibility (1/GPa) = 0.01790525
#
# Stress axis : x y z
#
# Youngs Moduli (GPa) = 76.51345 89.85630 94.74431
#
# Poissons Ratio (x) = 0.38793 0.13632
# Poissons Ratio (y) = 0.33032 0.25278
# Poissons Ratio (z) = 0.11009 0.23974
#
# Static dielectric constant tensor:
#      x y z
#    x 2.067470 0.000000 0.028000 
#    y 0.000000 1.854400 0.000000 
#    z 0.028000 0.000000 1.836710 
# 
# From -- ./inp_files/3400.got.cif
#   From: 2010.05.17/outbox.cif.g08.bks.cpg/sg4_2_cif.got.tgz:3400.got - 2010.06.03 18:43:04.
