data_PCOD9115934
_publ_section_title
;
Structure prediction by ZEFSAII (Michael W. Deem and Ramdas Pophale) SiO2 
 PCOD9115934
Probable space group: P 21
;
_chemical_formula_sum "Si O2"
_cell_formula_units_Z 12
_cell_length_a 4.790759
_cell_length_b 7.853725
_cell_length_c 12.273905
_cell_angle_alpha 90.000000
_cell_angle_beta 74.126519
_cell_angle_gamma 90.000000
_cell_volume 444.199691
_symmetry_space_group_name_H-M "P 21"
_symmetry_group_IT_number 4
_symmetry_cell_setting 'monoclinic'
loop_
_space_group_symop_operation_xyz
x,y,z
-x,1/2+y,-z
loop_
_atom_site_type_symbol
_atom_site_label
_atom_site_fract_x
_atom_site_fract_y
_atom_site_fract_z
Si Si1 0.460240 0.989730 0.742018
Si Si2 0.408635 0.893721 0.496378
Si Si3 0.051978 0.565941 0.602381
Si Si4 0.129206 0.650415 0.836067
Si Si5 0.117365 0.635208 0.146726
Si Si6 0.856992 0.858154 0.037513
O O1 0.346302 0.812348 0.806222
O O2 0.442160 0.958059 0.616638
O O3 0.755293 0.073022 0.752995
O O4 0.229468 0.128348 0.808014
O O5 0.735261 0.901966 0.416365
O O6 0.225120 0.018425 0.438583
O O7 0.233845 0.718249 0.526153
O O8 0.996015 0.628539 0.730568
O O9 0.289667 0.477637 0.854431
O O10 0.889318 0.690053 0.955905
O O11 0.154829 0.811932 0.079066
O O12 0.202411 0.485003 0.057159
#
# Coordination Sequence:
#
# PCOD9115934 Si02
#       6
#     2   2   2   2   2   2
#     4  10  22  41  64  92 131 174 224 277 336 398
#     4  11  24  43  67  98 136 181 226 282 343 408
#     4  11  24  43  69 100 138 177 228 283 344 409
#     4   9  21  41  67  98 133 176 225 281 338 405
#     4  10  21  38  63  94 130 173 221 277 334 401
#     4   9  20  40  64  94 130 171 220 274 335 395
#
# _framework density 27.014875
#
# number of rings (size 3 to 8) (size 9 to 14) (size 15 to 20)
#    0.000    2.000    0.000    2.000    0.000   14.667 
#    0.000   10.000    0.000    0.000    0.000    0.000 
#    0.000    0.000    0.000    0.000    0.000    0.000 
#
# Total GULP energy -66837.124593 kJ/mol
# GULP energy per Si atom -5569.760383 kJ/mol
# Density = 2.695339 g / cm^3
# Si number density = 27.014875 Si / 1000 Ang^3
#
#
#
# Elastic Constant Matrix: (Units=GPa)
#
#
# Indices 1 2 3 4 5 6 
#
# 1 52.4497 29.4280 17.2974 0.0000 17.5353 0.0000
# 2 29.4280 128.1763 55.5304 0.0000 7.1079 0.0000
# 3 17.2974 55.5304 117.8889 0.0000 21.9622 0.0000
# 4 0.0000 0.0000 0.0000 36.6104 0.0000 -8.4654
# 5 17.5353 7.1079 21.9622 0.0000 33.3604 0.0000
# 6 0.0000 0.0000 0.0000 -8.4654 0.0000 29.7345
#
#
#
# Elastic Compliance Matrix: (Units=1/GPa)
#
#
# Indices 1 2 3 4 5 6 
#
# 1 0.026476 -0.005954 0.001455 0.000000 -0.013605 0.000000
# 2 -0.005954 0.011176 -0.005163 0.000000 0.004148 0.000000
# 3 0.001455 -0.005163 0.012126 0.000000 -0.007647 0.000000
# 4 0.000000 0.000000 0.000000 0.029239 0.000000 0.008324
# 5 -0.013605 0.004148 -0.007647 0.000000 0.041278 0.000000
# 6 0.000000 0.000000 0.000000 0.008324 0.000000 0.036001
#
#
# Mechanical properties :
#
#
# Convention : Reuss Voigt Hill
#
# Bulk Modulus (GPa) = 32.83918 55.89184 44.36551
# Shear Modulus (GPa) = 26.91476 33.02500 29.96988
#
# Velocity S-wave (km/s) = 3.15984 3.50018 3.33436
# Velocity P-wave (km/s) = 5.04927 6.08845 5.59305
#
# Compressibility (1/GPa) = 0.03045143
#
# Stress axis : x y z
#
# Youngs Moduli (GPa) = 37.77070 89.47997 82.46803
#
# Poissons Ratio (x) = 0.53279 -0.11996
# Poissons Ratio (y) = 0.22490 0.42580
# Poissons Ratio (z) = -0.05494 0.46201
#
# Static dielectric constant tensor:
#      x y z
#    x 2.227930 0.000000 -0.107680 
#    y 0.000000 2.558220 0.000000 
#    z -0.107680 0.000000 2.171980 
# 
# From -- ./inp_files/10265.got.cif
#   From: 2010.05.17/outbox.cif.g08.bks.cpg/sg4_6_cif.got.tgz:10265.got - 2010.06.03 18:43:04.
