data_PCOD9115357
_publ_section_title
;
Structure prediction by ZEFSAII (Michael W. Deem and Ramdas Pophale) SiO2 
 PCOD9115357
Probable space group: P 21
;
_chemical_formula_sum "Si O2"
_cell_formula_units_Z 14
_cell_length_a 10.153841
_cell_length_b 8.164485
_cell_length_c 14.335043
_cell_angle_alpha 90.000000
_cell_angle_beta 28.076279
_cell_angle_gamma 90.000000
_cell_volume 559.310676
_symmetry_space_group_name_H-M "P 21"
_symmetry_group_IT_number 4
_symmetry_cell_setting 'monoclinic'
loop_
_space_group_symop_operation_xyz
x,y,z
-x,1/2+y,-z
loop_
_atom_site_type_symbol
_atom_site_label
_atom_site_fract_x
_atom_site_fract_y
_atom_site_fract_z
Si Si1 0.030047 0.591250 0.581211
Si Si2 0.295613 0.136833 0.509404
Si Si3 0.011045 0.995898 0.847125
Si Si4 0.968757 0.949371 0.230541
Si Si5 0.796291 0.223996 0.698558
Si Si6 0.546038 0.212724 0.043104
Si Si7 0.075275 0.664838 0.916682
O O1 0.092202 0.583888 0.651788
O O2 0.265650 0.654579 0.364355
O O3 0.911983 0.410100 0.630023
O O4 0.768062 0.710241 0.727882
O O5 0.247516 0.998499 0.618477
O O6 0.053948 0.121438 0.583159
O O7 0.589180 0.168701 0.277258
O O8 0.221491 0.298521 0.616315
O O9 0.729934 0.064313 0.972127
O O10 0.980433 0.824850 0.919526
O O11 0.069620 0.123190 0.895271
O O12 0.279532 0.874383 0.043962
O O13 0.943842 0.016145 0.143763
O O14 0.554332 0.204251 0.925597
#
# Coordination Sequence:
#
# PCOD9115357 Si02
#       7
#     2   2   2   2   2   2   2
#     4  10  20  38  59  81 115 150 183 237 284 329
#     4   9  20  41  58  78 114 152 186 238 282 322
#     4  10  22  35  58  85 110 148 194 230 281 344
#     4   9  22  38  58  86 112 149 197 228 278 345
#     4   9  21  36  58  85 109 148 195 227 281 344
#     4   9  20  41  56  79 118 152 186 236 282 327
#     4  12  21  37  59  84 116 149 187 238 284 333
#
# _framework density 25.030811
#
# number of rings (size 3 to 8) (size 9 to 14) (size 15 to 20)
#    0.000    2.857    0.000    3.429    0.000    6.857 
#    0.000   11.429    0.000    0.000    0.000    0.000 
#    0.000    0.000    0.000    0.000    0.000    0.000 
#
# Total GULP energy -78259.393069 kJ/mol
# GULP energy per Si atom -5589.956648 kJ/mol
# Density = 2.497384 g / cm^3
# Si number density = 25.030811 Si / 1000 Ang^3
#
#
#
# Elastic Constant Matrix: (Units=GPa)
#
#
# Indices 1 2 3 4 5 6 
#
# 1 39.1298 -0.3436 15.3667 0.0000 21.2636 0.0000
# 2 -0.3436 52.2678 -3.0816 0.0000 1.9061 0.0000
# 3 15.3667 -3.0816 63.3676 0.0000 26.6366 0.0000
# 4 0.0000 0.0000 0.0000 27.1268 0.0000 1.6890
# 5 21.2636 1.9061 26.6366 0.0000 32.0975 0.0000
# 6 0.0000 0.0000 0.0000 1.6890 0.0000 22.1167
#
#
#
# Elastic Compliance Matrix: (Units=1/GPa)
#
#
# Indices 1 2 3 4 5 6 
#
# 1 0.040241 0.001453 0.002387 0.000000 -0.028726 0.000000
# 2 0.001453 0.019422 0.002275 0.000000 -0.004004 0.000000
# 3 0.002387 0.002275 0.024624 0.000000 -0.022151 0.000000
# 4 0.000000 0.000000 0.000000 0.037040 0.000000 -0.002829
# 5 -0.028726 -0.004004 -0.022151 0.000000 0.068805 0.000000
# 6 0.000000 0.000000 0.000000 -0.002829 0.000000 0.045431
#
#
# Mechanical properties :
#
#
# Convention : Reuss Voigt Hill
#
# Bulk Modulus (GPa) = 10.36083 19.84979 15.10531
# Shear Modulus (GPa) = 19.56908 25.78979 22.67943
#
# Velocity S-wave (km/s) = 2.79910 3.21334 3.01335
# Velocity P-wave (km/s) = 3.82032 4.65991 4.26085
#
# Compressibility (1/GPa) = 0.09651734
#
# Stress axis : x y z
#
# Youngs Moduli (GPa) = 24.85011 51.48809 40.61088
#
# Poissons Ratio (x) = -0.07480 -0.09694
# Poissons Ratio (y) = -0.03610 -0.09240
# Poissons Ratio (z) = -0.05932 -0.11715
#
# Static dielectric constant tensor:
#      x y z
#    x 1.990320 0.000000 -0.009810 
#    y 0.000000 2.027850 0.000000 
#    z -0.009810 0.000000 1.943380 
# 
# From -- ./inp_files/13919.got.cif
#   From: 2010.05.17/outbox.cif.g08.bks.cpg/sg4_7_cif.got.tgz:13919.got - 2010.06.03 18:43:04.
