data_PCOD9115472
_publ_section_title
;
Structure prediction by ZEFSAII (Michael W. Deem and Ramdas Pophale) SiO2 
 PCOD9115472
Probable space group: P 21
;
_chemical_formula_sum "Si O2"
_cell_formula_units_Z 16
_cell_length_a 8.836679
_cell_length_b 13.272356
_cell_length_c 9.121633
_cell_angle_alpha 90.000000
_cell_angle_beta 47.495115
_cell_angle_gamma 90.000000
_cell_volume 788.690569
_symmetry_space_group_name_H-M "P 21"
_symmetry_group_IT_number 4
_symmetry_cell_setting 'monoclinic'
loop_
_space_group_symop_operation_xyz
x,y,z
-x,1/2+y,-z
loop_
_atom_site_type_symbol
_atom_site_label
_atom_site_fract_x
_atom_site_fract_y
_atom_site_fract_z
Si Si1 0.428610 0.327400 0.996761
Si Si2 0.210204 0.601219 0.008560
Si Si3 0.370305 0.989481 0.332803
Si Si4 0.013925 0.993912 0.326168
Si Si5 0.301860 0.514680 0.234777
Si Si6 0.715986 0.618581 0.033619
Si Si7 0.793350 0.325311 0.988833
Si Si8 0.199046 0.993882 0.770992
O O1 0.275546 0.408096 0.170462
O O2 0.539111 0.385904 0.791907
O O3 0.330912 0.227777 0.995747
O O4 0.590926 0.308332 0.021174
O O5 0.206700 0.597605 0.189134
O O6 0.146513 0.713038 0.002497
O O7 0.043726 0.517792 0.072733
O O8 0.439764 0.568188 0.809524
O O9 0.175934 0.010015 0.353762
O O10 0.291782 0.982242 0.549607
O O11 0.794951 0.007626 0.542988
O O12 0.053540 0.887566 0.218968
O O13 0.070873 0.078217 0.170494
O O14 0.540741 0.543277 0.084729
O O15 0.709958 0.593589 0.208731
O O16 0.760187 0.398514 0.149726
#
# Coordination Sequence:
#
# PCOD9115472 Si02
#       8
#     2   2   2   2   2   2   2   2
#     4  10  20  41  65  90 121 167 208 254 298 363
#     4  11  22  40  65  88 124 170 197 252 317 362
#     4  10  21  40  61  87 128 159 199 255 306 360
#     4  10  20  39  63  91 118 160 209 253 293 366
#     4  11  20  38  66  89 118 165 206 246 308 364
#     4  11  22  42  62  92 125 158 209 257 296 365
#     4  10  21  42  62  89 128 158 211 257 296 368
#     4  11  24  40  60  94 130 155 201 264 310 362
#
# _framework density 20.28679
#
# number of rings (size 3 to 8) (size 9 to 14) (size 15 to 20)
#    0.000    1.500    7.500    0.000    0.000    6.000 
#    2.250    0.000    0.000    0.000    0.000    0.000 
#    0.000    0.000    0.000    0.000    0.000    0.000 
#
# Total GULP energy -89206.891933 kJ/mol
# GULP energy per Si atom -5575.430746 kJ/mol
# Density = 2.024062 g / cm^3
# Si number density = 20.286790 Si / 1000 Ang^3
#
#
#
# Elastic Constant Matrix: (Units=GPa)
#
#
# Indices 1 2 3 4 5 6 
#
# 1 42.3097 8.6880 16.4572 0.0000 15.0046 0.0000
# 2 8.6880 97.7996 32.7487 0.0000 1.1789 0.0000
# 3 16.4572 32.7487 138.4427 0.0000 19.9648 0.0000
# 4 0.0000 0.0000 0.0000 9.5128 0.0000 7.1289
# 5 15.0046 1.1789 19.9648 0.0000 30.0193 0.0000
# 6 0.0000 0.0000 0.0000 7.1289 0.0000 28.6338
#
#
#
# Elastic Compliance Matrix: (Units=1/GPa)
#
#
# Indices 1 2 3 4 5 6 
#
# 1 0.029402 -0.002115 -0.000982 0.000000 -0.013960 0.000000
# 2 -0.002115 0.011314 -0.002780 0.000000 0.002462 0.000000
# 3 -0.000982 -0.002780 0.008750 0.000000 -0.005220 0.000000
# 4 0.000000 0.000000 0.000000 0.129233 0.000000 -0.032175
# 5 -0.013960 0.002462 -0.005220 0.000000 0.043664 0.000000
# 6 0.000000 0.000000 0.000000 -0.032175 0.000000 0.042934
#
#
# Mechanical properties :
#
#
# Convention : Reuss Voigt Hill
#
# Bulk Modulus (GPa) = 26.51578 43.81554 35.16566
# Shear Modulus (GPa) = 17.26387 28.34372 22.80380
#
# Velocity S-wave (km/s) = 2.92034 3.74190 3.35635
# Velocity P-wave (km/s) = 4.94672 6.34934 5.69140
#
# Compressibility (1/GPa) = 0.03771340
#
# Stress axis : x y z
#
# Youngs Moduli (GPa) = 34.01111 88.38549 114.28293
#
# Poissons Ratio (x) = 0.18693 0.11219
# Poissons Ratio (y) = 0.07193 0.31770
# Poissons Ratio (z) = 0.03339 0.24571
#
# Static dielectric constant tensor:
#      x y z
#    x 1.796090 0.000000 -0.003120 
#    y 0.000000 1.742760 0.000000 
#    z -0.003120 0.000000 1.696200 
# 
# From -- ./inp_files/6395.got.cif
#   From: 2010.05.17/outbox.cif.g08.bks.cpg/sg4_4_cif.got.tgz:6395.got - 2010.06.03 18:43:04.
