data_PCOD9115339
_publ_section_title
;
Structure prediction by ZEFSAII (Michael W. Deem and Ramdas Pophale) SiO2 
 PCOD9115339
Probable space group: P 21
;
_chemical_formula_sum "Si O2"
_cell_formula_units_Z 14
_cell_length_a 7.362083
_cell_length_b 9.460052
_cell_length_c 10.265175
_cell_angle_alpha 90.000000
_cell_angle_beta 48.621322
_cell_angle_gamma 90.000000
_cell_volume 536.449194
_symmetry_space_group_name_H-M "P 21"
_symmetry_group_IT_number 4
_symmetry_cell_setting 'monoclinic'
loop_
_space_group_symop_operation_xyz
x,y,z
-x,1/2+y,-z
loop_
_atom_site_type_symbol
_atom_site_label
_atom_site_fract_x
_atom_site_fract_y
_atom_site_fract_z
Si Si1 0.943773 0.198520 0.700380
Si Si2 0.280115 0.798239 0.932511
Si Si3 0.357245 0.069341 0.358087
Si Si4 0.589652 0.248667 0.622090
Si Si5 0.274136 0.402026 0.164743
Si Si6 0.000973 0.621462 0.687751
Si Si7 0.173232 0.232392 0.987169
O O1 0.770064 0.224401 0.659249
O O2 0.219005 0.179999 0.519924
O O3 0.865769 0.043349 0.783188
O O4 0.864462 0.288646 0.862204
O O5 0.427980 0.653663 0.819657
O O6 0.496996 0.907665 0.850282
O O7 0.072164 0.816216 0.925771
O O8 0.145681 0.033684 0.349398
O O9 0.424039 0.918853 0.391389
O O10 0.713703 0.144195 0.458053
O O11 0.323916 0.197182 0.789383
O O12 0.343892 0.334581 0.992764
O O13 0.094033 0.280997 0.298793
O O14 0.906081 0.605864 0.879750
#
# Coordination Sequence:
#
# PCOD9115339 Si02
#       7
#     2   2   2   2   2   2   2
#     4  11  21  40  65  93 123 164 211 254 312 367
#     4  11  23  39  64  91 119 168 209 253 311 370
#     4  10  20  37  66  88 124 165 208 258 307 366
#     4  11  19  37  64  89 122 167 202 251 318 363
#     4   9  19  43  59  87 124 154 202 263 298 360
#     4   8  19  37  61  85 121 157 202 256 303 357
#     4  10  21  39  59  91 123 155 206 251 307 367
#
# _framework density 26.097532000000001
#
# number of rings (size 3 to 8) (size 9 to 14) (size 15 to 20)
#    0.857    1.143    2.857    0.857    0.000    1.143 
#    5.143    0.000    6.286    0.000    0.000    0.000 
#    0.000    0.000    0.000    0.000    0.000    0.000 
#
# Total GULP energy -78124.034971 kJ/mol
# GULP energy per Si atom -5580.288212 kJ/mol
# Density = 2.603813 g / cm^3
# Si number density = 26.097532 Si / 1000 Ang^3
#
#
#
# Elastic Constant Matrix: (Units=GPa)
#
#
# Indices 1 2 3 4 5 6 
#
# 1 72.9436 2.3381 11.5366 0.0000 -21.4243 0.0000
# 2 2.3381 42.8024 8.9127 0.0000 1.9799 0.0000
# 3 11.5366 8.9127 158.9087 0.0000 -17.7911 0.0000
# 4 0.0000 0.0000 0.0000 23.9512 0.0000 0.3118
# 5 -21.4243 1.9799 -17.7911 0.0000 31.4155 0.0000
# 6 0.0000 0.0000 0.0000 0.3118 0.0000 15.0968
#
#
#
# Elastic Compliance Matrix: (Units=1/GPa)
#
#
# Indices 1 2 3 4 5 6 
#
# 1 0.017242 -0.001531 0.000172 0.000000 0.011952 0.000000
# 2 -0.001531 0.023945 -0.001620 0.000000 -0.003471 0.000000
# 3 0.000172 -0.001620 0.006829 0.000000 0.004087 0.000000
# 4 0.000000 0.000000 0.000000 0.041763 0.000000 -0.000863
# 5 0.011952 -0.003471 0.004087 0.000000 0.042516 0.000000
# 6 0.000000 0.000000 0.000000 -0.000863 0.000000 0.066257
#
#
# Mechanical properties :
#
#
# Convention : Reuss Voigt Hill
#
# Bulk Modulus (GPa) = 23.77687 35.58104 29.67896
# Shear Modulus (GPa) = 22.88046 30.88386 26.88216
#
# Velocity S-wave (km/s) = 2.96417 3.44379 3.21294
# Velocity P-wave (km/s) = 4.56570 5.42922 5.01608
#
# Compressibility (1/GPa) = 0.04205768
#
# Stress axis : x y z
#
# Youngs Moduli (GPa) = 57.99952 41.76285 146.43730
#
# Poissons Ratio (x) = 0.06392 -0.02523
# Poissons Ratio (y) = 0.08877 0.23729
# Poissons Ratio (z) = -0.00999 0.06767
#
# Static dielectric constant tensor:
#      x y z
#    x 2.028100 0.000000 0.058380 
#    y 0.000000 2.031160 0.000000 
#    z 0.058380 0.000000 2.188250 
# 
# From -- ./inp_files/11226.got.cif
#   From: 2010.05.17/outbox.cif.g08.bks.cpg/sg4_6_cif.got.tgz:11226.got - 2010.06.03 18:43:04.
