data_PCOD9115077
_publ_section_title
;
Structure prediction by ZEFSAII (Michael W. Deem and Ramdas Pophale) SiO2 
 PCOD9115077
Probable space group: P 21
;
_chemical_formula_sum "Si O2"
_cell_formula_units_Z 16
_cell_length_a 11.689802
_cell_length_b 8.100799
_cell_length_c 11.762229
_cell_angle_alpha 90.000000
_cell_angle_beta 36.279270
_cell_angle_gamma 90.000000
_cell_volume 659.085911
_symmetry_space_group_name_H-M "P 21"
_symmetry_group_IT_number 4
_symmetry_cell_setting 'monoclinic'
loop_
_space_group_symop_operation_xyz
x,y,z
-x,1/2+y,-z
loop_
_atom_site_type_symbol
_atom_site_label
_atom_site_fract_x
_atom_site_fract_y
_atom_site_fract_z
Si Si1 0.862500 0.673090 0.298755
Si Si2 0.498565 0.482928 0.690858
Si Si3 0.464634 0.017377 0.069909
Si Si4 0.668986 0.029583 0.401295
Si Si5 0.291777 0.128801 0.809006
Si Si6 0.913237 0.339941 0.696324
Si Si7 0.800360 0.834061 0.736774
Si Si8 0.013139 0.162681 0.234337
O O1 0.711061 0.553841 0.485705
O O2 0.769681 0.854981 0.347236
O O3 0.869314 0.615218 0.162433
O O4 0.044149 0.716791 0.233063
O O5 0.485736 0.508592 0.835955
O O6 0.367950 0.574183 0.700442
O O7 0.414516 0.298880 0.731549
O O8 0.304820 0.878082 0.165334
O O9 0.352098 0.184792 0.134684
O O10 0.661201 0.991143 0.841286
O O11 0.807870 0.169395 0.339879
O O12 0.464078 0.014126 0.628382
O O13 0.176019 0.101438 0.016421
O O14 0.997227 0.519106 0.664774
O O15 0.050710 0.295137 0.481658
O O16 0.918465 0.827654 0.759500
#
# Coordination Sequence:
#
# PCOD9115077 Si02
#       8
#     2   2   2   2   2   2   2   2
#     4   9  19  41  65  92 130 166 213 263 324 389
#     4  10  19  41  65  96 130 162 216 268 316 384
#     4  11  24  43  66  97 130 172 219 266 325 380
#     4   9  21  39  67  93 126 172 200 267 332 377
#     4  10  20  39  67  96 129 161 213 268 323 383
#     4  10  23  41  63  91 134 173 212 263 321 385
#     4  11  24  42  66  97 131 172 219 267 322 390
#     4  10  22  40  63  94 128 166 214 260 321 384
#
# _framework density 24.276046000000001
#
# number of rings (size 3 to 8) (size 9 to 14) (size 15 to 20)
#    0.000    2.000    2.500    0.000    1.750    6.000 
#    2.250   15.000    0.000    0.000    0.000    0.000 
#    0.000    0.000    0.000    0.000    0.000    0.000 
#
# Total GULP energy -89253.019098 kJ/mol
# GULP energy per Si atom -5578.313694 kJ/mol
# Density = 2.422079 g / cm^3
# Si number density = 24.276046 Si / 1000 Ang^3
#
#
#
# Elastic Constant Matrix: (Units=GPa)
#
#
# Indices 1 2 3 4 5 6 
#
# 1 106.5942 30.9392 183.8460 0.0000 20.4308 0.0000
# 2 30.9392 44.3177 -49.8041 0.0000 -18.8349 0.0000
# 3 183.8460 -49.8041 -346.3339 0.0000 -89.8291 0.0000
# 4 0.0000 0.0000 0.0000 29.5188 0.0000 -6.1574
# 5 20.4308 -18.8349 -89.8291 0.0000 16.9889 0.0000
# 6 0.0000 0.0000 0.0000 -6.1574 0.0000 1.6087
#
#
#
# Elastic Compliance Matrix: (Units=1/GPa)
#
#
# Indices 1 2 3 4 5 6 
#
# 1 0.005384 -0.000053 0.001923 0.000000 0.003634 0.000000
# 2 -0.000053 0.019759 -0.003613 0.000000 0.002866 0.000000
# 3 0.001923 -0.003613 0.000123 0.000000 -0.005668 0.000000
# 4 0.000000 0.000000 0.000000 0.168029 0.000000 0.643136
# 5 0.003634 0.002866 -0.005668 0.000000 0.027701 0.000000
# 6 0.000000 0.000000 0.000000 0.643136 0.000000 3.083231
#
#
# Mechanical properties :
#
#
# Convention : Reuss Voigt Hill
#
# Bulk Modulus (GPa) = 45.91447 14.94890 30.43169
# Shear Modulus (GPa) = 1.50831 -14.40359 -6.44764
#
# Velocity S-wave (km/s) = 0.78909 -2.43847 -1.63148
# Velocity P-wave (km/s) = 4.44801 1.32549 3.00232
#
# Compressibility (1/GPa) = 0.02177962
#
# Stress axis : x y z
#
# Youngs Moduli (GPa) = 185.74488 50.60933 8130.88701
#
# Poissons Ratio (x) = 0.00268 -15.63492
# Poissons Ratio (y) = 0.00985 29.37700
# Poissons Ratio (z) = -0.35717 0.18285
#
# Static dielectric constant tensor:
#      x y z
#    x 1.991350 0.000000 -0.004830 
#    y 0.000000 2.031840 0.000000 
#    z -0.004830 0.000000 1.905940 
# 
# From -- ./inp_files/11841.got.cif
#   From: 2010.05.17/outbox.cif.g08.bks.cpg/sg4_6_cif.got.tgz:11841.got - 2010.06.03 18:43:04.
