data_PCOD9115436
_publ_section_title
;
Structure prediction by ZEFSAII (Michael W. Deem and Ramdas Pophale) SiO2 
 PCOD9115436
Probable space group: P 21
;
_chemical_formula_sum "Si O2"
_cell_formula_units_Z 14
_cell_length_a 29.019457
_cell_length_b 5.130030
_cell_length_c 23.190938
_cell_angle_alpha 90.000000
_cell_angle_beta 11.588791
_cell_angle_gamma 90.000000
_cell_volume 693.550000
_symmetry_space_group_name_H-M "P 21"
_symmetry_group_IT_number 4
_symmetry_cell_setting 'monoclinic'
loop_
_space_group_symop_operation_xyz
x,y,z
-x,1/2+y,-z
loop_
_atom_site_type_symbol
_atom_site_label
_atom_site_fract_x
_atom_site_fract_y
_atom_site_fract_z
Si Si1 0.687945 0.654070 0.917674
Si Si2 0.921833 0.551214 0.065628
Si Si3 0.598905 0.752710 0.803217
Si Si4 0.025030 0.433017 0.806383
Si Si5 0.725821 0.435885 0.545293
Si Si6 0.526717 0.281158 0.427966
Si Si7 0.835433 0.963778 0.622639
O O1 0.787772 0.777949 0.736276
O O2 0.904808 0.553134 0.687169
O O3 0.501899 0.446210 0.122042
O O4 0.539582 0.853985 0.137742
O O5 0.669033 0.675891 0.373762
O O6 0.925542 0.275419 0.092818
O O7 0.000879 0.501081 0.903376
O O8 0.716858 0.518651 0.623525
O O9 0.778138 0.849884 0.630551
O O10 0.365619 0.677231 0.122693
O O11 0.115839 0.689918 0.663335
O O12 0.185885 0.184403 0.598224
O O13 0.767812 0.351151 0.103740
O O14 0.441106 0.541140 0.566294
#
# Coordination Sequence:
#
# PCOD9115436 Si02
#       7
#     2   2   2   2   2   2   2
#     4  11  22  40  66 101 131 173 229 273 347 384
#     4  11  22  39  69 104 130 160 218 281 317 371
#     4  11  22  40  66 101 129 171 233 276 339 387
#     4  11  22  43  70  92 134 180 209 260 336 390
#     4  11  24  42  65  93 135 180 215 260 339 420
#     4  10  20  38  67  99 119 166 221 255 309 385
#     4  11  22  38  69  98 130 170 229 299 321 381
#
# _framework density 20.185998999999999
#
# number of rings (size 3 to 8) (size 9 to 14) (size 15 to 20)
#    0.000    1.143    4.286    4.286    0.000    0.000 
#    0.000    1.429    9.429    0.000    0.000    0.000 
#    0.000    0.000    0.000    0.000    0.000    0.000 
#
# Total GULP energy -78139.517667 kJ/mol
# GULP energy per Si atom -5581.394119 kJ/mol
# Density = 2.014005 g / cm^3
# Si number density = 20.185999 Si / 1000 Ang^3
#
#
#
# Elastic Constant Matrix: (Units=GPa)
#
#
# Indices 1 2 3 4 5 6 
#
# 1 71.7824 36.0047 76.7089 0.0000 -19.1380 0.0000
# 2 36.0047 119.3424 66.5956 0.0000 3.2562 0.0000
# 3 76.7089 66.5956 132.5288 0.0000 0.9856 0.0000
# 4 0.0000 0.0000 0.0000 58.8613 0.0000 9.1040
# 5 -19.1380 3.2562 0.9856 0.0000 33.1563 0.0000
# 6 0.0000 0.0000 0.0000 9.1040 0.0000 42.7483
#
#
#
# Elastic Compliance Matrix: (Units=1/GPa)
#
#
# Indices 1 2 3 4 5 6 
#
# 1 0.063875 0.000671 -0.037591 0.000000 0.037920 0.000000
# 2 0.000671 0.011683 -0.006255 0.000000 -0.000574 0.000000
# 3 -0.037591 -0.006255 0.032610 0.000000 -0.022053 0.000000
# 4 0.000000 0.000000 0.000000 0.017568 0.000000 -0.003741
# 5 0.037920 -0.000574 -0.022053 0.000000 0.052760 0.000000
# 6 0.000000 0.000000 0.000000 -0.003741 0.000000 0.024190
#
#
# Mechanical properties :
#
#
# Convention : Reuss Voigt Hill
#
# Bulk Modulus (GPa) = 45.83059 75.80797 60.81928
# Shear Modulus (GPa) = 16.87441 36.57616 26.72528
#
# Velocity S-wave (km/s) = 2.89441 4.26133 3.64256
# Velocity P-wave (km/s) = 5.82440 7.86436 6.91996
#
# Compressibility (1/GPa) = 0.02181949
#
# Stress axis : x y z
#
# Youngs Moduli (GPa) = 15.65561 85.59656 30.66509
#
# Poissons Ratio (x) = -0.05745 1.15272
# Poissons Ratio (y) = -0.01051 0.19180
# Poissons Ratio (z) = 0.58850 0.53539
#
# Static dielectric constant tensor:
#      x y z
#    x 1.637830 0.000000 0.010200 
#    y 0.000000 1.809660 0.000000 
#    z 0.010200 0.000000 1.708290 
# 
# From -- ./inp_files/15346.got.cif
#   From: 2010.05.17/outbox.cif.g08.bks.cpg/sg4_8_cif.got.tgz:15346.got - 2010.06.03 18:43:04.
