data_PCOD9115515
_publ_section_title
;
Structure prediction by ZEFSAII (Michael W. Deem and Ramdas Pophale) SiO2 
 PCOD9115515
Probable space group: P 21
;
_chemical_formula_sum "Si O2"
_cell_formula_units_Z 14
_cell_length_a 13.242111
_cell_length_b 7.487016
_cell_length_c 6.905483
_cell_angle_alpha 90.000000
_cell_angle_beta 75.063397
_cell_angle_gamma 90.000000
_cell_volume 661.503733
_symmetry_space_group_name_H-M "P 21"
_symmetry_group_IT_number 4
_symmetry_cell_setting 'monoclinic'
loop_
_space_group_symop_operation_xyz
x,y,z
-x,1/2+y,-z
loop_
_atom_site_type_symbol
_atom_site_label
_atom_site_fract_x
_atom_site_fract_y
_atom_site_fract_z
Si Si1 0.655224 0.182680 0.323691
Si Si2 0.266118 0.987645 0.478793
Si Si3 0.551068 0.648804 0.837046
Si Si4 0.400620 0.555552 0.223413
Si Si5 0.206528 0.546733 0.060908
Si Si6 0.141484 0.314538 0.410948
Si Si7 0.904904 0.207630 0.579708
O O1 0.691269 0.387371 0.350084
O O2 0.552115 0.156063 0.245397
O O3 0.621211 0.110172 0.548875
O O4 0.749631 0.075722 0.173474
O O5 0.171735 0.863461 0.449750
O O6 0.365724 0.007056 0.285274
O O7 0.214649 0.184679 0.499460
O O8 0.599424 0.843366 0.797442
O O9 0.508868 0.617432 0.074134
O O10 0.303691 0.619363 0.141921
O O11 0.180223 0.353151 0.168896
O O12 0.110634 0.669487 0.181753
O O13 0.132729 0.518201 0.489858
O O14 0.023958 0.241922 0.468655
#
# Coordination Sequence:
#
# PCOD9115515 Si02
#       7
#     2   2   2   2   2   2   2
#     4  11  23  40  65 100 137 177 231 286 342 425
#     4  12  21  41  72  92 141 188 220 293 353 404
#     4  11  24  38  64 101 130 185 230 277 350 423
#     4  11  21  40  61  88 136 173 224 283 338 417
#     4   9  21  41  63  95 138 168 228 286 343 411
#     4  10  20  39  72 100 129 181 232 282 353 413
#     4  10  20  39  73  96 131 178 235 281 347 421
#
# _framework density 21.163902
#
# number of rings (size 3 to 8) (size 9 to 14) (size 15 to 20)
#    0.857    0.571    4.286    1.714    2.000    1.143 
#    0.000    0.000   12.571    0.000    0.000    0.000 
#    0.000    0.000    0.000    0.000    0.000    0.000 
#
# Total GULP energy -77962.614071 kJ/mol
# GULP energy per Si atom -5568.758148 kJ/mol
# Density = 2.111573 g / cm^3
# Si number density = 21.163902 Si / 1000 Ang^3
#
#
#
# Elastic Constant Matrix: (Units=GPa)
#
#
# Indices 1 2 3 4 5 6 
#
# 1 117.7049 37.6138 49.8423 0.0000 -29.1180 0.0000
# 2 37.6138 104.5238 30.7064 0.0000 -17.9639 0.0000
# 3 49.8423 30.7064 119.3748 0.0000 -23.7461 0.0000
# 4 0.0000 0.0000 0.0000 18.5321 0.0000 1.6634
# 5 -29.1180 -17.9639 -23.7461 0.0000 23.2431 0.0000
# 6 0.0000 0.0000 0.0000 1.6634 0.0000 42.6054
#
#
#
# Elastic Compliance Matrix: (Units=1/GPa)
#
#
# Indices 1 2 3 4 5 6 
#
# 1 0.013293 -0.001866 -0.002566 0.000000 0.012589 0.000000
# 2 -0.001866 0.011493 -0.001099 0.000000 0.005423 0.000000
# 3 -0.002566 -0.001099 0.011198 0.000000 0.007377 0.000000
# 4 0.000000 0.000000 0.000000 0.054150 0.000000 -0.002114
# 5 0.012589 0.005423 0.007377 0.000000 0.070523 0.000000
# 6 0.000000 0.000000 0.000000 -0.002114 0.000000 0.023554
#
#
# Mechanical properties :
#
#
# Convention : Reuss Voigt Hill
#
# Bulk Modulus (GPa) = 40.12263 64.21427 52.16845
# Shear Modulus (GPa) = 24.56028 31.77219 28.16623
#
# Velocity S-wave (km/s) = 3.41028 3.87879 3.65206
# Velocity P-wave (km/s) = 5.87417 7.10404 6.51817
#
# Compressibility (1/GPa) = 0.02492359
#
# Stress axis : x y z
#
# Youngs Moduli (GPa) = 75.22721 87.00596 89.29867
#
# Poissons Ratio (x) = 0.16237 0.22913
# Poissons Ratio (y) = 0.14039 0.09810
# Poissons Ratio (z) = 0.19303 0.09558
#
# Static dielectric constant tensor:
#      x y z
#    x 1.813330 0.000000 -0.028510 
#    y 0.000000 1.807850 0.000000 
#    z -0.028510 0.000000 1.816920 
# 
# From -- ./inp_files/3553.got.cif
#   From: 2010.05.17/outbox.cif.g08.bks.cpg/sg4_2_cif.got.tgz:3553.got - 2010.06.03 18:43:04.
