data_PCOD9115300
_publ_section_title
;
Structure prediction by ZEFSAII (Michael W. Deem and Ramdas Pophale) SiO2 
 PCOD9115300
Probable space group: P 21
;
_chemical_formula_sum "Si O2"
_cell_formula_units_Z 14
_cell_length_a 7.137714
_cell_length_b 7.052450
_cell_length_c 16.726955
_cell_angle_alpha 90.000000
_cell_angle_beta 128.786289
_cell_angle_gamma 90.000000
_cell_volume 656.334781
_symmetry_space_group_name_H-M "P 21"
_symmetry_group_IT_number 4
_symmetry_cell_setting 'monoclinic'
loop_
_space_group_symop_operation_xyz
x,y,z
-x,1/2+y,-z
loop_
_atom_site_type_symbol
_atom_site_label
_atom_site_fract_x
_atom_site_fract_y
_atom_site_fract_z
Si Si1 0.752547 0.637020 0.097301
Si Si2 0.836586 0.230101 0.685780
Si Si3 0.679380 0.804318 0.648446
Si Si4 0.049323 0.268181 0.124129
Si Si5 0.700028 0.802656 0.473753
Si Si6 0.841788 0.238272 0.508781
Si Si7 0.700375 0.955865 0.955411
O O1 0.539920 0.580466 0.100752
O O2 0.955384 0.761619 0.195707
O O3 0.863462 0.438458 0.095655
O O4 0.667179 0.771734 0.002955
O O5 0.564762 0.285632 0.633988
O O6 0.819597 0.001722 0.678708
O O7 0.896693 0.305364 0.613430
O O8 0.809127 0.704746 0.757582
O O9 0.691138 0.720339 0.561786
O O10 0.395729 0.843540 0.588031
O O11 0.234084 0.372307 0.113344
O O12 0.913085 0.094771 0.044351
O O13 0.747734 0.025323 0.491608
O O14 0.924318 0.730442 0.483153
#
# Coordination Sequence:
#
# PCOD9115300 Si02
#       7
#     2   2   2   2   2   2   2
#     4  11  24  43  67  96 133 170 221 279 334 384
#     4   9  21  39  61  86 124 165 203 259 322 376
#     4   9  21  39  61  86 125 163 205 255 326 371
#     4  11  24  43  68  95 131 175 218 280 328 391
#     4  10  20  37  60  89 127 162 208 253 314 383
#     4  10  20  37  59  92 121 164 205 256 304 392
#     4  12  24  44  68  98 129 171 228 274 330 395
#
# _framework density 21.330577000000002
#
# number of rings (size 3 to 8) (size 9 to 14) (size 15 to 20)
#    0.000    1.714    2.857    0.857    2.000    6.857 
#    0.000    0.000    0.000    0.000    0.000    0.000 
#    0.000    0.000    0.000    0.000    0.000    0.000 
#
# Total GULP energy -78117.566815 kJ/mol
# GULP energy per Si atom -5579.826201 kJ/mol
# Density = 2.128203 g / cm^3
# Si number density = 21.330577 Si / 1000 Ang^3
#
#
#
# Elastic Constant Matrix: (Units=GPa)
#
#
# Indices 1 2 3 4 5 6 
#
# 1 149.0773 7.4581 31.0737 0.0000 2.4097 0.0000
# 2 7.4581 49.5985 4.7784 0.0000 -3.0181 0.0000
# 3 31.0737 4.7784 69.9201 0.0000 9.0177 0.0000
# 4 0.0000 0.0000 0.0000 21.3221 0.0000 7.6410
# 5 2.4097 -3.0181 9.0177 0.0000 13.2387 0.0000
# 6 0.0000 0.0000 0.0000 7.6410 0.0000 34.5323
#
#
#
# Elastic Compliance Matrix: (Units=1/GPa)
#
#
# Indices 1 2 3 4 5 6 
#
# 1 0.007431 -0.000749 -0.003349 0.000000 0.000758 0.000000
# 2 -0.000749 0.020832 -0.001887 0.000000 0.006171 0.000000
# 3 -0.003349 -0.001887 0.017427 0.000000 -0.011691 0.000000
# 4 0.000000 0.000000 0.000000 0.050939 0.000000 -0.011271
# 5 0.000758 0.006171 -0.011691 0.000000 0.084769 0.000000
# 6 0.000000 0.000000 0.000000 -0.011271 0.000000 0.031452
#
#
# Mechanical properties :
#
#
# Convention : Reuss Voigt Hill
#
# Bulk Modulus (GPa) = 29.65509 39.46847 34.56178
# Shear Modulus (GPa) = 21.18107 28.83767 25.00937
#
# Velocity S-wave (km/s) = 3.15459 3.68086 3.42784
# Velocity P-wave (km/s) = 5.21550 6.05049 5.64844
#
# Compressibility (1/GPa) = 0.03372102
#
# Stress axis : x y z
#
# Youngs Moduli (GPa) = 134.56724 48.00372 57.38137
#
# Poissons Ratio (x) = 0.03594 0.19218
# Poissons Ratio (y) = 0.10074 0.10827
# Poissons Ratio (z) = 0.45069 0.09057
#
# Static dielectric constant tensor:
#      x y z
#    x 1.780580 0.000000 -0.006950 
#    y 0.000000 1.834420 0.000000 
#    z -0.006950 0.000000 1.802720 
# 
# From -- ./inp_files/10346.got.cif
#   From: 2010.05.17/outbox.cif.g08.bks.cpg/sg4_6_cif.got.tgz:10346.got - 2010.06.03 18:43:04.
