data_PCOD9115083
_publ_section_title
;
Structure prediction by ZEFSAII (Michael W. Deem and Ramdas Pophale) SiO2 
 PCOD9115083
Probable space group: P 21
;
_chemical_formula_sum "Si O2"
_cell_formula_units_Z 16
_cell_length_a 8.440614
_cell_length_b 10.748135
_cell_length_c 11.561318
_cell_angle_alpha 90.000000
_cell_angle_beta 38.713972
_cell_angle_gamma 90.000000
_cell_volume 655.987038
_symmetry_space_group_name_H-M "P 21"
_symmetry_group_IT_number 4
_symmetry_cell_setting 'monoclinic'
loop_
_space_group_symop_operation_xyz
x,y,z
-x,1/2+y,-z
loop_
_atom_site_type_symbol
_atom_site_label
_atom_site_fract_x
_atom_site_fract_y
_atom_site_fract_z
Si Si1 0.898097 0.939080 0.213075
Si Si2 0.858945 0.896972 0.681135
Si Si3 0.446135 0.629715 0.108294
Si Si4 0.887938 0.349351 0.680963
Si Si5 0.896018 0.455371 0.152103
Si Si6 0.983224 0.708275 0.801366
Si Si7 0.376737 0.016515 0.477957
Si Si8 0.465169 0.556998 0.853460
O O1 0.604966 0.913830 0.347778
O O2 0.018064 0.854101 0.241929
O O3 0.876680 0.077587 0.281399
O O4 0.082994 0.949260 0.997900
O O5 0.912299 0.771011 0.720386
O O6 0.878004 0.876014 0.535050
O O7 0.106339 0.973382 0.582536
O O8 0.621209 0.984900 0.841402
O O9 0.228813 0.716260 0.282087
O O10 0.709476 0.674915 0.010908
O O11 0.458292 0.652906 0.962873
O O12 0.673920 0.453404 0.773447
O O13 0.701472 0.536124 0.341791
O O14 0.873092 0.313726 0.209605
O O15 0.183760 0.498826 0.016567
O O16 0.475148 0.099968 0.312237
#
# Coordination Sequence:
#
# PCOD9115083 Si02
#       8
#     2   2   2   2   2   2   2   2
#     4  11  25  41  68 102 139 180 238 283 350 436
#     4  10  24  45  69 101 141 184 238 292 359 412
#     4  12  21  40  76  98 134 190 226 303 358 398
#     4  11  24  41  66 111 135 176 244 295 341 428
#     4  10  21  47  65  95 138 185 224 278 357 418
#     4  11  23  44  71  97 136 187 232 299 356 409
#     4   9  21  43  65  90 138 180 216 285 339 420
#     4  10  19  41  68  94 135 170 234 279 342 407
#
# _framework density 24.390725
#
# number of rings (size 3 to 8) (size 9 to 14) (size 15 to 20)
#    0.000    1.500    5.000    0.000    1.750    3.000 
#    4.500    0.000    0.000    0.000    0.000    0.000 
#    0.000    0.000    0.000    0.000    0.000    0.000 
#
# Total GULP energy -89187.491777 kJ/mol
# GULP energy per Si atom -5574.218236 kJ/mol
# Density = 2.433521 g / cm^3
# Si number density = 24.390725 Si / 1000 Ang^3
#
#
#
# Elastic Constant Matrix: (Units=GPa)
#
#
# Indices 1 2 3 4 5 6 
#
# 1 48.4548 -3.5288 19.3528 0.0000 7.5374 0.0000
# 2 -3.5288 36.8494 -1.4726 0.0000 -3.5516 0.0000
# 3 19.3528 -1.4726 148.8445 0.0000 27.4230 0.0000
# 4 0.0000 0.0000 0.0000 11.2271 0.0000 -0.5064
# 5 7.5374 -3.5516 27.4230 0.0000 39.6491 0.0000
# 6 0.0000 0.0000 0.0000 -0.5064 0.0000 30.4499
#
#
#
# Elastic Compliance Matrix: (Units=1/GPa)
#
#
# Indices 1 2 3 4 5 6 
#
# 1 0.022103 0.001792 -0.002420 0.000000 -0.002368 0.000000
# 2 0.001792 0.027525 -0.000404 0.000000 0.002404 0.000000
# 3 -0.002420 -0.000404 0.007966 0.000000 -0.005086 0.000000
# 4 0.000000 0.000000 0.000000 0.089137 0.000000 0.001482
# 5 -0.002368 0.002404 -0.005086 0.000000 0.029404 0.000000
# 6 0.000000 0.000000 0.000000 0.001482 0.000000 0.032865
#
#
# Mechanical properties :
#
#
# Convention : Reuss Voigt Hill
#
# Bulk Modulus (GPa) = 18.00816 29.20573 23.60695
# Shear Modulus (GPa) = 21.77943 30.91837 26.34890
#
# Velocity S-wave (km/s) = 2.99145 3.56424 3.29033
# Velocity P-wave (km/s) = 4.39670 5.37945 4.91271
#
# Compressibility (1/GPa) = 0.05553037
#
# Stress axis : x y z
#
# Youngs Moduli (GPa) = 45.24257 36.33104 125.53247
#
# Poissons Ratio (x) = -0.06510 0.30378
# Poissons Ratio (y) = -0.08106 0.05066
# Poissons Ratio (z) = 0.10948 0.01466
#
# Static dielectric constant tensor:
#      x y z
#    x 2.008960 0.000000 0.018400 
#    y 0.000000 1.966310 0.000000 
#    z 0.018400 0.000000 1.982610 
# 
# From -- ./inp_files/11141.got.cif
#   From: 2010.05.17/outbox.cif.g08.bks.cpg/sg4_6_cif.got.tgz:11141.got - 2010.06.03 18:43:04.
