data_PCOD9115778
_publ_section_title
;
Structure prediction by ZEFSAII (Michael W. Deem and Ramdas Pophale) SiO2 
 PCOD9115778
Probable space group: P 21
;
_chemical_formula_sum "Si O2"
_cell_formula_units_Z 14
_cell_length_a 9.117254
_cell_length_b 5.528667
_cell_length_c 11.368943
_cell_angle_alpha 90.000000
_cell_angle_beta 61.082290
_cell_angle_gamma 90.000000
_cell_volume 501.613248
_symmetry_space_group_name_H-M "P 21"
_symmetry_group_IT_number 4
_symmetry_cell_setting 'monoclinic'
loop_
_space_group_symop_operation_xyz
x,y,z
-x,1/2+y,-z
loop_
_atom_site_type_symbol
_atom_site_label
_atom_site_fract_x
_atom_site_fract_y
_atom_site_fract_z
Si Si1 0.475201 0.426820 0.844862
Si Si2 0.529333 0.932101 0.796833
Si Si3 0.260586 0.862045 0.712575
Si Si4 0.095400 0.519058 0.935876
Si Si5 0.014497 0.156400 0.659355
Si Si6 0.653376 0.219465 0.553100
Si Si7 0.054725 0.170078 0.372563
O O1 0.558458 0.678756 0.845348
O O2 0.275137 0.456899 0.925334
O O3 0.546684 0.392188 0.681831
O O4 0.533469 0.171449 0.873274
O O5 0.345744 0.927548 0.803544
O O6 0.630841 0.979198 0.638310
O O7 0.993950 0.263877 0.975895
O O8 0.157020 0.087251 0.698468
O O9 0.393663 0.781511 0.561753
O O10 0.144076 0.633025 0.790170
O O11 0.092886 0.159672 0.496672
O O12 0.917357 0.411366 0.699066
O O13 0.891728 0.921501 0.708837
O O14 0.853193 0.211466 0.456726
#
# Coordination Sequence:
#
# PCOD9115778 Si02
#       7
#     2   2   2   2   2   2   2
#     4   9  20  35  50  75 104 139 178 214 275 311
#     4   9  20  30  46  78 105 136 168 213 264 328
#     4  10  21  34  54  77 110 145 183 218 271 321
#     4  11  23  39  51  72 111 155 190 221 256 319
#     4   9  19  32  48  73 108 151 175 214 258 331
#     4   9  21  30  55  79 111 139 170 222 275 328
#     4   9  18  32  48  74 113 143 176 206 271 332
#
# _framework density 27.909948
#
# number of rings (size 3 to 8) (size 9 to 14) (size 15 to 20)
#    0.857    1.714    0.000    1.714    8.000    6.857 
#    0.000    0.000    0.000    0.000    0.000    0.000 
#    8.571    0.000    0.000    0.000    0.000    0.000 
#
# Total GULP energy -77987.619733 kJ/mol
# GULP energy per Si atom -5570.544267 kJ/mol
# Density = 2.784642 g / cm^3
# Si number density = 27.909948 Si / 1000 Ang^3
#
#
#
# Elastic Constant Matrix: (Units=GPa)
#
#
# Indices 1 2 3 4 5 6 
#
# 1 51.1537 20.2073 11.5387 0.0000 -15.1442 0.0000
# 2 20.2073 283.0649 39.0256 0.0000 -23.0513 0.0000
# 3 11.5387 39.0256 129.0425 0.0000 0.2307 0.0000
# 4 0.0000 0.0000 0.0000 33.5556 0.0000 -17.2659
# 5 -15.1442 -23.0513 0.2307 0.0000 44.4593 0.0000
# 6 0.0000 0.0000 0.0000 -17.2659 0.0000 27.9543
#
#
#
# Elastic Compliance Matrix: (Units=1/GPa)
#
#
# Indices 1 2 3 4 5 6 
#
# 1 0.022397 -0.000763 -0.001785 0.000000 0.007243 0.000000
# 2 -0.000763 0.003883 -0.001109 0.000000 0.001759 0.000000
# 3 -0.001785 -0.001109 0.008247 0.000000 -0.001226 0.000000
# 4 0.000000 0.000000 0.000000 0.043684 0.000000 0.026982
# 5 0.007243 0.001759 -0.001226 0.000000 0.025878 0.000000
# 6 0.000000 0.000000 0.000000 0.026982 0.000000 0.052438
#
#
# Mechanical properties :
#
#
# Convention : Reuss Voigt Hill
#
# Bulk Modulus (GPa) = 36.74741 67.20047 51.97394
# Shear Modulus (GPa) = 28.91626 47.35982 38.13804
#
# Velocity S-wave (km/s) = 3.22227 4.12379 3.70059
# Velocity P-wave (km/s) = 5.19991 6.84135 6.07631
#
# Compressibility (1/GPa) = 0.02721280
#
# Stress axis : x y z
#
# Youngs Moduli (GPa) = 44.64842 257.50332 121.26090
#
# Poissons Ratio (x) = 0.19647 0.21644
# Poissons Ratio (y) = 0.03407 0.13452
# Poissons Ratio (z) = 0.07969 0.28567
#
# Static dielectric constant tensor:
#      x y z
#    x 2.383050 0.000000 0.009060 
#    y 0.000000 2.431720 0.000000 
#    z 0.009060 0.000000 2.189060 
# 
# From -- ./inp_files/13797.got.cif
#   From: 2010.05.17/outbox.cif.g08.bks.cpg/sg4_7_cif.got.tgz:13797.got - 2010.06.03 18:43:04.
