data_PCOD9115282
_publ_section_title
;
Structure prediction by ZEFSAII (Michael W. Deem and Ramdas Pophale) SiO2 
 PCOD9115282
Probable space group: P 21
;
_chemical_formula_sum "Si O2"
_cell_formula_units_Z 16
_cell_length_a 5.145208
_cell_length_b 9.814166
_cell_length_c 13.893312
_cell_angle_alpha 90.000000
_cell_angle_beta 57.323220
_cell_angle_gamma 90.000000
_cell_volume 590.520191
_symmetry_space_group_name_H-M "P 21"
_symmetry_group_IT_number 4
_symmetry_cell_setting 'monoclinic'
loop_
_space_group_symop_operation_xyz
x,y,z
-x,1/2+y,-z
loop_
_atom_site_type_symbol
_atom_site_label
_atom_site_fract_x
_atom_site_fract_y
_atom_site_fract_z
Si Si1 0.717179 0.088140 0.127128
Si Si2 0.256213 0.864755 0.293291
Si Si3 0.734429 0.253954 0.415547
Si Si4 0.418322 0.298228 0.291526
Si Si5 0.305134 0.496454 0.083687
Si Si6 0.683776 0.630473 0.181797
Si Si7 0.317148 0.476115 0.475745
Si Si8 0.837865 0.355924 0.914021
O O1 0.681930 0.242452 0.169519
O O2 0.644222 0.065402 0.030535
O O3 0.465106 0.999121 0.237580
O O4 0.026317 0.005155 0.088675
O O5 0.459192 0.734710 0.283083
O O6 0.151094 0.834915 0.203621
O O7 0.976357 0.898141 0.420112
O O8 0.506704 0.220311 0.372826
O O9 0.609289 0.402711 0.469049
O O10 0.088047 0.264931 0.312507
O O11 0.710504 0.131988 0.493439
O O12 0.366900 0.445302 0.352415
O O13 0.487608 0.356451 0.023788
O O14 0.480769 0.559057 0.140005
O O15 0.939348 0.523939 0.173257
O O16 0.918468 0.748111 0.092096
#
# Coordination Sequence:
#
# PCOD9115282 Si02
#       8
#     2   2   2   2   2   2   2   2
#     4  10  20  36  65  94 126 161 221 268 326 390
#     4  10  20  38  65  97 123 166 225 271 323 398
#     4  10  23  38  64  96 136 171 217 277 332 383
#     4  10  23  37  64  96 132 166 218 272 331 381
#     4  11  22  37  60  95 129 155 207 274 330 380
#     4  11  22  38  60  98 125 159 211 270 335 379
#     4  10  23  39  68 100 138 169 228 274 335 388
#     4  10  21  37  66  94 123 165 217 272 320 391
#
# _framework density 27.094756
#
# number of rings (size 3 to 8) (size 9 to 14) (size 15 to 20)
#    0.750    1.000    3.750    0.750    3.500    2.000 
#    0.000    0.000    0.000   10.500    0.000    0.000 
#    0.000    0.000    0.000    0.000    0.000    0.000 
#
# Total GULP energy -89341.043778 kJ/mol
# GULP energy per Si atom -5583.815236 kJ/mol
# Density = 2.703309 g / cm^3
# Si number density = 27.094756 Si / 1000 Ang^3
#
#
#
# Elastic Constant Matrix: (Units=GPa)
#
#
# Indices 1 2 3 4 5 6 
#
# 1 148.4838 22.2889 43.6778 0.0000 -16.8472 0.0000
# 2 22.2889 63.7453 2.8370 0.0000 9.9365 0.0000
# 3 43.6778 2.8370 113.0985 0.0000 -6.7444 0.0000
# 4 0.0000 0.0000 0.0000 37.4210 0.0000 -3.6064
# 5 -16.8472 9.9365 -6.7444 0.0000 42.3393 0.0000
# 6 0.0000 0.0000 0.0000 -3.6064 0.0000 47.0158
#
#
#
# Elastic Compliance Matrix: (Units=1/GPa)
#
#
# Indices 1 2 3 4 5 6 
#
# 1 0.008556 -0.003441 -0.002995 0.000000 0.003735 0.000000
# 2 -0.003441 0.017713 0.000560 0.000000 -0.005437 0.000000
# 3 -0.002995 0.000560 0.010001 0.000000 0.000270 0.000000
# 4 0.000000 0.000000 0.000000 0.026922 0.000000 0.002065
# 5 0.003735 -0.005437 0.000270 0.000000 0.026424 0.000000
# 6 0.000000 0.000000 0.000000 0.002065 0.000000 0.021428
#
#
# Mechanical properties :
#
#
# Convention : Reuss Voigt Hill
#
# Bulk Modulus (GPa) = 40.78566 51.43723 46.11145
# Shear Modulus (GPa) = 38.17747 42.45682 40.31715
#
# Velocity S-wave (km/s) = 3.75778 3.96280 3.86165
# Velocity P-wave (km/s) = 5.82354 6.32169 6.07772
#
# Compressibility (1/GPa) = 0.02451842
#
# Stress axis : x y z
#
# Youngs Moduli (GPa) = 116.87644 56.45577 99.99364
#
# Poissons Ratio (x) = 0.19424 0.29951
# Poissons Ratio (y) = 0.40212 -0.05602
# Poissons Ratio (z) = 0.35008 -0.03163
#
# Static dielectric constant tensor:
#      x y z
#    x 2.090880 0.000000 -0.018850 
#    y 0.000000 2.286510 0.000000 
#    z -0.018850 0.000000 2.094630 
# 
# From -- ./inp_files/14733.got.cif
#   From: 2010.05.17/outbox.cif.g08.bks.cpg/sg4_8_cif.got.tgz:14733.got - 2010.06.03 18:43:04.
