data_PCOD9115029
_publ_section_title
;
Structure prediction by ZEFSAII (Michael W. Deem and Ramdas Pophale) SiO2 
 PCOD9115029
Probable space group: P 21
;
_chemical_formula_sum "Si O2"
_cell_formula_units_Z 14
_cell_length_a 7.770335
_cell_length_b 11.989633
_cell_length_c 13.444085
_cell_angle_alpha 90.000000
_cell_angle_beta 24.899092
_cell_angle_gamma 90.000000
_cell_volume 527.328317
_symmetry_space_group_name_H-M "P 21"
_symmetry_group_IT_number 4
_symmetry_cell_setting 'monoclinic'
loop_
_space_group_symop_operation_xyz
x,y,z
-x,1/2+y,-z
loop_
_atom_site_type_symbol
_atom_site_label
_atom_site_fract_x
_atom_site_fract_y
_atom_site_fract_z
Si Si1 0.151784 0.298000 0.629802
Si Si2 0.719737 0.878225 0.937311
Si Si3 0.581485 0.636576 0.681561
Si Si4 0.568383 0.901087 0.331718
Si Si5 0.325845 0.204679 0.871062
Si Si6 0.469868 0.991952 0.893517
Si Si7 0.623731 0.110248 0.010083
O O1 0.283217 0.234133 0.462458
O O2 0.478767 0.361179 0.527964
O O3 0.781728 0.376528 0.791386
O O4 0.938018 0.205032 0.812239
O O5 0.808097 0.771958 0.958250
O O6 0.751770 0.897174 0.799933
O O7 0.852740 0.994165 0.917078
O O8 0.621711 0.517766 0.605171
O O9 0.693516 0.640026 0.738381
O O10 0.094952 0.658100 0.950717
O O11 0.497831 0.799149 0.293638
O O12 0.061378 0.930700 0.071445
O O13 0.587517 0.092115 0.756089
O O14 0.398028 0.071642 0.027351
#
# Coordination Sequence:
#
# PCOD9115029 Si02
#       7
#     2   2   2   2   2   2   2
#     4  11  22  41  61  91 128 162 208 261 309 373
#     4   9  18  37  64  83 122 168 206 249 312 370
#     4  11  24  37  63  97 123 161 218 257 309 377
#     4  10  20  39  61  89 129 159 205 261 308 372
#     4  11  18  36  65  86 123 171 199 257 320 357
#     4   8  19  33  62  88 113 166 209 244 304 378
#     4  10  19  39  64  84 124 165 203 255 310 377
#
# _framework density 26.548925000000001
#
# number of rings (size 3 to 8) (size 9 to 14) (size 15 to 20)
#    0.857    1.143    4.286    0.000    0.000    1.143 
#    0.000    5.714    0.000    0.000    0.000    0.000 
#    0.000    0.000    0.000    0.000    0.000    0.000 
#
# Total GULP energy -78062.027293 kJ/mol
# GULP energy per Si atom -5575.859092 kJ/mol
# Density = 2.648850 g / cm^3
# Si number density = 26.548925 Si / 1000 Ang^3
#
#
#
# Elastic Constant Matrix: (Units=GPa)
#
#
# Indices 1 2 3 4 5 6 
#
# 1 65.7325 20.6892 3.3009 0.0000 13.1363 0.0000
# 2 20.6892 126.9011 9.2175 0.0000 6.0041 0.0000
# 3 3.3009 9.2175 50.8932 0.0000 30.2654 0.0000
# 4 0.0000 0.0000 0.0000 58.5838 0.0000 2.1734
# 5 13.1363 6.0041 30.2654 0.0000 36.7510 0.0000
# 6 0.0000 0.0000 0.0000 2.1734 0.0000 62.5370
#
#
#
# Elastic Compliance Matrix: (Units=1/GPa)
#
#
# Indices 1 2 3 4 5 6 
#
# 1 0.017942 -0.002834 0.005660 0.000000 -0.010611 0.000000
# 2 -0.002834 0.008434 -0.002208 0.000000 0.001454 0.000000
# 3 0.005660 -0.002208 0.040509 0.000000 -0.035023 0.000000
# 4 0.000000 0.000000 0.000000 0.017092 0.000000 -0.000594
# 5 -0.010611 0.001454 -0.035023 0.000000 0.059608 0.000000
# 6 0.000000 0.000000 0.000000 -0.000594 0.000000 0.016011
#
#
# Mechanical properties :
#
#
# Convention : Reuss Voigt Hill
#
# Bulk Modulus (GPa) = 14.67997 34.43798 24.55897
# Shear Modulus (GPa) = 27.61414 45.59566 36.60490
#
# Velocity S-wave (km/s) = 3.22859 4.14867 3.71721
# Velocity P-wave (km/s) = 4.40906 5.99569 5.26252
#
# Compressibility (1/GPa) = 0.06812005
#
# Stress axis : x y z
#
# Youngs Moduli (GPa) = 55.73650 118.57012 24.68564
#
# Poissons Ratio (x) = 0.33604 -0.13972
# Poissons Ratio (y) = 0.15797 0.05451
# Poissons Ratio (z) = -0.31546 0.26182
#
# Static dielectric constant tensor:
#      x y z
#    x 2.172610 0.000000 -0.015140 
#    y 0.000000 2.052370 0.000000 
#    z -0.015140 0.000000 2.240250 
# 
# From -- ./inp_files/11286.got.cif
#   From: 2010.05.17/outbox.cif.g08.bks.cpg/sg4_6_cif.got.tgz:11286.got - 2010.06.03 18:43:04.
