data_PCOD9115703
_publ_section_title
;
Structure prediction by ZEFSAII (Michael W. Deem and Ramdas Pophale) SiO2 
 PCOD9115703
Probable space group: P 21
;
_chemical_formula_sum "Si O2"
_cell_formula_units_Z 14
_cell_length_a 11.213675
_cell_length_b 10.643829
_cell_length_c 10.333740
_cell_angle_alpha 90.000000
_cell_angle_beta 154.934478
_cell_angle_gamma 90.000000
_cell_volume 522.534683
_symmetry_space_group_name_H-M "P 21"
_symmetry_group_IT_number 4
_symmetry_cell_setting 'monoclinic'
loop_
_space_group_symop_operation_xyz
x,y,z
-x,1/2+y,-z
loop_
_atom_site_type_symbol
_atom_site_label
_atom_site_fract_x
_atom_site_fract_y
_atom_site_fract_z
Si Si1 0.783763 0.308840 0.800049
Si Si2 0.882092 0.113364 0.698731
Si Si3 0.705172 0.969259 0.791695
Si Si4 0.699942 0.314225 0.307660
Si Si5 0.776249 0.560434 0.536210
Si Si6 0.233071 0.292143 0.664648
Si Si7 0.400098 0.946023 0.154171
O O1 0.912046 0.181862 0.867113
O O2 0.514367 0.350620 0.448418
O O3 0.693169 0.322503 0.859263
O O4 0.030521 0.412928 0.031824
O O5 0.814935 0.222650 0.531173
O O6 0.609831 0.026111 0.450777
O O7 0.130894 0.033737 0.880551
O O8 0.447933 0.069019 0.566046
O O9 0.916266 0.010567 0.118191
O O10 0.652259 0.449915 0.322866
O O11 0.930939 0.326803 0.422282
O O12 0.423509 0.253324 0.973836
O O13 0.794895 0.685980 0.470999
O O14 0.407941 0.408151 0.776853
#
# Coordination Sequence:
#
# PCOD9115703 Si02
#       7
#     2   2   2   2   2   2   2
#     4  11  24  46  74 110 144 199 248 306 386 459
#     4  12  26  49  78 106 155 200 256 320 383 457
#     4  10  20  42  74 104 137 181 263 288 365 451
#     4  12  26  46  77 107 147 203 259 305 389 461
#     4  11  24  45  74 104 144 196 250 318 365 465
#     4  12  29  46  72 114 153 197 249 317 389 449
#     4  12  29  48  73 115 158 194 251 324 387 456
#
# _framework density 26.792480000000001
#
# number of rings (size 3 to 8) (size 9 to 14) (size 15 to 20)
#    0.000    0.571    2.857    5.143    6.000    3.429 
#    0.000    1.429    0.000    0.000    0.000    0.000 
#    0.000    0.000    0.000    0.000    0.000    0.000 
#
# Total GULP energy -78255.560543 kJ/mol
# GULP energy per Si atom -5589.682896 kJ/mol
# Density = 2.673150 g / cm^3
# Si number density = 26.792480 Si / 1000 Ang^3
#
#
#
# Elastic Constant Matrix: (Units=GPa)
#
#
# Indices 1 2 3 4 5 6 
#
# 1 65.4024 16.4426 23.0279 0.0000 21.9336 0.0000
# 2 16.4426 83.3778 13.5072 0.0000 7.6942 0.0000
# 3 23.0279 13.5072 172.0632 0.0000 23.8352 0.0000
# 4 0.0000 0.0000 0.0000 40.5738 0.0000 -0.3884
# 5 21.9336 7.6942 23.8352 0.0000 36.7329 0.0000
# 6 0.0000 0.0000 0.0000 -0.3884 0.0000 42.1296
#
#
#
# Elastic Compliance Matrix: (Units=1/GPa)
#
#
# Indices 1 2 3 4 5 6 
#
# 1 0.019912 -0.002785 -0.000967 0.000000 -0.010679 0.000000
# 2 -0.002785 0.012689 -0.000534 0.000000 -0.000649 0.000000
# 3 -0.000967 -0.000534 0.006469 0.000000 -0.003509 0.000000
# 4 0.000000 0.000000 0.000000 0.024649 0.000000 0.000227
# 5 -0.010679 -0.000649 -0.003509 0.000000 0.036012 0.000000
# 6 0.000000 0.000000 0.000000 0.000227 0.000000 0.023738
#
#
# Mechanical properties :
#
#
# Convention : Reuss Voigt Hill
#
# Bulk Modulus (GPa) = 32.78721 47.42208 40.10465
# Shear Modulus (GPa) = 35.16020 41.74498 38.45259
#
# Velocity S-wave (km/s) = 3.62652 3.95154 3.79251
# Velocity P-wave (km/s) = 5.45890 6.20949 5.84625
#
# Compressibility (1/GPa) = 0.03049970
#
# Stress axis : x y z
#
# Youngs Moduli (GPa) = 50.22159 78.80804 154.58012
#
# Poissons Ratio (x) = 0.21945 0.14948
# Poissons Ratio (y) = 0.13985 0.08247
# Poissons Ratio (z) = 0.04856 0.04205
#
# Static dielectric constant tensor:
#      x y z
#    x 2.682890 0.000000 -0.299040 
#    y 0.000000 2.142890 0.000000 
#    z -0.299040 0.000000 2.174860 
# 
# From -- ./inp_files/12188.got.cif
#   From: 2010.05.17/outbox.cif.g08.bks.cpg/sg4_7_cif.got.tgz:12188.got - 2010.06.03 18:43:04.
