data_PCOD9115293
_publ_section_title
;
Structure prediction by ZEFSAII (Michael W. Deem and Ramdas Pophale) SiO2 
 PCOD9115293
Probable space group: P 21
;
_chemical_formula_sum "Si O2"
_cell_formula_units_Z 16
_cell_length_a 16.445149
_cell_length_b 8.433165
_cell_length_c 10.906432
_cell_angle_alpha 90.000000
_cell_angle_beta 29.031083
_cell_angle_gamma 90.000000
_cell_volume 734.018670
_symmetry_space_group_name_H-M "P 21"
_symmetry_group_IT_number 4
_symmetry_cell_setting 'monoclinic'
loop_
_space_group_symop_operation_xyz
x,y,z
-x,1/2+y,-z
loop_
_atom_site_type_symbol
_atom_site_label
_atom_site_fract_x
_atom_site_fract_y
_atom_site_fract_z
Si Si1 0.137608 0.579540 0.192448
Si Si2 0.194943 0.105600 0.210638
Si Si3 0.467677 0.450307 0.202257
Si Si4 0.399469 0.424219 0.006108
Si Si5 0.284039 0.780030 0.507789
Si Si6 0.924144 0.749808 0.867707
Si Si7 0.695237 0.197848 0.254942
Si Si8 0.354553 0.331929 0.595611
O O1 0.288232 0.562448 0.092240
O O2 0.120657 0.411313 0.145230
O O3 0.964672 0.604696 0.490614
O O4 0.185446 0.699538 0.020742
O O5 0.298455 0.264913 0.104618
O O6 0.126126 0.114466 0.162672
O O7 0.331290 0.967378 0.049179
O O8 0.419960 0.425121 0.124750
O O9 0.386564 0.618525 0.347530
O O10 0.391636 0.330281 0.402148
O O11 0.585061 0.415389 0.703736
O O12 0.242547 0.788434 0.706456
O O13 0.116239 0.764926 0.651299
O O14 0.808496 0.741372 0.140526
O O15 0.515305 0.264875 0.454041
O O16 0.669461 0.014892 0.330549
#
# Coordination Sequence:
#
# PCOD9115293 Si02
#       8
#     2   2   2   2   2   2   2   2
#     4  10  21  37  58  85 116 152 198 242 291 357
#     4  10  21  37  58  84 116 153 194 244 297 348
#     4  10  21  37  58  85 116 152 198 242 291 357
#     4  10  21  37  58  84 116 153 194 244 297 348
#     4  10  20  37  58  81 116 155 193 245 300 347
#     4  10  20  37  58  81 116 155 193 245 300 347
#     4  10  21  39  59  84 117 154 196 241 292 354
#     4  10  21  39  59  84 117 154 196 241 292 354
#
# _framework density 21.797809999999998
#
# number of rings (size 3 to 8) (size 9 to 14) (size 15 to 20)
#    0.000    2.000    0.000    5.250    0.000    6.000 
#    0.000   13.750    0.000    0.000    0.000    0.000 
#    0.000    0.000    0.000    0.000    0.000    0.000 
#
# Total GULP energy -89381.594822 kJ/mol
# GULP energy per Si atom -5586.349676 kJ/mol
# Density = 2.174820 g / cm^3
# Si number density = 21.797810 Si / 1000 Ang^3
#
#
#
# Elastic Constant Matrix: (Units=GPa)
#
#
# Indices 1 2 3 4 5 6 
#
# 1 163.7209 10.0121 91.0137 0.0000 9.0718 0.0000
# 2 10.0121 20.1070 18.6002 0.0000 8.7450 0.0000
# 3 91.0137 18.6002 180.3171 0.0000 7.8259 0.0000
# 4 0.0000 0.0000 0.0000 7.2330 0.0000 -2.9115
# 5 9.0718 8.7450 7.8259 0.0000 39.5400 0.0000
# 6 0.0000 0.0000 0.0000 -2.9115 0.0000 10.0870
#
#
#
# Elastic Compliance Matrix: (Units=1/GPa)
#
#
# Indices 1 2 3 4 5 6 
#
# 1 0.008539 0.000213 -0.004282 0.000000 -0.001159 0.000000
# 2 0.000213 0.060315 -0.005798 0.000000 -0.012241 0.000000
# 3 -0.004282 -0.005798 0.008278 0.000000 0.000626 0.000000
# 4 0.000000 0.000000 0.000000 0.156429 0.000000 0.045151
# 5 -0.001159 -0.012241 0.000626 0.000000 0.028140 0.000000
# 6 0.000000 0.000000 0.000000 0.045151 0.000000 0.112170
#
#
# Mechanical properties :
#
#
# Convention : Reuss Voigt Hill
#
# Bulk Modulus (GPa) = 17.42192 67.04411 42.23302
# Shear Modulus (GPa) = 12.11421 27.67328 19.89374
#
# Velocity S-wave (km/s) = 2.36000 3.56693 3.02429
# Velocity P-wave (km/s) = 3.92887 6.91289 5.62246
#
# Compressibility (1/GPa) = 0.05739897
#
# Stress axis : x y z
#
# Youngs Moduli (GPa) = 117.10291 16.57953 120.80305
#
# Poissons Ratio (x) = -0.00353 0.51727
# Poissons Ratio (y) = -0.02493 0.70040
# Poissons Ratio (z) = 0.50142 0.09613
#
# Static dielectric constant tensor:
#      x y z
#    x 1.770510 0.000000 0.032030 
#    y 0.000000 1.856300 0.000000 
#    z 0.032030 0.000000 1.801860 
# 
# From -- ./inp_files/9290.got.cif
#   From: 2010.05.17/outbox.cif.g08.bks.cpg/sg4_5_cif.got.tgz:9290.got - 2010.06.03 18:43:04.
