data_PCOD9115279
_publ_section_title
;
Structure prediction by ZEFSAII (Michael W. Deem and Ramdas Pophale) SiO2 
 PCOD9115279
Probable space group: P 21
;
_chemical_formula_sum "Si O2"
_cell_formula_units_Z 16
_cell_length_a 6.682723
_cell_length_b 5.271825
_cell_length_c 17.067061
_cell_angle_alpha 90.000000
_cell_angle_beta 76.207947
_cell_angle_gamma 90.000000
_cell_volume 583.938704
_symmetry_space_group_name_H-M "P 21"
_symmetry_group_IT_number 4
_symmetry_cell_setting 'monoclinic'
loop_
_space_group_symop_operation_xyz
x,y,z
-x,1/2+y,-z
loop_
_atom_site_type_symbol
_atom_site_label
_atom_site_fract_x
_atom_site_fract_y
_atom_site_fract_z
Si Si1 0.787392 0.837890 0.125642
Si Si2 0.328637 0.179839 0.601653
Si Si3 0.069623 0.679827 0.668718
Si Si4 0.616679 0.920256 0.980307
Si Si5 0.848519 0.362019 0.807457
Si Si6 0.435286 0.599875 0.276459
Si Si7 0.493743 0.229939 0.156055
Si Si8 0.872167 0.709604 0.532191
O O1 0.627259 0.714266 0.204592
O O2 0.008544 0.762098 0.136834
O O3 0.728836 0.137113 0.133284
O O4 0.759602 0.793473 0.034231
O O5 0.194208 0.941048 0.646437
O O6 0.323440 0.171597 0.507197
O O7 0.219315 0.444270 0.633390
O O8 0.532216 0.159136 0.635782
O O9 0.978742 0.599953 0.760339
O O10 0.881554 0.684509 0.624142
O O11 0.628657 0.937168 0.884604
O O12 0.435952 0.706551 0.992024
O O13 0.779199 0.200893 0.738489
O O14 0.637752 0.485077 0.856219
O O15 0.458347 0.309715 0.248561
O O16 0.971615 0.984802 0.507734
#
# Coordination Sequence:
#
# PCOD9115279 Si02
#       8
#     2   2   2   2   2   2   2   2
#     4  10  21  42  62  87 119 167 201 248 309 361
#     4  10  20  36  65  88 119 164 204 247 302 357
#     4  10  20  37  63  89 122 161 203 247 303 362
#     4  10  20  41  67  87 119 164 204 249 305 363
#     4  11  24  38  60  94 124 158 206 252 302 365
#     4  11  22  38  62  89 125 156 207 251 301 361
#     4  10  23  40  60  88 124 159 204 256 299 364
#     4   8  16  32  57  90 114 153 207 244 289 361
#
# _framework density 27.400133
#
# number of rings (size 3 to 8) (size 9 to 14) (size 15 to 20)
#    0.000    2.000    2.500    0.750    3.500    1.000 
#    2.250    0.000    2.750    0.000    0.000    0.000 
#    0.000    0.000    0.000    0.000    0.000    0.000 
#
# Total GULP energy -89198.986479 kJ/mol
# GULP energy per Si atom -5574.936655 kJ/mol
# Density = 2.733777 g / cm^3
# Si number density = 27.400133 Si / 1000 Ang^3
#
#
#
# Elastic Constant Matrix: (Units=GPa)
#
#
# Indices 1 2 3 4 5 6 
#
# 1 94.4209 29.4732 49.5483 0.0000 59.7584 0.0000
# 2 29.4732 99.8360 7.3872 0.0000 2.7307 0.0000
# 3 49.5483 7.3872 133.4221 0.0000 62.0395 0.0000
# 4 0.0000 0.0000 0.0000 39.3947 0.0000 6.9334
# 5 59.7584 2.7307 62.0395 0.0000 62.6873 0.0000
# 6 0.0000 0.0000 0.0000 6.9334 0.0000 25.0066
#
#
#
# Elastic Compliance Matrix: (Units=1/GPa)
#
#
# Indices 1 2 3 4 5 6 
#
# 1 0.034998 -0.009679 0.005291 0.000000 -0.038178 0.000000
# 2 -0.009679 0.012736 -0.002118 0.000000 0.010768 0.000000
# 3 0.005291 -0.002118 0.014727 0.000000 -0.019526 0.000000
# 4 0.000000 0.000000 0.000000 0.026686 0.000000 -0.007399
# 5 -0.038178 0.010768 -0.019526 0.000000 0.071201 0.000000
# 6 0.000000 0.000000 0.000000 -0.007399 0.000000 0.042041
#
#
# Mechanical properties :
#
#
# Convention : Reuss Voigt Hill
#
# Bulk Modulus (GPa) = 20.22284 55.61071 37.91677
# Shear Modulus (GPa) = 21.56245 41.50240 31.53243
#
# Velocity S-wave (km/s) = 2.80830 3.89611 3.39604
# Velocity P-wave (km/s) = 4.23226 6.37020 5.40793
#
# Compressibility (1/GPa) = 0.04944905
#
# Stress axis : x y z
#
# Youngs Moduli (GPa) = 28.57288 78.51709 67.90378
#
# Poissons Ratio (x) = 0.75999 -0.35927
# Poissons Ratio (y) = 0.27657 0.14379
# Poissons Ratio (z) = -0.15118 0.16627
#
# Static dielectric constant tensor:
#      x y z
#    x 2.162020 0.000000 -0.037100 
#    y 0.000000 2.212110 0.000000 
#    z -0.037100 0.000000 2.307760 
# 
# From -- ./inp_files/4171.got.cif
#   From: 2010.05.17/outbox.cif.g08.bks.cpg/sg4_3_cif.got.tgz:4171.got - 2010.06.03 18:43:04.
