data_PCOD9115875
_publ_section_title
;
Structure prediction by ZEFSAII (Michael W. Deem and Ramdas Pophale) SiO2 
 PCOD9115875
Probable space group: P 21
;
_chemical_formula_sum "Si O2"
_cell_formula_units_Z 16
_cell_length_a 14.310344
_cell_length_b 7.426041
_cell_length_c 19.869598
_cell_angle_alpha 90.000000
_cell_angle_beta 18.943361
_cell_angle_gamma 90.000000
_cell_volume 685.471786
_symmetry_space_group_name_H-M "P 21"
_symmetry_group_IT_number 4
_symmetry_cell_setting 'monoclinic'
loop_
_space_group_symop_operation_xyz
x,y,z
-x,1/2+y,-z
loop_
_atom_site_type_symbol
_atom_site_label
_atom_site_fract_x
_atom_site_fract_y
_atom_site_fract_z
Si Si1 0.456637 0.418280 0.812169
Si Si2 0.096501 0.058090 0.174233
Si Si3 0.040881 0.103659 0.062512
Si Si4 0.294639 0.689750 0.193055
Si Si5 0.925617 0.816188 0.552229
Si Si6 0.346199 0.755575 0.790913
Si Si7 0.111606 0.479437 0.555285
Si Si8 0.651853 0.163027 0.992081
O O1 0.779960 0.359662 0.610275
O O2 0.411368 0.584196 0.792780
O O3 0.316519 0.503529 0.975757
O O4 0.304774 0.244967 0.883734
O O5 0.930779 0.119263 0.355349
O O6 0.953884 0.102514 0.200286
O O7 0.413270 0.143603 0.968646
O O8 0.152852 0.841408 0.130793
O O9 0.805791 0.185196 0.172618
O O10 0.150746 0.909058 0.960966
O O11 0.285142 0.600261 0.126816
O O12 0.032787 0.667867 0.423384
O O13 0.212935 0.896312 0.230237
O O14 0.806643 0.965611 0.579392
O O15 0.672721 0.742599 0.771879
O O16 0.652360 0.849943 0.571934
#
# Coordination Sequence:
#
# PCOD9115875 Si02
#       8
#     2   2   2   2   2   2   2   2
#     4  12  23  42  71 103 137 184 232 293 355 424
#     4  11  21  42  66  96 144 184 229 292 352 424
#     4  12  25  45  74  99 133 189 244 295 363 408
#     4   9  21  39  63 103 141 181 225 280 356 427
#     4  10  21  37  66 104 139 181 228 280 355 434
#     4  12  25  46  71 103 137 183 245 304 345 428
#     4   9  21  42  66  97 146 178 232 291 346 432
#     4  11  23  37  67  99 145 184 219 287 364 411
#
# _framework density 23.341587000000001
#
# number of rings (size 3 to 8) (size 9 to 14) (size 15 to 20)
#    0.750    0.500    5.000    0.750    3.500    2.000 
#    0.000    3.750   11.000    0.000    0.000    0.000 
#    0.000    0.000    0.000    0.000    0.000    0.000 
#
# Total GULP energy -89140.583060 kJ/mol
# GULP energy per Si atom -5571.286441 kJ/mol
# Density = 2.328846 g / cm^3
# Si number density = 23.341587 Si / 1000 Ang^3
#
#
#
# Elastic Constant Matrix: (Units=GPa)
#
#
# Indices 1 2 3 4 5 6 
#
# 1 199.7566 42.1631 50.7940 0.0000 -6.3630 0.0000
# 2 42.1631 81.0870 15.3371 0.0000 -7.9648 0.0000
# 3 50.7940 15.3371 59.0065 0.0000 4.4821 0.0000
# 4 0.0000 0.0000 0.0000 29.2135 0.0000 -6.8727
# 5 -6.3630 -7.9648 4.4821 0.0000 41.3524 0.0000
# 6 0.0000 0.0000 0.0000 -6.8727 0.0000 45.2220
#
#
#
# Elastic Compliance Matrix: (Units=1/GPa)
#
#
# Indices 1 2 3 4 5 6 
#
# 1 0.006945 -0.002469 -0.005426 0.000000 0.001181 0.000000
# 2 -0.002469 0.014199 -0.001759 0.000000 0.002546 0.000000
# 3 -0.005426 -0.001759 0.022348 0.000000 -0.003596 0.000000
# 4 0.000000 0.000000 0.000000 0.035500 0.000000 0.005395
# 5 0.001181 0.002546 -0.003596 0.000000 0.025244 0.000000
# 6 0.000000 0.000000 0.000000 0.005395 0.000000 0.022933
#
#
# Mechanical properties :
#
#
# Convention : Reuss Voigt Hill
#
# Bulk Modulus (GPa) = 41.34860 61.82651 51.58756
# Shear Modulus (GPa) = 32.35454 38.59462 35.47458
#
# Velocity S-wave (km/s) = 3.72712 4.07070 3.90269
# Velocity P-wave (km/s) = 6.02287 6.97419 6.51591
#
# Compressibility (1/GPa) = 0.02418462
#
# Stress axis : x y z
#
# Youngs Moduli (GPa) = 143.99851 70.42854 44.74581
#
# Poissons Ratio (x) = 0.17386 0.24279
# Poissons Ratio (y) = 0.35548 0.07870
# Poissons Ratio (z) = 0.78134 0.12388
#
# Static dielectric constant tensor:
#      x y z
#    x 1.957230 0.000000 0.093660 
#    y 0.000000 2.073210 0.000000 
#    z 0.093660 0.000000 1.919550 
# 
# From -- ./inp_files/15803.got.cif
#   From: 2010.05.17/outbox.cif.g08.bks.cpg/sg4_8_cif.got.tgz:15803.got - 2010.06.03 18:43:04.
