data_PCOD9115203
_publ_section_title
;
Structure prediction by ZEFSAII (Michael W. Deem and Ramdas Pophale) SiO2 
 PCOD9115203
Probable space group: P 21
;
_chemical_formula_sum "Si O2"
_cell_formula_units_Z 16
_cell_length_a 6.017883
_cell_length_b 9.283712
_cell_length_c 12.738510
_cell_angle_alpha 90.000000
_cell_angle_beta 54.368591
_cell_angle_gamma 90.000000
_cell_volume 578.439384
_symmetry_space_group_name_H-M "P 21"
_symmetry_group_IT_number 4
_symmetry_cell_setting 'monoclinic'
loop_
_space_group_symop_operation_xyz
x,y,z
-x,1/2+y,-z
loop_
_atom_site_type_symbol
_atom_site_label
_atom_site_fract_x
_atom_site_fract_y
_atom_site_fract_z
Si Si1 0.990743 0.661110 0.277349
Si Si2 0.552196 0.941094 0.876578
Si Si3 0.043038 0.714022 0.717189
Si Si4 0.579699 0.878960 0.326515
Si Si5 0.368277 0.449553 0.916950
Si Si6 0.100648 0.727911 0.928633
Si Si7 0.521935 0.441185 0.415003
Si Si8 0.108119 0.638601 0.472400
O O1 0.298671 0.596010 0.185385
O O2 0.939766 0.675245 0.416409
O O3 0.880442 0.804913 0.252626
O O4 0.768065 0.541933 0.306681
O O5 0.319254 0.860269 0.873405
O O6 0.806858 0.832476 0.796595
O O7 0.458911 0.942174 0.024137
O O8 0.059837 0.647508 0.827982
O O9 0.980227 0.644564 0.622631
O O10 0.341009 0.787237 0.627943
O O11 0.512674 0.948772 0.232794
O O12 0.353136 0.754024 0.401847
O O13 0.546124 0.969059 0.443171
O O14 0.198354 0.598883 0.975824
O O15 0.177934 0.308556 0.969160
O O16 0.251858 0.481475 0.424668
#
# Coordination Sequence:
#
# PCOD9115203 Si02
#       8
#     2   2   2   2   2   2   2   2
#     4  10  21  38  62  92 124 166 212 256 316 379
#     4  10  23  41  63  88 122 165 209 259 314 370
#     4   9  20  37  58  90 119 157 205 248 310 375
#     4  10  22  38  59  91 128 164 210 264 312 370
#     4  11  25  43  65  95 124 167 220 261 314 377
#     4  11  24  44  67  89 127 167 212 269 315 373
#     4   9  19  36  57  87 125 163 201 253 315 371
#     4  10  20  35  61  90 125 163 203 254 310 375
#
# _framework density 27.660630999999999
#
# number of rings (size 3 to 8) (size 9 to 14) (size 15 to 20)
#    0.000    2.000    0.000    2.250    0.000   14.000 
#    0.000    0.000    0.000    0.000    0.000    0.000 
#    0.000    0.000    0.000    0.000    0.000    0.000 
#
# Total GULP energy -89434.919130 kJ/mol
# GULP energy per Si atom -5589.682446 kJ/mol
# Density = 2.759767 g / cm^3
# Si number density = 27.660631 Si / 1000 Ang^3
#
#
#
# Elastic Constant Matrix: (Units=GPa)
#
#
# Indices 1 2 3 4 5 6 
#
# 1 97.6257 35.6430 60.8254 0.0000 17.7910 0.0000
# 2 35.6430 90.5695 30.4093 0.0000 -12.1464 0.0000
# 3 60.8254 30.4093 106.6294 0.0000 22.1789 0.0000
# 4 0.0000 0.0000 0.0000 36.7933 0.0000 -3.8966
# 5 17.7910 -12.1464 22.1789 0.0000 51.7579 0.0000
# 6 0.0000 0.0000 0.0000 -3.8966 0.0000 51.5594
#
#
#
# Elastic Compliance Matrix: (Units=1/GPa)
#
#
# Indices 1 2 3 4 5 6 
#
# 1 0.017592 -0.004786 -0.007882 0.000000 -0.003793 0.000000
# 2 -0.004786 0.014696 -0.002767 0.000000 0.006280 0.000000
# 3 -0.007882 -0.002767 0.015628 0.000000 -0.004637 0.000000
# 4 0.000000 0.000000 0.000000 0.027398 0.000000 0.002071
# 5 -0.003793 0.006280 -0.004637 0.000000 0.024085 0.000000
# 6 0.000000 0.000000 0.000000 0.002071 0.000000 0.019552
#
#
# Mechanical properties :
#
#
# Convention : Reuss Voigt Hill
#
# Bulk Modulus (GPa) = 58.66143 60.95332 59.80738
# Shear Modulus (GPa) = 32.15387 39.21859 35.68623
#
# Velocity S-wave (km/s) = 3.41316 3.76952 3.59576
# Velocity P-wave (km/s) = 6.06518 6.40544 6.23763
#
# Compressibility (1/GPa) = 0.01704698
#
# Stress axis : x y z
#
# Youngs Moduli (GPa) = 56.84334 68.04604 63.98816
#
# Poissons Ratio (x) = 0.32565 0.50432
# Poissons Ratio (y) = 0.27203 0.17708
# Poissons Ratio (z) = 0.44801 0.18830
#
# Static dielectric constant tensor:
#      x y z
#    x 2.093440 0.000000 -0.000630 
#    y 0.000000 2.181520 0.000000 
#    z -0.000630 0.000000 2.192910 
# 
# From -- ./inp_files/10500.got.cif
#   From: 2010.05.17/outbox.cif.g08.bks.cpg/sg4_6_cif.got.tgz:10500.got - 2010.06.03 18:43:04.
