data_PCOD9115130
_publ_section_title
;
Structure prediction by ZEFSAII (Michael W. Deem and Ramdas Pophale) SiO2 
 PCOD9115130
Probable space group: P 21
;
_chemical_formula_sum "Si O2"
_cell_formula_units_Z 16
_cell_length_a 5.985125
_cell_length_b 7.963785
_cell_length_c 12.322048
_cell_angle_alpha 90.000000
_cell_angle_beta 75.737094
_cell_angle_gamma 90.000000
_cell_volume 569.217243
_symmetry_space_group_name_H-M "P 21"
_symmetry_group_IT_number 4
_symmetry_cell_setting 'monoclinic'
loop_
_space_group_symop_operation_xyz
x,y,z
-x,1/2+y,-z
loop_
_atom_site_type_symbol
_atom_site_label
_atom_site_fract_x
_atom_site_fract_y
_atom_site_fract_z
Si Si1 0.992768 0.960070 0.726193
Si Si2 0.537054 0.361712 0.448832
Si Si3 0.437071 0.940276 0.997264
Si Si4 0.777057 0.164816 0.584007
Si Si5 0.833841 0.244705 0.116892
Si Si6 0.242956 0.241087 0.907392
Si Si7 0.992917 0.439579 0.782822
Si Si8 0.799853 0.652868 0.627442
O O1 0.230350 0.937536 0.630515
O O2 0.074140 0.917607 0.837513
O O3 0.836584 0.800026 0.711394
O O4 0.847453 0.118203 0.698551
O O5 0.602315 0.307279 0.562758
O O6 0.339756 0.496112 0.450789
O O7 0.445063 0.194919 0.397279
O O8 0.427246 0.100716 0.919363
O O9 0.401496 0.788624 0.915278
O O10 0.220065 0.939117 0.106168
O O11 0.653109 0.907260 0.047239
O O12 0.013516 0.184341 0.489384
O O13 0.850388 0.101129 0.204019
O O14 0.016016 0.201357 0.002656
O O15 0.162357 0.285745 0.795794
O O16 0.880150 0.484020 0.680539
#
# Coordination Sequence:
#
# PCOD9115130 Si02
#       8
#     2   2   2   2   2   2   2   2
#     4   9  19  35  57  81 108 143 188 232 275 331
#     4  10  20  36  59  82 110 148 188 228 281 336
#     4  10  20  33  55  79 107 143 179 220 273 329
#     4  10  20  36  56  83 113 145 186 234 278 332
#     4   9  19  36  56  77 103 140 183 228 268 319
#     4  10  20  35  53  80 111 142 178 224 275 324
#     4   9  19  36  56  77 104 139 183 229 268 318
#     4   9  19  35  56  81 108 144 187 229 278 333
#
# _framework density 28.108775000000001
#
# number of rings (size 3 to 8) (size 9 to 14) (size 15 to 20)
#    0.000    2.500    0.000    1.500    0.000    8.000 
#    0.000    7.500    0.000    3.000    0.000    0.000 
#    0.000    0.000    0.000    0.000    0.000    0.000 
#
# Total GULP energy -89489.680469 kJ/mol
# GULP energy per Si atom -5593.105029 kJ/mol
# Density = 2.804480 g / cm^3
# Si number density = 28.108775 Si / 1000 Ang^3
#
#
#
# Elastic Constant Matrix: (Units=GPa)
#
#
# Indices 1 2 3 4 5 6 
#
# 1 142.1740 29.6334 50.9534 0.0000 41.0240 0.0000
# 2 29.6334 77.2396 -2.5130 0.0000 15.4773 0.0000
# 3 50.9534 -2.5130 76.1137 0.0000 20.5496 0.0000
# 4 0.0000 0.0000 0.0000 37.2160 0.0000 26.2745
# 5 41.0240 15.4773 20.5496 0.0000 85.6573 0.0000
# 6 0.0000 0.0000 0.0000 26.2745 0.0000 55.3358
#
#
#
# Elastic Compliance Matrix: (Units=1/GPa)
#
#
# Indices 1 2 3 4 5 6 
#
# 1 0.011140 -0.003892 -0.006774 0.000000 -0.003007 0.000000
# 2 -0.003892 0.014892 0.003550 0.000000 -0.001679 0.000000
# 3 -0.006774 0.003550 0.018271 0.000000 -0.001780 0.000000
# 4 0.000000 0.000000 0.000000 0.040420 0.000000 -0.019192
# 5 -0.003007 -0.001679 -0.001780 0.000000 0.013845 0.000000
# 6 0.000000 0.000000 0.000000 -0.019192 0.000000 0.027184
#
#
# Mechanical properties :
#
#
# Convention : Reuss Voigt Hill
#
# Bulk Modulus (GPa) = 33.25452 50.18609 41.72030
# Shear Modulus (GPa) = 33.33148 50.13871 41.73510
#
# Velocity S-wave (km/s) = 3.44729 4.22802 3.85745
# Velocity P-wave (km/s) = 5.26321 6.45971 5.89191
#
# Compressibility (1/GPa) = 0.03007110
#
# Stress axis : x y z
#
# Youngs Moduli (GPa) = 89.76353 67.15136 54.73093
#
# Poissons Ratio (x) = 0.26135 0.37077
# Poissons Ratio (y) = 0.34935 -0.19431
# Poissons Ratio (z) = 0.60810 -0.23840
#
# Static dielectric constant tensor:
#      x y z
#    x 2.092240 0.000000 0.070440 
#    y 0.000000 2.381180 0.000000 
#    z 0.070440 0.000000 2.086650 
# 
# From -- ./inp_files/13253.got.cif
#   From: 2010.05.17/outbox.cif.g08.bks.cpg/sg4_7_cif.got.tgz:13253.got - 2010.06.03 18:43:04.
