data_PCOD9115763
_publ_section_title
;
Structure prediction by ZEFSAII (Michael W. Deem and Ramdas Pophale) SiO2 
 PCOD9115763
Probable space group: P 21
;
_chemical_formula_sum "Si O2"
_cell_formula_units_Z 10
_cell_length_a 8.267740
_cell_length_b 7.685958
_cell_length_c 6.461765
_cell_angle_alpha 90.000000
_cell_angle_beta 76.645423
_cell_angle_gamma 90.000000
_cell_volume 399.512756
_symmetry_space_group_name_H-M "P 21"
_symmetry_group_IT_number 4
_symmetry_cell_setting 'monoclinic'
loop_
_space_group_symop_operation_xyz
x,y,z
-x,1/2+y,-z
loop_
_atom_site_type_symbol
_atom_site_label
_atom_site_fract_x
_atom_site_fract_y
_atom_site_fract_z
Si Si1 0.083670 0.987330 0.943233
Si Si2 0.842241 0.010888 0.371042
Si Si3 0.307666 0.165461 0.550725
Si Si4 0.755687 0.127058 0.997947
Si Si5 0.645957 0.291439 0.640209
O O1 0.218464 0.106582 0.792085
O O2 0.156861 0.796307 0.928583
O O3 0.912835 0.016576 0.866352
O O4 0.017028 0.013318 0.198218
O O5 0.798833 0.830310 0.494237
O O6 0.803694 0.180046 0.513798
O O7 0.710025 0.015776 0.212796
O O8 0.491442 0.233077 0.546845
O O9 0.318737 0.994613 0.403805
O O10 0.627176 0.208201 0.875594
#
# Coordination Sequence:
#
# PCOD9115763 Si02
#       5
#     2   2   2   2   2
#     4  10  20  46  67  96 139 178 235 294 327 426
#     4  10  22  47  65 101 138 179 236 288 336 431
#     4  12  23  46  70 102 146 178 233 298 339 425
#     4  10  23  44  70 102 134 189 235 285 360 407
#     4  12  26  43  70 103 143 186 229 289 362 415
#
# _framework density 25.030488999999999
#
# number of rings (size 3 to 8) (size 9 to 14) (size 15 to 20)
#    1.200    0.000    6.000    0.000    0.000    3.200 
#    7.200    0.000    0.000    0.000    0.000    0.000 
#    0.000    0.000    0.000    0.000    0.000    0.000 
#
# Total GULP energy -55726.495366 kJ/mol
# GULP energy per Si atom -5572.649537 kJ/mol
# Density = 2.497352 g / cm^3
# Si number density = 25.030489 Si / 1000 Ang^3
#
#
#
# Elastic Constant Matrix: (Units=GPa)
#
#
# Indices 1 2 3 4 5 6 
#
# 1 63.1990 17.6584 22.6145 0.0000 2.9666 0.0000
# 2 17.6584 126.8350 10.0771 0.0000 3.3280 0.0000
# 3 22.6145 10.0771 36.6149 0.0000 -6.2493 0.0000
# 4 0.0000 0.0000 0.0000 35.6697 0.0000 -2.1269
# 5 2.9666 3.3280 -6.2493 0.0000 39.4301 0.0000
# 6 0.0000 0.0000 0.0000 -2.1269 0.0000 30.8624
#
#
#
# Elastic Compliance Matrix: (Units=1/GPa)
#
#
# Indices 1 2 3 4 5 6 
#
# 1 0.021224 -0.001812 -0.013213 0.000000 -0.003538 0.000000
# 2 -0.001812 0.008259 -0.001284 0.000000 -0.000764 0.000000
# 3 -0.013213 -0.001284 0.037015 0.000000 0.006969 0.000000
# 4 0.000000 0.000000 0.000000 0.028151 0.000000 0.001940
# 5 -0.003538 -0.000764 0.006969 0.000000 0.026797 0.000000
# 6 0.000000 0.000000 0.000000 0.001940 0.000000 0.032536
#
#
# Mechanical properties :
#
#
# Convention : Reuss Voigt Hill
#
# Bulk Modulus (GPa) = 29.51772 36.37208 32.94490
# Shear Modulus (GPa) = 25.26624 32.94569 29.10597
#
# Velocity S-wave (km/s) = 3.18058 3.63191 3.41371
# Velocity P-wave (km/s) = 5.03055 5.67013 5.35989
#
# Compressibility (1/GPa) = 0.03387795
#
# Stress axis : x y z
#
# Youngs Moduli (GPa) = 47.11728 121.08548 27.01591
#
# Poissons Ratio (x) = 0.21943 0.35697
# Poissons Ratio (y) = 0.08538 0.03469
# Poissons Ratio (z) = 0.62258 0.15549
#
# Static dielectric constant tensor:
#      x y z
#    x 1.982310 0.000000 0.035390 
#    y 0.000000 2.005040 0.000000 
#    z 0.035390 0.000000 2.086970 
# 
# From -- ./inp_files/5321.got.cif
#   From: 2010.05.17/outbox.cif.g08.bks.cpg/sg4_3_cif.got.tgz:5321.got - 2010.06.03 18:43:04.
