data_PCOD9115730
_publ_section_title
;
Structure prediction by ZEFSAII (Michael W. Deem and Ramdas Pophale) SiO2 
 PCOD9115730
Probable space group: P 21
;
_chemical_formula_sum "Si O2"
_cell_formula_units_Z 12
_cell_length_a 8.343299
_cell_length_b 7.628463
_cell_length_c 13.516437
_cell_angle_alpha 90.000000
_cell_angle_beta 148.794716
_cell_angle_gamma 90.000000
_cell_volume 445.713314
_symmetry_space_group_name_H-M "P 21"
_symmetry_group_IT_number 4
_symmetry_cell_setting 'monoclinic'
loop_
_space_group_symop_operation_xyz
x,y,z
-x,1/2+y,-z
loop_
_atom_site_type_symbol
_atom_site_label
_atom_site_fract_x
_atom_site_fract_y
_atom_site_fract_z
Si Si1 0.056314 0.500000 0.476662
Si Si2 0.389359 0.625420 0.055147
Si Si3 0.641029 0.686292 0.457029
Si Si4 0.986296 0.807079 0.112123
Si Si5 0.646077 0.284864 0.500705
Si Si6 0.500423 0.518811 0.885838
O O1 0.093659 0.307428 0.448835
O O2 0.280929 0.632455 0.536583
O O3 0.193943 0.489896 0.658855
O O4 0.606498 0.477465 0.436419
O O5 0.712683 0.571944 0.278872
O O6 0.332412 0.831339 0.026399
O O7 0.131100 0.501784 0.966758
O O8 0.425585 0.571414 0.958818
O O9 0.626055 0.734046 0.566561
O O10 0.319031 0.763045 0.242531
O O11 0.063566 0.789925 0.270404
O O12 0.717683 0.667402 0.953010
#
# Coordination Sequence:
#
# PCOD9115730 Si02
#       6
#     2   2   2   2   2   2
#     4  12  27  46  74 112 138 191 246 293 359 436
#     4  12  26  48  75 100 151 189 234 308 360 418
#     4  10  22  45  76 107 142 189 233 295 367 421
#     4  10  24  47  73 104 142 194 232 294 366 424
#     4  10  20  43  77 103 140 191 226 293 363 415
#     4  12  27  45  71 108 143 190 243 293 359 428
#
# _framework density 26.923136
#
# number of rings (size 3 to 8) (size 9 to 14) (size 15 to 20)
#    1.000    0.000    5.000    0.000    4.667    4.000 
#    6.000    0.000    0.000    0.000    0.000    0.000 
#    0.000    0.000    0.000    0.000    0.000    0.000 
#
# Total GULP energy -67331.899983 kJ/mol
# GULP energy per Si atom -5610.991665 kJ/mol
# Density = 2.686186 g / cm^3
# Si number density = 26.923136 Si / 1000 Ang^3
#
#
#
# Elastic Constant Matrix: (Units=GPa)
#
#
# Indices 1 2 3 4 5 6 
#
# 1 64.5960 24.7661 7.8548 0.0000 -10.1675 0.0000
# 2 24.7661 188.5848 -19.4298 0.0000 -8.0144 0.0000
# 3 7.8548 -19.4298 92.3662 0.0000 -30.4257 0.0000
# 4 0.0000 0.0000 0.0000 50.0356 0.0000 6.6598
# 5 -10.1675 -8.0144 -30.4257 0.0000 43.2108 0.0000
# 6 0.0000 0.0000 0.0000 6.6598 0.0000 38.3470
#
#
#
# Elastic Compliance Matrix: (Units=1/GPa)
#
#
# Indices 1 2 3 4 5 6 
#
# 1 0.016893 -0.002192 -0.000940 0.000000 0.002906 0.000000
# 2 -0.002192 0.005895 0.002105 0.000000 0.002060 0.000000
# 3 -0.000940 0.002105 0.014849 0.000000 0.010625 0.000000
# 4 0.000000 0.000000 0.000000 0.020459 0.000000 -0.003553
# 5 0.002906 0.002060 0.010625 0.000000 0.031689 0.000000
# 6 0.000000 0.000000 0.000000 -0.003553 0.000000 0.026695
#
#
# Mechanical properties :
#
#
# Convention : Reuss Voigt Hill
#
# Bulk Modulus (GPa) = 28.10384 41.32549 34.71466
# Shear Modulus (GPa) = 38.34502 48.47573 43.41038
#
# Velocity S-wave (km/s) = 3.77801 4.24786 4.01980
# Velocity P-wave (km/s) = 5.43068 6.28027 5.87087
#
# Compressibility (1/GPa) = 0.03558233
#
# Stress axis : x y z
#
# Youngs Moduli (GPa) = 59.19618 169.63814 67.34451
#
# Poissons Ratio (x) = 0.37182 0.06333
# Poissons Ratio (y) = 0.12975 -0.14175
# Poissons Ratio (z) = 0.05566 -0.35707
#
# Static dielectric constant tensor:
#      x y z
#    x 2.159150 0.000000 0.000840 
#    y 0.000000 2.040090 0.000000 
#    z 0.000840 0.000000 2.075510 
# 
# From -- ./inp_files/13689.got.cif
#   From: 2010.05.17/outbox.cif.g08.bks.cpg/sg4_7_cif.got.tgz:13689.got - 2010.06.03 18:43:04.
