data_PCOD9115942
_publ_section_title
;
Structure prediction by ZEFSAII (Michael W. Deem and Ramdas Pophale) SiO2 
 PCOD9115942
Probable space group: P 21
;
_chemical_formula_sum "Si O2"
_cell_formula_units_Z 16
_cell_length_a 7.793466
_cell_length_b 16.730373
_cell_length_c 9.400635
_cell_angle_alpha 90.000000
_cell_angle_beta 148.198688
_cell_angle_gamma 90.000000
_cell_volume 645.927364
_symmetry_space_group_name_H-M "P 21"
_symmetry_group_IT_number 4
_symmetry_cell_setting 'monoclinic'
loop_
_space_group_symop_operation_xyz
x,y,z
-x,1/2+y,-z
loop_
_atom_site_type_symbol
_atom_site_label
_atom_site_fract_x
_atom_site_fract_y
_atom_site_fract_z
Si Si1 0.895720 0.728910 0.426923
Si Si2 0.992512 0.054354 0.423361
Si Si3 0.040499 0.940775 0.862671
Si Si4 0.481574 0.537450 0.637370
Si Si5 0.650081 0.704034 0.650817
Si Si6 0.512904 0.952471 0.921529
Si Si7 0.724676 0.278250 0.869122
Si Si8 0.372292 0.274970 0.048410
O O1 0.854501 0.642128 0.468674
O O2 0.285282 0.936631 0.900017
O O3 0.245904 0.761805 0.714736
O O4 0.842279 0.728275 0.219198
O O5 0.767357 0.056750 0.408217
O O6 0.265916 0.986784 0.631785
O O7 0.757537 0.023730 0.134579
O O8 0.610543 0.785736 0.280583
O O9 0.683685 0.962759 0.557955
O O10 0.079871 0.860163 0.977547
O O11 0.178384 0.012871 0.054152
O O12 0.531164 0.613518 0.574193
O O13 0.407551 0.752620 0.378066
O O14 0.658136 0.738284 0.817039
O O15 0.033280 0.714569 0.885985
O O16 0.684741 0.869816 0.002140
#
# Coordination Sequence:
#
# PCOD9115942 Si02
#       8
#     2   2   2   2   2   2   2   2
#     4  12  24  42  71 102 136 177 232 282 343 402
#     4  10  21  38  65 102 131 166 227 290 333 388
#     4  10  21  40  67  97 129 176 230 276 329 408
#     4  10  21  40  67  97 129 176 230 276 329 408
#     4  12  26  44  67 105 144 181 225 282 347 412
#     4  10  21  38  65 102 131 166 227 290 333 388
#     4  12  26  44  67 105 144 181 225 282 347 412
#     4  12  24  42  71 102 136 177 232 282 343 402
#
# _framework density 24.770588
#
# number of rings (size 3 to 8) (size 9 to 14) (size 15 to 20)
#    0.000    1.000    2.500    4.500    7.000    0.000 
#    0.000    5.000    0.000    0.000    0.000    0.000 
#    0.000    0.000    0.000    0.000    0.000    0.000 
#
# Total GULP energy -89637.085645 kJ/mol
# GULP energy per Si atom -5602.317853 kJ/mol
# Density = 2.471421 g / cm^3
# Si number density = 24.770588 Si / 1000 Ang^3
#
#
#
# Elastic Constant Matrix: (Units=GPa)
#
#
# Indices 1 2 3 4 5 6 
#
# 1 42.5111 -3.3820 10.9216 0.0000 -9.8728 0.0000
# 2 -3.3820 76.2075 11.3348 0.0000 -7.0887 0.0000
# 3 10.9216 11.3348 119.8795 0.0000 -6.2906 0.0000
# 4 0.0000 0.0000 0.0000 48.4888 0.0000 0.1565
# 5 -9.8728 -7.0887 -6.2906 0.0000 33.4672 0.0000
# 6 0.0000 0.0000 0.0000 0.1565 0.0000 29.3058
#
#
#
# Elastic Compliance Matrix: (Units=1/GPa)
#
#
# Indices 1 2 3 4 5 6 
#
# 1 0.026056 0.002200 -0.002175 0.000000 0.007744 0.000000
# 2 0.002200 0.013724 -0.001325 0.000000 0.003307 0.000000
# 3 -0.002175 -0.001325 0.008703 0.000000 0.000713 0.000000
# 4 0.000000 0.000000 0.000000 0.020624 0.000000 -0.000110
# 5 0.007744 0.003307 0.000713 0.000000 0.032999 0.000000
# 6 0.000000 0.000000 0.000000 -0.000110 0.000000 0.034124
#
#
# Mechanical properties :
#
#
# Convention : Reuss Voigt Hill
#
# Bulk Modulus (GPa) = 21.79467 30.70520 26.24993
# Shear Modulus (GPa) = 32.44170 36.90062 34.67116
#
# Velocity S-wave (km/s) = 3.62289 3.86384 3.74530
# Velocity P-wave (km/s) = 5.13012 5.68581 5.41510
#
# Compressibility (1/GPa) = 0.04588278
#
# Stress axis : x y z
#
# Youngs Moduli (GPa) = 38.37946 72.86334 114.90845
#
# Poissons Ratio (x) = -0.16031 0.24998
# Poissons Ratio (y) = -0.08444 0.15220
# Poissons Ratio (z) = 0.08349 0.09651
#
# Static dielectric constant tensor:
#      x y z
#    x 2.084480 0.000000 0.000800 
#    y 0.000000 1.927360 0.000000 
#    z 0.000800 0.000000 1.880640 
# 
# From -- ./inp_files/14241.got.cif
#   From: 2010.05.17/outbox.cif.g08.bks.cpg/sg4_8_cif.got.tgz:14241.got - 2010.06.03 18:43:04.
