data_PCOD9115747
_publ_section_title
;
Structure prediction by ZEFSAII (Michael W. Deem and Ramdas Pophale) SiO2 
 PCOD9115747
Probable space group: P 21
;
_chemical_formula_sum "Si O2"
_cell_formula_units_Z 16
_cell_length_a 18.853142
_cell_length_b 6.549436
_cell_length_c 13.031814
_cell_angle_alpha 90.000000
_cell_angle_beta 156.959428
_cell_angle_gamma 90.000000
_cell_volume 629.787896
_symmetry_space_group_name_H-M "P 21"
_symmetry_group_IT_number 4
_symmetry_cell_setting 'monoclinic'
loop_
_space_group_symop_operation_xyz
x,y,z
-x,1/2+y,-z
loop_
_atom_site_type_symbol
_atom_site_label
_atom_site_fract_x
_atom_site_fract_y
_atom_site_fract_z
Si Si1 0.934288 0.638610 0.072018
Si Si2 0.325235 0.121945 0.433559
Si Si3 0.517616 0.742653 0.769710
Si Si4 0.765464 0.840552 0.488131
Si Si5 0.209041 0.613337 0.835104
Si Si6 0.637304 0.387718 0.786489
Si Si7 0.591334 0.410935 0.048760
Si Si8 0.933166 0.488332 0.610192
O O1 0.132562 0.543451 0.343416
O O2 0.946461 0.819911 0.171786
O O3 0.867945 0.689904 0.869988
O O4 0.774743 0.474239 0.885127
O O5 0.345666 0.251628 0.564959
O O6 0.481869 0.214557 0.566443
O O7 0.352408 0.891180 0.511407
O O8 0.546428 0.586681 0.714887
O O9 0.550944 0.597482 0.914538
O O10 0.672530 0.913841 0.986578
O O11 0.923225 0.687163 0.666866
O O12 0.616293 0.860699 0.200590
O O13 0.291697 0.726634 0.847414
O O14 0.005356 0.538835 0.591002
O O15 0.239581 0.782019 0.963296
O O16 0.719452 0.443273 0.316367
#
# Coordination Sequence:
#
# PCOD9115747 Si02
#       8
#     2   2   2   2   2   2   2   2
#     4  12  29  44  72 107 149 186 239 302 359 425
#     4  11  27  46  75 103 140 197 238 294 361 426
#     4  10  20  44  74  96 140 180 242 286 358 408
#     4  12  28  48  64 106 152 188 240 284 354 450
#     4  10  21  45  69 106 139 178 244 297 351 419
#     4  10  21  45  69 106 139 178 244 297 351 419
#     4  11  27  46  75 103 140 197 238 294 361 426
#     4  12  29  44  72 107 149 186 239 302 359 425
#
# _framework density 25.405379
#
# number of rings (size 3 to 8) (size 9 to 14) (size 15 to 20)
#    0.000    1.000    6.250    0.000    8.750    2.000 
#    0.000    0.000    0.000    0.000    0.000    0.000 
#    0.000    0.000    0.000    0.000    0.000    0.000 
#
# Total GULP energy -89207.123944 kJ/mol
# GULP energy per Si atom -5575.445247 kJ/mol
# Density = 2.534756 g / cm^3
# Si number density = 25.405379 Si / 1000 Ang^3
#
#
#
# Elastic Constant Matrix: (Units=GPa)
#
#
# Indices 1 2 3 4 5 6 
#
# 1 40.5830 26.4218 8.3500 0.0000 -2.7207 0.0000
# 2 26.4218 122.6814 36.6956 0.0000 2.4511 0.0000
# 3 8.3500 36.6956 126.0202 0.0000 -10.8438 0.0000
# 4 0.0000 0.0000 0.0000 29.0614 0.0000 2.5884
# 5 -2.7207 2.4511 -10.8438 0.0000 32.6450 0.0000
# 6 0.0000 0.0000 0.0000 2.5884 0.0000 35.3288
#
#
#
# Elastic Compliance Matrix: (Units=1/GPa)
#
#
# Indices 1 2 3 4 5 6 
#
# 1 0.028932 -0.006345 0.000184 0.000000 0.002949 0.000000
# 2 -0.006345 0.010400 -0.002801 0.000000 -0.002240 0.000000
# 3 0.000184 -0.002801 0.009016 0.000000 0.003220 0.000000
# 4 0.000000 0.000000 0.000000 0.034636 0.000000 -0.002538
# 5 0.002949 -0.002240 0.003220 0.000000 0.032116 0.000000
# 6 0.000000 0.000000 0.000000 -0.002538 0.000000 0.028491
#
#
# Mechanical properties :
#
#
# Convention : Reuss Voigt Hill
#
# Bulk Modulus (GPa) = 32.86813 48.02441 40.44627
# Shear Modulus (GPa) = 29.12809 33.92818 31.52814
#
# Velocity S-wave (km/s) = 3.38972 3.65838 3.52661
# Velocity P-wave (km/s) = 5.31844 6.06541 5.70417
#
# Compressibility (1/GPa) = 0.03042461
#
# Stress axis : x y z
#
# Youngs Moduli (GPa) = 34.56428 96.15184 110.91784
#
# Poissons Ratio (x) = 0.61009 -0.02045
# Poissons Ratio (y) = 0.21931 0.31065
# Poissons Ratio (z) = -0.00637 0.26930
#
# Static dielectric constant tensor:
#      x y z
#    x 2.045550 0.000000 0.049550 
#    y 0.000000 2.094330 0.000000 
#    z 0.049550 0.000000 2.012840 
# 
# From -- ./inp_files/14448.got.cif
#   From: 2010.05.17/outbox.cif.g08.bks.cpg/sg4_8_cif.got.tgz:14448.got - 2010.06.03 18:43:04.
