data_PCOD9115227
_publ_section_title
;
Structure prediction by ZEFSAII (Michael W. Deem and Ramdas Pophale) SiO2 
 PCOD9115227
Probable space group: P 21
;
_chemical_formula_sum "Si O2"
_cell_formula_units_Z 14
_cell_length_a 8.480361
_cell_length_b 8.252234
_cell_length_c 11.855326
_cell_angle_alpha 90.000000
_cell_angle_beta 36.115220
_cell_angle_gamma 90.000000
_cell_volume 489.009831
_symmetry_space_group_name_H-M "P 21"
_symmetry_group_IT_number 4
_symmetry_cell_setting 'monoclinic'
loop_
_space_group_symop_operation_xyz
x,y,z
-x,1/2+y,-z
loop_
_atom_site_type_symbol
_atom_site_label
_atom_site_fract_x
_atom_site_fract_y
_atom_site_fract_z
Si Si1 0.702582 0.546120 0.919685
Si Si2 0.759147 0.773606 0.229027
Si Si3 0.197921 0.620300 0.082534
Si Si4 0.594408 0.047310 0.687135
Si Si5 0.085202 0.792230 0.801999
Si Si6 0.512557 0.598962 0.664089
Si Si7 0.125501 0.888193 0.407354
O O1 0.959999 0.656927 0.791641
O O2 0.745542 0.438258 0.785606
O O3 0.429977 0.637070 0.038342
O O4 0.612617 0.492418 0.095895
O O5 0.584196 0.610461 0.313671
O O6 0.596442 0.936761 0.333329
O O7 0.971270 0.756002 0.205803
O O8 0.917682 0.784266 0.017119
O O9 0.023195 0.456669 0.190724
O O10 0.345318 0.614874 0.876978
O O11 0.751646 0.217700 0.623527
O O12 0.810842 0.904518 0.565073
O O13 0.389802 0.744778 0.659077
O O14 0.794849 0.530874 0.548702
#
# Coordination Sequence:
#
# PCOD9115227 Si02
#       7
#     2   2   2   2   2   2   2
#     4  10  20  36  58  84 116 150 188 234 284 342
#     4   8  16  32  52  77 111 146 182 229 285 339
#     4   9  17  30  52  81 109 143 188 232 279 337
#     4  10  22  39  60  87 117 152 194 239 289 345
#     4   9  17  30  52  81 109 143 188 232 279 337
#     4   8  16  32  52  77 111 146 182 229 285 339
#     4  10  22  39  60  87 117 152 194 239 289 345
#
# _framework density 28.629282
#
# number of rings (size 3 to 8) (size 9 to 14) (size 15 to 20)
#    0.000    2.857    0.000    2.571    0.000    5.714 
#    0.000   10.000    0.000    0.000    0.000    0.000 
#    0.000    0.000    0.000    0.000    0.000    0.000 
#
# Total GULP energy -78348.962215 kJ/mol
# GULP energy per Si atom -5596.354444 kJ/mol
# Density = 2.856412 g / cm^3
# Si number density = 28.629282 Si / 1000 Ang^3
#
#
#
# Elastic Constant Matrix: (Units=GPa)
#
#
# Indices 1 2 3 4 5 6 
#
# 1 174.9137 25.8558 22.9322 0.0000 -25.2894 0.0000
# 2 25.8558 85.7321 13.8430 0.0000 13.8170 0.0000
# 3 22.9322 13.8430 96.1208 0.0000 2.7242 0.0000
# 4 0.0000 0.0000 0.0000 28.8935 0.0000 -6.8286
# 5 -25.2894 13.8170 2.7242 0.0000 40.8193 0.0000
# 6 0.0000 0.0000 0.0000 -6.8286 0.0000 28.2641
#
#
#
# Elastic Compliance Matrix: (Units=1/GPa)
#
#
# Indices 1 2 3 4 5 6 
#
# 1 0.007106 -0.002786 -0.001448 0.000000 0.005442 0.000000
# 2 -0.002786 0.013700 -0.001130 0.000000 -0.006288 0.000000
# 3 -0.001448 -0.001130 0.010947 0.000000 -0.001245 0.000000
# 4 0.000000 0.000000 0.000000 0.036706 0.000000 0.008868
# 5 0.005442 -0.006288 -0.001245 0.000000 0.030081 0.000000
# 6 0.000000 0.000000 0.000000 0.008868 0.000000 0.037523
#
#
# Mechanical properties :
#
#
# Convention : Reuss Voigt Hill
#
# Bulk Modulus (GPa) = 47.56449 53.55875 50.56162
# Shear Modulus (GPa) = 32.50962 39.20441 35.85702
#
# Velocity S-wave (km/s) = 3.37343 3.70453 3.54285
# Velocity P-wave (km/s) = 5.64122 6.08657 5.86812
#
# Compressibility (1/GPa) = 0.02102409
#
# Stress axis : x y z
#
# Youngs Moduli (GPa) = 140.73311 72.99030 91.34802
#
# Poissons Ratio (x) = 0.20337 0.13229
# Poissons Ratio (y) = 0.39211 0.10324
# Poissons Ratio (z) = 0.20381 0.08249
#
# Static dielectric constant tensor:
#      x y z
#    x 2.225290 0.000000 -0.041990 
#    y 0.000000 2.340980 0.000000 
#    z -0.041990 0.000000 2.208040 
# 
# From -- ./inp_files/5464.got.cif
#   From: 2010.05.17/outbox.cif.g08.bks.cpg/sg4_3_cif.got.tgz:5464.got - 2010.06.03 18:43:04.
