data_PCOD9115492
_publ_section_title
;
Structure prediction by ZEFSAII (Michael W. Deem and Ramdas Pophale) SiO2 
 PCOD9115492
Probable space group: P 21
;
_chemical_formula_sum "Si O2"
_cell_formula_units_Z 14
_cell_length_a 8.878117
_cell_length_b 8.971906
_cell_length_c 7.250871
_cell_angle_alpha 90.000000
_cell_angle_beta 117.758426
_cell_angle_gamma 90.000000
_cell_volume 511.092318
_symmetry_space_group_name_H-M "P 21"
_symmetry_group_IT_number 4
_symmetry_cell_setting 'monoclinic'
loop_
_space_group_symop_operation_xyz
x,y,z
-x,1/2+y,-z
loop_
_atom_site_type_symbol
_atom_site_label
_atom_site_fract_x
_atom_site_fract_y
_atom_site_fract_z
Si Si1 0.526636 0.186850 0.942992
Si Si2 0.816790 0.581700 0.394762
Si Si3 0.200009 0.448452 0.995809
Si Si4 0.674383 0.701266 0.671277
Si Si5 0.654311 0.981693 0.289841
Si Si6 0.111405 0.593528 0.271050
Si Si7 0.317916 0.867719 0.401682
O O1 0.343648 0.116024 0.821744
O O2 0.485053 0.354829 0.852890
O O3 0.648869 0.074526 0.895374
O O4 0.596849 0.145908 0.184316
O O5 0.799600 0.693469 0.561795
O O6 0.768414 0.424129 0.457433
O O7 0.975381 0.597022 0.354701
O O8 0.251961 0.293105 0.116648
O O9 0.057588 0.512115 0.051540
O O10 0.191434 0.442624 0.770665
O O11 0.648315 0.524277 0.682399
O O12 0.495661 0.779566 0.517193
O O13 0.732893 0.005968 0.536646
O O14 0.174987 0.756088 0.248905
#
# Coordination Sequence:
#
# PCOD9115492 Si02
#       7
#     2   2   2   2   2   2   2
#     4  10  22  47  68 106 143 184 257 299 368 436
#     4  10  24  39  73 102 142 190 242 302 370 436
#     4  10  23  45  71 103 141 192 245 301 368 444
#     4  10  20  39  66 104 136 178 256 292 348 438
#     4  10  26  45  73 105 146 194 243 320 363 445
#     4  12  25  44  75 101 153 193 240 304 389 443
#     4  10  22  37  68 107 135 189 247 294 370 434
#
# _framework density 27.392310999999999
#
# number of rings (size 3 to 8) (size 9 to 14) (size 15 to 20)
#    1.714    0.000    1.429    2.571    8.000    1.143 
#    0.000    1.429    3.143    0.000    0.000    0.000 
#    0.000    0.000    0.000    0.000    0.000    0.000 
#
# Total GULP energy -78165.503047 kJ/mol
# GULP energy per Si atom -5583.250218 kJ/mol
# Density = 2.732997 g / cm^3
# Si number density = 27.392311 Si / 1000 Ang^3
#
#
#
# Elastic Constant Matrix: (Units=GPa)
#
#
# Indices 1 2 3 4 5 6 
#
# 1 118.7800 56.7197 11.1812 0.0000 -24.3633 0.0000
# 2 56.7197 188.2250 34.9588 0.0000 -14.2879 0.0000
# 3 11.1812 34.9588 94.5007 0.0000 -27.4166 0.0000
# 4 0.0000 0.0000 0.0000 54.0032 0.0000 -13.7771
# 5 -24.3633 -14.2879 -27.4166 0.0000 40.5795 0.0000
# 6 0.0000 0.0000 0.0000 -13.7771 0.0000 39.2413
#
#
#
# Elastic Compliance Matrix: (Units=1/GPa)
#
#
# Indices 1 2 3 4 5 6 
#
# 1 0.011168 -0.003189 0.001838 0.000000 0.006824 0.000000
# 2 -0.003189 0.006632 -0.002431 0.000000 -0.001221 0.000000
# 3 0.001838 -0.002431 0.014099 0.000000 0.009773 0.000000
# 4 0.000000 0.000000 0.000000 0.020339 0.000000 0.007141
# 5 0.006824 -0.001221 0.009773 0.000000 0.034913 0.000000
# 6 0.000000 0.000000 0.000000 0.007141 0.000000 0.027990
#
#
# Mechanical properties :
#
#
# Convention : Reuss Voigt Hill
#
# Bulk Modulus (GPa) = 41.08924 67.46945 54.27935
# Shear Modulus (GPa) = 38.22103 46.67453 42.44778
#
# Velocity S-wave (km/s) = 3.73945 4.13234 3.94080
# Velocity P-wave (km/s) = 5.80323 6.88859 6.36907
#
# Compressibility (1/GPa) = 0.02433727
#
# Stress axis : x y z
#
# Youngs Moduli (GPa) = 89.53832 150.77425 70.92649
#
# Poissons Ratio (x) = 0.48080 -0.13037
# Poissons Ratio (y) = 0.28552 0.17240
# Poissons Ratio (z) = -0.16458 0.36647
#
# Static dielectric constant tensor:
#      x y z
#    x 2.286500 0.000000 -0.123760 
#    y 0.000000 2.238010 0.000000 
#    z -0.123760 0.000000 2.182840 
# 
# From -- ./inp_files/6139.got.cif
#   From: 2010.05.17/outbox.cif.g08.bks.cpg/sg4_4_cif.got.tgz:6139.got - 2010.06.03 18:43:04.
