data_PCOD9115573
_publ_section_title
;
Structure prediction by ZEFSAII (Michael W. Deem and Ramdas Pophale) SiO2 
 PCOD9115573
Probable space group: P 21
;
_chemical_formula_sum "Si O2"
_cell_formula_units_Z 14
_cell_length_a 30.340831
_cell_length_b 5.040974
_cell_length_c 23.880382
_cell_angle_alpha 90.000000
_cell_angle_beta 169.639635
_cell_angle_gamma 90.000000
_cell_volume 656.850245
_symmetry_space_group_name_H-M "P 21"
_symmetry_group_IT_number 4
_symmetry_cell_setting 'monoclinic'
loop_
_space_group_symop_operation_xyz
x,y,z
-x,1/2+y,-z
loop_
_atom_site_type_symbol
_atom_site_label
_atom_site_fract_x
_atom_site_fract_y
_atom_site_fract_z
Si Si1 0.167109 0.144610 0.713324
Si Si2 0.329075 0.600675 0.410089
Si Si3 0.080443 0.956674 0.191825
Si Si4 0.453259 0.721381 0.239034
Si Si5 0.631494 0.392764 0.143809
Si Si6 0.813573 0.730853 0.139990
Si Si7 0.381791 0.349845 0.322742
O O1 0.280085 0.245081 0.912636
O O2 0.014748 0.397079 0.499721
O O3 0.340487 0.023903 0.882597
O O4 0.445523 0.322820 0.574813
O O5 0.535838 0.763528 0.635707
O O6 0.220919 0.733461 0.331011
O O7 0.108350 0.577983 0.089810
O O8 0.291363 0.159277 0.473987
O O9 0.906367 0.860494 0.023982
O O10 0.298497 0.457055 0.038821
O O11 0.280973 0.952038 0.000534
O O12 0.897344 0.282838 0.494034
O O13 0.543933 0.638015 0.072592
O O14 0.503203 0.627461 0.492201
#
# Coordination Sequence:
#
# PCOD9115573 Si02
#       7
#     2   2   2   2   2   2   2
#     4  10  20  40  68  94 123 167 214 255 314 406
#     4  11  22  41  68  93 130 181 238 282 333 393
#     4  11  22  41  68  93 128 182 241 278 331 406
#     4  12  24  39  65  92 134 176 221 279 339 386
#     4  11  22  41  71 100 129 168 217 269 322 403
#     4  11  24  42  64  98 133 171 214 267 337 395
#     4  10  24  38  64  96 123 159 233 304 330 381
#
# _framework density 21.313839999999999
#
# number of rings (size 3 to 8) (size 9 to 14) (size 15 to 20)
#    0.000    1.143    2.857    5.143    4.000    0.000 
#    0.000    4.286    3.143    0.000    0.000    0.000 
#    0.000    0.000    0.000    0.000    0.000    0.000 
#
# Total GULP energy -78169.602071 kJ/mol
# GULP energy per Si atom -5583.543005 kJ/mol
# Density = 2.126533 g / cm^3
# Si number density = 21.313840 Si / 1000 Ang^3
#
#
#
# Elastic Constant Matrix: (Units=GPa)
#
#
# Indices 1 2 3 4 5 6 
#
# 1 59.7454 31.3647 41.6511 0.0000 16.7172 0.0000
# 2 31.3647 105.9766 32.2051 0.0000 6.2352 0.0000
# 3 41.6511 32.2051 77.0659 0.0000 13.7073 0.0000
# 4 0.0000 0.0000 0.0000 44.2142 0.0000 4.4109
# 5 16.7172 6.2352 13.7073 0.0000 33.4254 0.0000
# 6 0.0000 0.0000 0.0000 4.4109 0.0000 38.5572
#
#
#
# Elastic Compliance Matrix: (Units=1/GPa)
#
#
# Indices 1 2 3 4 5 6 
#
# 1 0.030886 -0.004610 -0.013129 0.000000 -0.009203 0.000000
# 2 -0.004610 0.011498 -0.002526 0.000000 0.001197 0.000000
# 3 -0.013129 -0.002526 0.021439 0.000000 -0.001754 0.000000
# 4 0.000000 0.000000 0.000000 0.022878 0.000000 -0.002617
# 5 -0.009203 0.001197 -0.001754 0.000000 0.035016 0.000000
# 6 0.000000 0.000000 0.000000 -0.002617 0.000000 0.026235
#
#
# Mechanical properties :
#
#
# Convention : Reuss Voigt Hill
#
# Bulk Modulus (GPa) = 42.93236 50.35886 46.64561
# Shear Modulus (GPa) = 25.47817 32.41049 28.94433
#
# Velocity S-wave (km/s) = 3.46118 3.90376 3.68911
# Velocity P-wave (km/s) = 6.01329 6.63308 6.33077
#
# Compressibility (1/GPa) = 0.02329245
#
# Stress axis : x y z
#
# Youngs Moduli (GPa) = 32.37760 86.97472 46.64288
#
# Poissons Ratio (x) = 0.40092 0.61239
# Poissons Ratio (y) = 0.14925 0.11783
# Poissons Ratio (z) = 0.42509 0.21972
#
# Static dielectric constant tensor:
#      x y z
#    x 1.795940 0.000000 0.009490 
#    y 0.000000 1.815690 0.000000 
#    z 0.009490 0.000000 1.787850 
# 
# From -- ./inp_files/16260.got.cif
#   From: 2010.05.17/outbox.cif.g08.bks.cpg/sg4_9_cif.got.tgz:16260.got - 2010.06.03 18:43:04.
