data_PCOD9115482
_publ_section_title
;
Structure prediction by ZEFSAII (Michael W. Deem and Ramdas Pophale) SiO2 
 PCOD9115482
Probable space group: P 21
;
_chemical_formula_sum "Si O2"
_cell_formula_units_Z 16
_cell_length_a 14.439667
_cell_length_b 5.298183
_cell_length_c 21.194048
_cell_angle_alpha 90.000000
_cell_angle_beta 157.887333
_cell_angle_gamma 90.000000
_cell_volume 610.353200
_symmetry_space_group_name_H-M "P 21"
_symmetry_group_IT_number 4
_symmetry_cell_setting 'monoclinic'
loop_
_space_group_symop_operation_xyz
x,y,z
-x,1/2+y,-z
loop_
_atom_site_type_symbol
_atom_site_label
_atom_site_fract_x
_atom_site_fract_y
_atom_site_fract_z
Si Si1 0.915036 0.650960 0.293276
Si Si2 0.571999 0.999579 0.362291
Si Si3 0.184486 0.022536 0.431269
Si Si4 0.856457 0.441189 0.390470
Si Si5 0.933409 0.358295 0.175218
Si Si6 0.593436 0.021592 0.592516
Si Si7 0.615750 0.204832 0.871980
Si Si8 0.052274 0.991331 0.071045
O O1 0.823203 0.512412 0.296018
O O2 0.895156 0.533533 0.212337
O O3 0.225953 0.722008 0.496298
O O4 0.891120 0.947385 0.272996
O O5 0.757754 0.770749 0.490830
O O6 0.457927 0.930500 0.222567
O O7 0.343654 0.007945 0.265040
O O8 0.478372 0.997313 0.589078
O O9 0.074349 0.115890 0.292511
O O10 0.603840 0.504797 0.265972
O O11 0.954417 0.162282 0.466936
O O12 0.115992 0.482477 0.238422
O O13 0.677913 0.305373 0.979949
O O14 0.528926 0.292585 0.523314
O O15 0.862533 0.065434 0.005067
O O16 0.997909 0.712250 0.011780
#
# Coordination Sequence:
#
# PCOD9115482 Si02
#       8
#     2   2   2   2   2   2   2   2
#     4  11  23  46  74 101 141 192 245 293 352 430
#     4  10  23  42  71 104 139 191 238 295 358 432
#     4  10  22  40  70 100 144 194 241 287 352 431
#     4  12  28  52  81 107 137 191 256 307 355 433
#     4  10  24  43  64 106 146 186 235 294 365 424
#     4  10  20  39  64  99 142 191 234 278 345 432
#     4  11  25  49  70 109 147 189 240 306 369 428
#     4  10  25  43  70 110 154 188 233 302 374 430
#
# _framework density 26.214328999999999
#
# number of rings (size 3 to 8) (size 9 to 14) (size 15 to 20)
#    0.000    1.500    2.500    0.750    8.750    4.000 
#    9.000    0.000    0.000    0.000    0.000    0.000 
#    0.000    0.000    0.000    0.000    0.000    0.000 
#
# Total GULP energy -89261.982914 kJ/mol
# GULP energy per Si atom -5578.873932 kJ/mol
# Density = 2.615466 g / cm^3
# Si number density = 26.214329 Si / 1000 Ang^3
#
#
#
# Elastic Constant Matrix: (Units=GPa)
#
#
# Indices 1 2 3 4 5 6 
#
# 1 90.5540 12.3006 2.0311 0.0000 -1.0772 0.0000
# 2 12.3006 118.5066 24.9066 0.0000 -17.4813 0.0000
# 3 2.0311 24.9066 93.0135 0.0000 -17.5386 0.0000
# 4 0.0000 0.0000 0.0000 30.1496 0.0000 -4.2876
# 5 -1.0772 -17.4813 -17.5386 0.0000 36.4395 0.0000
# 6 0.0000 0.0000 0.0000 -4.2876 0.0000 39.9372
#
#
#
# Elastic Compliance Matrix: (Units=1/GPa)
#
#
# Indices 1 2 3 4 5 6 
#
# 1 0.011203 -0.001204 0.000034 0.000000 -0.000230 0.000000
# 2 -0.001204 0.009484 -0.001828 0.000000 0.003634 0.000000
# 3 0.000034 -0.001828 0.012180 0.000000 0.004986 0.000000
# 4 0.000000 0.000000 0.000000 0.033682 0.000000 0.003616
# 5 -0.000230 0.003634 0.004986 0.000000 0.031579 0.000000
# 6 0.000000 0.000000 0.000000 0.003616 0.000000 0.025428
#
#
# Mechanical properties :
#
#
# Convention : Reuss Voigt Hill
#
# Bulk Modulus (GPa) = 37.21360 42.28342 39.74851
# Shear Modulus (GPa) = 36.09892 38.82764 37.46328
#
# Velocity S-wave (km/s) = 3.71491 3.85276 3.78446
# Velocity P-wave (km/s) = 5.71205 5.99638 5.85594
#
# Compressibility (1/GPa) = 0.02687190
#
# Stress axis : x y z
#
# Youngs Moduli (GPa) = 89.26040 105.44534 82.10119
#
# Poissons Ratio (x) = 0.12696 -0.00283
# Poissons Ratio (y) = 0.10747 0.15007
# Poissons Ratio (z) = -0.00307 0.19274
#
# Static dielectric constant tensor:
#      x y z
#    x 2.101680 0.000000 0.096530 
#    y 0.000000 2.179270 0.000000 
#    z 0.096530 0.000000 2.218700 
# 
# From -- ./inp_files/15776.got.cif
#   From: 2010.05.17/outbox.cif.g08.bks.cpg/sg4_8_cif.got.tgz:15776.got - 2010.06.03 18:43:04.
