data_PCOD9115176
_publ_section_title
;
Structure prediction by ZEFSAII (Michael W. Deem and Ramdas Pophale) SiO2 
 PCOD9115176
Probable space group: P 21
;
_chemical_formula_sum "Si O2"
_cell_formula_units_Z 14
_cell_length_a 18.729183
_cell_length_b 4.887456
_cell_length_c 12.238530
_cell_angle_alpha 90.000000
_cell_angle_beta 145.949615
_cell_angle_gamma 90.000000
_cell_volume 627.275424
_symmetry_space_group_name_H-M "P 21"
_symmetry_group_IT_number 4
_symmetry_cell_setting 'monoclinic'
loop_
_space_group_symop_operation_xyz
x,y,z
-x,1/2+y,-z
loop_
_atom_site_type_symbol
_atom_site_label
_atom_site_fract_x
_atom_site_fract_y
_atom_site_fract_z
Si Si1 0.574950 0.969060 0.352311
Si Si2 0.587599 0.992461 0.124453
Si Si3 0.794776 0.688658 0.049539
Si Si4 0.070750 0.855912 0.957248
Si Si5 0.302263 0.709808 0.951542
Si Si6 0.170475 0.341735 0.207477
Si Si7 0.462610 0.303317 0.385644
O O1 0.448124 0.782445 0.175163
O O2 0.685636 0.869381 0.572028
O O3 0.632470 0.013536 0.305518
O O4 0.527937 0.245233 0.351949
O O5 0.462319 0.187329 0.960834
O O6 0.681395 0.094482 0.149202
O O7 0.903939 0.519798 0.123188
O O8 0.764773 0.499243 0.115990
O O9 0.678447 0.688832 0.814547
O O10 0.777043 0.995223 0.074450
O O11 0.123303 0.549016 0.049961
O O12 0.147215 0.033078 0.142645
O O13 0.925321 0.884731 0.812129
O O14 0.469857 0.607032 0.440286
#
# Coordination Sequence:
#
# PCOD9115176 Si02
#       7
#     2   2   2   2   2   2   2
#     4  10  21  35  55  78 107 141 177 222 271 321
#     4  10  20  35  53  76 107 137 176 222 272 329
#     4  11  20  34  52  73 106 142 174 212 274 328
#     4  10  21  37  55  79 111 149 185 227 266 319
#     4  10  21  34  53  79 103 137 176 221 274 326
#     4  10  21  36  56  81 109 145 192 225 264 320
#     4  11  20  29  44  72 103 129 162 205 257 315
#
# _framework density 22.318745
#
# number of rings (size 3 to 8) (size 9 to 14) (size 15 to 20)
#    0.000    1.714    0.000    6.857    0.000    5.714 
#    0.000    0.000    0.000    1.714    0.000    0.000 
#    0.000    0.000    0.000    0.000    0.000    0.000 
#
# Total GULP energy -78085.199511 kJ/mol
# GULP energy per Si atom -5577.514251 kJ/mol
# Density = 2.226795 g / cm^3
# Si number density = 22.318745 Si / 1000 Ang^3
#
#
#
# Elastic Constant Matrix: (Units=GPa)
#
#
# Indices 1 2 3 4 5 6 
#
# 1 94.1036 7.8152 6.0023 0.0000 -11.7259 0.0000
# 2 7.8152 98.9399 -0.6754 0.0000 -4.7739 0.0000
# 3 6.0023 -0.6754 14.9680 0.0000 -4.9951 0.0000
# 4 0.0000 0.0000 0.0000 14.4503 0.0000 -2.4323
# 5 -11.7259 -4.7739 -4.9951 0.0000 33.6596 0.0000
# 6 0.0000 0.0000 0.0000 -2.4323 0.0000 34.5352
#
#
#
# Elastic Compliance Matrix: (Units=1/GPa)
#
#
# Indices 1 2 3 4 5 6 
#
# 1 0.011325 -0.000758 -0.003466 0.000000 0.003323 0.000000
# 2 -0.000758 0.010241 0.001223 0.000000 0.001370 0.000000
# 3 -0.003466 0.001223 0.071448 0.000000 0.009569 0.000000
# 4 0.000000 0.000000 0.000000 0.070033 0.000000 0.004932
# 5 0.003323 0.001370 0.009569 0.000000 0.032481 0.000000
# 6 0.000000 0.000000 0.000000 0.004932 0.000000 0.029303
#
#
# Mechanical properties :
#
#
# Convention : Reuss Voigt Hill
#
# Bulk Modulus (GPa) = 11.49265 26.03285 18.76275
# Shear Modulus (GPa) = 19.24278 29.52032 24.38155
#
# Velocity S-wave (km/s) = 2.93948 3.64080 3.30877
# Velocity P-wave (km/s) = 4.08426 5.41879 4.79815
#
# Compressibility (1/GPa) = 0.08701212
#
# Stress axis : x y z
#
# Youngs Moduli (GPa) = 88.30237 97.64230 13.99620
#
# Poissons Ratio (x) = 0.07400 0.04852
# Poissons Ratio (y) = 0.06692 -0.01712
# Poissons Ratio (z) = 0.30610 -0.11944
#
# Static dielectric constant tensor:
#      x y z
#    x 1.965860 0.000000 0.019470 
#    y 0.000000 1.820180 0.000000 
#    z 0.019470 0.000000 1.786290 
# 
# From -- ./inp_files/12494.got.cif
#   From: 2010.05.17/outbox.cif.g08.bks.cpg/sg4_7_cif.got.tgz:12494.got - 2010.06.03 18:43:04.
