data_PCOD9115795
_publ_section_title
;
Structure prediction by ZEFSAII (Michael W. Deem and Ramdas Pophale) SiO2 
 PCOD9115795
Probable space group: P 21
;
_chemical_formula_sum "Si O2"
_cell_formula_units_Z 14
_cell_length_a 15.630443
_cell_length_b 4.860614
_cell_length_c 21.059254
_cell_angle_alpha 90.000000
_cell_angle_beta 19.081238
_cell_angle_gamma 90.000000
_cell_volume 523.035961
_symmetry_space_group_name_H-M "P 21"
_symmetry_group_IT_number 4
_symmetry_cell_setting 'monoclinic'
loop_
_space_group_symop_operation_xyz
x,y,z
-x,1/2+y,-z
loop_
_atom_site_type_symbol
_atom_site_label
_atom_site_fract_x
_atom_site_fract_y
_atom_site_fract_z
Si Si1 0.753416 0.267760 0.428409
Si Si2 0.086637 0.252855 0.604954
Si Si3 0.216330 0.111588 0.780245
Si Si4 0.460438 0.830541 0.951678
Si Si5 0.878893 0.607840 0.004588
Si Si6 0.020706 0.070838 0.439924
Si Si7 0.310102 0.348818 0.982343
O O1 0.765212 0.474002 0.480515
O O2 0.493959 0.240462 0.568771
O O3 0.001126 0.359749 0.213954
O O4 0.815184 0.966210 0.411120
O O5 0.132458 0.390532 0.504736
O O6 0.770341 0.235238 0.839140
O O7 0.979901 0.301373 0.921908
O O8 0.136805 0.801464 0.822306
O O9 0.223228 0.132216 0.852345
O O10 0.751024 0.723319 0.761506
O O11 0.412383 0.652405 0.921481
O O12 0.425227 0.144563 0.955862
O O13 0.673703 0.717149 0.097755
O O14 0.905695 0.330627 0.560062
#
# Coordination Sequence:
#
# PCOD9115795 Si02
#       7
#     2   2   2   2   2   2   2
#     4  10  21  38  61  88 115 154 206 251 299 362
#     4  10  23  42  63  87 122 164 202 249 314 377
#     4  10  21  36  55  82 117 156 194 239 303 367
#     4  10  23  42  63  87 122 164 202 249 314 377
#     4  10  21  36  55  82 117 156 194 239 303 367
#     4  12  26  42  64  98 128 158 212 266 312 370
#     4  10  21  38  61  88 115 154 206 251 299 362
#
# _framework density 26.766801999999998
#
# number of rings (size 3 to 8) (size 9 to 14) (size 15 to 20)
#    0.000    1.714    0.000    3.429    0.000    9.143 
#    0.000    0.000    0.000    0.000    0.000    0.000 
#    0.000    0.000    0.000    0.000    0.000    0.000 
#
# Total GULP energy -78355.524076 kJ/mol
# GULP energy per Si atom -5596.823148 kJ/mol
# Density = 2.670588 g / cm^3
# Si number density = 26.766802 Si / 1000 Ang^3
#
#
#
# Elastic Constant Matrix: (Units=GPa)
#
#
# Indices 1 2 3 4 5 6 
#
# 1 88.9962 -1.4157 -13.2731 0.0000 12.4146 0.0000
# 2 -1.4157 104.7956 12.5051 0.0000 17.2092 0.0000
# 3 -13.2731 12.5051 76.9558 0.0000 9.3314 0.0000
# 4 0.0000 0.0000 0.0000 30.4832 0.0000 2.8613
# 5 12.4146 17.2092 9.3314 0.0000 13.8447 0.0000
# 6 0.0000 0.0000 0.0000 2.8613 0.0000 39.7543
#
#
#
# Elastic Compliance Matrix: (Units=1/GPa)
#
#
# Indices 1 2 3 4 5 6 
#
# 1 0.014718 0.002924 0.004470 0.000000 -0.019845 0.000000
# 2 0.002924 0.012573 0.000734 0.000000 -0.018745 0.000000
# 3 0.004470 0.000734 0.015510 0.000000 -0.015375 0.000000
# 4 0.000000 0.000000 0.000000 0.033028 0.000000 -0.002377
# 5 -0.019845 -0.018745 -0.015375 0.000000 0.123689 0.000000
# 6 0.000000 0.000000 0.000000 -0.002377 0.000000 0.025326
#
#
# Mechanical properties :
#
#
# Convention : Reuss Voigt Hill
#
# Bulk Modulus (GPa) = 16.93256 29.59780 23.26518
# Shear Modulus (GPa) = 21.90365 35.01185 28.45775
#
# Velocity S-wave (km/s) = 2.86372 3.62060 3.26417
# Velocity P-wave (km/s) = 4.15623 5.34415 4.78718
#
# Compressibility (1/GPa) = 0.05905783
#
# Stress axis : x y z
#
# Youngs Moduli (GPa) = 67.94432 79.53849 64.47290
#
# Poissons Ratio (x) = -0.23260 -0.28817
# Poissons Ratio (y) = -0.19870 -0.04735
# Poissons Ratio (z) = -0.30369 -0.05841
#
# Static dielectric constant tensor:
#      x y z
#    x 2.105520 0.000000 -0.017720 
#    y 0.000000 1.987210 0.000000 
#    z -0.017720 0.000000 2.223180 
# 
# From -- ./inp_files/15730.got.cif
#   From: 2010.05.17/outbox.cif.g08.bks.cpg/sg4_8_cif.got.tgz:15730.got - 2010.06.03 18:43:04.
