data_PCOD9115164
_publ_section_title
;
Structure prediction by ZEFSAII (Michael W. Deem and Ramdas Pophale) SiO2 
 PCOD9115164
Probable space group: P 21
;
_chemical_formula_sum "Si O2"
_cell_formula_units_Z 14
_cell_length_a 8.966677
_cell_length_b 5.249203
_cell_length_c 15.024564
_cell_angle_alpha 90.000000
_cell_angle_beta 46.199704
_cell_angle_gamma 90.000000
_cell_volume 510.408111
_symmetry_space_group_name_H-M "P 21"
_symmetry_group_IT_number 4
_symmetry_cell_setting 'monoclinic'
loop_
_space_group_symop_operation_xyz
x,y,z
-x,1/2+y,-z
loop_
_atom_site_type_symbol
_atom_site_label
_atom_site_fract_x
_atom_site_fract_y
_atom_site_fract_z
Si Si1 0.948492 0.275620 0.172223
Si Si2 0.319639 0.415648 0.606923
Si Si3 0.114912 0.370406 0.421382
Si Si4 0.666365 0.497672 0.036290
Si Si5 0.925333 0.110295 0.737829
Si Si6 0.561729 0.483436 0.869664
Si Si7 0.537629 0.537722 0.334474
O O1 0.752860 0.419891 0.209658
O O2 0.100206 0.490549 0.152753
O O3 0.834464 0.140375 0.302136
O O4 0.087540 0.059416 0.067972
O O5 0.474251 0.455958 0.462410
O O6 0.424354 0.334014 0.657310
O O7 0.159392 0.201230 0.640980
O O8 0.119952 0.389982 0.313241
O O9 0.336566 0.454569 0.365728
O O10 0.041522 0.095372 0.483976
O O11 0.584418 0.518905 0.967506
O O12 0.573764 0.753989 0.116069
O O13 0.556969 0.238683 0.112808
O O14 0.786244 0.347458 0.765041
#
# Coordination Sequence:
#
# PCOD9115164 Si02
#       7
#     2   2   2   2   2   2   2
#     4  11  22  38  66  97 136 178 225 283 343 405
#     4  11  21  37  62  92 135 175 232 272 338 396
#     4  12  28  44  64  97 142 188 232 275 328 416
#     4  10  20  35  58  97 129 157 214 280 335 391
#     4  11  23  40  65  98 139 181 223 282 345 404
#     4  10  20  34  60  94 131 159 209 280 343 379
#     4  11  24  38  61  95 134 188 223 280 328 407
#
# _framework density 27.429030999999998
#
# number of rings (size 3 to 8) (size 9 to 14) (size 15 to 20)
#    0.000    1.143    4.286    3.429    6.000    0.000 
#    0.000    0.000    0.000    0.000    3.714    4.000 
#    0.000    0.000    0.000    0.000    0.000    0.000 
#
# Total GULP energy -78213.600784 kJ/mol
# GULP energy per Si atom -5586.685770 kJ/mol
# Density = 2.736660 g / cm^3
# Si number density = 27.429031 Si / 1000 Ang^3
#
#
#
# Elastic Constant Matrix: (Units=GPa)
#
#
# Indices 1 2 3 4 5 6 
#
# 1 98.0475 19.0548 26.7364 0.0000 -26.9527 0.0000
# 2 19.0548 142.2715 40.5411 0.0000 -15.9722 0.0000
# 3 26.7364 40.5411 99.2961 0.0000 -34.6949 0.0000
# 4 0.0000 0.0000 0.0000 44.3759 0.0000 -17.7286
# 5 -26.9527 -15.9722 -34.6949 0.0000 44.9511 0.0000
# 6 0.0000 0.0000 0.0000 -17.7286 0.0000 33.9509
#
#
#
# Elastic Compliance Matrix: (Units=1/GPa)
#
#
# Indices 1 2 3 4 5 6 
#
# 1 0.012347 -0.000705 -0.000736 0.000000 0.006585 0.000000
# 2 -0.000705 0.008001 -0.003055 0.000000 0.000062 0.000000
# 3 -0.000736 -0.003055 0.015039 0.000000 0.010080 0.000000
# 4 0.000000 0.000000 0.000000 0.028475 0.000000 0.014869
# 5 0.006585 0.000062 0.010080 0.000000 0.033997 0.000000
# 6 0.000000 0.000000 0.000000 0.014869 0.000000 0.037219
#
#
# Mechanical properties :
#
#
# Convention : Reuss Voigt Hill
#
# Bulk Modulus (GPa) = 37.88646 56.91997 47.40322
# Shear Modulus (GPa) = 32.70813 41.54110 37.12462
#
# Velocity S-wave (km/s) = 3.45695 3.89587 3.68296
# Velocity P-wave (km/s) = 5.45679 6.40577 5.95023
#
# Compressibility (1/GPa) = 0.02639466
#
# Stress axis : x y z
#
# Youngs Moduli (GPa) = 80.99194 124.98829 66.49549
#
# Poissons Ratio (x) = 0.08808 0.04895
# Poissons Ratio (y) = 0.05707 0.20315
# Poissons Ratio (z) = 0.05962 0.38185
#
# Static dielectric constant tensor:
#      x y z
#    x 2.116020 0.000000 0.040050 
#    y 0.000000 2.384360 0.000000 
#    z 0.040050 0.000000 2.264940 
# 
# From -- ./inp_files/14760.got.cif
#   From: 2010.05.17/outbox.cif.g08.bks.cpg/sg4_8_cif.got.tgz:14760.got - 2010.06.03 18:43:04.
