data_PCOD9115134
_publ_section_title
;
Structure prediction by ZEFSAII (Michael W. Deem and Ramdas Pophale) SiO2 
 PCOD9115134
Probable space group: P 21
;
_chemical_formula_sum "Si O2"
_cell_formula_units_Z 16
_cell_length_a 9.535355
_cell_length_b 10.993723
_cell_length_c 7.747990
_cell_angle_alpha 90.000000
_cell_angle_beta 112.591651
_cell_angle_gamma 90.000000
_cell_volume 749.890147
_symmetry_space_group_name_H-M "P 21"
_symmetry_group_IT_number 4
_symmetry_cell_setting 'monoclinic'
loop_
_space_group_symop_operation_xyz
x,y,z
-x,1/2+y,-z
loop_
_atom_site_type_symbol
_atom_site_label
_atom_site_fract_x
_atom_site_fract_y
_atom_site_fract_z
Si Si1 0.484561 0.687280 0.385769
Si Si2 0.638825 0.014861 0.913486
Si Si3 0.056885 0.203292 0.981008
Si Si4 0.073662 0.449310 0.155544
Si Si5 0.846275 0.157624 0.588790
Si Si6 0.438076 0.907286 0.107400
Si Si7 0.392800 0.171839 0.202271
Si Si8 0.714607 0.235369 0.179206
O O1 0.495586 0.567657 0.271065
O O2 0.319993 0.672251 0.401519
O O3 0.481645 0.800121 0.256241
O O4 0.603271 0.705335 0.594564
O O5 0.759672 0.949066 0.852504
O O6 0.720670 0.132521 0.035467
O O7 0.572521 0.941160 0.040426
O O8 0.019716 0.310340 0.102178
O O9 0.236661 0.204452 0.037582
O O10 0.962027 0.232682 0.763307
O O11 0.015172 0.059320 0.988180
O O12 0.099599 0.517017 0.353087
O O13 0.829107 0.204971 0.386975
O O14 0.405218 0.026654 0.199364
O O15 0.296366 0.864085 0.922175
O O16 0.544231 0.221141 0.181324
#
# Coordination Sequence:
#
# PCOD9115134 Si02
#       8
#     2   2   2   2   2   2   2   2
#     4   9  19  35  56  84 112 146 195 237 289 346
#     4   9  18  35  56  82 115 150 187 235 302 341
#     4  10  21  36  59  83 118 150 204 242 288 334
#     4   9  20  36  59  78 118 158 195 238 289 345
#     4   8  19  35  57  82 112 155 194 225 293 351
#     4  10  20  33  59  86 117 146 190 248 294 341
#     4  10  21  34  58  92 111 149 201 243 279 345
#     4   9  18  36  58  83 115 152 186 240 298 349
#
# _framework density 21.336459999999999
#
# number of rings (size 3 to 8) (size 9 to 14) (size 15 to 20)
#    0.750    2.000    0.000    0.750    1.750    6.000 
#    0.000    1.250    8.250    0.000    0.000    0.000 
#    0.000    0.000    0.000    0.000    0.000    0.000 
#
# Total GULP energy -89072.502801 kJ/mol
# GULP energy per Si atom -5567.031425 kJ/mol
# Density = 2.128790 g / cm^3
# Si number density = 21.336460 Si / 1000 Ang^3
#
#
#
# Elastic Constant Matrix: (Units=GPa)
#
#
# Indices 1 2 3 4 5 6 
#
# 1 29.6147 -10.0408 -1.3885 0.0000 10.2395 0.0000
# 2 -10.0408 92.8258 7.4551 0.0000 -1.5773 0.0000
# 3 -1.3885 7.4551 97.2988 0.0000 5.9434 0.0000
# 4 0.0000 0.0000 0.0000 20.7293 0.0000 -0.1650
# 5 10.2395 -1.5773 5.9434 0.0000 28.9397 0.0000
# 6 0.0000 0.0000 0.0000 -0.1650 0.0000 8.7957
#
#
#
# Elastic Compliance Matrix: (Units=1/GPa)
#
#
# Indices 1 2 3 4 5 6 
#
# 1 0.040087 0.004004 0.001133 0.000000 -0.014198 0.000000
# 2 0.004004 0.011256 -0.000766 0.000000 -0.000646 0.000000
# 3 0.001133 -0.000766 0.010511 0.000000 -0.002601 0.000000
# 4 0.000000 0.000000 0.000000 0.048248 0.000000 0.000905
# 5 -0.014198 -0.000646 -0.002601 0.000000 0.040077 0.000000
# 6 0.000000 0.000000 0.000000 0.000905 0.000000 0.113709
#
#
# Mechanical properties :
#
#
# Convention : Reuss Voigt Hill
#
# Bulk Modulus (GPa) = 14.16519 23.53231 18.84875
# Shear Modulus (GPa) = 17.94178 26.60718 22.27448
#
# Velocity S-wave (km/s) = 2.90297 3.53516 3.23455
# Velocity P-wave (km/s) = 4.22962 5.26462 4.77524
#
# Compressibility (1/GPa) = 0.07059561
#
# Stress axis : x y z
#
# Youngs Moduli (GPa) = 24.94597 88.83762 95.13518
#
# Poissons Ratio (x) = -0.35570 -0.10775
# Poissons Ratio (y) = -0.09988 0.07286
# Poissons Ratio (z) = -0.02825 0.06804
#
# Static dielectric constant tensor:
#      x y z
#    x 1.807480 0.000000 0.013340 
#    y 0.000000 1.841280 0.000000 
#    z 0.013340 0.000000 1.777880 
# 
# From -- ./inp_files/8352.got.cif
#   From: 2010.05.17/outbox.cif.g08.bks.cpg/sg4_5_cif.got.tgz:8352.got - 2010.06.03 18:43:04.
