data_PCOD9115648
_publ_section_title
;
Structure prediction by ZEFSAII (Michael W. Deem and Ramdas Pophale) SiO2 
 PCOD9115648
Probable space group: P 21
;
_chemical_formula_sum "Si O2"
_cell_formula_units_Z 16
_cell_length_a 8.865872
_cell_length_b 11.372020
_cell_length_c 7.209894
_cell_angle_alpha 90.000000
_cell_angle_beta 113.244244
_cell_angle_gamma 90.000000
_cell_volume 667.918581
_symmetry_space_group_name_H-M "P 21"
_symmetry_group_IT_number 4
_symmetry_cell_setting 'monoclinic'
loop_
_space_group_symop_operation_xyz
x,y,z
-x,1/2+y,-z
loop_
_atom_site_type_symbol
_atom_site_label
_atom_site_fract_x
_atom_site_fract_y
_atom_site_fract_z
Si Si1 0.640633 0.414340 0.111596
Si Si2 0.489926 0.134535 0.586664
Si Si3 0.127110 0.590431 0.839017
Si Si4 0.191024 0.778858 0.139603
Si Si5 0.563885 0.068553 0.225705
Si Si6 0.075609 0.910005 0.449382
Si Si7 0.744359 0.833682 0.475068
Si Si8 0.346213 0.408792 0.170684
O O1 0.732744 0.365192 0.975570
O O2 0.561697 0.535797 0.996952
O O3 0.773106 0.417371 0.338379
O O4 0.475756 0.343842 0.099041
O O5 0.656833 0.204467 0.708640
O O6 0.477155 0.125383 0.358999
O O7 0.345298 0.210630 0.603675
O O8 0.529255 0.005249 0.679466
O O9 0.277531 0.634922 0.782091
O O10 0.985061 0.539156 0.643419
O O11 0.081582 0.686759 0.969288
O O12 0.211087 0.479612 0.987083
O O13 0.114314 0.842466 0.277847
O O14 0.641168 0.943847 0.339000
O O15 0.924887 0.847285 0.481052
O O16 0.737632 0.849410 0.694618
#
# Coordination Sequence:
#
# PCOD9115648 Si02
#       8
#     2   2   2   2   2   2   2   2
#     4  11  23  44  70 100 137 178 228 286 350 402
#     4  10  20  41  73 102 129 176 243 286 334 408
#     4   9  22  45  68  98 134 185 233 276 349 408
#     4  11  24  44  74 101 135 189 233 279 351 415
#     4   9  20  41  75 101 131 180 235 292 332 401
#     4  11  26  44  68 103 148 183 221 286 351 424
#     4  10  20  42  69  99 140 178 228 281 347 407
#     4   9  21  41  69  98 126 179 235 290 332 401
#
# _framework density 23.955013000000001
#
# number of rings (size 3 to 8) (size 9 to 14) (size 15 to 20)
#    0.000    2.000    1.250    0.750    7.000    0.000 
#    4.500    0.000    0.000    0.000    0.000    0.000 
#    0.000    0.000    0.000    0.000    0.000    0.000 
#
# Total GULP energy -89494.267555 kJ/mol
# GULP energy per Si atom -5593.391722 kJ/mol
# Density = 2.390049 g / cm^3
# Si number density = 23.955013 Si / 1000 Ang^3
#
#
#
# Elastic Constant Matrix: (Units=GPa)
#
#
# Indices 1 2 3 4 5 6 
#
# 1 126.5113 42.4047 57.1220 0.0000 -20.0950 0.0000
# 2 42.4047 45.0023 24.3560 0.0000 -3.8179 0.0000
# 3 57.1220 24.3560 146.0272 0.0000 -27.1671 0.0000
# 4 0.0000 0.0000 0.0000 36.4500 0.0000 -8.4166
# 5 -20.0950 -3.8179 -27.1671 0.0000 29.3386 0.0000
# 6 0.0000 0.0000 0.0000 -8.4166 0.0000 32.9368
#
#
#
# Elastic Compliance Matrix: (Units=1/GPa)
#
#
# Indices 1 2 3 4 5 6 
#
# 1 0.013585 -0.011007 -0.002433 0.000000 0.005620 0.000000
# 2 -0.011007 0.033358 -0.002239 0.000000 -0.005271 0.000000
# 3 -0.002433 -0.002239 0.009434 0.000000 0.006778 0.000000
# 4 0.000000 0.000000 0.000000 0.029155 0.000000 0.007450
# 5 0.005620 -0.005271 0.006778 0.000000 0.043525 0.000000
# 6 0.000000 0.000000 0.000000 0.007450 0.000000 0.032265
#
#
# Mechanical properties :
#
#
# Convention : Reuss Voigt Hill
#
# Bulk Modulus (GPa) = 39.96939 62.81182 51.39061
# Shear Modulus (GPa) = 24.87335 32.65565 28.76450
#
# Velocity S-wave (km/s) = 3.22582 3.69617 3.46897
# Velocity P-wave (km/s) = 5.53136 6.67032 6.12736
#
# Compressibility (1/GPa) = 0.02501914
#
# Stress axis : x y z
#
# Youngs Moduli (GPa) = 73.61062 29.97822 105.99924
#
# Poissons Ratio (x) = 0.32999 0.25786
# Poissons Ratio (y) = 0.81027 0.23729
# Poissons Ratio (z) = 0.17907 0.06711
#
# Static dielectric constant tensor:
#      x y z
#    x 1.902650 0.000000 -0.041590 
#    y 0.000000 1.984930 0.000000 
#    z -0.041590 0.000000 1.945830 
# 
# From -- ./inp_files/6266.got.cif
#   From: 2010.05.17/outbox.cif.g08.bks.cpg/sg4_4_cif.got.tgz:6266.got - 2010.06.03 18:43:04.
