data_PCOD9115465
_publ_section_title
;
Structure prediction by ZEFSAII (Michael W. Deem and Ramdas Pophale) SiO2 
 PCOD9115465
Probable space group: P 21
;
_chemical_formula_sum "Si O2"
_cell_formula_units_Z 16
_cell_length_a 13.876734
_cell_length_b 9.090445
_cell_length_c 10.575991
_cell_angle_alpha 90.000000
_cell_angle_beta 150.162531
_cell_angle_gamma 90.000000
_cell_volume 663.777685
_symmetry_space_group_name_H-M "P 21"
_symmetry_group_IT_number 4
_symmetry_cell_setting 'monoclinic'
loop_
_space_group_symop_operation_xyz
x,y,z
-x,1/2+y,-z
loop_
_atom_site_type_symbol
_atom_site_label
_atom_site_fract_x
_atom_site_fract_y
_atom_site_fract_z
Si Si1 0.073851 0.702940 0.399368
Si Si2 0.925395 0.189333 0.318900
Si Si3 0.218852 0.418955 0.994067
Si Si4 0.149008 0.383949 0.374360
Si Si5 0.235689 0.947082 0.161287
Si Si6 0.537075 0.207432 0.245478
Si Si7 0.409364 0.913115 0.098434
Si Si8 0.421845 0.632680 0.420163
O O1 0.990873 0.701400 0.445691
O O2 0.127647 0.537597 0.424398
O O3 0.283270 0.777811 0.622149
O O4 0.931235 0.789422 0.144416
O O5 0.058477 0.260806 0.362686
O O6 0.722378 0.279431 0.097475
O O7 0.879830 0.026069 0.220293
O O8 0.393692 0.333853 0.126209
O O9 0.290027 0.519562 0.191069
O O10 0.377479 0.354299 0.617866
O O11 0.990957 0.410095 0.081188
O O12 0.273282 0.975513 0.056077
O O13 0.358729 0.797538 0.317275
O O14 0.358096 0.079742 0.362403
O O15 0.605509 0.135062 0.458938
O O16 0.450848 0.066334 0.072139
#
# Coordination Sequence:
#
# PCOD9115465 Si02
#       8
#     2   2   2   2   2   2   2   2
#     4  11  25  43  62  94 129 168 215 260 314 379
#     4  11  23  40  67  95 125 165 214 267 316 371
#     4  12  23  42  66  95 127 167 211 265 321 375
#     4  10  21  42  64  90 125 168 210 253 318 379
#     4  10  20  39  62  90 124 164 203 255 320 374
#     4  10  24  43  62  93 128 168 209 257 320 379
#     4   9  20  41  64  90 123 169 209 255 317 373
#     4  11  20  40  65  89 127 165 203 258 314 374
#
# _framework density 24.104455999999999
#
# number of rings (size 3 to 8) (size 9 to 14) (size 15 to 20)
#    0.000    1.500    3.750    3.000    0.000    4.000 
#    6.750    1.250    0.000    0.000    0.000    0.000 
#    0.000    0.000    0.000    0.000    0.000    0.000 
#
# Total GULP energy -89202.213912 kJ/mol
# GULP energy per Si atom -5575.138369 kJ/mol
# Density = 2.404959 g / cm^3
# Si number density = 24.104456 Si / 1000 Ang^3
#
#
#
# Elastic Constant Matrix: (Units=GPa)
#
#
# Indices 1 2 3 4 5 6 
#
# 1 48.4369 -3.5876 17.3659 0.0000 14.0102 0.0000
# 2 -3.5876 80.3635 14.6502 0.0000 -0.9881 0.0000
# 3 17.3659 14.6502 80.5237 0.0000 20.7889 0.0000
# 4 0.0000 0.0000 0.0000 37.8255 0.0000 4.0364
# 5 14.0102 -0.9881 20.7889 0.0000 37.6327 0.0000
# 6 0.0000 0.0000 0.0000 4.0364 0.0000 7.5078
#
#
#
# Elastic Compliance Matrix: (Units=1/GPa)
#
#
# Indices 1 2 3 4 5 6 
#
# 1 0.024091 0.001670 -0.003727 0.000000 -0.006866 0.000000
# 2 0.001670 0.013104 -0.003117 0.000000 0.001444 0.000000
# 3 -0.003727 -0.003117 0.015690 0.000000 -0.007362 0.000000
# 4 0.000000 0.000000 0.000000 0.028046 0.000000 -0.015079
# 5 -0.006866 0.001444 -0.007362 0.000000 0.033234 0.000000
# 6 0.000000 0.000000 0.000000 -0.015079 0.000000 0.141301
#
#
# Mechanical properties :
#
#
# Convention : Reuss Voigt Hill
#
# Bulk Modulus (GPa) = 23.50809 29.57566 26.54188
# Shear Modulus (GPa) = 17.85757 28.65291 23.25524
#
# Velocity S-wave (km/s) = 2.72479 3.45149 3.10944
# Velocity P-wave (km/s) = 4.43544 5.30850 4.89148
#
# Compressibility (1/GPa) = 0.04253855
#
# Stress axis : x y z
#
# Youngs Moduli (GPa) = 41.50864 76.31223 63.73402
#
# Poissons Ratio (x) = -0.12748 0.23752
# Poissons Ratio (y) = -0.06934 0.19867
# Poissons Ratio (z) = 0.15470 0.23788
#
# Static dielectric constant tensor:
#      x y z
#    x 1.946520 0.000000 -0.005220 
#    y 0.000000 1.961350 0.000000 
#    z -0.005220 0.000000 2.086260 
# 
# From -- ./inp_files/12646.got.cif
#   From: 2010.05.17/outbox.cif.g08.bks.cpg/sg4_7_cif.got.tgz:12646.got - 2010.06.03 18:43:04.
