data_PCOD9115930
_publ_section_title
;
Structure prediction by ZEFSAII (Michael W. Deem and Ramdas Pophale) SiO2 
 PCOD9115930
Probable space group: P 21
;
_chemical_formula_sum "Si O2"
_cell_formula_units_Z 14
_cell_length_a 10.270360
_cell_length_b 12.352583
_cell_length_c 13.073955
_cell_angle_alpha 90.000000
_cell_angle_beta 159.534766
_cell_angle_gamma 90.000000
_cell_volume 579.922896
_symmetry_space_group_name_H-M "P 21"
_symmetry_group_IT_number 4
_symmetry_cell_setting 'monoclinic'
loop_
_space_group_symop_operation_xyz
x,y,z
-x,1/2+y,-z
loop_
_atom_site_type_symbol
_atom_site_label
_atom_site_fract_x
_atom_site_fract_y
_atom_site_fract_z
Si Si1 0.436090 0.885250 0.043793
Si Si2 0.271853 0.940367 0.699572
Si Si3 0.370545 0.019288 0.448631
Si Si4 0.465792 0.676856 0.616904
Si Si5 0.807923 0.888252 0.916322
Si Si6 0.325936 0.117970 0.002060
Si Si7 0.292264 0.641755 0.929091
O O1 0.299162 0.765834 0.970445
O O2 0.841533 0.910439 0.387408
O O3 0.462369 0.891807 0.940483
O O4 0.198026 0.991840 0.896859
O O5 0.456917 0.891744 0.735248
O O6 0.377654 0.067370 0.780687
O O7 0.449932 0.096577 0.413147
O O8 0.726911 0.982291 0.774852
O O9 0.079211 0.079841 0.309183
O O10 0.164198 0.915697 0.246317
O O11 0.761724 0.774263 0.828022
O O12 0.024269 0.696093 0.276743
O O13 0.515153 0.633008 0.768259
O O14 0.621208 0.137335 0.128340
#
# Coordination Sequence:
#
# PCOD9115930 Si02
#       7
#     2   2   2   2   2   2   2
#     4  11  22  38  63  96 129 160 205 271 313 349
#     4  10  21  38  62  96 126 165 212 250 308 387
#     4  11  26  42  65  96 126 164 215 254 309 382
#     4  12  25  44  66  93 128 167 205 261 314 367
#     4  11  22  43  66  88 127 172 207 249 312 382
#     4  11  23  41  65  96 125 163 216 254 305 380
#     4  10  23  42  65  93 129 167 208 261 313 365
#
# _framework density 24.14114
#
# number of rings (size 3 to 8) (size 9 to 14) (size 15 to 20)
#    0.000    1.143    0.000    7.714    0.000    8.000 
#    0.000    1.429    0.000    0.000    0.000    0.000 
#    0.000    0.000    0.000    0.000    0.000    0.000 
#
# Total GULP energy -78364.641161 kJ/mol
# GULP energy per Si atom -5597.474369 kJ/mol
# Density = 2.408619 g / cm^3
# Si number density = 24.141140 Si / 1000 Ang^3
#
#
#
# Elastic Constant Matrix: (Units=GPa)
#
#
# Indices 1 2 3 4 5 6 
#
# 1 116.5464 3.9473 18.2292 0.0000 -15.3930 0.0000
# 2 3.9473 113.4684 -7.9502 0.0000 -10.5169 0.0000
# 3 18.2292 -7.9502 64.5207 0.0000 -18.0820 0.0000
# 4 0.0000 0.0000 0.0000 19.5943 0.0000 -3.0095
# 5 -15.3930 -10.5169 -18.0820 0.0000 28.8933 0.0000
# 6 0.0000 0.0000 0.0000 -3.0095 0.0000 24.3466
#
#
#
# Elastic Compliance Matrix: (Units=1/GPa)
#
#
# Indices 1 2 3 4 5 6 
#
# 1 0.009350 -0.000061 -0.001527 0.000000 0.004003 0.000000
# 2 -0.000061 0.009464 0.002595 0.000000 0.005036 0.000000
# 3 -0.001527 0.002595 0.019751 0.000000 0.012491 0.000000
# 4 0.000000 0.000000 0.000000 0.052023 0.000000 0.006431
# 5 0.004003 0.005036 0.012491 0.000000 0.046393 0.000000
# 6 0.000000 0.000000 0.000000 0.006431 0.000000 0.041868
#
#
# Mechanical properties :
#
#
# Convention : Reuss Voigt Hill
#
# Bulk Modulus (GPa) = 24.64463 35.88756 30.26609
# Shear Modulus (GPa) = 26.26574 33.25411 29.75993
#
# Velocity S-wave (km/s) = 3.30207 3.71548 3.51486
# Velocity P-wave (km/s) = 4.97684 5.77099 5.38857
#
# Compressibility (1/GPa) = 0.04057679
#
# Stress axis : x y z
#
# Youngs Moduli (GPa) = 106.95235 105.66670 50.63083
#
# Poissons Ratio (x) = 0.00647 0.07733
# Poissons Ratio (y) = 0.00655 -0.13137
# Poissons Ratio (z) = 0.16335 -0.27418
#
# Static dielectric constant tensor:
#      x y z
#    x 1.905760 0.000000 0.021380 
#    y 0.000000 2.015160 0.000000 
#    z 0.021380 0.000000 1.887370 
# 
# From -- ./inp_files/14000.got.cif
#   From: 2010.05.17/outbox.cif.g08.bks.cpg/sg4_7_cif.got.tgz:14000.got - 2010.06.03 18:43:04.
