data_PCOD9115141
_publ_section_title
;
Structure prediction by ZEFSAII (Michael W. Deem and Ramdas Pophale) SiO2 
 PCOD9115141
Probable space group: P 21
;
_chemical_formula_sum "Si O2"
_cell_formula_units_Z 16
_cell_length_a 22.610601
_cell_length_b 5.165913
_cell_length_c 11.541890
_cell_angle_alpha 90.000000
_cell_angle_beta 145.980446
_cell_angle_gamma 90.000000
_cell_volume 754.253677
_symmetry_space_group_name_H-M "P 21"
_symmetry_group_IT_number 4
_symmetry_cell_setting 'monoclinic'
loop_
_space_group_symop_operation_xyz
x,y,z
-x,1/2+y,-z
loop_
_atom_site_type_symbol
_atom_site_label
_atom_site_fract_x
_atom_site_fract_y
_atom_site_fract_z
Si Si1 0.168888 0.362290 0.664703
Si Si2 0.157409 0.544066 0.878800
Si Si3 0.754294 0.365535 0.179271
Si Si4 0.548139 0.584936 0.725540
Si Si5 0.990011 0.649553 0.257734
Si Si6 0.206188 0.823648 0.168875
Si Si7 0.062970 0.613068 0.131254
Si Si8 0.420418 0.088711 0.498975
O O1 0.188456 0.326691 0.835334
O O2 0.250054 0.589022 0.763777
O O3 0.053319 0.477339 0.453061
O O4 0.189874 0.080643 0.651754
O O5 0.171834 0.780610 0.811512
O O6 0.051256 0.423291 0.760931
O O7 0.229373 0.613784 0.105031
O O8 0.644061 0.478201 0.957713
O O9 0.506841 0.874940 0.679714
O O10 0.581257 0.573309 0.644042
O O11 0.454723 0.375737 0.588429
O O12 0.068699 0.668163 0.276576
O O13 0.887975 0.495588 0.042160
O O14 0.159952 0.684916 0.206591
O O15 0.306554 0.997577 0.356474
O O16 0.028603 0.315775 0.057757
#
# Coordination Sequence:
#
# PCOD9115141 Si02
#       8
#     2   2   2   2   2   2   2   2
#     4  10  24  35  56  84 112 158 188 231 288 344
#     4  10  22  33  59  78 121 153 197 227 290 338
#     4  10  21  39  54  81 115 149 189 235 286 346
#     4  10  20  34  53  79 111 145 189 231 291 351
#     4  11  24  37  58  83 124 157 200 234 282 344
#     4  11  22  36  56  83 121 153 195 240 286 340
#     4  10  22  39  56  80 112 162 201 235 279 330
#     4  10  21  31  54  80 110 151 185 229 290 349
#
# _framework density 21.213021999999999
#
# number of rings (size 3 to 8) (size 9 to 14) (size 15 to 20)
#    0.750    1.000    2.500    1.500    5.250    0.000 
#    0.000    0.000    0.000    0.000    0.000    3.500 
#    0.000    0.000    0.000    0.000    0.000    0.000 
#
# Total GULP energy -89170.407664 kJ/mol
# GULP energy per Si atom -5573.150479 kJ/mol
# Density = 2.116474 g / cm^3
# Si number density = 21.213022 Si / 1000 Ang^3
#
#
#
# Elastic Constant Matrix: (Units=GPa)
#
#
# Indices 1 2 3 4 5 6 
#
# 1 45.4727 -5.0935 0.4968 0.0000 -1.5133 0.0000
# 2 -5.0935 89.8969 5.9399 0.0000 -5.9480 0.0000
# 3 0.4968 5.9399 68.3420 0.0000 11.1282 0.0000
# 4 0.0000 0.0000 0.0000 30.3622 0.0000 6.9191
# 5 -1.5133 -5.9480 11.1282 0.0000 12.3389 0.0000
# 6 0.0000 0.0000 0.0000 6.9191 0.0000 13.6537
#
#
#
# Elastic Compliance Matrix: (Units=1/GPa)
#
#
# Indices 1 2 3 4 5 6 
#
# 1 0.022333 0.001628 -0.001029 0.000000 0.004451 0.000000
# 2 0.001628 0.011906 -0.002360 0.000000 0.008068 0.000000
# 3 -0.001029 -0.002360 0.017641 0.000000 -0.017174 0.000000
# 4 0.000000 0.000000 0.000000 0.037236 0.000000 -0.018870
# 5 0.004451 0.008068 -0.017174 0.000000 0.100969 0.000000
# 6 0.000000 0.000000 0.000000 -0.018870 0.000000 0.082803
#
#
# Mechanical properties :
#
#
# Convention : Reuss Voigt Hill
#
# Bulk Modulus (GPa) = 20.67907 22.93310 21.80608
# Shear Modulus (GPa) = 17.09232 24.76217 20.92725
#
# Velocity S-wave (km/s) = 2.84165 3.42030 3.14431
# Velocity P-wave (km/s) = 4.53167 5.14123 4.84605
#
# Compressibility (1/GPa) = 0.04835808
#
# Stress axis : x y z
#
# Youngs Moduli (GPa) = 44.77690 83.99238 56.68475
#
# Poissons Ratio (x) = -0.13673 0.05831
# Poissons Ratio (y) = -0.07289 0.13379
# Poissons Ratio (z) = 0.04606 0.19825
#
# Static dielectric constant tensor:
#      x y z
#    x 1.771590 0.000000 0.006120 
#    y 0.000000 1.864170 0.000000 
#    z 0.006120 0.000000 1.803820 
# 
# From -- ./inp_files/13090.got.cif
#   From: 2010.05.17/outbox.cif.g08.bks.cpg/sg4_7_cif.got.tgz:13090.got - 2010.06.03 18:43:04.
