data_PCOD9115495
_publ_section_title
;
Structure prediction by ZEFSAII (Michael W. Deem and Ramdas Pophale) SiO2 
 PCOD9115495
Probable space group: P 21
;
_chemical_formula_sum "Si O2"
_cell_formula_units_Z 12
_cell_length_a 7.204474
_cell_length_b 13.751736
_cell_length_c 5.143084
_cell_angle_alpha 90.000000
_cell_angle_beta 77.851403
_cell_angle_gamma 90.000000
_cell_volume 498.134793
_symmetry_space_group_name_H-M "P 21"
_symmetry_group_IT_number 4
_symmetry_cell_setting 'monoclinic'
loop_
_space_group_symop_operation_xyz
x,y,z
-x,1/2+y,-z
loop_
_atom_site_type_symbol
_atom_site_label
_atom_site_fract_x
_atom_site_fract_y
_atom_site_fract_z
Si Si1 0.123451 0.729230 0.724905
Si Si2 0.568484 0.369036 0.529624
Si Si3 0.949433 0.064752 0.924102
Si Si4 0.174759 0.103010 0.353716
Si Si5 0.452516 0.482168 0.055923
Si Si6 0.491423 0.656317 0.393616
O O1 0.112389 0.679492 0.012774
O O2 0.917837 0.710962 0.667234
O O3 0.270702 0.654467 0.539262
O O4 0.228745 0.830035 0.642859
O O5 0.569839 0.435506 0.784490
O O6 0.617541 0.621326 0.595259
O O7 0.467990 0.269758 0.656785
O O8 0.467087 0.417818 0.313521
O O9 0.763154 0.998836 0.974258
O O10 0.091378 0.049032 0.124608
O O11 0.067469 0.055639 0.629285
O O12 0.521928 0.587123 0.141884
#
# Coordination Sequence:
#
# PCOD9115495 Si02
#       6
#     2   2   2   2   2   2
#     4   8  21  41  65  89 134 165 211 267 330 365
#     4  10  25  37  70 100 128 177 226 265 331 395
#     4  10  20  39  66  89 136 163 213 269 332 368
#     4  10  21  39  68  99 121 181 214 266 339 382
#     4  12  22  42  68 100 128 182 219 267 335 396
#     4  10  23  44  71  95 133 178 221 274 327 400
#
# _framework density 24.089867000000002
#
# number of rings (size 3 to 8) (size 9 to 14) (size 15 to 20)
#    2.000    0.000    1.667    2.000    4.667    4.000 
#    0.000    5.000    0.000    0.000    0.000    0.000 
#    0.000    0.000    0.000    0.000    0.000    0.000 
#
# Total GULP energy -66895.412368 kJ/mol
# GULP energy per Si atom -5574.617697 kJ/mol
# Density = 2.403504 g / cm^3
# Si number density = 24.089867 Si / 1000 Ang^3
#
#
#
# Elastic Constant Matrix: (Units=GPa)
#
#
# Indices 1 2 3 4 5 6 
#
# 1 65.2908 15.6913 29.2418 0.0000 33.6181 0.0000
# 2 15.6913 122.5895 41.7687 0.0000 17.2449 0.0000
# 3 29.2418 41.7687 150.0903 0.0000 29.1757 0.0000
# 4 0.0000 0.0000 0.0000 24.1085 0.0000 5.3515
# 5 33.6181 17.2449 29.1757 0.0000 37.3510 0.0000
# 6 0.0000 0.0000 0.0000 5.3515 0.0000 19.8606
#
#
#
# Elastic Compliance Matrix: (Units=1/GPa)
#
#
# Indices 1 2 3 4 5 6 
#
# 1 0.028604 0.000130 -0.000699 0.000000 -0.025259 0.000000
# 2 0.000130 0.009231 -0.002055 0.000000 -0.002774 0.000000
# 3 -0.000699 -0.002055 0.008329 0.000000 -0.004928 0.000000
# 4 0.000000 0.000000 0.000000 0.044118 0.000000 -0.011888
# 5 -0.025259 -0.002774 -0.004928 0.000000 0.054638 0.000000
# 6 0.000000 0.000000 0.000000 -0.011888 0.000000 0.053554
#
#
# Mechanical properties :
#
#
# Convention : Reuss Voigt Hill
#
# Bulk Modulus (GPa) = 24.44054 56.81937 40.62996
# Shear Modulus (GPa) = 23.00339 33.01528 28.00934
#
# Velocity S-wave (km/s) = 3.09350 3.70605 3.41354
# Velocity P-wave (km/s) = 4.78824 6.47694 5.69552
#
# Compressibility (1/GPa) = 0.04091562
#
# Stress axis : x y z
#
# Youngs Moduli (GPa) = 34.96049 108.33002 120.06775
#
# Poissons Ratio (x) = -0.01410 0.08392
# Poissons Ratio (y) = -0.00455 0.24675
# Poissons Ratio (z) = 0.02444 0.22263
#
# Static dielectric constant tensor:
#      x y z
#    x 2.006970 0.000000 -0.094810 
#    y 0.000000 2.057000 0.000000 
#    z -0.094810 0.000000 1.937560 
# 
# From -- ./inp_files/1425.got.cif
#   From: 2010.05.17/outbox.cif.g08.bks.cpg/sg4_1_cif.got.tgz:1425.got - 2010.06.03 18:43:04.
