data_PCOD9115344
_publ_section_title
;
Structure prediction by ZEFSAII (Michael W. Deem and Ramdas Pophale) SiO2 
 PCOD9115344
Probable space group: P 21
;
_chemical_formula_sum "Si O2"
_cell_formula_units_Z 16
_cell_length_a 20.035670
_cell_length_b 7.311733
_cell_length_c 8.113135
_cell_angle_alpha 90.000000
_cell_angle_beta 35.394945
_cell_angle_gamma 90.000000
_cell_volume 688.411931
_symmetry_space_group_name_H-M "P 21"
_symmetry_group_IT_number 4
_symmetry_cell_setting 'monoclinic'
loop_
_space_group_symop_operation_xyz
x,y,z
-x,1/2+y,-z
loop_
_atom_site_type_symbol
_atom_site_label
_atom_site_fract_x
_atom_site_fract_y
_atom_site_fract_z
Si Si1 0.847091 0.889760 0.873211
Si Si2 0.075759 0.904738 0.580851
Si Si3 0.414300 0.351744 0.543561
Si Si4 0.169374 0.828838 0.045054
Si Si5 0.379477 0.727886 0.441050
Si Si6 0.549039 0.995524 0.168790
Si Si7 0.218403 0.594297 0.473382
Si Si8 0.944775 0.813395 0.313915
O O1 0.882003 0.846215 0.616445
O O2 0.950872 0.827380 0.781566
O O3 0.844930 0.111238 0.889565
O O4 0.723196 0.816352 0.175528
O O5 0.137026 0.931236 0.278334
O O6 0.149093 0.761692 0.534989
O O7 0.062343 0.097304 0.698745
O O8 0.430112 0.544379 0.418459
O O9 0.485939 0.188340 0.320653
O O10 0.450146 0.388379 0.659792
O O11 0.076229 0.869902 0.089721
O O12 0.301058 0.844653 0.726215
O O13 0.286721 0.659158 0.495746
O O14 0.479693 0.864416 0.182924
O O15 0.679143 0.029737 0.852908
O O16 0.125956 0.431324 0.674597
#
# Coordination Sequence:
#
# PCOD9115344 Si02
#       8
#     2   2   2   2   2   2   2   2
#     4   9  18  38  65 101 126 157 216 268 320 371
#     4  10  21  37  71  95 130 162 212 268 322 384
#     4  11  23  44  69  97 126 166 224 279 309 373
#     4   9  19  41  64  99 126 165 219 265 312 379
#     4  11  27  45  63  93 137 171 213 270 320 391
#     4  12  26  42  71  96 124 174 226 265 322 374
#     4  12  26  44  60  97 137 171 210 263 330 394
#     4  10  20  37  69  96 126 170 206 264 325 380
#
# _framework density 23.241900999999999
#
# number of rings (size 3 to 8) (size 9 to 14) (size 15 to 20)
#    0.000    1.500    3.750    0.750    5.250    2.000 
#    6.750    0.000    0.000    0.000    0.000    0.000 
#    0.000    0.000    0.000    0.000    0.000    0.000 
#
# Total GULP energy -89570.439974 kJ/mol
# GULP energy per Si atom -5598.152498 kJ/mol
# Density = 2.318900 g / cm^3
# Si number density = 23.241901 Si / 1000 Ang^3
#
#
#
# Elastic Constant Matrix: (Units=GPa)
#
#
# Indices 1 2 3 4 5 6 
#
# 1 101.3557 45.2751 21.4009 0.0000 -17.0788 0.0000
# 2 45.2751 90.1132 32.0954 0.0000 -15.7153 0.0000
# 3 21.4009 32.0954 68.1186 0.0000 -16.5861 0.0000
# 4 0.0000 0.0000 0.0000 23.8998 0.0000 -15.6342
# 5 -17.0788 -15.7153 -16.5861 0.0000 27.5471 0.0000
# 6 0.0000 0.0000 0.0000 -15.6342 0.0000 42.4667
#
#
#
# Elastic Compliance Matrix: (Units=1/GPa)
#
#
# Indices 1 2 3 4 5 6 
#
# 1 0.013301 -0.005738 -0.000310 0.000000 0.004787 0.000000
# 2 -0.005738 0.016299 -0.005249 0.000000 0.002581 0.000000
# 3 -0.000310 -0.005249 0.019305 0.000000 0.008437 0.000000
# 4 0.000000 0.000000 0.000000 0.055114 0.000000 0.020291
# 5 0.004787 0.002581 0.008437 0.000000 0.045821 0.000000
# 6 0.000000 0.000000 0.000000 0.020291 0.000000 0.031018
#
#
# Mechanical properties :
#
#
# Convention : Reuss Voigt Hill
#
# Bulk Modulus (GPa) = 38.00406 50.79227 44.39816
# Shear Modulus (GPa) = 23.56009 29.50381 26.53195
#
# Velocity S-wave (km/s) = 3.18730 3.56676 3.38236
# Velocity P-wave (km/s) = 5.47104 6.23407 5.86497
#
# Compressibility (1/GPa) = 0.02631298
#
# Stress axis : x y z
#
# Youngs Moduli (GPa) = 75.18081 61.35162 51.80002
#
# Poissons Ratio (x) = 0.35202 0.01606
# Poissons Ratio (y) = 0.43137 0.27188
# Poissons Ratio (z) = 0.02330 0.32202
#
# Static dielectric constant tensor:
#      x y z
#    x 1.896630 0.000000 0.029750 
#    y 0.000000 1.868260 0.000000 
#    z 0.029750 0.000000 1.866730 
# 
# From -- ./inp_files/9587.got.cif
#   From: 2010.05.17/outbox.cif.g08.bks.cpg/sg4_5_cif.got.tgz:9587.got - 2010.06.03 18:43:04.
