data_PCOD9115153
_publ_section_title
;
Structure prediction by ZEFSAII (Michael W. Deem and Ramdas Pophale) SiO2 
 PCOD9115153
Probable space group: P 21
;
_chemical_formula_sum "Si O2"
_cell_formula_units_Z 16
_cell_length_a 13.308665
_cell_length_b 5.027553
_cell_length_c 17.542870
_cell_angle_alpha 90.000000
_cell_angle_beta 140.822672
_cell_angle_gamma 90.000000
_cell_volume 741.512053
_symmetry_space_group_name_H-M "P 21"
_symmetry_group_IT_number 4
_symmetry_cell_setting 'monoclinic'
loop_
_space_group_symop_operation_xyz
x,y,z
-x,1/2+y,-z
loop_
_atom_site_type_symbol
_atom_site_label
_atom_site_fract_x
_atom_site_fract_y
_atom_site_fract_z
Si Si1 0.548740 0.670490 0.312583
Si Si2 0.156846 0.781798 0.525123
Si Si3 0.250470 0.010788 0.867437
Si Si4 0.962824 0.266274 0.377781
Si Si5 0.513418 0.694257 0.117321
Si Si6 0.022645 0.059116 0.064946
Si Si7 0.760538 0.811361 0.001886
Si Si8 0.647877 0.660486 0.777806
O O1 0.692865 0.461685 0.411864
O O2 0.564742 0.761537 0.233440
O O3 0.404963 0.466348 0.245801
O O4 0.493173 0.947779 0.318791
O O5 0.110588 0.478779 0.474566
O O6 0.145851 0.802130 0.610612
O O7 0.014387 0.962208 0.410488
O O8 0.337915 0.164897 0.850653
O O9 0.161916 0.179166 0.879117
O O10 0.132158 0.818811 0.754462
O O11 0.390189 0.876739 0.999175
O O12 0.408120 0.429382 0.069527
O O13 0.884560 0.032018 0.045738
O O14 0.204199 0.128792 0.192327
O O15 0.029201 0.774303 0.027778
O O16 0.720194 0.620558 0.906374
#
# Coordination Sequence:
#
# PCOD9115153 Si02
#       8
#     2   2   2   2   2   2   2   2
#     4  11  20  37  59  83 114 146 191 242 289 337
#     4  10  21  40  56  80 107 156 203 247 276 328
#     4  12  22  36  53  83 123 162 189 235 281 364
#     4  10  23  37  57  77 114 156 202 236 281 328
#     4  11  22  34  51  84 118 159 186 224 285 351
#     4  10  20  36  55  79 119 155 190 236 281 345
#     4  10  22  34  53  80 122 156 189 223 289 355
#     4  10  20  34  56  86 111 146 188 239 290 338
#
# _framework density 21.577532999999999
#
# number of rings (size 3 to 8) (size 9 to 14) (size 15 to 20)
#    0.000    1.500    3.750    3.000    3.500    0.000 
#    2.250    0.000    0.000    0.000    0.000    3.500 
#    0.000    0.000    0.000    0.000    0.000    0.000 
#
# Total GULP energy -89179.974314 kJ/mol
# GULP energy per Si atom -5573.748395 kJ/mol
# Density = 2.152842 g / cm^3
# Si number density = 21.577533 Si / 1000 Ang^3
#
#
#
# Elastic Constant Matrix: (Units=GPa)
#
#
# Indices 1 2 3 4 5 6 
#
# 1 33.5969 14.9638 9.5824 0.0000 10.1471 0.0000
# 2 14.9638 74.9014 0.8450 0.0000 2.8561 0.0000
# 3 9.5824 0.8450 18.9571 0.0000 6.7440 0.0000
# 4 0.0000 0.0000 0.0000 20.6944 0.0000 13.1770
# 5 10.1471 2.8561 6.7440 0.0000 21.2316 0.0000
# 6 0.0000 0.0000 0.0000 13.1770 0.0000 25.9438
#
#
#
# Elastic Compliance Matrix: (Units=1/GPa)
#
#
# Indices 1 2 3 4 5 6 
#
# 1 0.041925 -0.007664 -0.015884 0.000000 -0.013961 0.000000
# 2 -0.007664 0.014821 0.002953 0.000000 0.000731 0.000000
# 3 -0.015884 0.002953 0.065489 0.000000 -0.013608 0.000000
# 4 0.000000 0.000000 0.000000 0.071420 0.000000 -0.036275
# 5 -0.013961 0.000731 -0.013608 0.000000 0.057996 0.000000
# 6 0.000000 0.000000 0.000000 -0.036275 0.000000 0.056969
#
#
# Mechanical properties :
#
#
# Convention : Reuss Voigt Hill
#
# Bulk Modulus (GPa) = 12.33878 19.80420 16.07149
# Shear Modulus (GPa) = 13.26880 20.37825 16.82352
#
# Velocity S-wave (km/s) = 2.48248 3.07648 2.79530
# Velocity P-wave (km/s) = 3.73466 4.67094 4.22879
#
# Compressibility (1/GPa) = 0.08104526
#
# Stress axis : x y z
#
# Youngs Moduli (GPa) = 23.85214 67.47243 15.26974
#
# Poissons Ratio (x) = 0.51713 0.24254
# Poissons Ratio (y) = 0.18281 -0.04510
# Poissons Ratio (z) = 0.37887 -0.19927
#
# Static dielectric constant tensor:
#      x y z
#    x 1.841890 0.000000 0.056680 
#    y 0.000000 1.850690 0.000000 
#    z 0.056680 0.000000 1.835670 
# 
# From -- ./inp_files/13098.got.cif
#   From: 2010.05.17/outbox.cif.g08.bks.cpg/sg4_7_cif.got.tgz:13098.got - 2010.06.03 18:43:04.
