data_PCOD9115702
_publ_section_title
;
Structure prediction by ZEFSAII (Michael W. Deem and Ramdas Pophale) SiO2 
 PCOD9115702
Probable space group: P 21
;
_chemical_formula_sum "Si O2"
_cell_formula_units_Z 14
_cell_length_a 11.998085
_cell_length_b 8.689945
_cell_length_c 5.856056
_cell_angle_alpha 90.000000
_cell_angle_beta 71.059369
_cell_angle_gamma 90.000000
_cell_volume 577.509242
_symmetry_space_group_name_H-M "P 21"
_symmetry_group_IT_number 4
_symmetry_cell_setting 'monoclinic'
loop_
_space_group_symop_operation_xyz
x,y,z
-x,1/2+y,-z
loop_
_atom_site_type_symbol
_atom_site_label
_atom_site_fract_x
_atom_site_fract_y
_atom_site_fract_z
Si Si1 0.221706 0.848890 0.894777
Si Si2 0.450216 0.781838 0.991106
Si Si3 0.001727 0.862785 0.507512
Si Si4 0.155614 0.612557 0.582509
Si Si5 0.161598 0.103769 0.305670
Si Si6 0.381170 0.023520 0.417213
Si Si7 0.568557 0.035839 0.657619
O O1 0.144486 0.721469 0.814114
O O2 0.297802 0.942700 0.659388
O O3 0.322716 0.759166 0.965240
O O4 0.167903 0.981410 0.093600
O O5 0.487294 0.628333 0.092530
O O6 0.426832 0.890522 0.222715
O O7 0.536564 0.863166 0.755115
O O8 0.902443 0.763754 0.706978
O O9 0.101997 0.727970 0.422770
O O10 0.921099 0.955564 0.375019
O O11 0.079317 0.007877 0.540630
O O12 0.293212 0.571414 0.459792
O O13 0.288614 0.123421 0.332473
O O14 0.494426 0.080369 0.482852
#
# Coordination Sequence:
#
# PCOD9115702 Si02
#       7
#     2   2   2   2   2   2   2
#     4  10  20  42  72  96 144 189 239 299 369 425
#     4  10  23  40  65 105 142 185 228 293 362 441
#     4  10  23  44  70  99 146 191 241 304 354 432
#     4  11  22  45  72 104 142 196 244 303 365 431
#     4  10  21  44  70 101 145 189 241 303 365 431
#     4  10  21  41  68  98 142 182 232 301 361 429
#     4  11  24  40  71 103 143 190 233 291 370 437
#
# _framework density 24.242038000000001
#
# number of rings (size 3 to 8) (size 9 to 14) (size 15 to 20)
#    0.000    1.714    2.857    0.857    2.000    4.571 
#    5.143    2.857    0.000    0.000    0.000    0.000 
#    0.000    0.000    0.000    0.000    0.000    0.000 
#
# Total GULP energy -77978.558700 kJ/mol
# GULP energy per Si atom -5569.897050 kJ/mol
# Density = 2.418686 g / cm^3
# Si number density = 24.242038 Si / 1000 Ang^3
#
#
#
# Elastic Constant Matrix: (Units=GPa)
#
#
# Indices 1 2 3 4 5 6 
#
# 1 205.7177 77.8278 51.9601 0.0000 10.0683 0.0000
# 2 77.8278 103.7000 48.4771 0.0000 10.6407 0.0000
# 3 51.9601 48.4771 71.6833 0.0000 11.6385 0.0000
# 4 0.0000 0.0000 0.0000 44.4998 0.0000 -2.2722
# 5 10.0683 10.6407 11.6385 0.0000 18.1591 0.0000
# 6 0.0000 0.0000 0.0000 -2.2722 0.0000 59.5377
#
#
#
# Elastic Compliance Matrix: (Units=1/GPa)
#
#
# Indices 1 2 3 4 5 6 
#
# 1 0.007025 -0.004229 -0.002234 0.000000 0.000015 0.000000
# 2 -0.004229 0.016742 -0.007862 0.000000 -0.002426 0.000000
# 3 -0.002234 -0.007862 0.022253 0.000000 -0.008417 0.000000
# 4 0.000000 0.000000 0.000000 0.022516 0.000000 0.000859
# 5 0.000015 -0.002426 -0.008417 0.000000 0.061876 0.000000
# 6 0.000000 0.000000 0.000000 0.000859 0.000000 0.016829
#
#
# Mechanical properties :
#
#
# Convention : Reuss Voigt Hill
#
# Bulk Modulus (GPa) = 57.57723 81.95901 69.76812
# Shear Modulus (GPa) = 27.52068 37.96173 32.74121
#
# Velocity S-wave (km/s) = 3.37300 3.96150 3.67903
# Velocity P-wave (km/s) = 6.24276 7.40315 6.84758
#
# Compressibility (1/GPa) = 0.01736798
#
# Stress axis : x y z
#
# Youngs Moduli (GPa) = 142.35705 59.73139 44.93692
#
# Poissons Ratio (x) = 0.25261 0.10040
# Poissons Ratio (y) = 0.60205 0.35331
# Poissons Ratio (z) = 0.31807 0.46963
#
# Static dielectric constant tensor:
#      x y z
#    x 1.953970 0.000000 -0.017690 
#    y 0.000000 2.014270 0.000000 
#    z -0.017690 0.000000 2.024910 
# 
# From -- ./inp_files/2430.got.cif
#   From: 2010.05.17/outbox.cif.g08.bks.cpg/sg4_2_cif.got.tgz:2430.got - 2010.06.03 18:43:04.
