data_PCOD9115853
_publ_section_title
;
Structure prediction by ZEFSAII (Michael W. Deem and Ramdas Pophale) SiO2 
 PCOD9115853
Probable space group: P 21
;
_chemical_formula_sum "Si O2"
_cell_formula_units_Z 14
_cell_length_a 12.693931
_cell_length_b 8.397980
_cell_length_c 12.114580
_cell_angle_alpha 90.000000
_cell_angle_beta 154.745052
_cell_angle_gamma 90.000000
_cell_volume 550.995270
_symmetry_space_group_name_H-M "P 21"
_symmetry_group_IT_number 4
_symmetry_cell_setting 'monoclinic'
loop_
_space_group_symop_operation_xyz
x,y,z
-x,1/2+y,-z
loop_
_atom_site_type_symbol
_atom_site_label
_atom_site_fract_x
_atom_site_fract_y
_atom_site_fract_z
Si Si1 0.911925 0.794670 0.067638
Si Si2 0.815747 0.015978 0.784610
Si Si3 0.860122 0.489027 0.522745
Si Si4 0.110533 0.800261 0.798443
Si Si5 0.197051 0.474408 0.631988
Si Si6 0.448911 0.781425 0.906577
Si Si7 0.339307 0.973682 0.190191
O O1 0.700789 0.659447 0.880855
O O2 0.810362 0.948542 0.904325
O O3 0.023859 0.852790 0.289220
O O4 0.119139 0.696899 0.191757
O O5 0.565653 0.963883 0.487564
O O6 0.066765 0.934492 0.979336
O O7 0.930009 0.652395 0.652055
O O8 0.003808 0.514960 0.544383
O O9 0.599108 0.418396 0.231148
O O10 0.237870 0.787256 0.799947
O O11 0.929659 0.950048 0.605717
O O12 0.337245 0.843792 0.091952
O O13 0.410936 0.605442 0.824696
O O14 0.312293 0.315992 0.795344
#
# Coordination Sequence:
#
# PCOD9115853 Si02
#       7
#     2   2   2   2   2   2   2
#     4  10  25  42  70  92 135 166 223 274 332 395
#     4  10  26  45  68 100 128 174 218 275 333 387
#     4  10  22  41  60  94 124 172 218 270 329 389
#     4  10  22  38  63  89 133 168 221 266 328 387
#     4  10  21  38  59  94 129 174 215 271 321 393
#     4  10  21  37  61  91 131 170 220 267 325 389
#     4  10  25  43  69  98 130 174 217 271 332 390
#
# _framework density 25.408567000000001
#
# number of rings (size 3 to 8) (size 9 to 14) (size 15 to 20)
#    0.857    1.143    0.000    1.714    6.000    4.571 
#    0.000    0.000    0.000    0.000    0.000    0.000 
#    0.000    0.000    0.000    0.000    0.000    0.000 
#
# Total GULP energy -77997.002654 kJ/mol
# GULP energy per Si atom -5571.214475 kJ/mol
# Density = 2.535074 g / cm^3
# Si number density = 25.408567 Si / 1000 Ang^3
#
#
#
# Elastic Constant Matrix: (Units=GPa)
#
#
# Indices 1 2 3 4 5 6 
#
# 1 35.9909 10.3503 17.1024 0.0000 -10.8394 0.0000
# 2 10.3503 86.7072 32.0264 0.0000 -11.0779 0.0000
# 3 17.1024 32.0264 174.6103 0.0000 -14.2568 0.0000
# 4 0.0000 0.0000 0.0000 39.3850 0.0000 -8.6140
# 5 -10.8394 -11.0779 -14.2568 0.0000 28.9857 0.0000
# 6 0.0000 0.0000 0.0000 -8.6140 0.0000 23.9739
#
#
#
# Elastic Compliance Matrix: (Units=1/GPa)
#
#
# Indices 1 2 3 4 5 6 
#
# 1 0.032394 -0.001797 -0.001990 0.000000 0.010448 0.000000
# 2 -0.001797 0.012878 -0.001916 0.000000 0.003307 0.000000
# 3 -0.001990 -0.001916 0.006410 0.000000 0.001676 0.000000
# 4 0.000000 0.000000 0.000000 0.027556 0.000000 0.009901
# 5 0.010448 0.003307 0.001676 0.000000 0.040496 0.000000
# 6 0.000000 0.000000 0.000000 0.009901 0.000000 0.045270
#
#
# Mechanical properties :
#
#
# Convention : Reuss Voigt Hill
#
# Bulk Modulus (GPa) = 24.82865 46.25183 35.54024
# Shear Modulus (GPa) = 26.33871 34.32420 30.33145
#
# Velocity S-wave (km/s) = 3.22313 3.67943 3.45882
# Velocity P-wave (km/s) = 4.86255 6.02443 5.47440
#
# Compressibility (1/GPa) = 0.04027606
#
# Stress axis : x y z
#
# Youngs Moduli (GPa) = 30.86987 77.65301 155.99973
#
# Poissons Ratio (x) = 0.13953 0.31047
# Poissons Ratio (y) = 0.05547 0.29889
# Poissons Ratio (z) = 0.06144 0.14878
#
# Static dielectric constant tensor:
#      x y z
#    x 2.156330 0.000000 0.013970 
#    y 0.000000 2.125960 0.000000 
#    z 0.013970 0.000000 1.959770 
# 
# From -- ./inp_files/3387.got.cif
#   From: 2010.05.17/outbox.cif.g08.bks.cpg/sg4_2_cif.got.tgz:3387.got - 2010.06.03 18:43:04.
