data_PCOD9115850
_publ_section_title
;
Structure prediction by ZEFSAII (Michael W. Deem and Ramdas Pophale) SiO2 
 PCOD9115850
Probable space group: P 21
;
_chemical_formula_sum "Si O2"
_cell_formula_units_Z 16
_cell_length_a 11.621951
_cell_length_b 9.287715
_cell_length_c 15.858482
_cell_angle_alpha 90.000000
_cell_angle_beta 23.764105
_cell_angle_gamma 90.000000
_cell_volume 689.801943
_symmetry_space_group_name_H-M "P 21"
_symmetry_group_IT_number 4
_symmetry_cell_setting 'monoclinic'
loop_
_space_group_symop_operation_xyz
x,y,z
-x,1/2+y,-z
loop_
_atom_site_type_symbol
_atom_site_label
_atom_site_fract_x
_atom_site_fract_y
_atom_site_fract_z
Si Si1 0.323484 0.524510 0.405201
Si Si2 0.528971 0.045352 0.414383
Si Si3 0.879105 0.899666 0.731554
Si Si4 0.147523 0.739319 0.396998
Si Si5 0.239496 0.893372 0.168594
Si Si6 0.310724 0.733537 0.556616
Si Si7 0.067123 0.652449 0.174687
Si Si8 0.455275 0.195266 0.283508
O O1 0.439362 0.622189 0.402379
O O2 0.452349 0.365404 0.310638
O O3 0.334947 0.614199 0.311739
O O4 0.978949 0.516254 0.655659
O O5 0.751932 0.140575 0.317439
O O6 0.500574 0.099156 0.336841
O O7 0.233599 0.097362 0.655660
O O8 0.517003 0.873060 0.429027
O O9 0.067345 0.853790 0.524220
O O10 0.023252 0.800305 0.707622
O O11 0.867501 0.051547 0.788457
O O12 0.553158 0.891297 0.919681
O O13 0.851363 0.679718 0.556527
O O14 0.297660 0.814334 0.218276
O O15 0.048153 0.808417 0.229429
O O16 0.305524 0.653672 0.944113
#
# Coordination Sequence:
#
# PCOD9115850 Si02
#       8
#     2   2   2   2   2   2   2   2
#     4  10  22  40  64  97 134 173 220 273 342 399
#     4  11  23  46  70  91 134 175 231 278 328 400
#     4  10  23  40  61  97 137 170 218 271 327 408
#     4  10  21  37  60  95 133 174 215 272 331 402
#     4  11  22  35  63  95 133 169 213 267 335 396
#     4  10  24  45  72  95 131 182 224 277 342 391
#     4  11  23  38  63  94 131 176 219 270 333 389
#     4  11  22  41  65  96 133 175 226 276 336 399
#
# _framework density 23.195063999999999
#
# number of rings (size 3 to 8) (size 9 to 14) (size 15 to 20)
#    0.000    1.500    3.750    1.500    5.250    5.000 
#    0.000    6.250    0.000    0.000    0.000    0.000 
#    0.000    0.000    0.000    0.000    0.000    0.000 
#
# Total GULP energy -89273.970504 kJ/mol
# GULP energy per Si atom -5579.623157 kJ/mol
# Density = 2.314227 g / cm^3
# Si number density = 23.195064 Si / 1000 Ang^3
#
#
#
# Elastic Constant Matrix: (Units=GPa)
#
#
# Indices 1 2 3 4 5 6 
#
# 1 103.9973 44.3199 2.4928 0.0000 29.1258 0.0000
# 2 44.3199 121.5050 15.4651 0.0000 18.0503 0.0000
# 3 2.4928 15.4651 70.1617 0.0000 23.7664 0.0000
# 4 0.0000 0.0000 0.0000 8.3758 0.0000 12.0348
# 5 29.1258 18.0503 23.7664 0.0000 27.2656 0.0000
# 6 0.0000 0.0000 0.0000 12.0348 0.0000 42.5917
#
#
#
# Elastic Compliance Matrix: (Units=1/GPa)
#
#
# Indices 1 2 3 4 5 6 
#
# 1 0.017662 -0.004017 0.008157 0.000000 -0.023318 0.000000
# 2 -0.004017 0.010041 -0.001805 0.000000 -0.000783 0.000000
# 3 0.008157 -0.001805 0.023991 0.000000 -0.028430 0.000000
# 4 0.000000 0.000000 0.000000 0.200997 0.000000 -0.056794
# 5 -0.023318 -0.000783 -0.028430 0.000000 0.086885 0.000000
# 6 0.000000 0.000000 0.000000 -0.056794 0.000000 0.039527
#
#
# Mechanical properties :
#
#
# Convention : Reuss Voigt Hill
#
# Bulk Modulus (GPa) = 17.74173 46.69107 32.21640
# Shear Modulus (GPa) = 12.71545 31.20568 21.96056
#
# Velocity S-wave (km/s) = 2.34390 3.67189 3.08031
# Velocity P-wave (km/s) = 3.87178 6.17661 5.15467
#
# Compressibility (1/GPa) = 0.05636430
#
# Stress axis : x y z
#
# Youngs Moduli (GPa) = 56.61751 99.58818 41.68175
#
# Poissons Ratio (x) = 0.40001 -0.33998
# Poissons Ratio (y) = 0.22741 0.07525
# Poissons Ratio (z) = -0.46180 0.17978
#
# Static dielectric constant tensor:
#      x y z
#    x 1.931340 0.000000 -0.047680 
#    y 0.000000 2.011070 0.000000 
#    z -0.047680 0.000000 1.894470 
# 
# From -- ./inp_files/13894.got.cif
#   From: 2010.05.17/outbox.cif.g08.bks.cpg/sg4_7_cif.got.tgz:13894.got - 2010.06.03 18:43:04.
