data_PCOD9115780
_publ_section_title
;
Structure prediction by ZEFSAII (Michael W. Deem and Ramdas Pophale) SiO2 
 PCOD9115780
Probable space group: P 21
;
_chemical_formula_sum "Si O2"
_cell_formula_units_Z 14
_cell_length_a 8.544649
_cell_length_b 5.445605
_cell_length_c 16.048181
_cell_angle_alpha 90.000000
_cell_angle_beta 127.391714
_cell_angle_gamma 90.000000
_cell_volume 593.282336
_symmetry_space_group_name_H-M "P 21"
_symmetry_group_IT_number 4
_symmetry_cell_setting 'monoclinic'
loop_
_space_group_symop_operation_xyz
x,y,z
-x,1/2+y,-z
loop_
_atom_site_type_symbol
_atom_site_label
_atom_site_fract_x
_atom_site_fract_y
_atom_site_fract_z
Si Si1 0.624149 0.956920 0.546826
Si Si2 0.953680 0.965729 0.792378
Si Si3 0.233924 0.544158 0.083150
Si Si4 0.583561 0.394634 0.751904
Si Si5 0.016783 0.484316 0.456164
Si Si6 0.980111 0.966351 0.157867
Si Si7 0.602769 0.394303 0.271650
O O1 0.491335 0.713151 0.501268
O O2 0.762997 0.964868 0.672786
O O3 0.469225 0.137558 0.699252
O O4 0.877430 0.972318 0.865542
O O5 0.072922 0.718551 0.816226
O O6 0.079034 0.211069 0.821193
O O7 0.311360 0.821955 0.125237
O O8 0.441561 0.401648 0.146059
O O9 0.102272 0.487978 0.962091
O O10 0.779371 0.452651 0.762277
O O11 0.443059 0.627985 0.704593
O O12 0.831805 0.437471 0.334983
O O13 0.009569 0.766218 0.484730
O O14 0.220136 0.437568 0.476919
#
# Coordination Sequence:
#
# PCOD9115780 Si02
#       7
#     2   2   2   2   2   2   2
#     4  12  29  48  73 102 143 183 236 298 369 410
#     4  11  22  35  59  90 136 170 214 284 344 393
#     4   9  21  30  61  93 135 167 227 276 327 400
#     4   9  18  29  52  86 127 162 207 273 318 380
#     4  12  28  46  74  99 135 185 243 295 350 433
#     4  11  19  32  57  98 132 172 224 274 333 393
#     4  10  21  34  56  88 126 163 221 270 343 383
#
# _framework density 23.597536000000002
#
# number of rings (size 3 to 8) (size 9 to 14) (size 15 to 20)
#    0.857    0.571    1.429    4.286    6.000    2.286 
#    0.000    0.000    0.000    1.714    0.000    0.000 
#    0.000    0.000    0.000    0.000    0.000    0.000 
#
# Total GULP energy -78072.955566 kJ/mol
# GULP energy per Si atom -5576.639683 kJ/mol
# Density = 2.354383 g / cm^3
# Si number density = 23.597536 Si / 1000 Ang^3
#
#
#
# Elastic Constant Matrix: (Units=GPa)
#
#
# Indices 1 2 3 4 5 6 
#
# 1 44.3743 6.9890 4.2785 0.0000 14.0033 0.0000
# 2 6.9890 202.3792 43.5295 0.0000 2.0231 0.0000
# 3 4.2785 43.5295 122.2737 0.0000 -4.5798 0.0000
# 4 0.0000 0.0000 0.0000 34.4773 0.0000 5.2151
# 5 14.0033 2.0231 -4.5798 0.0000 26.4704 0.0000
# 6 0.0000 0.0000 0.0000 5.2151 0.0000 20.9873
#
#
#
# Elastic Compliance Matrix: (Units=1/GPa)
#
#
# Indices 1 2 3 4 5 6 
#
# 1 0.027374 -0.000514 -0.001324 0.000000 -0.014671 0.000000
# 2 -0.000514 0.005375 -0.001913 0.000000 -0.000470 0.000000
# 3 -0.001324 -0.001913 0.008996 0.000000 0.002403 0.000000
# 4 0.000000 0.000000 0.000000 0.030137 0.000000 -0.007489
# 5 -0.014671 -0.000470 0.002403 0.000000 0.045991 0.000000
# 6 0.000000 0.000000 0.000000 -0.007489 0.000000 0.049509
#
#
# Mechanical properties :
#
#
# Convention : Reuss Voigt Hill
#
# Bulk Modulus (GPa) = 29.20381 53.18014 41.19197
# Shear Modulus (GPa) = 26.83858 37.33569 32.08713
#
# Velocity S-wave (km/s) = 3.37612 3.98199 3.69150
# Velocity P-wave (km/s) = 5.25359 6.61263 5.97189
#
# Compressibility (1/GPa) = 0.03424211
#
# Stress axis : x y z
#
# Youngs Moduli (GPa) = 36.53102 186.04077 111.16268
#
# Poissons Ratio (x) = 0.09559 0.14723
# Poissons Ratio (y) = 0.01877 0.21267
# Poissons Ratio (z) = 0.04838 0.35593
#
# Static dielectric constant tensor:
#      x y z
#    x 1.872930 0.000000 -0.027890 
#    y 0.000000 2.006180 0.000000 
#    z -0.027890 0.000000 1.931580 
# 
# From -- ./inp_files/15763.got.cif
#   From: 2010.05.17/outbox.cif.g08.bks.cpg/sg4_8_cif.got.tgz:15763.got - 2010.06.03 18:43:04.
