data_PCOD9115870
_publ_section_title
;
Structure prediction by ZEFSAII (Michael W. Deem and Ramdas Pophale) SiO2 
 PCOD9115870
Probable space group: P 21
;
_chemical_formula_sum "Si O2"
_cell_formula_units_Z 14
_cell_length_a 11.293894
_cell_length_b 4.932704
_cell_length_c 10.653540
_cell_angle_alpha 90.000000
_cell_angle_beta 111.798406
_cell_angle_gamma 90.000000
_cell_volume 551.064982
_symmetry_space_group_name_H-M "P 21"
_symmetry_group_IT_number 4
_symmetry_cell_setting 'monoclinic'
loop_
_space_group_symop_operation_xyz
x,y,z
-x,1/2+y,-z
loop_
_atom_site_type_symbol
_atom_site_label
_atom_site_fract_x
_atom_site_fract_y
_atom_site_fract_z
Si Si1 0.409565 0.198770 0.973552
Si Si2 0.064940 0.125254 0.469444
Si Si3 0.159028 0.869204 0.098247
Si Si4 0.420476 0.510573 0.489347
Si Si5 0.038322 0.365144 0.181712
Si Si6 0.333145 0.188770 0.676653
Si Si7 0.377974 0.484551 0.210482
O O1 0.316527 0.235209 0.818245
O O2 0.528992 0.402121 0.996548
O O3 0.352844 0.293976 0.082680
O O4 0.210522 0.056502 0.564190
O O5 0.016991 0.353992 0.548325
O O6 0.049012 0.266421 0.328023
O O7 0.124838 0.165289 0.131862
O O8 0.301196 0.759495 0.159422
O O9 0.084056 0.667427 0.165559
O O10 0.101128 0.832763 0.936235
O O11 0.454146 0.818444 0.470080
O O12 0.358649 0.451505 0.598627
O O13 0.344122 0.397799 0.339222
O O14 0.468943 0.032644 0.726939
#
# Coordination Sequence:
#
# PCOD9115870 Si02
#       7
#     2   2   2   2   2   2   2
#     4  10  22  40  61  93 138 171 209 264 334 400
#     4  12  28  46  69  94 134 187 229 270 329 403
#     4  10  22  41  72  97 129 174 214 286 330 394
#     4  10  21  37  63  94 131 165 207 261 334 397
#     4  10  23  46  65  97 134 171 229 270 328 390
#     4  10  24  44  65  98 135 172 218 278 331 397
#     4  10  22  40  67 103 127 170 216 273 342 389
#
# _framework density 25.405353000000002
#
# number of rings (size 3 to 8) (size 9 to 14) (size 15 to 20)
#    0.000    1.714    0.000    2.571    2.000   13.714 
#    5.143    0.000    0.000    0.000    0.000    0.000 
#    0.000    0.000    0.000    0.000    0.000    0.000 
#
# Total GULP energy -78328.757561 kJ/mol
# GULP energy per Si atom -5594.911254 kJ/mol
# Density = 2.534753 g / cm^3
# Si number density = 25.405353 Si / 1000 Ang^3
#
#
#
# Elastic Constant Matrix: (Units=GPa)
#
#
# Indices 1 2 3 4 5 6 
#
# 1 61.1788 12.3514 32.5873 0.0000 6.6550 0.0000
# 2 12.3514 65.9519 -6.4477 0.0000 -0.2067 0.0000
# 3 32.5873 -6.4477 194.4440 0.0000 -4.2174 0.0000
# 4 0.0000 0.0000 0.0000 28.2028 0.0000 2.0899
# 5 6.6550 -0.2067 -4.2174 0.0000 40.5572 0.0000
# 6 0.0000 0.0000 0.0000 2.0899 0.0000 32.6396
#
#
#
# Elastic Compliance Matrix: (Units=1/GPa)
#
#
# Indices 1 2 3 4 5 6 
#
# 1 0.019377 -0.003978 -0.003457 0.000000 -0.003559 0.000000
# 2 -0.003978 0.016029 0.001217 0.000000 0.000861 0.000000
# 3 -0.003457 0.001217 0.005788 0.000000 0.001175 0.000000
# 4 0.000000 0.000000 0.000000 0.035627 0.000000 -0.002281
# 5 -0.003559 0.000861 0.001175 0.000000 0.025367 0.000000
# 6 0.000000 0.000000 0.000000 -0.002281 0.000000 0.030784
#
#
# Mechanical properties :
#
#
# Convention : Reuss Voigt Hill
#
# Bulk Modulus (GPa) = 34.77183 44.28408 39.52795
# Shear Modulus (GPa) = 32.25948 39.15215 35.70582
#
# Velocity S-wave (km/s) = 3.56728 3.92994 3.75299
# Velocity P-wave (km/s) = 5.53930 6.16939 5.86282
#
# Compressibility (1/GPa) = 0.02875891
#
# Stress axis : x y z
#
# Youngs Moduli (GPa) = 51.60771 62.38601 172.77136
#
# Poissons Ratio (x) = 0.24817 0.59719
# Poissons Ratio (y) = 0.20529 -0.21024
# Poissons Ratio (z) = 0.17838 -0.07592
#
# Static dielectric constant tensor:
#      x y z
#    x 2.035810 0.000000 -0.021290 
#    y 0.000000 1.973810 0.000000 
#    z -0.021290 0.000000 2.042940 
# 
# From -- ./inp_files/11726.got.cif
#   From: 2010.05.17/outbox.cif.g08.bks.cpg/sg4_6_cif.got.tgz:11726.got - 2010.06.03 18:43:04.
