data_PCOD9115651
_publ_section_title
;
Structure prediction by ZEFSAII (Michael W. Deem and Ramdas Pophale) SiO2 
 PCOD9115651
Probable space group: P 21
;
_chemical_formula_sum "Si O2"
_cell_formula_units_Z 12
_cell_length_a 11.666108
_cell_length_b 5.275151
_cell_length_c 7.607580
_cell_angle_alpha 90.000000
_cell_angle_beta 68.739592
_cell_angle_gamma 90.000000
_cell_volume 436.311147
_symmetry_space_group_name_H-M "P 21"
_symmetry_group_IT_number 4
_symmetry_cell_setting 'monoclinic'
loop_
_space_group_symop_operation_xyz
x,y,z
-x,1/2+y,-z
loop_
_atom_site_type_symbol
_atom_site_label
_atom_site_fract_x
_atom_site_fract_y
_atom_site_fract_z
Si Si1 0.478642 0.432380 0.111898
Si Si2 0.020127 0.821792 0.596839
Si Si3 0.165059 0.847660 0.016501
Si Si4 0.480981 0.110113 0.408293
Si Si5 0.111022 0.342214 0.951583
Si Si6 0.273412 0.786375 0.344568
O O1 0.551468 0.273348 0.218530
O O2 0.351829 0.534087 0.263650
O O3 0.536280 0.703097 0.020466
O O4 0.161259 0.740082 0.536960
O O5 0.972623 0.600206 0.494489
O O6 0.940176 0.834739 0.817103
O O7 0.191370 0.589306 0.903801
O O8 0.220652 0.855262 0.179826
O O9 0.190228 0.093061 0.887512
O O10 0.012110 0.846676 0.097503
O O11 0.461760 0.344862 0.554363
O O12 0.359967 0.000483 0.378596
#
# Coordination Sequence:
#
# PCOD9115651 Si02
#       6
#     2   2   2   2   2   2
#     4  12  26  50  77 106 147 200 267 326 390 453
#     4  12  24  40  70 109 154 194 240 292 369 467
#     4  10  22  38  70  94 142 190 243 285 357 435
#     4  12  26  50  77 108 153 200 257 339 394 449
#     4  10  20  42  58 100 148 192 229 296 339 431
#     4  12  26  44  80 109 148 204 254 308 395 457
#
# _framework density 27.503311
#
# number of rings (size 3 to 8) (size 9 to 14) (size 15 to 20)
#    0.000    0.667    6.667    0.000    4.667    0.000 
#    3.000    0.000    0.000    0.000    0.000    0.000 
#    0.000    0.000    0.000    0.000    0.000    0.000 
#
# Total GULP energy -67082.826394 kJ/mol
# GULP energy per Si atom -5590.235533 kJ/mol
# Density = 2.744071 g / cm^3
# Si number density = 27.503311 Si / 1000 Ang^3
#
#
#
# Elastic Constant Matrix: (Units=GPa)
#
#
# Indices 1 2 3 4 5 6 
#
# 1 137.0088 74.7898 32.9151 0.0000 25.6445 0.0000
# 2 74.7898 276.7207 37.5515 0.0000 19.9793 0.0000
# 3 32.9151 37.5515 95.4828 0.0000 13.5032 0.0000
# 4 0.0000 0.0000 0.0000 60.0032 0.0000 12.8285
# 5 25.6445 19.9793 13.5032 0.0000 54.2984 0.0000
# 6 0.0000 0.0000 0.0000 12.8285 0.0000 53.0079
#
#
#
# Elastic Compliance Matrix: (Units=1/GPa)
#
#
# Indices 1 2 3 4 5 6 
#
# 1 0.009514 -0.002065 -0.002010 0.000000 -0.003234 0.000000
# 2 -0.002065 0.004327 -0.000935 0.000000 -0.000384 0.000000
# 3 -0.002010 -0.000935 0.011765 0.000000 -0.001632 0.000000
# 4 0.000000 0.000000 0.000000 0.017575 0.000000 -0.004253
# 5 -0.003234 -0.000384 -0.001632 0.000000 0.020491 0.000000
# 6 0.000000 0.000000 0.000000 -0.004253 0.000000 0.019894
#
#
# Mechanical properties :
#
#
# Convention : Reuss Voigt Hill
#
# Bulk Modulus (GPa) = 64.16830 88.85835 76.51332
# Shear Modulus (GPa) = 50.61612 57.72563 54.17087
#
# Velocity S-wave (km/s) = 4.29460 4.58630 4.44285
# Velocity P-wave (km/s) = 6.92627 7.77328 7.36197
#
# Compressibility (1/GPa) = 0.01558402
#
# Stress axis : x y z
#
# Youngs Moduli (GPa) = 105.10434 231.13027 84.99967
#
# Poissons Ratio (x) = 0.47733 0.17088
# Poissons Ratio (y) = 0.21706 0.07950
# Poissons Ratio (z) = 0.21129 0.21618
#
# Static dielectric constant tensor:
#      x y z
#    x 2.178590 0.000000 0.031900 
#    y 0.000000 2.261490 0.000000 
#    z 0.031900 0.000000 2.245580 
# 
# From -- ./inp_files/7047.got.cif
#   From: 2010.05.17/outbox.cif.g08.bks.cpg/sg4_4_cif.got.tgz:7047.got - 2010.06.03 18:43:04.
