data_PCOD9115451
_publ_section_title
;
Structure prediction by ZEFSAII (Michael W. Deem and Ramdas Pophale) SiO2 
 PCOD9115451
Probable space group: P 21
;
_chemical_formula_sum "Si O2"
_cell_formula_units_Z 12
_cell_length_a 11.641682
_cell_length_b 5.338338
_cell_length_c 7.322400
_cell_angle_alpha 90.000000
_cell_angle_beta 107.007687
_cell_angle_gamma 90.000000
_cell_volume 435.164788
_symmetry_space_group_name_H-M "P 21"
_symmetry_group_IT_number 4
_symmetry_cell_setting 'monoclinic'
loop_
_space_group_symop_operation_xyz
x,y,z
-x,1/2+y,-z
loop_
_atom_site_type_symbol
_atom_site_label
_atom_site_fract_x
_atom_site_fract_y
_atom_site_fract_z
Si Si1 0.986466 0.911400 0.605277
Si Si2 0.071212 0.987936 0.012730
Si Si3 0.482932 0.772881 0.391366
Si Si4 0.606149 0.825658 0.054123
Si Si5 0.332776 0.830731 0.822317
Si Si6 0.768721 0.237884 0.625326
O O1 0.978442 0.639553 0.512418
O O2 0.086199 0.901952 0.809968
O O3 0.861131 0.012047 0.629584
O O4 0.166165 0.938154 0.215423
O O5 0.969520 0.776544 0.017681
O O6 0.459854 0.052609 0.459135
O O7 0.559594 0.808707 0.244187
O O8 0.349445 0.657513 0.320503
O O9 0.680956 0.576145 0.061561
O O10 0.687491 0.068647 0.088158
O O11 0.482740 0.827821 0.882210
O O12 0.273742 0.827746 0.596026
#
# Coordination Sequence:
#
# PCOD9115451 Si02
#       6
#     2   2   2   2   2   2
#     4  11  25  46  70 100 139 176 230 296 346 405
#     4  10  23  44  69 101 134 174 231 291 341 407
#     4  12  23  39  63  97 132 172 221 266 324 403
#     4  10  20  39  56  92 133 165 216 268 311 380
#     4  10  21  37  64  88 126 174 211 264 323 391
#     4  11  24  43  72  98 134 187 223 277 349 406
#
# _framework density 27.575756999999999
#
# number of rings (size 3 to 8) (size 9 to 14) (size 15 to 20)
#    0.000    1.333    3.333    2.000    0.000    9.333 
#    0.000    5.000    0.000    0.000    0.000    0.000 
#    0.000    0.000    0.000    0.000    0.000    0.000 
#
# Total GULP energy -67141.440859 kJ/mol
# GULP energy per Si atom -5595.120072 kJ/mol
# Density = 2.751299 g / cm^3
# Si number density = 27.575757 Si / 1000 Ang^3
#
#
#
# Elastic Constant Matrix: (Units=GPa)
#
#
# Indices 1 2 3 4 5 6 
#
# 1 73.2485 2.4748 8.9549 0.0000 4.1993 0.0000
# 2 2.4748 173.7622 48.7582 0.0000 7.9835 0.0000
# 3 8.9549 48.7582 210.2805 0.0000 13.6983 0.0000
# 4 0.0000 0.0000 0.0000 53.4696 0.0000 -4.5072
# 5 4.1993 7.9835 13.6983 0.0000 57.3279 0.0000
# 6 0.0000 0.0000 0.0000 -4.5072 0.0000 28.8107
#
#
#
# Elastic Compliance Matrix: (Units=1/GPa)
#
#
# Indices 1 2 3 4 5 6 
#
# 1 0.013767 -0.000008 -0.000527 0.000000 -0.000881 0.000000
# 2 -0.000008 0.006171 -0.001396 0.000000 -0.000525 0.000000
# 3 -0.000527 -0.001396 0.005167 0.000000 -0.001002 0.000000
# 4 0.000000 0.000000 0.000000 0.018952 0.000000 0.002965
# 5 -0.000881 -0.000525 -0.001002 0.000000 0.017821 0.000000
# 6 0.000000 0.000000 0.000000 0.002965 0.000000 0.035173
#
#
# Mechanical properties :
#
#
# Convention : Reuss Voigt Hill
#
# Bulk Modulus (GPa) = 47.07387 64.18522 55.62954
# Shear Modulus (GPa) = 46.29863 54.39521 50.34692
#
# Velocity S-wave (km/s) = 4.10196 4.44618 4.27754
# Velocity P-wave (km/s) = 6.28829 7.04873 6.67934
#
# Compressibility (1/GPa) = 0.02124321
#
# Stress axis : x y z
#
# Youngs Moduli (GPa) = 72.63543 162.04697 193.53518
#
# Poissons Ratio (x) = 0.00124 0.10201
# Poissons Ratio (y) = 0.00056 0.27024
# Poissons Ratio (z) = 0.03829 0.22628
#
# Static dielectric constant tensor:
#      x y z
#    x 2.248130 0.000000 -0.002590 
#    y 0.000000 2.195590 0.000000 
#    z -0.002590 0.000000 2.172320 
# 
# From -- ./inp_files/8940.got.cif
#   From: 2010.05.17/outbox.cif.g08.bks.cpg/sg4_5_cif.got.tgz:8940.got - 2010.06.03 18:43:04.
