data_PCOD9115932
_publ_section_title
;
Structure prediction by ZEFSAII (Michael W. Deem and Ramdas Pophale) SiO2 
 PCOD9115932
Probable space group: P 21
;
_chemical_formula_sum "Si O2"
_cell_formula_units_Z 16
_cell_length_a 8.686752
_cell_length_b 5.480676
_cell_length_c 21.238070
_cell_angle_alpha 90.000000
_cell_angle_beta 41.075156
_cell_angle_gamma 90.000000
_cell_volume 664.360774
_symmetry_space_group_name_H-M "P 21"
_symmetry_group_IT_number 4
_symmetry_cell_setting 'monoclinic'
loop_
_space_group_symop_operation_xyz
x,y,z
-x,1/2+y,-z
loop_
_atom_site_type_symbol
_atom_site_label
_atom_site_fract_x
_atom_site_fract_y
_atom_site_fract_z
Si Si1 0.293748 0.024430 0.290215
Si Si2 0.784728 0.178189 0.126897
Si Si3 0.348085 0.183164 0.838890
Si Si4 0.788207 0.983350 0.439583
Si Si5 0.731601 0.478978 0.376766
Si Si6 0.046992 0.183335 0.809101
Si Si7 0.270211 0.338280 0.034169
Si Si8 0.279120 0.039528 0.152350
O O1 0.532671 0.148941 0.243077
O O2 0.037227 0.017379 0.398140
O O3 0.379844 0.746181 0.250183
O O4 0.269304 0.127802 0.226669
O O5 0.732677 0.430291 0.107865
O O6 0.033132 0.200259 0.084451
O O7 0.776007 0.922622 0.093297
O O8 0.253901 0.193585 0.795797
O O9 0.768197 0.225118 0.401918
O O10 0.546629 0.988585 0.552752
O O11 0.787812 0.723529 0.401498
O O12 0.880436 0.492942 0.267124
O O13 0.960110 0.412795 0.796261
O O14 0.833775 0.104949 0.919755
O O15 0.334048 0.237710 0.083094
O O16 0.505988 0.346014 0.921191
#
# Coordination Sequence:
#
# PCOD9115932 Si02
#       8
#     2   2   2   2   2   2   2   2
#     4  10  22  38  64  86 123 162 203 246 308 356
#     4   9  21  41  58  81 124 160 196 245 303 346
#     4   9  21  38  60  85 119 163 194 248 293 366
#     4  10  21  38  63  93 129 144 207 253 301 361
#     4  10  22  37  62  98 118 161 191 258 310 353
#     4  11  21  39  65  83 128 157 204 246 314 348
#     4  11  23  39  57  90 126 156 210 253 297 358
#     4  12  21  38  61  94 115 163 203 261 292 364
#
# _framework density 24.083303000000001
#
# number of rings (size 3 to 8) (size 9 to 14) (size 15 to 20)
#    0.750    1.000    3.750    0.750    1.750    1.000 
#    4.500    0.000    5.500    0.000    0.000    0.000 
#    0.000    0.000    0.000    0.000    0.000    0.000 
#
# Total GULP energy -89097.248928 kJ/mol
# GULP energy per Si atom -5568.578058 kJ/mol
# Density = 2.402849 g / cm^3
# Si number density = 24.083303 Si / 1000 Ang^3
#
#
#
# Elastic Constant Matrix: (Units=GPa)
#
#
# Indices 1 2 3 4 5 6 
#
# 1 59.8971 2.7213 3.2744 0.0000 -16.7462 0.0000
# 2 2.7213 121.4907 2.0566 0.0000 -3.4840 0.0000
# 3 3.2744 2.0566 89.8307 0.0000 -34.5265 0.0000
# 4 0.0000 0.0000 0.0000 22.6435 0.0000 -7.3521
# 5 -16.7462 -3.4840 -34.5265 0.0000 38.3970 0.0000
# 6 0.0000 0.0000 0.0000 -7.3521 0.0000 34.6452
#
#
#
# Elastic Compliance Matrix: (Units=1/GPa)
#
#
# Indices 1 2 3 4 5 6 
#
# 1 0.019911 -0.000162 0.003988 0.000000 0.012256 0.000000
# 2 -0.000162 0.008255 0.000119 0.000000 0.000785 0.000000
# 3 0.003988 0.000119 0.017813 0.000000 0.017768 0.000000
# 4 0.000000 0.000000 0.000000 0.047431 0.000000 0.010065
# 5 0.012256 0.000785 0.017768 0.000000 0.047437 0.000000
# 6 0.000000 0.000000 0.000000 0.010065 0.000000 0.031000
#
#
# Mechanical properties :
#
#
# Convention : Reuss Voigt Hill
#
# Bulk Modulus (GPa) = 18.56351 31.92481 25.24416
# Shear Modulus (GPa) = 27.48560 36.68153 32.08357
#
# Velocity S-wave (km/s) = 3.38194 3.90694 3.65388
# Velocity P-wave (km/s) = 4.79320 5.79974 5.32033
#
# Compressibility (1/GPa) = 0.05386911
#
# Stress axis : x y z
#
# Youngs Moduli (GPa) = 50.22328 121.13549 56.13892
#
# Poissons Ratio (x) = 0.01963 -0.22390
# Poissons Ratio (y) = 0.00814 -0.00666
# Poissons Ratio (z) = -0.20031 -0.01437
#
# Static dielectric constant tensor:
#      x y z
#    x 1.997800 0.000000 -0.062470 
#    y 0.000000 2.050440 0.000000 
#    z -0.062470 0.000000 1.915270 
# 
# From -- ./inp_files/16077.got.cif
#   From: 2010.05.17/outbox.cif.g08.bks.cpg/sg4_9_cif.got.tgz:16077.got - 2010.06.03 18:43:04.
