data_PCOD9115423
_publ_section_title
;
Structure prediction by ZEFSAII (Michael W. Deem and Ramdas Pophale) SiO2 
 PCOD9115423
Probable space group: P 21
;
_chemical_formula_sum "Si O2"
_cell_formula_units_Z 14
_cell_length_a 7.209170
_cell_length_b 14.950667
_cell_length_c 8.737659
_cell_angle_alpha 90.000000
_cell_angle_beta 143.288799
_cell_angle_gamma 90.000000
_cell_volume 562.967951
_symmetry_space_group_name_H-M "P 21"
_symmetry_group_IT_number 4
_symmetry_cell_setting 'monoclinic'
loop_
_space_group_symop_operation_xyz
x,y,z
-x,1/2+y,-z
loop_
_atom_site_type_symbol
_atom_site_label
_atom_site_fract_x
_atom_site_fract_y
_atom_site_fract_z
Si Si1 0.280222 0.343950 0.020961
Si Si2 0.717304 0.065175 0.770992
Si Si3 0.720237 0.667471 0.846982
Si Si4 0.091577 0.614497 0.525407
Si Si5 0.492299 0.506677 0.034944
Si Si6 0.439969 0.892731 0.464556
Si Si7 0.737408 0.729613 0.529742
O O1 0.254598 0.236880 0.995463
O O2 0.926346 0.378832 0.794526
O O3 0.471141 0.398615 0.019385
O O4 0.459522 0.356203 0.301068
O O5 0.669352 0.026346 0.908705
O O6 0.548348 0.160420 0.666748
O O7 0.079071 0.080351 0.984785
O O8 0.551502 0.995014 0.548247
O O9 0.282296 0.551100 0.767821
O O10 0.355520 0.650273 0.587850
O O11 0.821828 0.554465 0.274526
O O12 0.955605 0.696322 0.537288
O O13 0.137287 0.206964 0.216364
O O14 0.619831 0.831203 0.460760
#
# Coordination Sequence:
#
# PCOD9115423 Si02
#       7
#     2   2   2   2   2   2   2
#     4  10  20  39  63  91 121 166 207 252 313 372
#     4  10  20  38  66  89 124 165 211 254 312 367
#     4  11  23  39  65  94 122 167 211 257 310 374
#     4  11  24  39  64  91 126 161 207 252 318 362
#     4  10  21  41  63  89 124 166 202 256 310 373
#     4  10  21  34  66  93 117 165 214 249 313 373
#     4  10  21  42  61  89 128 164 204 260 312 369
#
# _framework density 24.868198
#
# number of rings (size 3 to 8) (size 9 to 14) (size 15 to 20)
#    0.000    1.714    2.857    2.571    4.000    0.000 
#    2.571    0.000    0.000    0.000    0.000    0.000 
#    0.000    0.000    0.000    0.000    0.000    0.000 
#
# Total GULP energy -78279.676395 kJ/mol
# GULP energy per Si atom -5591.405457 kJ/mol
# Density = 2.481160 g / cm^3
# Si number density = 24.868198 Si / 1000 Ang^3
#
#
#
# Elastic Constant Matrix: (Units=GPa)
#
#
# Indices 1 2 3 4 5 6 
#
# 1 80.5100 15.7288 16.8511 0.0000 13.7410 0.0000
# 2 15.7288 59.1544 40.1485 0.0000 16.9032 0.0000
# 3 16.8511 40.1485 140.6075 0.0000 21.6418 0.0000
# 4 0.0000 0.0000 0.0000 39.5854 0.0000 1.6198
# 5 13.7410 16.9032 21.6418 0.0000 41.9890 0.0000
# 6 0.0000 0.0000 0.0000 1.6198 0.0000 12.1037
#
#
#
# Elastic Compliance Matrix: (Units=1/GPa)
#
#
# Indices 1 2 3 4 5 6 
#
# 1 0.013531 -0.002368 -0.000446 0.000000 -0.003245 0.000000
# 2 -0.002368 0.022778 -0.005353 0.000000 -0.005636 0.000000
# 3 -0.000446 -0.005353 0.009058 0.000000 -0.002368 0.000000
# 4 0.000000 0.000000 0.000000 0.025401 0.000000 -0.003399
# 5 -0.003245 -0.005636 -0.002368 0.000000 0.028367 0.000000
# 6 0.000000 0.000000 0.000000 -0.003399 0.000000 0.083074
#
#
# Mechanical properties :
#
#
# Convention : Reuss Voigt Hill
#
# Bulk Modulus (GPa) = 34.44276 47.30321 40.87298
# Shear Modulus (GPa) = 24.01310 32.57184 28.29247
#
# Velocity S-wave (km/s) = 3.11081 3.62301 3.37664
# Velocity P-wave (km/s) = 5.17523 6.04686 5.62794
#
# Compressibility (1/GPa) = 0.02903368
#
# Stress axis : x y z
#
# Youngs Moduli (GPa) = 73.90676 43.90240 110.39581
#
# Poissons Ratio (x) = 0.10395 0.04924
# Poissons Ratio (y) = 0.17499 0.59091
# Poissons Ratio (z) = 0.03297 0.23500
#
# Static dielectric constant tensor:
#      x y z
#    x 1.964780 0.000000 -0.026490 
#    y 0.000000 2.109420 0.000000 
#    z -0.026490 0.000000 1.939320 
# 
# From -- ./inp_files/11422.got.cif
#   From: 2010.05.17/outbox.cif.g08.bks.cpg/sg4_6_cif.got.tgz:11422.got - 2010.06.03 18:43:04.
