data_PCOD9115579
_publ_section_title
;
Structure prediction by ZEFSAII (Michael W. Deem and Ramdas Pophale) SiO2 
 PCOD9115579
Probable space group: P 21
;
_chemical_formula_sum "Si O2"
_cell_formula_units_Z 14
_cell_length_a 7.981290
_cell_length_b 8.199187
_cell_length_c 10.013291
_cell_angle_alpha 90.000000
_cell_angle_beta 123.654517
_cell_angle_gamma 90.000000
_cell_volume 545.443567
_symmetry_space_group_name_H-M "P 21"
_symmetry_group_IT_number 4
_symmetry_cell_setting 'monoclinic'
loop_
_space_group_symop_operation_xyz
x,y,z
-x,1/2+y,-z
loop_
_atom_site_type_symbol
_atom_site_label
_atom_site_fract_x
_atom_site_fract_y
_atom_site_fract_z
Si Si1 0.950654 0.849620 0.680061
Si Si2 0.035388 0.572649 0.067739
Si Si3 0.697400 0.521502 0.509949
Si Si4 0.385150 0.499999 0.607309
Si Si5 0.514374 0.169793 0.810647
Si Si6 0.343058 0.653530 0.846270
Si Si7 0.026987 0.389108 0.806742
O O1 0.822331 0.686173 0.597412
O O2 0.850812 0.977978 0.533492
O O3 0.180418 0.797019 0.773824
O O4 0.926903 0.923243 0.816163
O O5 0.252251 0.638300 0.118189
O O6 0.930552 0.716442 0.105071
O O7 0.940844 0.501828 0.890581
O O8 0.506368 0.517658 0.523976
O O9 0.618552 0.537019 0.325371
O O10 0.850117 0.378107 0.618831
O O11 0.457971 0.337561 0.714669
O O12 0.426380 0.636994 0.734732
O O13 0.502033 0.172521 0.964497
O O14 0.212633 0.488811 0.825254
#
# Coordination Sequence:
#
# PCOD9115579 Si02
#       7
#     2   2   2   2   2   2   2
#     4  10  23  41  68  93 127 175 223 269 323 406
#     4  11  19  39  65  95 122 170 229 266 314 386
#     4  10  20  40  69  95 125 165 230 272 325 384
#     4  11  22  43  65  97 132 168 214 282 332 389
#     4  10  21  41  65  96 129 167 220 271 326 390
#     4  10  24  45  62  95 141 170 216 268 340 399
#     4  10  21  37  66  91 128 173 218 268 322 396
#
# _framework density 25.667179999999998
#
# number of rings (size 3 to 8) (size 9 to 14) (size 15 to 20)
#    0.000    1.714    2.857    2.571    0.000    1.143 
#    7.714    4.286    0.000    0.000    0.000    0.000 
#    0.000    0.000    0.000    0.000    0.000    0.000 
#
# Total GULP energy -78408.887344 kJ/mol
# GULP energy per Si atom -5600.634810 kJ/mol
# Density = 2.560876 g / cm^3
# Si number density = 25.667180 Si / 1000 Ang^3
#
#
#
# Elastic Constant Matrix: (Units=GPa)
#
#
# Indices 1 2 3 4 5 6 
#
# 1 64.2642 21.2263 33.0188 0.0000 -4.5885 0.0000
# 2 21.2263 66.8773 21.7116 0.0000 0.6359 0.0000
# 3 33.0188 21.7116 185.1466 0.0000 11.2348 0.0000
# 4 0.0000 0.0000 0.0000 23.9572 0.0000 -11.5972
# 5 -4.5885 0.6359 11.2348 0.0000 17.5694 0.0000
# 6 0.0000 0.0000 0.0000 -11.5972 0.0000 26.3938
#
#
#
# Elastic Compliance Matrix: (Units=1/GPa)
#
#
# Indices 1 2 3 4 5 6 
#
# 1 0.019508 -0.005184 -0.003320 0.000000 0.007406 0.000000
# 2 -0.005184 0.016929 -0.000979 0.000000 -0.001340 0.000000
# 3 -0.003320 -0.000979 0.006407 0.000000 -0.004929 0.000000
# 4 0.000000 0.000000 0.000000 0.053018 0.000000 0.023296
# 5 0.007406 -0.001340 -0.004929 0.000000 0.062052 0.000000
# 6 0.000000 0.000000 0.000000 0.023296 0.000000 0.048124
#
#
# Mechanical properties :
#
#
# Convention : Reuss Voigt Hill
#
# Bulk Modulus (GPa) = 41.88278 52.02240 46.95259
# Shear Modulus (GPa) = 21.46260 29.60618 25.53439
#
# Velocity S-wave (km/s) = 2.89483 3.39995 3.15751
# Velocity P-wave (km/s) = 5.24657 5.97704 5.62367
#
# Compressibility (1/GPa) = 0.02387616
#
# Stress axis : x y z
#
# Youngs Moduli (GPa) = 51.26140 59.07088 156.07388
#
# Poissons Ratio (x) = 0.30623 0.51824
# Poissons Ratio (y) = 0.26574 0.15285
# Poissons Ratio (z) = 0.17021 0.05785
#
# Static dielectric constant tensor:
#      x y z
#    x 1.962870 0.000000 0.003500 
#    y 0.000000 2.085630 0.000000 
#    z 0.003500 0.000000 2.024130 
# 
# From -- ./inp_files/5239.got.cif
#   From: 2010.05.17/outbox.cif.g08.bks.cpg/sg4_3_cif.got.tgz:5239.got - 2010.06.03 18:43:04.
