data_PCOD9115682
_publ_section_title
;
Structure prediction by ZEFSAII (Michael W. Deem and Ramdas Pophale) SiO2 
 PCOD9115682
Probable space group: P 21
;
_chemical_formula_sum "Si O2"
_cell_formula_units_Z 16
_cell_length_a 13.185243
_cell_length_b 9.058536
_cell_length_c 11.804437
_cell_angle_alpha 90.000000
_cell_angle_beta 31.285370
_cell_angle_gamma 90.000000
_cell_volume 732.167623
_symmetry_space_group_name_H-M "P 21"
_symmetry_group_IT_number 4
_symmetry_cell_setting 'monoclinic'
loop_
_space_group_symop_operation_xyz
x,y,z
-x,1/2+y,-z
loop_
_atom_site_type_symbol
_atom_site_label
_atom_site_fract_x
_atom_site_fract_y
_atom_site_fract_z
Si Si1 0.171747 0.085610 0.002977
Si Si2 0.408497 0.885697 0.947888
Si Si3 0.055717 0.314046 0.800987
Si Si4 0.663209 0.579110 0.390131
Si Si5 0.709680 0.127587 0.107149
Si Si6 0.966820 0.395092 0.245203
Si Si7 0.160989 0.310833 0.442042
Si Si8 0.828537 0.466035 0.619755
O O1 0.330184 0.076225 0.751140
O O2 0.281190 0.010656 0.005070
O O3 0.069329 0.240100 0.123680
O O4 0.990530 0.982855 0.137508
O O5 0.372846 0.733581 0.912770
O O6 0.639989 0.898817 0.726680
O O7 0.338396 0.892029 0.144317
O O8 0.247607 0.241048 0.666527
O O9 0.064322 0.288945 0.657500
O O10 0.864901 0.227998 0.027563
O O11 0.460365 0.567884 0.649932
O O12 0.819690 0.462378 0.291654
O O13 0.846179 0.002666 0.924692
O O14 0.843727 0.405469 0.478182
O O15 0.024785 0.409973 0.493655
O O16 0.190799 0.144470 0.365785
#
# Coordination Sequence:
#
# PCOD9115682 Si02
#       8
#     2   2   2   2   2   2   2   2
#     4  11  24  44  67 104 140 175 238 287 335 413
#     4  11  24  45  67 101 136 178 228 279 348 412
#     4  10  21  45  66  91 139 181 218 279 350 400
#     4  11  22  44  72  98 134 188 229 284 350 403
#     4  10  20  42  67  92 134 178 220 275 344 405
#     4  11  24  43  66 103 140 174 235 289 338 410
#     4  12  24  45  72  96 138 182 221 284 348 407
#     4  12  23  44  71 103 135 182 227 285 343 414
#
# _framework density 21.852919
#
# number of rings (size 3 to 8) (size 9 to 14) (size 15 to 20)
#    0.000    1.000    6.250    1.500    0.000    5.000 
#    6.750    1.250    0.000    0.000    0.000    0.000 
#    0.000    0.000    0.000    0.000    0.000    0.000 
#
# Total GULP energy -89385.911455 kJ/mol
# GULP energy per Si atom -5586.619466 kJ/mol
# Density = 2.180318 g / cm^3
# Si number density = 21.852919 Si / 1000 Ang^3
#
#
#
# Elastic Constant Matrix: (Units=GPa)
#
#
# Indices 1 2 3 4 5 6 
#
# 1 39.4654 8.3131 28.3212 0.0000 9.0213 0.0000
# 2 8.3131 104.9061 28.8919 0.0000 6.9347 0.0000
# 3 28.3212 28.8919 120.5481 0.0000 8.6129 0.0000
# 4 0.0000 0.0000 0.0000 19.7349 0.0000 3.6043
# 5 9.0213 6.9347 8.6129 0.0000 37.1230 0.0000
# 6 0.0000 0.0000 0.0000 3.6043 0.0000 19.8419
#
#
#
# Elastic Compliance Matrix: (Units=1/GPa)
#
#
# Indices 1 2 3 4 5 6 
#
# 1 0.031780 -0.000193 -0.006987 0.000000 -0.006066 0.000000
# 2 -0.000193 0.010275 -0.002322 0.000000 -0.001334 0.000000
# 3 -0.006987 -0.002322 0.010515 0.000000 -0.000308 0.000000
# 4 0.000000 0.000000 0.000000 0.052410 0.000000 -0.009520
# 5 -0.006066 -0.001334 -0.000308 0.000000 0.028732 0.000000
# 6 0.000000 0.000000 0.000000 -0.009520 0.000000 0.052128
#
#
# Mechanical properties :
#
#
# Convention : Reuss Voigt Hill
#
# Bulk Modulus (GPa) = 29.79133 43.99689 36.89411
# Shear Modulus (GPa) = 23.14460 28.63285 25.88872
#
# Velocity S-wave (km/s) = 3.25792 3.62367 3.44565
# Velocity P-wave (km/s) = 5.27393 6.13880 5.72273
#
# Compressibility (1/GPa) = 0.03356681
#
# Stress axis : x y z
#
# Youngs Moduli (GPa) = 31.46670 97.32063 95.09884
#
# Poissons Ratio (x) = 0.01880 0.66441
# Poissons Ratio (y) = 0.00608 0.22082
# Poissons Ratio (z) = 0.21984 0.22598
#
# Static dielectric constant tensor:
#      x y z
#    x 1.834810 0.000000 0.040430 
#    y 0.000000 1.827060 0.000000 
#    z 0.040430 0.000000 1.817740 
# 
# From -- ./inp_files/12616.got.cif
#   From: 2010.05.17/outbox.cif.g08.bks.cpg/sg4_7_cif.got.tgz:12616.got - 2010.06.03 18:43:04.
