data_PCOD9115719
_publ_section_title
;
Structure prediction by ZEFSAII (Michael W. Deem and Ramdas Pophale) SiO2 
 PCOD9115719
Probable space group: P 21
;
_chemical_formula_sum "Si O2"
_cell_formula_units_Z 16
_cell_length_a 7.779190
_cell_length_b 15.934154
_cell_length_c 5.448605
_cell_angle_alpha 90.000000
_cell_angle_beta 64.373579
_cell_angle_gamma 90.000000
_cell_volume 608.945744
_symmetry_space_group_name_H-M "P 21"
_symmetry_group_IT_number 4
_symmetry_cell_setting 'monoclinic'
loop_
_space_group_symop_operation_xyz
x,y,z
-x,1/2+y,-z
loop_
_atom_site_type_symbol
_atom_site_label
_atom_site_fract_x
_atom_site_fract_y
_atom_site_fract_z
Si Si1 0.431774 0.505090 0.975506
Si Si2 0.216447 0.356105 0.969575
Si Si3 0.102011 0.621665 0.977709
Si Si4 0.371635 0.967643 0.660460
Si Si5 0.767865 0.714704 0.377291
Si Si6 0.990978 0.472913 0.810475
Si Si7 0.086764 0.821545 0.463537
Si Si8 0.633281 0.265412 0.363555
O O1 0.250995 0.564913 0.036782
O O2 0.560380 0.501816 0.647243
O O3 0.353390 0.409798 0.051185
O O4 0.529971 0.519303 0.176490
O O5 0.177542 0.419129 0.766573
O O6 0.016232 0.340874 0.218353
O O7 0.281995 0.266885 0.838815
O O8 0.200037 0.711576 0.871343
O O9 0.898457 0.637174 0.230054
O O10 0.059403 0.569023 0.751246
O O11 0.151535 0.976140 0.871964
O O12 0.402962 0.865379 0.657717
O O13 0.554405 0.713621 0.607713
O O14 0.920511 0.769773 0.432932
O O15 0.887552 0.411870 0.681823
O O16 0.279022 0.772033 0.411284
#
# Coordination Sequence:
#
# PCOD9115719 Si02
#       8
#     2   2   2   2   2   2   2   2
#     4  11  27  45  78 109 160 203 268 325 395 480
#     4  10  20  43  69 104 147 200 254 327 378 476
#     4  11  27  51  67 117 163 201 252 349 413 469
#     4  12  24  49  78 116 145 216 273 320 380 496
#     4  11  24  46  71 108 153 204 255 332 408 470
#     4  10  24  43  72 104 158 202 257 324 403 471
#     4  11  22  47  78 110 151 211 270 324 391 493
#     4  12  24  48  85 114 155 201 277 329 402 473
#
# _framework density 26.274916999999999
#
# number of rings (size 3 to 8) (size 9 to 14) (size 15 to 20)
#    0.000    1.000    3.750    2.250    5.250    1.000 
#    6.750    0.000    0.000    0.000    0.000    0.000 
#    0.000    0.000    0.000    0.000    0.000    0.000 
#
# Total GULP energy -89221.497855 kJ/mol
# GULP energy per Si atom -5576.343616 kJ/mol
# Density = 2.621511 g / cm^3
# Si number density = 26.274917 Si / 1000 Ang^3
#
#
#
# Elastic Constant Matrix: (Units=GPa)
#
#
# Indices 1 2 3 4 5 6 
#
# 1 136.1483 20.0402 34.1695 0.0000 -1.9937 0.0000
# 2 20.0402 64.5436 25.9853 0.0000 1.7092 0.0000
# 3 34.1695 25.9853 72.0487 0.0000 -9.3037 0.0000
# 4 0.0000 0.0000 0.0000 17.5214 0.0000 -8.1005
# 5 -1.9937 1.7092 -9.3037 0.0000 39.8223 0.0000
# 6 0.0000 0.0000 0.0000 -8.1005 0.0000 47.0717
#
#
#
# Elastic Compliance Matrix: (Units=1/GPa)
#
#
# Indices 1 2 3 4 5 6 
#
# 1 0.008418 -0.001143 -0.003629 0.000000 -0.000377 0.000000
# 2 -0.001143 0.018501 -0.006435 0.000000 -0.002355 0.000000
# 3 -0.003629 -0.006435 0.018491 0.000000 0.004415 0.000000
# 4 0.000000 0.000000 0.000000 0.062006 0.000000 0.010671
# 5 -0.000377 -0.002355 0.004415 0.000000 0.026225 0.000000
# 6 0.000000 0.000000 0.000000 0.010671 0.000000 0.023080
#
#
# Mechanical properties :
#
#
# Convention : Reuss Voigt Hill
#
# Bulk Modulus (GPa) = 43.48231 48.12560 45.80396
# Shear Modulus (GPa) = 26.76626 33.71944 30.24285
#
# Velocity S-wave (km/s) = 3.19517 3.58625 3.39634
# Velocity P-wave (km/s) = 5.49519 5.95854 5.73155
#
# Compressibility (1/GPa) = 0.02299786
#
# Stress axis : x y z
#
# Youngs Moduli (GPa) = 118.78729 54.05049 54.07903
#
# Poissons Ratio (x) = 0.06177 0.19625
# Poissons Ratio (y) = 0.13575 0.34799
# Poissons Ratio (z) = 0.43108 0.34780
#
# Static dielectric constant tensor:
#      x y z
#    x 2.269590 0.000000 0.004560 
#    y 0.000000 2.118690 0.000000 
#    z 0.004560 0.000000 2.140970 
# 
# From -- ./inp_files/1933.got.cif
#   From: 2010.05.17/outbox.cif.g08.bks.cpg/sg4_1_cif.got.tgz:1933.got - 2010.06.03 18:43:04.
