data_PCOD9115587
_publ_section_title
;
Structure prediction by ZEFSAII (Michael W. Deem and Ramdas Pophale) SiO2 
 PCOD9115587
Probable space group: P 21
;
_chemical_formula_sum "Si O2"
_cell_formula_units_Z 14
_cell_length_a 7.974501
_cell_length_b 17.687567
_cell_length_c 5.550506
_cell_angle_alpha 90.000000
_cell_angle_beta 58.033435
_cell_angle_gamma 90.000000
_cell_volume 664.175627
_symmetry_space_group_name_H-M "P 21"
_symmetry_group_IT_number 4
_symmetry_cell_setting 'monoclinic'
loop_
_space_group_symop_operation_xyz
x,y,z
-x,1/2+y,-z
loop_
_atom_site_type_symbol
_atom_site_label
_atom_site_fract_x
_atom_site_fract_y
_atom_site_fract_z
Si Si1 0.821354 0.793610 0.009716
Si Si2 0.172861 0.986235 0.721813
Si Si3 0.784527 0.660740 0.418833
Si Si4 0.427640 0.400056 0.488448
Si Si5 0.026527 0.429387 0.626936
Si Si6 0.496855 0.755964 0.873452
Si Si7 0.911872 0.264591 0.571285
O O1 0.686604 0.780971 0.880003
O O2 0.042489 0.789985 0.736898
O O3 0.794220 0.721683 0.198329
O O4 0.723310 0.867557 0.196575
O O5 0.393860 0.951347 0.560558
O O6 0.066603 0.957986 0.555222
O O7 0.186568 0.076447 0.687886
O O8 0.069931 0.965025 0.057302
O O9 0.570181 0.678015 0.699261
O O10 0.961919 0.690171 0.456930
O O11 0.524259 0.325027 0.296937
O O12 0.264739 0.440018 0.441474
O O13 0.981743 0.338754 0.668207
O O14 0.311778 0.750195 0.187747
#
# Coordination Sequence:
#
# PCOD9115587 Si02
#       7
#     2   2   2   2   2   2   2
#     4  10  20  40  70  99 136 179 243 296 350 431
#     4  12  29  45  72 108 151 190 236 307 371 418
#     4  10  25  44  64 100 148 180 236 298 361 427
#     4  11  23  44  71 102 139 183 243 296 357 425
#     4  12  25  44  74 106 142 189 245 297 360 434
#     4  10  21  40  70 100 128 186 237 294 351 430
#     4  11  21  41  73  99 134 185 246 288 354 425
#
# _framework density 21.078762999999999
#
# number of rings (size 3 to 8) (size 9 to 14) (size 15 to 20)
#    0.000    1.143    5.714    1.714    4.000    3.429 
#    2.571    0.000    0.000    0.000    0.000    0.000 
#    0.000    0.000    0.000    0.000    0.000    0.000 
#
# Total GULP energy -78084.428317 kJ/mol
# GULP energy per Si atom -5577.459166 kJ/mol
# Density = 2.103079 g / cm^3
# Si number density = 21.078763 Si / 1000 Ang^3
#
#
#
# Elastic Constant Matrix: (Units=GPa)
#
#
# Indices 1 2 3 4 5 6 
#
# 1 103.5270 31.4408 31.5712 0.0000 -8.6505 0.0000
# 2 31.4408 99.4388 16.0761 0.0000 -2.3920 0.0000
# 3 31.5712 16.0761 134.4204 0.0000 -20.1127 0.0000
# 4 0.0000 0.0000 0.0000 21.5020 0.0000 -2.3504
# 5 -8.6505 -2.3920 -20.1127 0.0000 38.8796 0.0000
# 6 0.0000 0.0000 0.0000 -2.3504 0.0000 27.7235
#
#
#
# Elastic Compliance Matrix: (Units=1/GPa)
#
#
# Indices 1 2 3 4 5 6 
#
# 1 0.011385 -0.003230 -0.002101 0.000000 0.001248 0.000000
# 2 -0.003230 0.011171 -0.000631 0.000000 -0.000358 0.000000
# 3 -0.002101 -0.000631 0.008598 0.000000 0.003942 0.000000
# 4 0.000000 0.000000 0.000000 0.046942 0.000000 0.003980
# 5 0.001248 -0.000358 0.003942 0.000000 0.028015 0.000000
# 6 0.000000 0.000000 0.000000 0.003980 0.000000 0.036408
#
#
# Mechanical properties :
#
#
# Convention : Reuss Voigt Hill
#
# Bulk Modulus (GPa) = 52.00147 55.06251 53.53199
# Shear Modulus (GPa) = 31.08407 34.84087 32.96247
#
# Velocity S-wave (km/s) = 3.84430 4.06999 3.95875
# Velocity P-wave (km/s) = 6.66547 6.94733 6.80786
#
# Compressibility (1/GPa) = 0.01923023
#
# Stress axis : x y z
#
# Youngs Moduli (GPa) = 87.83272 89.51633 116.30563
#
# Poissons Ratio (x) = 0.28915 0.24437
# Poissons Ratio (y) = 0.28371 0.07338
# Poissons Ratio (z) = 0.18454 0.05648
#
# Static dielectric constant tensor:
#      x y z
#    x 1.822490 0.000000 0.048030 
#    y 0.000000 1.737210 0.000000 
#    z 0.048030 0.000000 1.846540 
# 
# From -- ./inp_files/426.got.cif
#   From: 2010.05.17/outbox.cif.g08.bks.cpg/sg4_1_cif.got.tgz:426.got - 2010.06.03 18:43:04.
