data_PCOD9115058
_publ_section_title
;
Structure prediction by ZEFSAII (Michael W. Deem and Ramdas Pophale) SiO2 
 PCOD9115058
Probable space group: P 21
;
_chemical_formula_sum "Si O2"
_cell_formula_units_Z 12
_cell_length_a 6.773194
_cell_length_b 9.445829
_cell_length_c 9.159716
_cell_angle_alpha 90.000000
_cell_angle_beta 71.747382
_cell_angle_gamma 90.000000
_cell_volume 556.538351
_symmetry_space_group_name_H-M "P 21"
_symmetry_group_IT_number 4
_symmetry_cell_setting 'monoclinic'
loop_
_space_group_symop_operation_xyz
x,y,z
-x,1/2+y,-z
loop_
_atom_site_type_symbol
_atom_site_label
_atom_site_fract_x
_atom_site_fract_y
_atom_site_fract_z
Si Si1 0.915242 0.341570 0.379653
Si Si2 0.958862 0.570415 0.137842
Si Si3 0.438394 0.383679 0.529216
Si Si4 0.868485 0.306150 0.706645
Si Si5 0.906786 0.044401 0.220034
Si Si6 0.504029 0.618695 0.314518
O O1 0.016110 0.455389 0.248743
O O2 0.688322 0.405223 0.474011
O O3 0.992658 0.299173 0.523135
O O4 0.888265 0.200143 0.291676
O O5 0.708702 0.573661 0.180373
O O6 0.023294 0.719789 0.189611
O O7 0.064346 0.545384 0.959192
O O8 0.296984 0.456897 0.684426
O O9 0.387785 0.477409 0.397268
O O10 0.425398 0.215372 0.561927
O O11 0.650707 0.225706 0.732530
O O12 0.893818 0.467314 0.751857
#
# Coordination Sequence:
#
# PCOD9115058 Si02
#       6
#     2   2   2   2   2   2
#     4  10  23  40  66  97 124 177 222 258 323 396
#     4  11  24  41  68  95 135 166 213 282 332 374
#     4  10  19  40  66  91 133 169 220 262 325 388
#     4  11  22  42  68  89 130 169 229 256 319 404
#     4  12  22  41  66  98 132 172 214 280 330 375
#     4  10  22  42  64  96 128 173 216 266 325 397
#
# _framework density 21.561857
#
# number of rings (size 3 to 8) (size 9 to 14) (size 15 to 20)
#    0.000    1.333    5.000    2.000    0.000    0.000 
#    6.000    0.000    0.000    0.000    0.000    0.000 
#    0.000    0.000    0.000    0.000    0.000    0.000 
#
# Total GULP energy -66870.135303 kJ/mol
# GULP energy per Si atom -5572.511275 kJ/mol
# Density = 2.151278 g / cm^3
# Si number density = 21.561857 Si / 1000 Ang^3
#
#
#
# Elastic Constant Matrix: (Units=GPa)
#
#
# Indices 1 2 3 4 5 6 
#
# 1 71.3201 14.2468 33.3884 0.0000 -6.3862 0.0000
# 2 14.2468 87.3604 20.0053 0.0000 -8.5718 0.0000
# 3 33.3884 20.0053 150.2241 0.0000 -8.8844 0.0000
# 4 0.0000 0.0000 0.0000 29.6125 0.0000 5.5880
# 5 -6.3862 -8.5718 -8.8844 0.0000 24.9304 0.0000
# 6 0.0000 0.0000 0.0000 5.5880 0.0000 36.0155
#
#
#
# Elastic Compliance Matrix: (Units=1/GPa)
#
#
# Indices 1 2 3 4 5 6 
#
# 1 0.016069 -0.001650 -0.003209 0.000000 0.002405 0.000000
# 2 -0.001650 0.012297 -0.001068 0.000000 0.003425 0.000000
# 3 -0.003209 -0.001068 0.007602 0.000000 0.001520 0.000000
# 4 0.000000 0.000000 0.000000 0.034788 0.000000 -0.005398
# 5 0.002405 0.003425 0.001520 0.000000 0.042447 0.000000
# 6 0.000000 0.000000 0.000000 -0.005398 0.000000 0.028603
#
#
# Mechanical properties :
#
#
# Convention : Reuss Voigt Hill
#
# Bulk Modulus (GPa) = 41.47195 49.35394 45.41295
# Shear Modulus (GPa) = 30.92187 34.19597 32.55892
#
# Velocity S-wave (km/s) = 3.79106 3.98672 3.89012
# Velocity P-wave (km/s) = 6.19988 6.64312 6.42532
#
# Compressibility (1/GPa) = 0.02411268
#
# Stress axis : x y z
#
# Youngs Moduli (GPa) = 62.23291 81.32385 131.54094
#
# Poissons Ratio (x) = 0.13415 0.42217
# Poissons Ratio (y) = 0.10265 0.14053
# Poissons Ratio (z) = 0.19973 0.08688
#
# Static dielectric constant tensor:
#      x y z
#    x 1.919850 0.000000 0.042730 
#    y 0.000000 1.795530 0.000000 
#    z 0.042730 0.000000 1.762000 
# 
# From -- ./inp_files/5217.got.cif
#   From: 2010.05.17/outbox.cif.g08.bks.cpg/sg4_3_cif.got.tgz:5217.got - 2010.06.03 18:43:04.
