data_PCOD9115105
_publ_section_title
;
Structure prediction by ZEFSAII (Michael W. Deem and Ramdas Pophale) SiO2 
 PCOD9115105
Probable space group: P 21
;
_chemical_formula_sum "Si O2"
_cell_formula_units_Z 16
_cell_length_a 9.222394
_cell_length_b 5.293259
_cell_length_c 15.315406
_cell_angle_alpha 90.000000
_cell_angle_beta 69.186430
_cell_angle_gamma 90.000000
_cell_volume 698.854679
_symmetry_space_group_name_H-M "P 21"
_symmetry_group_IT_number 4
_symmetry_cell_setting 'monoclinic'
loop_
_space_group_symop_operation_xyz
x,y,z
-x,1/2+y,-z
loop_
_atom_site_type_symbol
_atom_site_label
_atom_site_fract_x
_atom_site_fract_y
_atom_site_fract_z
Si Si1 0.592720 0.672660 0.506095
Si Si2 0.683325 0.096309 0.174106
Si Si3 0.964557 0.358576 0.200470
Si Si4 0.252367 0.218375 0.690698
Si Si5 0.829055 0.189619 0.599529
Si Si6 0.903150 0.865517 0.994854
Si Si7 0.983484 0.186612 0.389495
Si Si8 0.461030 0.401561 0.306776
O O1 0.517850 0.398476 0.507026
O O2 0.743773 0.721625 0.414337
O O3 0.614856 0.722676 0.603224
O O4 0.680296 0.938118 0.264637
O O5 0.829919 0.274574 0.162441
O O6 0.523448 0.253204 0.208740
O O7 0.743748 0.924871 0.081470
O O8 0.915298 0.639404 0.238903
O O9 0.949631 0.202275 0.293312
O O10 0.113276 0.340452 0.106886
O O11 0.379879 0.001803 0.683926
O O12 0.843658 0.189601 0.490313
O O13 0.909866 0.444319 0.614581
O O14 0.658325 0.132355 0.673795
O O15 0.925029 0.944807 0.609843
O O16 0.985029 0.610905 0.013268
#
# Coordination Sequence:
#
# PCOD9115105 Si02
#       8
#     2   2   2   2   2   2   2   2
#     4  10  20  31  47  79 120 157 195 232 294 377
#     4  10  20  36  57  93 127 158 196 248 323 383
#     4  10  22  36  61  89 124 165 200 260 308 374
#     4  10  20  33  54  88 123 157 196 244 312 383
#     4  10  24  41  60  86 121 169 219 261 295 363
#     4  10  20  36  58  90 128 158 199 248 315 384
#     4  10  24  42  60  86 121 168 222 258 299 355
#     4  10  22  35  57  85 126 166 199 251 316 367
#
# _framework density 22.894601999999999
#
# number of rings (size 3 to 8) (size 9 to 14) (size 15 to 20)
#    0.000    2.000    2.500    0.000    5.250    4.000 
#    0.000    0.000    0.000    0.000    3.250    0.000 
#    0.000    0.000    0.000    0.000    0.000    0.000 
#
# Total GULP energy -89241.842836 kJ/mol
# GULP energy per Si atom -5577.615177 kJ/mol
# Density = 2.284249 g / cm^3
# Si number density = 22.894602 Si / 1000 Ang^3
#
#
#
# Elastic Constant Matrix: (Units=GPa)
#
#
# Indices 1 2 3 4 5 6 
#
# 1 42.3746 24.5514 26.8936 0.0000 -6.7831 0.0000
# 2 24.5514 119.6152 26.5450 0.0000 -4.0107 0.0000
# 3 26.8936 26.5450 142.8706 0.0000 -19.1839 0.0000
# 4 0.0000 0.0000 0.0000 40.1088 0.0000 -4.0892
# 5 -6.7831 -4.0107 -19.1839 0.0000 19.9928 0.0000
# 6 0.0000 0.0000 0.0000 -4.0892 0.0000 31.4569
#
#
#
# Elastic Compliance Matrix: (Units=1/GPa)
#
#
# Indices 1 2 3 4 5 6 
#
# 1 0.029915 -0.005080 -0.003973 0.000000 0.005318 0.000000
# 2 -0.005080 0.009583 -0.000916 0.000000 -0.000680 0.000000
# 3 -0.003973 -0.000916 0.008852 0.000000 0.006962 0.000000
# 4 0.000000 0.000000 0.000000 0.025267 0.000000 0.003285
# 5 0.005318 -0.000680 0.006962 0.000000 0.058367 0.000000
# 6 0.000000 0.000000 0.000000 0.003285 0.000000 0.032217
#
#
# Mechanical properties :
#
#
# Convention : Reuss Voigt Hill
#
# Bulk Modulus (GPa) = 35.19521 51.20451 43.19986
# Shear Modulus (GPa) = 25.82512 33.43639 29.63075
#
# Velocity S-wave (km/s) = 3.36222 3.82573 3.60144
# Velocity P-wave (km/s) = 5.52076 6.47524 6.01696
#
# Compressibility (1/GPa) = 0.02841296
#
# Stress axis : x y z
#
# Youngs Moduli (GPa) = 33.42765 104.34874 112.96589
#
# Poissons Ratio (x) = 0.53011 0.44884
# Poissons Ratio (y) = 0.16982 0.10342
# Poissons Ratio (z) = 0.13282 0.09553
#
# Static dielectric constant tensor:
#      x y z
#    x 1.874960 0.000000 -0.046140 
#    y 0.000000 1.955290 0.000000 
#    z -0.046140 0.000000 2.005150 
# 
# From -- ./inp_files/13597.got.cif
#   From: 2010.05.17/outbox.cif.g08.bks.cpg/sg4_7_cif.got.tgz:13597.got - 2010.06.03 18:43:04.
