data_PCOD9115928
_publ_section_title
;
Structure prediction by ZEFSAII (Michael W. Deem and Ramdas Pophale) SiO2 
 PCOD9115928
Probable space group: P 21
;
_chemical_formula_sum "Si O2"
_cell_formula_units_Z 14
_cell_length_a 12.853761
_cell_length_b 5.099265
_cell_length_c 9.918699
_cell_angle_alpha 90.000000
_cell_angle_beta 66.388311
_cell_angle_gamma 90.000000
_cell_volume 595.691237
_symmetry_space_group_name_H-M "P 21"
_symmetry_group_IT_number 4
_symmetry_cell_setting 'monoclinic'
loop_
_space_group_symop_operation_xyz
x,y,z
-x,1/2+y,-z
loop_
_atom_site_type_symbol
_atom_site_label
_atom_site_fract_x
_atom_site_fract_y
_atom_site_fract_z
Si Si1 0.270432 0.998040 0.455715
Si Si2 0.218326 0.214210 0.050500
Si Si3 0.266020 0.867526 0.772746
Si Si4 0.500924 0.187638 0.401915
Si Si5 0.978092 0.111305 0.082989
Si Si6 0.019983 0.127826 0.564369
Si Si7 0.778129 0.219697 0.784674
O O1 0.278303 0.926189 0.608485
O O2 0.257504 0.762282 0.353428
O O3 0.153900 0.165601 0.515011
O O4 0.389213 0.143098 0.370093
O O5 0.257253 0.481206 0.100561
O O6 0.079995 0.207142 0.124946
O O7 0.260177 0.984012 0.124708
O O8 0.249889 0.113100 0.883193
O O9 0.385195 0.730050 0.743399
O O10 0.152297 0.691766 0.833722
O O11 0.480170 0.438174 0.509583
O O12 0.010354 0.300656 0.939539
O O13 0.005239 0.819110 0.548026
O O14 0.915996 0.210944 0.711699
#
# Coordination Sequence:
#
# PCOD9115928 Si02
#       7
#     2   2   2   2   2   2   2
#     4  10  23  42  68  98 135 179 227 277 334 403
#     4  11  23  40  63  97 137 174 218 279 346 409
#     4  10  23  42  68  98 135 179 227 277 334 403
#     4  10  24  42  66 100 134 174 232 292 334 386
#     4  10  21  38  62  95 132 172 217 271 337 405
#     4  10  21  38  62  95 132 172 217 271 337 405
#     4  11  23  40  63  97 137 174 218 279 346 409
#
# _framework density 23.502106000000001
#
# number of rings (size 3 to 8) (size 9 to 14) (size 15 to 20)
#    0.000    1.714    0.000    4.286    0.000   19.429 
#    0.000    0.000    0.000   12.000    0.000    0.000 
#    0.000    0.000    0.000    0.000    0.000    0.000 
#
# Total GULP energy -78022.992259 kJ/mol
# GULP energy per Si atom -5573.070876 kJ/mol
# Density = 2.344861 g / cm^3
# Si number density = 23.502106 Si / 1000 Ang^3
#
#
#
# Elastic Constant Matrix: (Units=GPa)
#
#
# Indices 1 2 3 4 5 6 
#
# 1 147.9144 39.2347 50.9681 0.0000 -27.1040 0.0000
# 2 39.2347 102.8647 43.7549 0.0000 4.6874 0.0000
# 3 50.9681 43.7549 118.7087 0.0000 13.3060 0.0000
# 4 0.0000 0.0000 0.0000 24.5647 0.0000 -2.5495
# 5 -27.1040 4.6874 13.3060 0.0000 38.7628 0.0000
# 6 0.0000 0.0000 0.0000 -2.5495 0.0000 25.5379
#
#
#
# Elastic Compliance Matrix: (Units=1/GPa)
#
#
# Indices 1 2 3 4 5 6 
#
# 1 0.010822 -0.002527 -0.004781 0.000000 0.009514 0.000000
# 2 -0.002527 0.012120 -0.003140 0.000000 -0.002155 0.000000
# 3 -0.004781 -0.003140 0.012445 0.000000 -0.007236 0.000000
# 4 0.000000 0.000000 0.000000 0.041135 0.000000 0.004107
# 5 0.009514 -0.002155 -0.007236 0.000000 0.035195 0.000000
# 6 0.000000 0.000000 0.000000 0.004107 0.000000 0.039567
#
#
# Mechanical properties :
#
#
# Convention : Reuss Voigt Hill
#
# Bulk Modulus (GPa) = 69.01996 70.82260 69.92128
# Shear Modulus (GPa) = 28.24669 33.47507 30.86088
#
# Velocity S-wave (km/s) = 3.47057 3.77814 3.62762
# Velocity P-wave (km/s) = 6.74471 7.01659 6.88199
#
# Compressibility (1/GPa) = 0.01448856
#
# Stress axis : x y z
#
# Youngs Moduli (GPa) = 92.40490 82.51126 80.35098
#
# Poissons Ratio (x) = 0.20855 0.38418
# Poissons Ratio (y) = 0.23355 0.25234
# Poissons Ratio (z) = 0.44181 0.25912
#
# Static dielectric constant tensor:
#      x y z
#    x 1.967500 0.000000 0.000390 
#    y 0.000000 1.930120 0.000000 
#    z 0.000390 0.000000 1.962440 
# 
# From -- ./inp_files/7058.got.cif
#   From: 2010.05.17/outbox.cif.g08.bks.cpg/sg4_4_cif.got.tgz:7058.got - 2010.06.03 18:43:04.
