data_PCOD9115488
_publ_section_title
;
Structure prediction by ZEFSAII (Michael W. Deem and Ramdas Pophale) SiO2 
 PCOD9115488
Probable space group: P 21
;
_chemical_formula_sum "Si O2"
_cell_formula_units_Z 14
_cell_length_a 7.843110
_cell_length_b 5.192050
_cell_length_c 18.080189
_cell_angle_alpha 90.000000
_cell_angle_beta 44.781001
_cell_angle_gamma 90.000000
_cell_volume 518.619444
_symmetry_space_group_name_H-M "P 21"
_symmetry_group_IT_number 4
_symmetry_cell_setting 'monoclinic'
loop_
_space_group_symop_operation_xyz
x,y,z
-x,1/2+y,-z
loop_
_atom_site_type_symbol
_atom_site_label
_atom_site_fract_x
_atom_site_fract_y
_atom_site_fract_z
Si Si1 0.645606 0.686530 0.943427
Si Si2 0.389991 0.364654 0.558528
Si Si3 0.096168 0.726553 0.358351
Si Si4 0.638704 0.544510 0.283673
Si Si5 0.144049 0.276789 0.402794
Si Si6 0.141154 0.548625 0.851099
Si Si7 0.412980 0.013195 0.195486
O O1 0.697315 0.650257 0.840495
O O2 0.856577 0.596228 0.934410
O O3 0.431088 0.477212 0.017972
O O4 0.491659 0.654085 0.534295
O O5 0.406954 0.196159 0.627286
O O6 0.112554 0.382719 0.621639
O O7 0.997411 0.424878 0.385677
O O8 0.323589 0.720864 0.224698
O O9 0.986763 0.757551 0.479803
O O10 0.366744 0.481851 0.339317
O O11 0.764587 0.267977 0.235422
O O12 0.790104 0.756709 0.191454
O O13 0.272077 0.036995 0.321376
O O14 0.311690 0.586476 0.871263
#
# Coordination Sequence:
#
# PCOD9115488 Si02
#       7
#     2   2   2   2   2   2   2
#     4  12  28  41  61 101 142 173 212 267 351 416
#     4  12  26  40  61  99 141 179 210 280 364 407
#     4  10  20  39  65  92 122 166 231 264 330 386
#     4  11  21  42  70  96 124 166 243 270 322 406
#     4   9  19  37  66  94 113 162 228 280 310 372
#     4  11  23  43  72  98 123 179 233 283 320 395
#     4   9  23  40  71  92 125 171 227 276 325 378
#
# _framework density 26.994745000000002
#
# number of rings (size 3 to 8) (size 9 to 14) (size 15 to 20)
#    0.857    0.571    1.429    3.429    4.000    1.143 
#    0.000    2.857    0.000    0.000    0.000    0.000 
#    0.000    0.000    0.000    0.000    0.000    0.000 
#
# Total GULP energy -77969.577950 kJ/mol
# GULP energy per Si atom -5569.255568 kJ/mol
# Density = 2.693330 g / cm^3
# Si number density = 26.994745 Si / 1000 Ang^3
#
#
#
# Elastic Constant Matrix: (Units=GPa)
#
#
# Indices 1 2 3 4 5 6 
#
# 1 51.1608 2.9149 -0.4942 0.0000 -6.5736 0.0000
# 2 2.9149 112.4342 20.1963 0.0000 14.1829 0.0000
# 3 -0.4942 20.1963 46.0368 0.0000 7.2076 0.0000
# 4 0.0000 0.0000 0.0000 50.9221 0.0000 -9.8730
# 5 -6.5736 14.1829 7.2076 0.0000 31.5477 0.0000
# 6 0.0000 0.0000 0.0000 -9.8730 0.0000 40.1024
#
#
#
# Elastic Compliance Matrix: (Units=1/GPa)
#
#
# Indices 1 2 3 4 5 6 
#
# 1 0.020216 -0.001114 -0.000034 0.000000 0.004721 0.000000
# 2 -0.001114 0.010103 -0.003834 0.000000 -0.003898 0.000000
# 3 -0.000034 -0.003834 0.023993 0.000000 -0.003765 0.000000
# 4 0.000000 0.000000 0.000000 0.020622 0.000000 0.005077
# 5 0.004721 -0.003898 -0.003765 0.000000 0.035294 0.000000
# 6 0.000000 0.000000 0.000000 0.005077 0.000000 0.026186
#
#
# Mechanical properties :
#
#
# Convention : Reuss Voigt Hill
#
# Bulk Modulus (GPa) = 22.54797 28.31843 25.43320
# Shear Modulus (GPa) = 31.02499 36.98208 34.00354
#
# Velocity S-wave (km/s) = 3.39381 3.70533 3.55298
# Velocity P-wave (km/s) = 4.87115 5.36834 5.12578
#
# Compressibility (1/GPa) = 0.04434989
#
# Stress axis : x y z
#
# Youngs Moduli (GPa) = 49.46602 98.97655 41.67914
#
# Poissons Ratio (x) = 0.11022 0.00140
# Poissons Ratio (y) = 0.05508 0.15980
# Poissons Ratio (z) = 0.00166 0.37948
#
# Static dielectric constant tensor:
#      x y z
#    x 2.424170 0.000000 -0.044520 
#    y 0.000000 2.938930 0.000000 
#    z -0.044520 0.000000 2.263810 
# 
# From -- ./inp_files/7086.got.cif
#   From: 2010.05.17/outbox.cif.g08.bks.cpg/sg4_4_cif.got.tgz:7086.got - 2010.06.03 18:43:04.
