data_PCOD9115525
_publ_section_title
;
Structure prediction by ZEFSAII (Michael W. Deem and Ramdas Pophale) SiO2 
 PCOD9115525
Probable space group: P 21
;
_chemical_formula_sum "Si O2"
_cell_formula_units_Z 14
_cell_length_a 7.712101
_cell_length_b 5.367874
_cell_length_c 17.604241
_cell_angle_alpha 90.000000
_cell_angle_beta 45.282335
_cell_angle_gamma 90.000000
_cell_volume 517.853458
_symmetry_space_group_name_H-M "P 21"
_symmetry_group_IT_number 4
_symmetry_cell_setting 'monoclinic'
loop_
_space_group_symop_operation_xyz
x,y,z
-x,1/2+y,-z
loop_
_atom_site_type_symbol
_atom_site_label
_atom_site_fract_x
_atom_site_fract_y
_atom_site_fract_z
Si Si1 0.838086 0.242970 0.364069
Si Si2 0.190349 0.413132 0.099367
Si Si3 0.154390 0.219174 0.469821
Si Si4 0.379662 0.190675 0.250217
Si Si5 0.102329 0.746959 0.984776
Si Si6 0.292134 0.897778 0.144905
Si Si7 0.330535 0.227425 0.590894
O O1 0.621586 0.237108 0.495179
O O2 0.745572 0.476225 0.344459
O O3 0.104741 0.286963 0.316181
O O4 0.792115 0.974862 0.341302
O O5 0.164624 0.147371 0.149208
O O6 0.191372 0.628300 0.161232
O O7 0.056195 0.559190 0.071652
O O8 0.454654 0.392530 0.978738
O O9 0.380402 0.200022 0.340377
O O10 0.231117 0.215137 0.534365
O O11 0.011032 0.478234 0.499501
O O12 0.619044 0.288461 0.131430
O O13 0.351086 0.925469 0.216135
O O14 0.991433 0.526143 0.963403
#
# Coordination Sequence:
#
# PCOD9115525 Si02
#       7
#     2   2   2   2   2   2   2
#     4  10  21  38  66  88 126 166 221 264 319 382
#     4   9  18  38  59  85 120 157 204 267 322 366
#     4  12  23  40  66  97 137 175 217 268 333 402
#     4  11  24  42  70  96 128 183 225 268 335 403
#     4  11  25  44  67  96 138 174 218 281 338 394
#     4   9  19  34  62  89 112 155 215 260 308 383
#     4  10  20  40  60  93 129 168 206 274 319 376
#
# _framework density 27.034675
#
# number of rings (size 3 to 8) (size 9 to 14) (size 15 to 20)
#    0.000    1.714    2.857    0.857    0.000    8.000 
#    5.143    0.000    0.000    0.000    0.000    0.000 
#    0.000    0.000    0.000    0.000    0.000    0.000 
#
# Total GULP energy -78008.205413 kJ/mol
# GULP energy per Si atom -5572.014672 kJ/mol
# Density = 2.697314 g / cm^3
# Si number density = 27.034675 Si / 1000 Ang^3
#
#
#
# Elastic Constant Matrix: (Units=GPa)
#
#
# Indices 1 2 3 4 5 6 
#
# 1 78.4197 14.0492 33.8619 0.0000 1.3787 0.0000
# 2 14.0492 163.0427 53.5707 0.0000 -21.1359 0.0000
# 3 33.8619 53.5707 123.3132 0.0000 -11.6073 0.0000
# 4 0.0000 0.0000 0.0000 37.8031 0.0000 -7.1166
# 5 1.3787 -21.1359 -11.6073 0.0000 48.9770 0.0000
# 6 0.0000 0.0000 0.0000 -7.1166 0.0000 32.4329
#
#
#
# Elastic Compliance Matrix: (Units=1/GPa)
#
#
# Indices 1 2 3 4 5 6 
#
# 1 0.014560 -0.000095 -0.004091 0.000000 -0.001420 0.000000
# 2 -0.000095 0.007443 -0.002971 0.000000 0.002511 0.000000
# 3 -0.004091 -0.002971 0.010651 0.000000 0.001357 0.000000
# 4 0.000000 0.000000 0.000000 0.027593 0.000000 0.006055
# 5 -0.001420 0.002511 0.001357 0.000000 0.021863 0.000000
# 6 0.000000 0.000000 0.000000 0.006055 0.000000 0.032161
#
#
# Mechanical properties :
#
#
# Convention : Reuss Voigt Hill
#
# Bulk Modulus (GPa) = 54.52148 63.08215 58.80182
# Shear Modulus (GPa) = 37.11983 41.39552 39.25767
#
# Velocity S-wave (km/s) = 3.70948 3.91730 3.81481
# Velocity P-wave (km/s) = 6.20951 6.62154 6.41883
#
# Compressibility (1/GPa) = 0.01834139
#
# Stress axis : x y z
#
# Youngs Moduli (GPa) = 68.68016 134.35020 93.88509
#
# Poissons Ratio (x) = 0.01271 0.38407
# Poissons Ratio (y) = 0.00650 0.27896
# Poissons Ratio (z) = 0.28096 0.39919
#
# Static dielectric constant tensor:
#      x y z
#    x 2.598360 0.000000 0.088510 
#    y 0.000000 2.349790 0.000000 
#    z 0.088510 0.000000 2.228480 
# 
# From -- ./inp_files/15578.got.cif
#   From: 2010.05.17/outbox.cif.g08.bks.cpg/sg4_8_cif.got.tgz:15578.got - 2010.06.03 18:43:04.
