data_PCOD9115296
_publ_section_title
;
Structure prediction by ZEFSAII (Michael W. Deem and Ramdas Pophale) SiO2 
 PCOD9115296
Probable space group: P 21
;
_chemical_formula_sum "Si O2"
_cell_formula_units_Z 14
_cell_length_a 15.000010
_cell_length_b 5.362872
_cell_length_c 12.718936
_cell_angle_alpha 90.000000
_cell_angle_beta 41.858546
_cell_angle_gamma 90.000000
_cell_volume 682.742431
_symmetry_space_group_name_H-M "P 21"
_symmetry_group_IT_number 4
_symmetry_cell_setting 'monoclinic'
loop_
_space_group_symop_operation_xyz
x,y,z
-x,1/2+y,-z
loop_
_atom_site_type_symbol
_atom_site_label
_atom_site_fract_x
_atom_site_fract_y
_atom_site_fract_z
Si Si1 0.704331 0.513200 0.011596
Si Si2 0.891487 0.675727 0.206881
Si Si3 0.434750 0.806661 0.303591
Si Si4 0.949038 0.680058 0.908887
Si Si5 0.610354 0.202141 0.275877
Si Si6 0.586029 0.458655 0.905756
Si Si7 0.349787 0.466616 0.548539
O O1 0.557544 0.630801 0.157947
O O2 0.705304 0.299012 0.099987
O O3 0.824058 0.690820 0.940048
O O4 0.701817 0.442477 0.891763
O O5 0.741130 0.723091 0.377324
O O6 0.957215 0.419522 0.185156
O O7 0.896134 0.676604 0.075660
O O8 0.972445 0.920041 0.173816
O O9 0.374868 0.921104 0.250110
O O10 0.335442 0.644405 0.461209
O O11 0.511434 0.005929 0.308208
O O12 0.508379 0.409075 0.411241
O O13 0.686493 0.094541 0.309073
O O14 0.513078 0.727940 0.977919
#
# Coordination Sequence:
#
# PCOD9115296 Si02
#       7
#     2   2   2   2   2   2   2
#     4  10  22  36  61  88 125 155 208 262 299 375
#     4  10  24  39  56  84 126 163 205 250 300 370
#     4  10  21  36  56  90 125 164 197 247 320 372
#     4  10  23  38  59  86 118 167 207 251 304 352
#     4  11  21  34  57  91 124 165 199 248 320 376
#     4  10  20  37  58  89 126 158 196 254 310 363
#     4  11  23  34  57  88 130 166 202 248 311 382
#
# _framework density 20.505538999999999
#
# number of rings (size 3 to 8) (size 9 to 14) (size 15 to 20)
#    0.000    1.714    2.857    0.857   12.000    0.000 
#    0.000    0.000    0.000    0.000    3.714    0.000 
#    0.000    0.000    0.000    0.000    0.000    0.000 
#
# Total GULP energy -78194.033886 kJ/mol
# GULP energy per Si atom -5585.288135 kJ/mol
# Density = 2.045887 g / cm^3
# Si number density = 20.505539 Si / 1000 Ang^3
#
#
#
# Elastic Constant Matrix: (Units=GPa)
#
#
# Indices 1 2 3 4 5 6 
#
# 1 112.9339 27.2292 40.1262 0.0000 21.5322 0.0000
# 2 27.2292 80.8497 18.2178 0.0000 1.6723 0.0000
# 3 40.1262 18.2178 48.9229 0.0000 5.1853 0.0000
# 4 0.0000 0.0000 0.0000 32.3545 0.0000 -1.5256
# 5 21.5322 1.6723 5.1853 0.0000 31.4391 0.0000
# 6 0.0000 0.0000 0.0000 -1.5256 0.0000 26.2048
#
#
#
# Elastic Compliance Matrix: (Units=1/GPa)
#
#
# Indices 1 2 3 4 5 6 
#
# 1 0.014648 -0.002459 -0.010228 0.000000 -0.008214 0.000000
# 2 -0.002459 0.013915 -0.003323 0.000000 0.001492 0.000000
# 3 -0.010228 -0.003323 0.029827 0.000000 0.002262 0.000000
# 4 0.000000 0.000000 0.000000 0.030993 0.000000 0.001804
# 5 -0.008214 0.001492 0.002262 0.000000 0.036981 0.000000
# 6 0.000000 0.000000 0.000000 0.001804 0.000000 0.038266
#
#
# Mechanical properties :
#
#
# Convention : Reuss Voigt Hill
#
# Bulk Modulus (GPa) = 37.92173 45.98366 41.95270
# Shear Modulus (GPa) = 24.33829 28.47524 26.40676
#
# Velocity S-wave (km/s) = 3.44890 3.73052 3.59247
# Velocity P-wave (km/s) = 5.86459 6.40542 6.14096
#
# Compressibility (1/GPa) = 0.02637011
#
# Stress axis : x y z
#
# Youngs Moduli (GPa) = 68.27011 71.86693 33.52697
#
# Poissons Ratio (x) = 0.17670 0.34291
# Poissons Ratio (y) = 0.16785 0.11141
# Poissons Ratio (z) = 0.69825 0.23882
#
# Static dielectric constant tensor:
#      x y z
#    x 1.726980 0.000000 0.003220 
#    y 0.000000 1.829490 0.000000 
#    z 0.003220 0.000000 1.752500 
# 
# From -- ./inp_files/7272.got.cif
#   From: 2010.05.17/outbox.cif.g08.bks.cpg/sg4_4_cif.got.tgz:7272.got - 2010.06.03 18:43:04.
