data_PCOD9115912
_publ_section_title
;
Structure prediction by ZEFSAII (Michael W. Deem and Ramdas Pophale) SiO2 
 PCOD9115912
Probable space group: P 21
;
_chemical_formula_sum "Si O2"
_cell_formula_units_Z 16
_cell_length_a 12.382988
_cell_length_b 13.629823
_cell_length_c 11.207685
_cell_angle_alpha 90.000000
_cell_angle_beta 154.761866
_cell_angle_gamma 90.000000
_cell_volume 806.547322
_symmetry_space_group_name_H-M "P 21"
_symmetry_group_IT_number 4
_symmetry_cell_setting 'monoclinic'
loop_
_space_group_symop_operation_xyz
x,y,z
-x,1/2+y,-z
loop_
_atom_site_type_symbol
_atom_site_label
_atom_site_fract_x
_atom_site_fract_y
_atom_site_fract_z
Si Si1 0.001203 0.436430 0.159162
Si Si2 0.502957 0.672926 0.235849
Si Si3 0.996750 0.278660 0.358045
Si Si4 0.498140 0.936759 0.487145
Si Si5 0.000665 0.330885 0.639363
Si Si6 0.501759 0.672798 0.512741
Si Si7 0.998865 0.173138 0.840926
Si Si8 0.500362 0.436645 0.233255
O O1 0.998763 0.376775 0.279287
O O2 0.000609 0.554784 0.177001
O O3 0.249947 0.408875 0.332299
O O4 0.755190 0.408625 0.835947
O O5 0.500737 0.701609 0.373655
O O6 0.500092 0.554788 0.224805
O O7 0.756012 0.716170 0.430231
O O8 0.254733 0.718160 0.926938
O O9 0.999985 0.304758 0.499982
O O10 0.500127 0.907962 0.627201
O O11 0.497759 0.054779 0.488199
O O12 0.751594 0.392570 0.424987
O O13 0.000143 0.232782 0.719632
O O14 0.250318 0.392218 0.923326
O O15 0.249411 0.700679 0.331389
O O16 0.754653 0.700952 0.835745
#
# Coordination Sequence:
#
# PCOD9115912 Si02
#       8
#     2   2   2   2   2   2   2   2
#     4  10  21  38  61  90 126 160 198 257 309 356
#     4  11  24  43  66  91 124 159 199 259 311 357
#     4  12  26  42  61  92 124 165 217 243 288 371
#     4   9  19  37  62  93 121 154 202 250 313 373
#     4  12  26  42  61  92 124 165 217 243 288 371
#     4   9  19  37  62  93 121 154 202 250 313 373
#     4  10  21  38  61  90 126 160 198 257 309 356
#     4  11  24  43  66  91 124 159 199 259 311 357
#
# _framework density 19.837645999999999
#
# number of rings (size 3 to 8) (size 9 to 14) (size 15 to 20)
#    0.000    1.500    0.000    4.500    0.000   12.000 
#    0.000    2.500    0.000    0.000    0.000    0.000 
#    0.000    0.000    0.000    0.000    0.000    0.000 
#
# Total GULP energy -89529.721070 kJ/mol
# GULP energy per Si atom -5595.607567 kJ/mol
# Density = 1.979250 g / cm^3
# Si number density = 19.837646 Si / 1000 Ang^3
#
#
#
# Elastic Constant Matrix: (Units=GPa)
#
#
# Indices 1 2 3 4 5 6 
#
# 1 207.9141 77.8618 126.2820 0.0000 -28.7092 0.0000
# 2 77.8618 150.9812 77.4530 0.0000 -7.1310 0.0000
# 3 126.2820 77.4530 221.0563 0.0000 9.7966 0.0000
# 4 0.0000 0.0000 0.0000 18.2225 0.0000 3.5121
# 5 -28.7092 -7.1310 9.7966 0.0000 23.7482 0.0000
# 6 0.0000 0.0000 0.0000 3.5121 0.0000 5.5472
#
#
#
# Elastic Compliance Matrix: (Units=1/GPa)
#
#
# Indices 1 2 3 4 5 6 
#
# 1 0.012114 -0.001839 -0.007029 0.000000 0.016992 0.000000
# 2 -0.001839 0.008678 -0.002045 0.000000 0.001227 0.000000
# 3 -0.007029 -0.002045 0.009839 0.000000 -0.013170 0.000000
# 4 0.000000 0.000000 0.000000 0.062504 0.000000 -0.039573
# 5 0.016992 0.001227 -0.013170 0.000000 0.068451 0.000000
# 6 0.000000 0.000000 0.000000 -0.039573 0.000000 0.205325
#
#
# Mechanical properties :
#
#
# Convention : Reuss Voigt Hill
#
# Bulk Modulus (GPa) = 113.55046 127.01612 120.28329
# Shear Modulus (GPa) = 12.76580 29.39391 21.07986
#
# Velocity S-wave (km/s) = 2.53951 3.85349 3.26332
# Velocity P-wave (km/s) = 8.12176 9.16330 8.65820
#
# Compressibility (1/GPa) = 0.00880666
#
# Stress axis : x y z
#
# Youngs Moduli (GPa) = 82.55119 115.22821 101.63462
#
# Poissons Ratio (x) = 0.21188 0.71438
# Poissons Ratio (y) = 0.15179 0.20781
# Poissons Ratio (z) = 0.58024 0.23560
#
# Static dielectric constant tensor:
#      x y z
#    x 1.642470 0.000000 0.005190 
#    y 0.000000 1.721640 0.000000 
#    z 0.005190 0.000000 1.659480 
# 
# From -- ./inp_files/12363.got.cif
#   From: 2010.05.17/outbox.cif.g08.bks.cpg/sg4_7_cif.got.tgz:12363.got - 2010.06.03 18:43:04.
