data_PCOD9115881
_publ_section_title
;
Structure prediction by ZEFSAII (Michael W. Deem and Ramdas Pophale) SiO2 
 PCOD9115881
Probable space group: P 21
;
_chemical_formula_sum "Si O2"
_cell_formula_units_Z 12
_cell_length_a 10.133045
_cell_length_b 5.899818
_cell_length_c 10.224027
_cell_angle_alpha 90.000000
_cell_angle_beta 118.509430
_cell_angle_gamma 90.000000
_cell_volume 537.106319
_symmetry_space_group_name_H-M "P 21"
_symmetry_group_IT_number 4
_symmetry_cell_setting 'monoclinic'
loop_
_space_group_symop_operation_xyz
x,y,z
-x,1/2+y,-z
loop_
_atom_site_type_symbol
_atom_site_label
_atom_site_fract_x
_atom_site_fract_y
_atom_site_fract_z
Si Si1 0.147564 0.111460 0.378737
Si Si2 0.103282 0.841750 0.861715
Si Si3 0.366214 0.824633 0.616995
Si Si4 0.954109 0.232693 0.871323
Si Si5 0.576466 0.187170 0.066522
Si Si6 0.660653 0.991334 0.642997
O O1 0.287980 0.246603 0.384757
O O2 0.006859 0.282888 0.311944
O O3 0.216013 0.978355 0.533953
O O4 0.086783 0.936717 0.243106
O O5 0.262503 0.724984 0.925836
O O6 0.099867 0.113061 0.877310
O O7 0.031545 0.784279 0.969822
O O8 0.388334 0.696169 0.762218
O O9 0.360332 0.651778 0.492443
O O10 0.513623 0.976026 0.661027
O O11 0.803446 0.083342 0.787841
O O12 0.490915 0.434053 0.997779
#
# Coordination Sequence:
#
# PCOD9115881 Si02
#       6
#     2   2   2   2   2   2
#     4  10  22  40  66 102 130 190 234 308 360 410
#     4  11  23  44  70 103 143 187 253 298 373 441
#     4  11  23  44  70 103 143 187 253 298 373 441
#     4  10  21  37  70 100 132 181 240 308 355 428
#     4  12  32  50  76 110 152 204 240 310 386 444
#     4  10  21  37  70 100 132 181 240 308 355 428
#
# _framework density 22.341946
#
# number of rings (size 3 to 8) (size 9 to 14) (size 15 to 20)
#    0.000    1.333    3.333    1.000    7.000    0.000 
#    9.000    0.000    0.000    0.000    0.000    0.000 
#    0.000    0.000    0.000    0.000    0.000    0.000 
#
# Total GULP energy -66862.034047 kJ/mol
# GULP energy per Si atom -5571.836171 kJ/mol
# Density = 2.229109 g / cm^3
# Si number density = 22.341946 Si / 1000 Ang^3
#
#
#
# Elastic Constant Matrix: (Units=GPa)
#
#
# Indices 1 2 3 4 5 6 
#
# 1 40.7404 -3.9073 -9.7546 0.0000 1.2602 0.0000
# 2 -3.9073 51.3269 -3.3121 0.0000 6.4243 0.0000
# 3 -9.7546 -3.3121 77.9112 0.0000 3.1763 0.0000
# 4 0.0000 0.0000 0.0000 35.6324 0.0000 8.5728
# 5 1.2602 6.4243 3.1763 0.0000 23.9315 0.0000
# 6 0.0000 0.0000 0.0000 8.5728 0.0000 25.5260
#
#
#
# Elastic Compliance Matrix: (Units=1/GPa)
#
#
# Indices 1 2 3 4 5 6 
#
# 1 0.025680 0.002485 0.003422 0.000000 -0.002474 0.000000
# 2 0.002485 0.020492 0.001420 0.000000 -0.005820 0.000000
# 3 0.003422 0.001420 0.013419 0.000000 -0.002342 0.000000
# 4 0.000000 0.000000 0.000000 0.030531 0.000000 -0.010254
# 5 -0.002474 -0.005820 -0.002342 0.000000 0.043789 0.000000
# 6 0.000000 0.000000 0.000000 -0.010254 0.000000 0.042619
#
#
# Mechanical properties :
#
#
# Convention : Reuss Voigt Hill
#
# Bulk Modulus (GPa) = 13.46903 15.11452 14.29178
# Shear Modulus (GPa) = 26.79144 29.48149 28.13647
#
# Velocity S-wave (km/s) = 3.46664 3.63651 3.55259
# Velocity P-wave (km/s) = 4.69735 4.94086 4.82064
#
# Compressibility (1/GPa) = 0.07424438
#
# Stress axis : x y z
#
# Youngs Moduli (GPa) = 38.94113 48.79895 74.51920
#
# Poissons Ratio (x) = -0.12128 -0.25498
# Poissons Ratio (y) = -0.09678 -0.10579
# Poissons Ratio (z) = -0.13324 -0.06927
#
# Static dielectric constant tensor:
#      x y z
#    x 1.828730 0.000000 0.027790 
#    y 0.000000 2.080640 0.000000 
#    z 0.027790 0.000000 1.785980 
# 
# From -- ./inp_files/11512.got.cif
#   From: 2010.05.17/outbox.cif.g08.bks.cpg/sg4_6_cif.got.tgz:11512.got - 2010.06.03 18:43:04.
