data_PCOD9115866
_publ_section_title
;
Structure prediction by ZEFSAII (Michael W. Deem and Ramdas Pophale) SiO2 
 PCOD9115866
Probable space group: P 21
;
_chemical_formula_sum "Si O2"
_cell_formula_units_Z 14
_cell_length_a 17.087249
_cell_length_b 4.942853
_cell_length_c 23.508994
_cell_angle_alpha 90.000000
_cell_angle_beta 18.857427
_cell_angle_gamma 90.000000
_cell_volume 641.762776
_symmetry_space_group_name_H-M "P 21"
_symmetry_group_IT_number 4
_symmetry_cell_setting 'monoclinic'
loop_
_space_group_symop_operation_xyz
x,y,z
-x,1/2+y,-z
loop_
_atom_site_type_symbol
_atom_site_label
_atom_site_fract_x
_atom_site_fract_y
_atom_site_fract_z
Si Si1 0.057742 0.581640 0.923312
Si Si2 0.732681 0.295458 0.640185
Si Si3 0.941308 0.011080 0.822005
Si Si4 0.785504 0.518489 0.997925
Si Si5 0.476958 0.174573 0.474066
Si Si6 0.660863 0.020128 0.899132
Si Si7 0.009925 0.296076 0.569525
O O1 0.315604 0.641114 0.716232
O O2 0.057500 0.354752 0.972140
O O3 0.889734 0.468635 0.988467
O O4 0.471165 0.165526 0.822468
O O5 0.761254 0.599665 0.598928
O O6 0.846747 0.284704 0.624831
O O7 0.897539 0.099855 0.487769
O O8 0.794282 0.950647 0.865943
O O9 0.213268 0.121789 0.628071
O O10 0.794145 0.243660 0.956567
O O11 0.952772 0.740335 0.851451
O O12 0.488550 0.459861 0.498357
O O13 0.852788 0.170149 0.727178
O O14 0.452323 0.248718 0.049960
#
# Coordination Sequence:
#
# PCOD9115866 Si02
#       7
#     2   2   2   2   2   2   2
#     4  12  26  44  69 101 137 171 222 296 353 400
#     4  10  21  37  63  86 124 170 208 261 328 401
#     4  12  24  42  71  97 128 186 228 272 341 416
#     4  12  24  43  68  96 130 172 234 270 340 420
#     4  12  23  46  71  98 138 182 232 288 342 425
#     4  12  25  41  64  97 138 169 223 286 327 391
#     4  10  21  39  58  89 127 166 209 265 331 383
#
# _framework density 21.814914000000002
#
# number of rings (size 3 to 8) (size 9 to 14) (size 15 to 20)
#    0.000    0.571    2.857    6.000    0.000    4.571 
#    0.000    0.000    0.000    0.000    0.000    0.000 
#    0.000    0.000    0.000    0.000    0.000    0.000 
#
# Total GULP energy -78369.869513 kJ/mol
# GULP energy per Si atom -5597.847822 kJ/mol
# Density = 2.176526 g / cm^3
# Si number density = 21.814914 Si / 1000 Ang^3
#
#
#
# Elastic Constant Matrix: (Units=GPa)
#
#
# Indices 1 2 3 4 5 6 
#
# 1 46.6598 -9.8175 10.9064 0.0000 -2.1837 0.0000
# 2 -9.8175 39.9690 -19.0936 0.0000 3.2367 0.0000
# 3 10.9064 -19.0936 97.8297 0.0000 2.8421 0.0000
# 4 0.0000 0.0000 0.0000 29.2011 0.0000 0.1928
# 5 -2.1837 3.2367 2.8421 0.0000 39.7120 0.0000
# 6 0.0000 0.0000 0.0000 0.1928 0.0000 20.3366
#
#
#
# Elastic Compliance Matrix: (Units=1/GPa)
#
#
# Indices 1 2 3 4 5 6 
#
# 1 0.022863 0.004747 -0.001651 0.000000 0.000988 0.000000
# 2 0.004747 0.028857 0.005174 0.000000 -0.002461 0.000000
# 3 -0.001651 0.005174 0.011454 0.000000 -0.001332 0.000000
# 4 0.000000 0.000000 0.000000 0.034247 0.000000 -0.000325
# 5 0.000988 -0.002461 -0.001332 0.000000 0.025532 0.000000
# 6 0.000000 0.000000 0.000000 -0.000325 0.000000 0.049176
#
#
# Mechanical properties :
#
#
# Convention : Reuss Voigt Hill
#
# Bulk Modulus (GPa) = 12.54483 16.49433 14.51958
# Shear Modulus (GPa) = 27.44849 31.34747 29.39798
#
# Velocity S-wave (km/s) = 3.55102 3.79486 3.67496
# Velocity P-wave (km/s) = 4.75143 5.17481 4.96763
#
# Compressibility (1/GPa) = 0.07971409
#
# Stress axis : x y z
#
# Youngs Moduli (GPa) = 43.73936 34.65421 87.30204
#
# Poissons Ratio (x) = -0.16450 0.14414
# Poissons Ratio (y) = -0.20763 -0.45172
# Poissons Ratio (z) = 0.07222 -0.17931
#
# Static dielectric constant tensor:
#      x y z
#    x 1.741460 0.000000 -0.004590 
#    y 0.000000 1.775030 0.000000 
#    z -0.004590 0.000000 1.832690 
# 
# From -- ./inp_files/8944.got.cif
#   From: 2010.05.17/outbox.cif.g08.bks.cpg/sg4_5_cif.got.tgz:8944.got - 2010.06.03 18:43:04.
