data_PCOD9115534
_publ_section_title
;
Structure prediction by ZEFSAII (Michael W. Deem and Ramdas Pophale) SiO2 
 PCOD9115534
Probable space group: P 21
;
_chemical_formula_sum "Si O2"
_cell_formula_units_Z 16
_cell_length_a 9.248445
_cell_length_b 12.818529
_cell_length_c 12.395486
_cell_angle_alpha 90.000000
_cell_angle_beta 146.206425
_cell_angle_gamma 90.000000
_cell_volume 817.341118
_symmetry_space_group_name_H-M "P 21"
_symmetry_group_IT_number 4
_symmetry_cell_setting 'monoclinic'
loop_
_space_group_symop_operation_xyz
x,y,z
-x,1/2+y,-z
loop_
_atom_site_type_symbol
_atom_site_label
_atom_site_fract_x
_atom_site_fract_y
_atom_site_fract_z
Si Si1 0.438397 0.931530 0.340108
Si Si2 0.938609 0.790443 0.632266
Si Si3 0.322658 0.660773 0.550238
Si Si4 0.935974 0.422447 0.095499
Si Si5 0.886477 0.448369 0.439801
Si Si6 0.238210 0.610640 0.742616
Si Si7 0.475552 0.882913 0.591422
Si Si8 0.781930 0.595939 0.175195
O O1 0.652590 0.839504 0.463590
O O2 0.324995 0.916525 0.389291
O O3 0.577682 0.045327 0.421215
O O4 0.244100 0.920624 0.120479
O O5 0.076237 0.824962 0.829179
O O6 0.056108 0.851615 0.602405
O O7 0.991505 0.670739 0.639631
O O8 0.320773 0.657575 0.678377
O O9 0.486161 0.757065 0.607016
O O10 0.022324 0.676077 0.327196
O O11 0.852961 0.517966 0.120942
O O12 0.234802 0.428023 0.242412
O O13 0.672351 0.422626 0.395156
O O14 0.804015 0.537243 0.303311
O O15 0.145445 0.493043 0.658990
O O16 0.486708 0.627101 0.972083
#
# Coordination Sequence:
#
# PCOD9115534 Si02
#       8
#     2   2   2   2   2   2   2   2
#     4  11  22  44  64  85 127 172 195 255 315 361
#     4  10  20  40  62  92 119 156 213 253 301 361
#     4  11  21  40  63  89 121 164 204 252 312 366
#     4  10  21  41  62  85 123 168 200 246 307 371
#     4  10  21  39  60  92 127 152 202 268 298 353
#     4  11  21  38  68  92 121 164 209 258 309 364
#     4  11  24  39  61  97 126 161 210 250 306 380
#     4  10  20  41  64  86 118 163 207 254 306 360
#
# _framework density 19.575671
#
# number of rings (size 3 to 8) (size 9 to 14) (size 15 to 20)
#    0.000    1.500    7.500    0.000    0.000    6.000 
#    4.500    0.000    0.000    0.000    0.000    0.000 
#    0.000    0.000    0.000    0.000    0.000    0.000 
#
# Total GULP energy -89199.936796 kJ/mol
# GULP energy per Si atom -5574.996050 kJ/mol
# Density = 1.953112 g / cm^3
# Si number density = 19.575671 Si / 1000 Ang^3
#
#
#
# Elastic Constant Matrix: (Units=GPa)
#
#
# Indices 1 2 3 4 5 6 
#
# 1 108.8829 5.7337 18.6164 0.0000 -10.0711 0.0000
# 2 5.7337 29.1969 7.8219 0.0000 3.9704 0.0000
# 3 18.6164 7.8219 108.3845 0.0000 -6.7317 0.0000
# 4 0.0000 0.0000 0.0000 8.5067 0.0000 4.7207
# 5 -10.0711 3.9704 -6.7317 0.0000 21.9656 0.0000
# 6 0.0000 0.0000 0.0000 4.7207 0.0000 28.5736
#
#
#
# Elastic Compliance Matrix: (Units=1/GPa)
#
#
# Indices 1 2 3 4 5 6 
#
# 1 0.009941 -0.002236 -0.001262 0.000000 0.004575 0.000000
# 2 -0.002236 0.036590 -0.002784 0.000000 -0.008492 0.000000
# 3 -0.001262 -0.002784 0.009826 0.000000 0.002936 0.000000
# 4 0.000000 0.000000 0.000000 0.129419 0.000000 -0.021382
# 5 0.004575 -0.008492 0.002936 0.000000 0.050058 0.000000
# 6 0.000000 0.000000 0.000000 -0.021382 0.000000 0.038530
#
#
# Mechanical properties :
#
#
# Convention : Reuss Voigt Hill
#
# Bulk Modulus (GPa) = 22.83472 34.53425 28.68449
# Shear Modulus (GPa) = 16.58225 26.09534 21.33880
#
# Velocity S-wave (km/s) = 2.91363 3.65506 3.30520
# Velocity P-wave (km/s) = 4.79679 5.95754 5.40839
#
# Compressibility (1/GPa) = 0.04379295
#
# Stress axis : x y z
#
# Youngs Moduli (GPa) = 100.59452 27.32984 101.76634
#
# Poissons Ratio (x) = 0.06112 0.12842
# Poissons Ratio (y) = 0.22496 0.28331
# Poissons Ratio (z) = 0.12694 0.07609
#
# Static dielectric constant tensor:
#      x y z
#    x 1.679460 0.000000 0.002600 
#    y 0.000000 1.717460 0.000000 
#    z 0.002600 0.000000 1.700460 
# 
# From -- ./inp_files/11300.got.cif
#   From: 2010.05.17/outbox.cif.g08.bks.cpg/sg4_6_cif.got.tgz:11300.got - 2010.06.03 18:43:04.
