data_PCOD9115642
_publ_section_title
;
Structure prediction by ZEFSAII (Michael W. Deem and Ramdas Pophale) SiO2 
 PCOD9115642
Probable space group: P 21
;
_chemical_formula_sum "Si O2"
_cell_formula_units_Z 16
_cell_length_a 11.837755
_cell_length_b 13.642681
_cell_length_c 5.597333
_cell_angle_alpha 90.000000
_cell_angle_beta 130.859535
_cell_angle_gamma 90.000000
_cell_volume 683.680710
_symmetry_space_group_name_H-M "P 21"
_symmetry_group_IT_number 4
_symmetry_cell_setting 'monoclinic'
loop_
_space_group_symop_operation_xyz
x,y,z
-x,1/2+y,-z
loop_
_atom_site_type_symbol
_atom_site_label
_atom_site_fract_x
_atom_site_fract_y
_atom_site_fract_z
Si Si1 0.498455 0.149850 0.180575
Si Si2 0.242131 0.855143 0.811845
Si Si3 0.554109 0.379006 0.276134
Si Si4 0.826402 0.676308 0.107166
Si Si5 0.154474 0.981173 0.086043
Si Si6 0.621636 0.057011 0.842841
Si Si7 0.107257 0.677998 0.839506
Si Si8 0.989099 0.820734 0.079301
O O1 0.548460 0.262544 0.295936
O O2 0.542107 0.091536 0.484522
O O3 0.318540 0.156929 0.934405
O O4 0.563689 0.108995 0.015827
O O5 0.402683 0.887676 0.944244
O O6 0.162037 0.945528 0.824377
O O7 0.237355 0.758954 0.964893
O O8 0.130105 0.821284 0.451116
O O9 0.415139 0.443355 0.160617
O O10 0.695864 0.432507 0.597417
O O11 0.830876 0.596293 0.901316
O O12 0.976752 0.664089 0.467448
O O13 0.843003 0.784448 0.015041
O O14 0.008331 0.927878 0.989241
O O15 0.794566 0.080575 0.027912
O O16 0.027740 0.734863 0.945339
#
# Coordination Sequence:
#
# PCOD9115642 Si02
#       8
#     2   2   2   2   2   2   2   2
#     4  12  27  46  75 106 146 186 249 305 355 431
#     4   9  17  38  66  92 125 180 232 276 348 421
#     4  11  23  41  71 101 142 185 238 302 365 428
#     4  11  24  43  67 103 143 185 233 299 357 425
#     4  10  20  41  69  99 132 193 234 284 361 436
#     4  12  26  46  73 107 138 195 239 297 368 436
#     4  10  22  42  67  94 141 183 235 288 358 424
#     4   9  21  39  66  94 133 181 230 285 346 421
#
# _framework density 23.402736999999998
#
# number of rings (size 3 to 8) (size 9 to 14) (size 15 to 20)
#    0.000    1.500    2.500    3.000    3.500    2.000 
#    9.000    0.000    0.000    0.000    0.000    0.000 
#    0.000    0.000    0.000    0.000    0.000    0.000 
#
# Total GULP energy -89119.540225 kJ/mol
# GULP energy per Si atom -5569.971264 kJ/mol
# Density = 2.334947 g / cm^3
# Si number density = 23.402737 Si / 1000 Ang^3
#
#
#
# Elastic Constant Matrix: (Units=GPa)
#
#
# Indices 1 2 3 4 5 6 
#
# 1 76.8329 22.0590 18.5634 0.0000 2.5292 0.0000
# 2 22.0590 79.9891 8.9284 0.0000 -2.1359 0.0000
# 3 18.5634 8.9284 59.1457 0.0000 2.2994 0.0000
# 4 0.0000 0.0000 0.0000 21.6072 0.0000 2.2036
# 5 2.5292 -2.1359 2.2994 0.0000 22.1342 0.0000
# 6 0.0000 0.0000 0.0000 2.2036 0.0000 45.4102
#
#
#
# Elastic Compliance Matrix: (Units=1/GPa)
#
#
# Indices 1 2 3 4 5 6 
#
# 1 0.015146 -0.003761 -0.004121 0.000000 -0.001665 0.000000
# 2 -0.003761 0.013695 -0.000959 0.000000 0.001851 0.000000
# 3 -0.004121 -0.000959 0.018405 0.000000 -0.001534 0.000000
# 4 0.000000 0.000000 0.000000 0.046511 0.000000 -0.002257
# 5 -0.001665 0.001851 -0.001534 0.000000 0.045707 0.000000
# 6 0.000000 0.000000 0.000000 -0.002257 0.000000 0.022131
#
#
# Mechanical properties :
#
#
# Convention : Reuss Voigt Hill
#
# Bulk Modulus (GPa) = 33.82506 35.00771 34.41638
# Shear Modulus (GPa) = 26.43648 28.92476 27.68062
#
# Velocity S-wave (km/s) = 3.36465 3.51943 3.44291
# Velocity P-wave (km/s) = 5.43868 5.61306 5.52656
#
# Compressibility (1/GPa) = 0.02956388
#
# Stress axis : x y z
#
# Youngs Moduli (GPa) = 66.02565 73.01706 54.33246
#
# Poissons Ratio (x) = 0.27464 0.22391
# Poissons Ratio (y) = 0.24834 0.05210
# Poissons Ratio (z) = 0.27210 0.07001
#
# Static dielectric constant tensor:
#      x y z
#    x 2.032600 0.000000 -0.093080 
#    y 0.000000 2.006980 0.000000 
#    z -0.093080 0.000000 1.915040 
# 
# From -- ./inp_files/1575.got.cif
#   From: 2010.05.17/outbox.cif.g08.bks.cpg/sg4_1_cif.got.tgz:1575.got - 2010.06.03 18:43:04.
