data_PCOD9115946
_publ_section_title
;
Structure prediction by ZEFSAII (Michael W. Deem and Ramdas Pophale) SiO2 
 PCOD9115946
Probable space group: P 21
;
_chemical_formula_sum "Si O2"
_cell_formula_units_Z 14
_cell_length_a 13.507292
_cell_length_b 5.579536
_cell_length_c 15.025892
_cell_angle_alpha 90.000000
_cell_angle_beta 150.632690
_cell_angle_gamma 90.000000
_cell_volume 555.345102
_symmetry_space_group_name_H-M "P 21"
_symmetry_group_IT_number 4
_symmetry_cell_setting 'monoclinic'
loop_
_space_group_symop_operation_xyz
x,y,z
-x,1/2+y,-z
loop_
_atom_site_type_symbol
_atom_site_label
_atom_site_fract_x
_atom_site_fract_y
_atom_site_fract_z
Si Si1 0.410605 0.904390 0.469968
Si Si2 0.251314 0.156575 0.606260
Si Si3 0.318440 0.490899 0.992176
Si Si4 0.050736 0.192242 0.130669
Si Si5 0.708002 0.863146 0.847001
Si Si6 0.899874 0.788068 0.322367
Si Si7 0.967913 0.886697 0.710060
O O1 0.480580 0.655510 0.477604
O O2 0.487529 0.870916 0.631286
O O3 0.177448 0.972421 0.273980
O O4 0.474243 0.106749 0.814714
O O5 0.111282 0.926906 0.478718
O O6 0.138158 0.268165 0.603122
O O7 0.231395 0.310397 0.501055
O O8 0.288421 0.292193 0.046972
O O9 0.302754 0.402518 0.879293
O O10 0.129730 0.671135 0.844742
O O11 0.155579 0.225695 0.117595
O O12 0.080986 0.411480 0.223568
O O13 0.818873 0.122448 0.934665
O O14 0.931175 0.568260 0.279597
#
# Coordination Sequence:
#
# PCOD9115946 Si02
#       7
#     2   2   2   2   2   2   2
#     4  10  21  40  62  95 129 178 233 275 332 404
#     4  11  23  44  67  91 132 165 212 281 335 401
#     4  10  25  41  65  98 130 164 227 270 328 410
#     4  10  21  38  65  90 132 172 215 273 324 402
#     4  10  21  40  62  95 130 174 215 268 334 392
#     4  11  24  41  66  97 122 171 216 274 342 407
#     4  10  23  44  63  96 127 168 226 265 335 402
#
# _framework density 25.209548999999999
#
# number of rings (size 3 to 8) (size 9 to 14) (size 15 to 20)
#    0.000    1.714    1.429    1.714    4.000    1.143 
#   20.571    0.000    0.000    0.000    0.000    0.000 
#    0.000    0.000    0.000    0.000    0.000    0.000 
#
# Total GULP energy -78089.625543 kJ/mol
# GULP energy per Si atom -5577.830396 kJ/mol
# Density = 2.515217 g / cm^3
# Si number density = 25.209549 Si / 1000 Ang^3
#
#
#
# Elastic Constant Matrix: (Units=GPa)
#
#
# Indices 1 2 3 4 5 6 
#
# 1 61.8678 8.9957 26.0617 0.0000 -10.1842 0.0000
# 2 8.9957 37.8138 26.7804 0.0000 -10.0223 0.0000
# 3 26.0617 26.7804 159.9792 0.0000 -14.4146 0.0000
# 4 0.0000 0.0000 0.0000 21.1359 0.0000 -3.3982
# 5 -10.1842 -10.0223 -14.4146 0.0000 52.4612 0.0000
# 6 0.0000 0.0000 0.0000 -3.3982 0.0000 32.0961
#
#
#
# Elastic Compliance Matrix: (Units=1/GPa)
#
#
# Indices 1 2 3 4 5 6 
#
# 1 0.017842 -0.001921 -0.002364 0.000000 0.002447 0.000000
# 2 -0.001921 0.031264 -0.004528 0.000000 0.004356 0.000000
# 3 -0.002364 -0.004528 0.007459 0.000000 0.000726 0.000000
# 4 0.000000 0.000000 0.000000 0.048132 0.000000 0.005096
# 5 0.002447 0.004356 0.000726 0.000000 0.020568 0.000000
# 6 0.000000 0.000000 0.000000 0.005096 0.000000 0.031696
#
#
# Mechanical properties :
#
#
# Convention : Reuss Voigt Hill
#
# Bulk Modulus (GPa) = 25.68251 42.59292 34.13771
# Shear Modulus (GPa) = 26.65703 34.32684 30.49194
#
# Velocity S-wave (km/s) = 3.25532 3.69407 3.48162
# Velocity P-wave (km/s) = 4.93348 5.92681 5.45281
#
# Compressibility (1/GPa) = 0.03893701
#
# Stress axis : x y z
#
# Youngs Moduli (GPa) = 56.04859 31.98595 134.05977
#
# Poissons Ratio (x) = 0.06146 0.31697
# Poissons Ratio (y) = 0.10769 0.60703
# Poissons Ratio (z) = 0.13252 0.14483
#
# Static dielectric constant tensor:
#      x y z
#    x 2.116010 0.000000 -0.010210 
#    y 0.000000 2.111930 0.000000 
#    z -0.010210 0.000000 1.935000 
# 
# From -- ./inp_files/14040.got.cif
#   From: 2010.05.17/outbox.cif.g08.bks.cpg/sg4_8_cif.got.tgz:14040.got - 2010.06.03 18:43:04.
