data_PCOD9115790
_publ_section_title
;
Structure prediction by ZEFSAII (Michael W. Deem and Ramdas Pophale) SiO2 
 PCOD9115790
Probable space group: P 21
;
_chemical_formula_sum "Si O2"
_cell_formula_units_Z 16
_cell_length_a 10.833574
_cell_length_b 4.639213
_cell_length_c 14.295008
_cell_angle_alpha 90.000000
_cell_angle_beta 58.993278
_cell_angle_gamma 90.000000
_cell_volume 615.793990
_symmetry_space_group_name_H-M "P 21"
_symmetry_group_IT_number 4
_symmetry_cell_setting 'monoclinic'
loop_
_space_group_symop_operation_xyz
x,y,z
-x,1/2+y,-z
loop_
_atom_site_type_symbol
_atom_site_label
_atom_site_fract_x
_atom_site_fract_y
_atom_site_fract_z
Si Si1 0.436436 0.908260 0.582369
Si Si2 0.897876 0.701226 0.027811
Si Si3 0.530639 0.292706 0.050412
Si Si4 0.745357 0.764820 0.746580
Si Si5 0.284152 0.441915 0.731897
Si Si6 0.029103 0.439249 0.716922
Si Si7 0.909284 0.917683 0.509108
Si Si8 0.821313 0.061825 0.895933
O O1 0.442141 0.652533 0.498708
O O2 0.414294 0.676929 0.677316
O O3 0.322084 0.154201 0.657366
O O4 0.778274 0.821802 0.145955
O O5 0.851044 0.772902 0.940769
O O6 0.951985 0.378805 0.019188
O O7 0.419311 0.182476 0.171940
O O8 0.524133 0.623876 0.021461
O O9 0.695595 0.218170 0.001367
O O10 0.883871 0.585496 0.730824
O O11 0.778809 0.846248 0.627939
O O12 0.757342 0.022496 0.816830
O O13 0.153137 0.597637 0.726199
O O14 0.102634 0.328215 0.592977
O O15 0.970982 0.209123 0.813356
O O16 0.049058 0.751389 0.496377
#
# Coordination Sequence:
#
# PCOD9115790 Si02
#       8
#     2   2   2   2   2   2   2   2
#     4   9  21  44  68  88 119 170 221 273 331 387
#     4  12  25  39  61  98 139 174 217 273 332 389
#     4  10  21  37  60  87 121 175 211 251 315 383
#     4  10  21  39  61  89 134 167 215 264 321 390
#     4  11  22  38  66  97 130 172 220 273 330 392
#     4  11  21  37  62  96 130 168 211 275 329 386
#     4  10  21  35  58  88 121 161 205 263 323 374
#     4  11  22  39  62  91 132 177 216 268 323 391
#
# _framework density 25.982714000000001
#
# number of rings (size 3 to 8) (size 9 to 14) (size 15 to 20)
#    0.000    1.500    3.750    1.500    1.750    0.000 
#    0.000    3.750    0.000   15.000    0.000    0.000 
#    0.000    0.000    0.000    0.000    0.000    0.000 
#
# Total GULP energy -89072.085451 kJ/mol
# GULP energy per Si atom -5567.005341 kJ/mol
# Density = 2.592358 g / cm^3
# Si number density = 25.982714 Si / 1000 Ang^3
#
#
#
# Elastic Constant Matrix: (Units=GPa)
#
#
# Indices 1 2 3 4 5 6 
#
# 1 45.1756 15.0566 37.2442 0.0000 0.2020 0.0000
# 2 15.0566 94.3535 31.7519 0.0000 -11.0618 0.0000
# 3 37.2442 31.7519 223.9375 0.0000 -10.6166 0.0000
# 4 0.0000 0.0000 0.0000 43.3045 0.0000 -12.7324
# 5 0.2020 -11.0618 -10.6166 0.0000 30.7689 0.0000
# 6 0.0000 0.0000 0.0000 -12.7324 0.0000 28.4006
#
#
#
# Elastic Compliance Matrix: (Units=1/GPa)
#
#
# Indices 1 2 3 4 5 6 
#
# 1 0.026590 -0.003184 -0.004100 0.000000 -0.002734 0.000000
# 2 -0.003184 0.011897 -0.000970 0.000000 0.003964 0.000000
# 3 -0.004100 -0.000970 0.005357 0.000000 0.001527 0.000000
# 4 0.000000 0.000000 0.000000 0.026598 0.000000 0.011924
# 5 -0.002734 0.003964 0.001527 0.000000 0.034470 0.000000
# 6 0.000000 0.000000 0.000000 0.011924 0.000000 0.040556
#
#
# Mechanical properties :
#
#
# Convention : Reuss Voigt Hill
#
# Bulk Modulus (GPa) = 36.58034 59.06354 47.82194
# Shear Modulus (GPa) = 29.22456 39.12240 34.17348
#
# Velocity S-wave (km/s) = 3.35740 3.88456 3.63056
# Velocity P-wave (km/s) = 5.39803 6.54988 6.00165
#
# Compressibility (1/GPa) = 0.02733709
#
# Stress axis : x y z
#
# Youngs Moduli (GPa) = 37.60854 84.05170 186.65922
#
# Poissons Ratio (x) = 0.26760 0.76539
# Poissons Ratio (y) = 0.11974 0.18097
# Poissons Ratio (z) = 0.15421 0.08149
#
# Static dielectric constant tensor:
#      x y z
#    x 2.038180 0.000000 -0.048890 
#    y 0.000000 2.078020 0.000000 
#    z -0.048890 0.000000 2.122360 
# 
# From -- ./inp_files/13777.got.cif
#   From: 2010.05.17/outbox.cif.g08.bks.cpg/sg4_7_cif.got.tgz:13777.got - 2010.06.03 18:43:04.
