data_PCOD9115052
_publ_section_title
;
Structure prediction by ZEFSAII (Michael W. Deem and Ramdas Pophale) SiO2 
 PCOD9115052
Probable space group: P 21
;
_chemical_formula_sum "Si O2"
_cell_formula_units_Z 16
_cell_length_a 9.830165
_cell_length_b 13.492782
_cell_length_c 9.724644
_cell_angle_alpha 90.000000
_cell_angle_beta 137.821714
_cell_angle_gamma 90.000000
_cell_volume 866.050262
_symmetry_space_group_name_H-M "P 21"
_symmetry_group_IT_number 4
_symmetry_cell_setting 'monoclinic'
loop_
_space_group_symop_operation_xyz
x,y,z
-x,1/2+y,-z
loop_
_atom_site_type_symbol
_atom_site_label
_atom_site_fract_x
_atom_site_fract_y
_atom_site_fract_z
Si Si1 0.510245 0.630590 0.199246
Si Si2 0.210702 0.942563 0.551582
Si Si3 0.861424 0.138779 0.480064
Si Si4 0.507038 0.774790 0.714763
Si Si5 0.110781 0.404736 0.487174
Si Si6 0.927783 0.090359 0.212591
Si Si7 0.735313 0.766582 0.165258
Si Si8 0.265067 0.242089 0.397098
O O1 0.663954 0.539084 0.313724
O O2 0.568774 0.696086 0.111679
O O3 0.566215 0.696592 0.373384
O O4 0.283626 0.591242 0.023210
O O5 0.358247 0.867979 0.587835
O O6 0.114833 0.894474 0.617077
O O7 0.030399 0.984343 0.320625
O O8 0.649515 0.185639 0.368773
O O9 0.889623 0.136948 0.335807
O O10 0.052107 0.204590 0.677169
O O11 0.865506 0.021873 0.521235
O O12 0.636438 0.760471 0.675358
O O13 0.654347 0.792064 0.954788
O O14 0.241014 0.358960 0.711847
O O15 0.167651 0.337803 0.399635
O O16 0.089587 0.159695 0.258767
#
# Coordination Sequence:
#
# PCOD9115052 Si02
#       8
#     2   2   2   2   2   2   2   2
#     4  10  20  39  69  87 113 165 207 251 306 363
#     4  10  21  37  64  92 119 153 213 257 301 359
#     4  11  21  39  65  89 121 155 215 265 291 360
#     4  12  25  36  61  91 131 163 198 252 320 366
#     4  10  20  41  63  84 122 156 207 260 293 355
#     4  10  19  40  65  89 118 157 208 259 298 357
#     4  11  21  38  63  94 118 159 211 253 307 365
#     4  10  23  42  56  92 130 160 201 247 310 375
#
# _framework density 18.474678000000001
#
# number of rings (size 3 to 8) (size 9 to 14) (size 15 to 20)
#    0.000    1.500    7.500    0.000    3.500    3.000 
#    0.000    0.000    0.000    0.000    0.000    0.000 
#    0.000    0.000    0.000    0.000    0.000    0.000 
#
# Total GULP energy -89244.102444 kJ/mol
# GULP energy per Si atom -5577.756403 kJ/mol
# Density = 1.843263 g / cm^3
# Si number density = 18.474678 Si / 1000 Ang^3
#
#
#
# Elastic Constant Matrix: (Units=GPa)
#
#
# Indices 1 2 3 4 5 6 
#
# 1 98.5842 12.6977 14.4832 0.0000 -14.8582 0.0000
# 2 12.6977 64.4929 2.4572 0.0000 1.4763 0.0000
# 3 14.4832 2.4572 75.0490 0.0000 9.9923 0.0000
# 4 0.0000 0.0000 0.0000 12.9526 0.0000 8.3552
# 5 -14.8582 1.4763 9.9923 0.0000 27.9217 0.0000
# 6 0.0000 0.0000 0.0000 8.3552 0.0000 25.8267
#
#
#
# Elastic Compliance Matrix: (Units=1/GPa)
#
#
# Indices 1 2 3 4 5 6 
#
# 1 0.012108 -0.002436 -0.003289 0.000000 0.007749 0.000000
# 2 -0.002436 0.016027 0.000242 0.000000 -0.002230 0.000000
# 3 -0.003289 0.000242 0.014896 0.000000 -0.007094 0.000000
# 4 0.000000 0.000000 0.000000 0.097565 0.000000 -0.031563
# 5 0.007749 -0.002230 -0.007094 0.000000 0.042595 0.000000
# 6 0.000000 0.000000 0.000000 -0.031563 0.000000 0.048931
#
#
# Mechanical properties :
#
#
# Convention : Reuss Voigt Hill
#
# Bulk Modulus (GPa) = 31.18522 33.04468 32.11495
# Shear Modulus (GPa) = 19.70252 27.23941 23.47097
#
# Velocity S-wave (km/s) = 3.26921 3.84398 3.56819
# Velocity P-wave (km/s) = 5.58274 6.13408 5.86489
#
# Compressibility (1/GPa) = 0.03206647
#
# Stress axis : x y z
#
# Youngs Moduli (GPa) = 82.58701 62.39458 67.13290
#
# Poissons Ratio (x) = 0.15200 0.22078
# Poissons Ratio (y) = 0.20119 -0.01627
# Poissons Ratio (z) = 0.27160 -0.01512
#
# Static dielectric constant tensor:
#      x y z
#    x 1.614090 0.000000 0.020870 
#    y 0.000000 1.675600 0.000000 
#    z 0.020870 0.000000 1.641580 
# 
# From -- ./inp_files/6723.got.cif
#   From: 2010.05.17/outbox.cif.g08.bks.cpg/sg4_4_cif.got.tgz:6723.got - 2010.06.03 18:43:04.
