data_PCOD9115965
_publ_section_title
;
Structure prediction by ZEFSAII (Michael W. Deem and Ramdas Pophale) SiO2 
 PCOD9115965
Probable space group: P 21
;
_chemical_formula_sum "Si O2"
_cell_formula_units_Z 8
_cell_length_a 10.330303
_cell_length_b 4.915297
_cell_length_c 7.813595
_cell_angle_alpha 90.000000
_cell_angle_beta 55.111945
_cell_angle_gamma 90.000000
_cell_volume 325.440166
_symmetry_space_group_name_H-M "P 21"
_symmetry_group_IT_number 4
_symmetry_cell_setting 'monoclinic'
loop_
_space_group_symop_operation_xyz
x,y,z
-x,1/2+y,-z
loop_
_atom_site_type_symbol
_atom_site_label
_atom_site_fract_x
_atom_site_fract_y
_atom_site_fract_z
Si Si1 0.080970 0.061470 0.012396
Si Si2 0.609022 0.334697 0.717805
Si Si3 0.039524 0.880873 0.575813
Si Si4 0.409915 0.835369 0.855099
O O1 0.056915 0.229138 0.204948
O O2 0.033344 0.298164 0.914374
O O3 0.255937 0.940228 0.875547
O O4 0.777629 0.413654 0.515989
O O5 0.467397 0.533546 0.771261
O O6 0.557610 0.032451 0.709698
O O7 0.620443 0.355725 0.916677
O O8 0.033675 0.664436 0.425007
#
# Coordination Sequence:
#
# PCOD9115965 Si02
#       4
#     2   2   2   2
#     4  12  26  44  67 102 144 183 217 278 354 414
#     4  10  21  38  68 100 127 167 230 289 318 386
#     4  12  24  42  71 105 134 174 240 284 325 400
#     4  10  21  40  64  99 133 172 219 277 343 388
#
# _framework density 24.582090000000001
#
# number of rings (size 3 to 8) (size 9 to 14) (size 15 to 20)
#    0.000    1.000    2.500    4.500    7.000    0.000 
#    0.000    5.000    0.000    0.000    0.000    0.000 
#    0.000    0.000    0.000    0.000    0.000    0.000 
#
# Total GULP energy -44822.105556 kJ/mol
# GULP energy per Si atom -5602.763195 kJ/mol
# Density = 2.452614 g / cm^3
# Si number density = 24.582090 Si / 1000 Ang^3
#
#
#
# Elastic Constant Matrix: (Units=GPa)
#
#
# Indices 1 2 3 4 5 6 
#
# 1 72.7156 0.1390 13.0375 0.0000 -2.7446 0.0000
# 2 0.1390 86.6664 -7.0896 0.0000 8.2636 0.0000
# 3 13.0375 -7.0896 36.7579 0.0000 -11.3675 0.0000
# 4 0.0000 0.0000 0.0000 19.6108 0.0000 -36.2100
# 5 -2.7446 8.2636 -11.3675 0.0000 36.2347 0.0000
# 6 0.0000 0.0000 0.0000 -36.2100 0.0000 0.9435
#
#
#
# Elastic Compliance Matrix: (Units=1/GPa)
#
#
# Indices 1 2 3 4 5 6 
#
# 1 0.014712 -0.000422 -0.005454 0.000000 -0.000500 0.000000
# 2 -0.000422 0.011892 0.001766 0.000000 -0.002190 0.000000
# 3 -0.005454 0.001766 0.032368 0.000000 0.009339 0.000000
# 4 0.000000 0.000000 0.000000 -0.000730 0.000000 -0.028012
# 5 -0.000500 -0.002190 0.009339 0.000000 0.030989 0.000000
# 6 0.000000 0.000000 0.000000 -0.028012 0.000000 -0.015171
#
#
# Mechanical properties :
#
#
# Convention : Reuss Voigt Hill
#
# Bulk Modulus (GPa) = 19.70359 23.14600 21.42479
# Shear Modulus (GPa) = 50.40374 24.02800 37.21587
#
# Velocity S-wave (km/s) = 4.53307 3.12983 3.89516
# Velocity P-wave (km/s) = 5.95241 4.74313 5.38184
#
# Compressibility (1/GPa) = 0.05075218
#
# Stress axis : x y z
#
# Youngs Moduli (GPa) = 67.97145 84.08682 30.89452
#
# Poissons Ratio (x) = 0.03549 0.16851
# Poissons Ratio (y) = 0.02869 -0.05456
# Poissons Ratio (z) = 0.37074 -0.14851
#
# Static dielectric constant tensor:
#      x y z
#    x 1.968990 0.000000 0.087500 
#    y 0.000000 1.854670 0.000000 
#    z 0.087500 0.000000 1.950160 
# 
# From -- ./inp_files/5039.got.cif
#   From: 2010.05.17/outbox.cif.g08.bks.cpg/sg4_3_cif.got.tgz:5039.got - 2010.06.03 18:43:04.
