data_PCOD9115242
_publ_section_title
;
Structure prediction by ZEFSAII (Michael W. Deem and Ramdas Pophale) SiO2 
 PCOD9115242
Probable space group: P 21
;
_chemical_formula_sum "Si O2"
_cell_formula_units_Z 16
_cell_length_a 15.519217
_cell_length_b 4.939207
_cell_length_c 12.147244
_cell_angle_alpha 90.000000
_cell_angle_beta 47.492686
_cell_angle_gamma 90.000000
_cell_volume 686.411998
_symmetry_space_group_name_H-M "P 21"
_symmetry_group_IT_number 4
_symmetry_cell_setting 'monoclinic'
loop_
_space_group_symop_operation_xyz
x,y,z
-x,1/2+y,-z
loop_
_atom_site_type_symbol
_atom_site_label
_atom_site_fract_x
_atom_site_fract_y
_atom_site_fract_z
Si Si1 0.843663 0.994980 0.438805
Si Si2 0.254263 0.994767 0.354837
Si Si3 0.491961 0.429729 0.938651
Si Si4 0.299374 0.629107 0.945801
Si Si5 0.048767 0.109578 0.396583
Si Si6 0.064827 0.767808 0.078578
Si Si7 0.855844 0.373699 0.225687
Si Si8 0.259590 0.129438 0.856809
O O1 0.794030 0.703698 0.512481
O O2 0.983687 0.013402 0.342371
O O3 0.784660 0.194417 0.579263
O O4 0.824806 0.149129 0.341536
O O5 0.392249 0.007685 0.227962
O O6 0.185966 0.070273 0.300144
O O7 0.374940 0.521989 0.979402
O O8 0.502451 0.614104 0.038551
O O9 0.159110 0.639738 0.081690
O O10 0.330719 0.922636 0.872535
O O11 0.308140 0.421004 0.837035
O O12 0.988387 0.913576 0.540799
O O13 0.092278 0.706353 0.924135
O O14 0.124241 0.073127 0.017057
O O15 0.943299 0.608457 0.195673
O O16 0.748629 0.531407 0.260984
#
# Coordination Sequence:
#
# PCOD9115242 Si02
#       8
#     2   2   2   2   2   2   2   2
#     4  10  20  36  60  86 120 160 200 241 298 377
#     4  10  22  40  56  85 119 155 199 258 306 354
#     4  12  25  41  67  89 112 155 213 267 313 371
#     4   9  19  38  54  83 117 157 190 254 316 342
#     4   8  16  33  55  78 115 152 183 229 294 351
#     4   8  19  31  55  83 130 154 197 248 287 360
#     4   9  18  33  57  92 117 169 202 236 301 359
#     4   8  19  32  56  78 128 154 192 243 299 352
#
# _framework density 23.309616999999999
#
# number of rings (size 3 to 8) (size 9 to 14) (size 15 to 20)
#    1.500    1.000    0.000    2.250    0.000    4.000 
#    0.000    6.250    0.000    9.000    0.000    0.000 
#    0.000    0.000    0.000    0.000    0.000    0.000 
#
# Total GULP energy -89106.618526 kJ/mol
# GULP energy per Si atom -5569.163658 kJ/mol
# Density = 2.325656 g / cm^3
# Si number density = 23.309617 Si / 1000 Ang^3
#
#
#
# Elastic Constant Matrix: (Units=GPa)
#
#
# Indices 1 2 3 4 5 6 
#
# 1 86.4134 -1.8330 -0.8279 0.0000 -6.2292 0.0000
# 2 -1.8330 82.3491 2.2120 0.0000 -4.1398 0.0000
# 3 -0.8279 2.2120 50.9402 0.0000 -6.7728 0.0000
# 4 0.0000 0.0000 0.0000 12.8867 0.0000 3.2149
# 5 -6.2292 -4.1398 -6.7728 0.0000 6.7714 0.0000
# 6 0.0000 0.0000 0.0000 3.2149 0.0000 30.0412
#
#
#
# Elastic Compliance Matrix: (Units=1/GPa)
#
#
# Indices 1 2 3 4 5 6 
#
# 1 0.012640 0.000943 0.002061 0.000000 0.014267 0.000000
# 2 0.000943 0.012612 0.000702 0.000000 0.009280 0.000000
# 3 0.002061 0.000702 0.023002 0.000000 0.025332 0.000000
# 4 0.000000 0.000000 0.000000 0.079728 0.000000 -0.008532
# 5 0.014267 0.009280 0.025332 0.000000 0.191815 0.000000
# 6 0.000000 0.000000 0.000000 -0.008532 0.000000 0.034201
#
#
# Mechanical properties :
#
#
# Convention : Reuss Voigt Hill
#
# Bulk Modulus (GPa) = 17.96405 24.31165 21.13785
# Shear Modulus (GPa) = 13.69330 24.61663 19.15496
#
# Velocity S-wave (km/s) = 2.42637 3.25325 2.86975
# Velocity P-wave (km/s) = 3.94628 4.95621 4.47980
#
# Compressibility (1/GPa) = 0.05566675
#
# Stress axis : x y z
#
# Youngs Moduli (GPa) = 79.11089 79.28898 43.47449
#
# Poissons Ratio (x) = -0.07479 -0.08962
# Poissons Ratio (y) = -0.07462 -0.03050
# Poissons Ratio (z) = -0.16308 -0.05562
#
# Static dielectric constant tensor:
#      x y z
#    x 1.932130 0.000000 0.022900 
#    y 0.000000 1.918380 0.000000 
#    z 0.022900 0.000000 1.934820 
# 
# From -- ./inp_files/12487.got.cif
#   From: 2010.05.17/outbox.cif.g08.bks.cpg/sg4_7_cif.got.tgz:12487.got - 2010.06.03 18:43:04.
