data_PCOD9115953
_publ_section_title
;
Structure prediction by ZEFSAII (Michael W. Deem and Ramdas Pophale) SiO2 
 PCOD9115953
Probable space group: P 21
;
_chemical_formula_sum "Si O2"
_cell_formula_units_Z 16
_cell_length_a 9.324162
_cell_length_b 8.136243
_cell_length_c 20.063392
_cell_angle_alpha 90.000000
_cell_angle_beta 150.880030
_cell_angle_gamma 90.000000
_cell_volume 740.705879
_symmetry_space_group_name_H-M "P 21"
_symmetry_group_IT_number 4
_symmetry_cell_setting 'monoclinic'
loop_
_space_group_symop_operation_xyz
x,y,z
-x,1/2+y,-z
loop_
_atom_site_type_symbol
_atom_site_label
_atom_site_fract_x
_atom_site_fract_y
_atom_site_fract_z
Si Si1 0.136238 0.183900 0.225444
Si Si2 0.845350 0.185498 0.759156
Si Si3 0.079755 0.910959 0.758675
Si Si4 0.753063 0.899121 0.004172
Si Si5 0.401077 0.454736 0.547128
Si Si6 0.395111 0.297117 0.195671
Si Si7 0.330911 0.120108 0.651371
Si Si8 0.773231 0.979458 0.368517
O O1 0.241241 0.294523 0.205716
O O2 0.920900 0.250630 0.194670
O O3 0.425459 0.127676 0.384623
O O4 0.976229 0.038024 0.120032
O O5 0.659379 0.321349 0.643351
O O6 0.637924 0.155785 0.738953
O O7 0.912147 0.035950 0.739170
O O8 0.157345 0.249102 0.912259
O O9 0.415102 0.950182 0.876492
O O10 0.868988 0.910862 0.609186
O O11 0.802601 0.842055 0.948145
O O12 0.299592 0.459224 0.582698
O O13 0.622371 0.449635 0.290808
O O14 0.547715 0.117011 0.248596
O O15 0.239826 0.284935 0.656290
O O16 0.088196 0.070790 0.496980
#
# Coordination Sequence:
#
# PCOD9115953 Si02
#       8
#     2   2   2   2   2   2   2   2
#     4  10  23  43  65  94 133 173 221 276 337 402
#     4  10  23  41  61  90 130 173 209 276 328 390
#     4  12  21  41  69  94 125 175 223 271 340 395
#     4  11  26  43  63  92 137 173 228 272 328 403
#     4   9  21  40  64  96 127 165 218 273 329 397
#     4  11  23  43  67  95 133 180 218 274 335 394
#     4  11  20  39  65  95 135 168 218 265 340 388
#     4  10  21  38  66 100 138 167 211 279 333 389
#
# _framework density 21.601015
#
# number of rings (size 3 to 8) (size 9 to 14) (size 15 to 20)
#    0.000    1.500    2.500    3.000    3.500    0.000 
#    2.250    0.000    2.750    0.000    0.000    0.000 
#    0.000    0.000    0.000    0.000    0.000    0.000 
#
# Total GULP energy -89133.446749 kJ/mol
# GULP energy per Si atom -5570.840422 kJ/mol
# Density = 2.155185 g / cm^3
# Si number density = 21.601015 Si / 1000 Ang^3
#
#
#
# Elastic Constant Matrix: (Units=GPa)
#
#
# Indices 1 2 3 4 5 6 
#
# 1 43.3942 11.4159 27.8071 0.0000 4.0412 0.0000
# 2 11.4159 97.1548 27.3013 0.0000 -10.2875 0.0000
# 3 27.8071 27.3013 113.6760 0.0000 -1.4627 0.0000
# 4 0.0000 0.0000 0.0000 32.1685 0.0000 2.6455
# 5 4.0412 -10.2875 -1.4627 0.0000 32.1602 0.0000
# 6 0.0000 0.0000 0.0000 2.6455 0.0000 20.7916
#
#
#
# Elastic Compliance Matrix: (Units=1/GPa)
#
#
# Indices 1 2 3 4 5 6 
#
# 1 0.028117 -0.001959 -0.006465 0.000000 -0.004454 0.000000
# 2 -0.001959 0.011562 -0.002248 0.000000 0.003842 0.000000
# 3 -0.006465 -0.002248 0.010926 0.000000 0.000590 0.000000
# 4 0.000000 0.000000 0.000000 0.031415 0.000000 -0.003997
# 5 -0.004454 0.003842 0.000590 0.000000 0.032910 0.000000
# 6 0.000000 0.000000 0.000000 -0.003997 0.000000 0.048605
#
#
# Mechanical properties :
#
#
# Convention : Reuss Voigt Hill
#
# Bulk Modulus (GPa) = 34.17488 43.03040 38.60264
# Shear Modulus (GPa) = 25.68954 29.53745 27.61349
#
# Velocity S-wave (km/s) = 3.45233 3.70186 3.57927
# Velocity P-wave (km/s) = 5.63442 6.18349 5.91533
#
# Compressibility (1/GPa) = 0.02926126
#
# Stress axis : x y z
#
# Youngs Moduli (GPa) = 35.56532 86.49317 91.52599
#
# Poissons Ratio (x) = 0.16942 0.59170
# Poissons Ratio (y) = 0.06966 0.20576
# Poissons Ratio (z) = 0.22992 0.19445
#
# Static dielectric constant tensor:
#      x y z
#    x 1.943100 0.000000 -0.032180 
#    y 0.000000 1.960480 0.000000 
#    z -0.032180 0.000000 1.789110 
# 
# From -- ./inp_files/14974.got.cif
#   From: 2010.05.17/outbox.cif.g08.bks.cpg/sg4_8_cif.got.tgz:14974.got - 2010.06.03 18:43:04.
