data_PCOD9115014
_publ_section_title
;
Structure prediction by ZEFSAII (Michael W. Deem and Ramdas Pophale) SiO2 
 PCOD9115014
Probable space group: P 21
;
_chemical_formula_sum "Si O2"
_cell_formula_units_Z 16
_cell_length_a 10.681342
_cell_length_b 10.026748
_cell_length_c 7.087363
_cell_angle_alpha 90.000000
_cell_angle_beta 89.916249
_cell_angle_gamma 90.000000
_cell_volume 759.049562
_symmetry_space_group_name_H-M "P 21"
_symmetry_group_IT_number 4
_symmetry_cell_setting 'monoclinic'
loop_
_space_group_symop_operation_xyz
x,y,z
-x,1/2+y,-z
loop_
_atom_site_type_symbol
_atom_site_label
_atom_site_fract_x
_atom_site_fract_y
_atom_site_fract_z
Si Si1 0.431917 0.174870 0.422486
Si Si2 0.811985 0.971306 0.085117
Si Si3 0.920523 0.365206 0.833496
Si Si4 0.225783 0.968552 0.509809
Si Si5 0.175164 0.751516 0.782994
Si Si6 0.025777 0.180208 0.529843
Si Si7 0.609057 0.934365 0.370906
Si Si8 0.767473 0.856686 0.684943
O O1 0.334084 0.076614 0.526306
O O2 0.465574 0.300611 0.559699
O O3 0.343512 0.250196 0.270809
O O4 0.530975 0.069233 0.343726
O O5 0.771030 0.124138 0.109954
O O6 0.703351 0.896616 0.202646
O O7 0.952171 0.951356 0.163421
O O8 0.816738 0.920092 0.873039
O O9 0.808218 0.424338 0.704702
O O10 0.965634 0.233264 0.722168
O O11 0.882779 0.337574 0.047374
O O12 0.094142 0.040171 0.564141
O O13 0.255410 0.847992 0.650096
O O14 0.078081 0.691230 0.631323
O O15 0.131448 0.279462 0.442849
O O16 0.700963 0.962626 0.548519
#
# Coordination Sequence:
#
# PCOD9115014 Si02
#       8
#     2   2   2   2   2   2   2   2
#     4   9  22  48  70  89 128 173 217 282 327 386
#     4  12  22  40  65  98 132 169 218 262 337 387
#     4  11  22  36  61  97 131 172 205 265 320 397
#     4  10  22  41  58  94 130 173 213 268 328 388
#     4  11  25  33  60  98 132 174 213 268 311 414
#     4  10  19  39  60  86 133 171 214 246 327 381
#     4  10  23  45  70  93 122 178 216 281 330 382
#     4   9  21  40  64  91 126 170 208 272 318 393
#
# _framework density 21.078992
#
# number of rings (size 3 to 8) (size 9 to 14) (size 15 to 20)
#    0.750    1.000    3.750    0.000    3.500    2.000 
#    6.750    0.000    0.000    0.000    0.000    0.000 
#    0.000    0.000    0.000    0.000    0.000    0.000 
#
# Total GULP energy -89080.051159 kJ/mol
# GULP energy per Si atom -5567.503197 kJ/mol
# Density = 2.103101 g / cm^3
# Si number density = 21.078992 Si / 1000 Ang^3
#
#
#
# Elastic Constant Matrix: (Units=GPa)
#
#
# Indices 1 2 3 4 5 6 
#
# 1 35.5149 13.1885 12.2955 0.0000 -14.1913 0.0000
# 2 13.1885 75.2293 12.5899 0.0000 2.6594 0.0000
# 3 12.2955 12.5899 79.8718 0.0000 -1.1015 0.0000
# 4 0.0000 0.0000 0.0000 14.9728 0.0000 -5.3676
# 5 -14.1913 2.6594 -1.1015 0.0000 15.3656 0.0000
# 6 0.0000 0.0000 0.0000 -5.3676 0.0000 35.0506
#
#
#
# Elastic Compliance Matrix: (Units=1/GPa)
#
#
# Indices 1 2 3 4 5 6 
#
# 1 0.055003 -0.010467 -0.006098 0.000000 0.052174 0.000000
# 2 -0.010467 0.015743 -0.001042 0.000000 -0.012466 0.000000
# 3 -0.006098 -0.001042 0.013561 0.000000 -0.004479 0.000000
# 4 0.000000 0.000000 0.000000 0.070667 0.000000 0.010822
# 5 0.052174 -0.012466 -0.004479 0.000000 0.115104 0.000000
# 6 0.000000 0.000000 0.000000 0.010822 0.000000 0.030187
#
#
# Mechanical properties :
#
#
# Convention : Reuss Voigt Hill
#
# Bulk Modulus (GPa) = 20.36905 29.64042 25.00473
# Shear Modulus (GPa) = 14.21084 23.24728 18.72906
#
# Velocity S-wave (km/s) = 2.59930 3.32454 2.98404
# Velocity P-wave (km/s) = 4.32350 5.36926 4.87450
#
# Compressibility (1/GPa) = 0.04909409
#
# Stress axis : x y z
#
# Youngs Moduli (GPa) = 18.18070 63.52158 73.73938
#
# Poissons Ratio (x) = 0.66485 0.44966
# Poissons Ratio (y) = 0.19029 0.07685
# Poissons Ratio (z) = 0.11086 0.06620
#
# Static dielectric constant tensor:
#      x y z
#    x 1.832150 0.000000 -0.015660 
#    y 0.000000 1.834440 0.000000 
#    z -0.015660 0.000000 1.739870 
# 
# From -- ./inp_files/2962.got.cif
#   From: 2010.05.17/outbox.cif.g08.bks.cpg/sg4_2_cif.got.tgz:2962.got - 2010.06.03 18:43:04.
