data_PCOD9115710
_publ_section_title
;
Structure prediction by ZEFSAII (Michael W. Deem and Ramdas Pophale) SiO2 
 PCOD9115710
Probable space group: P 21
;
_chemical_formula_sum "Si O2"
_cell_formula_units_Z 14
_cell_length_a 8.112213
_cell_length_b 12.068960
_cell_length_c 6.734463
_cell_angle_alpha 90.000000
_cell_angle_beta 90.959963
_cell_angle_gamma 90.000000
_cell_volume 659.251619
_symmetry_space_group_name_H-M "P 21"
_symmetry_group_IT_number 4
_symmetry_cell_setting 'monoclinic'
loop_
_space_group_symop_operation_xyz
x,y,z
-x,1/2+y,-z
loop_
_atom_site_type_symbol
_atom_site_label
_atom_site_fract_x
_atom_site_fract_y
_atom_site_fract_z
Si Si1 0.920594 0.313910 0.304320
Si Si2 0.815834 0.674685 0.443760
Si Si3 0.646245 0.047482 0.506974
Si Si4 0.689947 0.135980 0.090712
Si Si5 0.516706 0.250397 0.749967
Si Si6 0.668808 0.449829 0.565232
Si Si7 0.065382 0.526305 0.216307
O O1 0.803472 0.229907 0.189056
O O2 0.810470 0.382033 0.458286
O O3 0.063694 0.248166 0.420988
O O4 0.991680 0.407850 0.160549
O O5 0.669159 0.743560 0.336049
O O6 0.737281 0.575571 0.578108
O O7 0.924536 0.613132 0.276285
O O8 0.633257 0.060365 0.271293
O O9 0.614880 0.168083 0.601768
O O10 0.823370 0.009136 0.583526
O O11 0.497259 0.967941 0.570286
O O12 0.544020 0.193165 0.963151
O O13 0.808179 0.070002 0.943669
O O14 0.604078 0.369886 0.738996
#
# Coordination Sequence:
#
# PCOD9115710 Si02
#       7
#     2   2   2   2   2   2   2
#     4  11  21  42  67  92 128 173 212 267 327 376
#     4  10  21  41  67  91 130 172 216 266 320 382
#     4  10  20  43  65  89 127 170 212 262 317 392
#     4  11  22  42  63  93 130 166 213 267 316 395
#     4  10  21  41  63  91 128 167 213 264 317 379
#     4  10  21  40  68  90 125 177 209 262 325 380
#     4  10  22  41  65  94 132 165 215 268 324 376
#
# _framework density 21.236201999999999
#
# number of rings (size 3 to 8) (size 9 to 14) (size 15 to 20)
#    0.000    1.714    2.857    1.714    0.000    1.143 
#   20.571    0.000    0.000    0.000    0.000    0.000 
#    0.000    0.000    0.000    0.000    0.000    0.000 
#
# Total GULP energy -78117.702794 kJ/mol
# GULP energy per Si atom -5579.835914 kJ/mol
# Density = 2.118787 g / cm^3
# Si number density = 21.236202 Si / 1000 Ang^3
#
#
#
# Elastic Constant Matrix: (Units=GPa)
#
#
# Indices 1 2 3 4 5 6 
#
# 1 92.8319 35.0947 11.0356 0.0000 10.2745 0.0000
# 2 35.0947 76.1269 13.7374 0.0000 4.8881 0.0000
# 3 11.0356 13.7374 60.2723 0.0000 2.4189 0.0000
# 4 0.0000 0.0000 0.0000 10.8294 0.0000 4.5710
# 5 10.2745 4.8881 2.4189 0.0000 18.0861 0.0000
# 6 0.0000 0.0000 0.0000 4.5710 0.0000 42.1653
#
#
#
# Elastic Compliance Matrix: (Units=1/GPa)
#
#
# Indices 1 2 3 4 5 6 
#
# 1 0.013745 -0.005771 -0.000956 0.000000 -0.006121 0.000000
# 2 -0.005771 0.016321 -0.002632 0.000000 -0.000781 0.000000
# 3 -0.000956 -0.002632 0.017409 0.000000 -0.001074 0.000000
# 4 0.000000 0.000000 0.000000 0.096769 0.000000 -0.010490
# 5 -0.006121 -0.000781 -0.001074 0.000000 0.059123 0.000000
# 6 0.000000 0.000000 0.000000 -0.010490 0.000000 0.024853
#
#
# Mechanical properties :
#
#
# Convention : Reuss Voigt Hill
#
# Bulk Modulus (GPa) = 34.77248 38.77405 36.77326
# Shear Modulus (GPa) = 19.49133 25.50705 22.49919
#
# Velocity S-wave (km/s) = 3.03287 3.46947 3.25849
# Velocity P-wave (km/s) = 5.35482 5.86069 5.61346
#
# Compressibility (1/GPa) = 0.02875838
#
# Stress axis : x y z
#
# Youngs Moduli (GPa) = 72.75428 61.26890 57.44035
#
# Poissons Ratio (x) = 0.35358 0.05489
# Poissons Ratio (y) = 0.41986 0.15119
# Poissons Ratio (z) = 0.06953 0.16126
#
# Static dielectric constant tensor:
#      x y z
#    x 1.766440 0.000000 -0.020400 
#    y 0.000000 1.817410 0.000000 
#    z -0.020400 0.000000 1.762490 
# 
# From -- ./inp_files/1195.got.cif
#   From: 2010.05.17/outbox.cif.g08.bks.cpg/sg4_1_cif.got.tgz:1195.got - 2010.06.03 18:43:04.
