data_PCOD9115239
_publ_section_title
;
Structure prediction by ZEFSAII (Michael W. Deem and Ramdas Pophale) SiO2 
 PCOD9115239
Probable space group: P 21
;
_chemical_formula_sum "Si O2"
_cell_formula_units_Z 16
_cell_length_a 9.707319
_cell_length_b 7.873928
_cell_length_c 12.133817
_cell_angle_alpha 90.000000
_cell_angle_beta 137.384411
_cell_angle_gamma 90.000000
_cell_volume 627.950981
_symmetry_space_group_name_H-M "P 21"
_symmetry_group_IT_number 4
_symmetry_cell_setting 'monoclinic'
loop_
_space_group_symop_operation_xyz
x,y,z
-x,1/2+y,-z
loop_
_atom_site_type_symbol
_atom_site_label
_atom_site_fract_x
_atom_site_fract_y
_atom_site_fract_z
Si Si1 0.527671 0.920170 0.834945
Si Si2 0.517141 0.365084 0.645628
Si Si3 0.117672 0.654618 0.033274
Si Si4 0.495502 0.030710 0.134940
Si Si5 0.101810 0.954979 0.668597
Si Si6 0.082648 0.547815 0.675250
Si Si7 0.335164 0.008175 0.493174
Si Si8 0.049615 0.949007 0.865481
O O1 0.551702 0.730566 0.894138
O O2 0.338165 0.009103 0.787405
O O3 0.735702 0.024859 0.945270
O O4 0.441349 0.911576 0.657924
O O5 0.728086 0.278460 0.810176
O O6 0.450883 0.481287 0.707810
O O7 0.367877 0.206846 0.539619
O O8 0.556184 0.461866 0.555744
O O9 0.990831 0.568102 0.054947
O O10 0.981830 0.764937 0.869610
O O11 0.688504 0.983656 0.174744
O O12 0.291386 0.930471 0.988325
O O13 0.099035 0.751714 0.684314
O O14 0.985300 0.019892 0.709350
O O15 0.990933 0.000282 0.490848
O O16 0.905854 0.476552 0.648287
#
# Coordination Sequence:
#
# PCOD9115239 Si02
#       8
#     2   2   2   2   2   2   2   2
#     4   9  20  38  59  87 122 157 204 260 309 370
#     4  10  21  36  59  90 124 166 208 259 315 367
#     4  10  23  41  60  89 125 162 211 263 308 373
#     4  10  21  40  61  87 122 160 204 257 311 371
#     4  10  23  41  64  91 123 163 204 254 312 370
#     4  10  22  40  62  92 124 158 207 260 307 367
#     4  10  20  36  59  91 125 163 208 258 314 370
#     4  11  24  42  64  91 125 167 208 255 314 374
#
# _framework density 25.479693999999999
#
# number of rings (size 3 to 8) (size 9 to 14) (size 15 to 20)
#    0.000    2.000    0.000    2.250    0.000   13.000 
#    0.000    3.750    0.000    0.000    0.000    0.000 
#    0.000    0.000    0.000    0.000    0.000    0.000 
#
# Total GULP energy -89574.250828 kJ/mol
# GULP energy per Si atom -5598.390677 kJ/mol
# Density = 2.542170 g / cm^3
# Si number density = 25.479694 Si / 1000 Ang^3
#
#
#
# Elastic Constant Matrix: (Units=GPa)
#
#
# Indices 1 2 3 4 5 6 
#
# 1 104.9416 0.4986 8.8008 0.0000 -10.3610 0.0000
# 2 0.4986 61.5523 -0.3687 0.0000 -6.3576 0.0000
# 3 8.8008 -0.3687 46.3514 0.0000 -3.4301 0.0000
# 4 0.0000 0.0000 0.0000 30.7165 0.0000 -0.9084
# 5 -10.3610 -6.3576 -3.4301 0.0000 46.5106 0.0000
# 6 0.0000 0.0000 0.0000 -0.9084 0.0000 25.4065
#
#
#
# Elastic Compliance Matrix: (Units=1/GPa)
#
#
# Indices 1 2 3 4 5 6 
#
# 1 0.009879 0.000126 -0.001720 0.000000 0.002091 0.000000
# 2 0.000126 0.016485 0.000278 0.000000 0.002302 0.000000
# 3 -0.001720 0.000278 0.021998 0.000000 0.001277 0.000000
# 4 0.000000 0.000000 0.000000 0.032590 0.000000 0.001165
# 5 0.002091 0.002302 0.001277 0.000000 0.022375 0.000000
# 6 0.000000 0.000000 0.000000 0.001165 0.000000 0.039402
#
#
# Mechanical properties :
#
#
# Convention : Reuss Voigt Hill
#
# Bulk Modulus (GPa) = 21.86845 25.63409 23.75127
# Shear Modulus (GPa) = 31.13233 34.12104 32.62668
#
# Velocity S-wave (km/s) = 3.49929 3.66340 3.58229
# Velocity P-wave (km/s) = 4.99280 5.28928 5.14317
#
# Compressibility (1/GPa) = 0.04572797
#
# Stress axis : x y z
#
# Youngs Moduli (GPa) = 101.22260 60.66222 45.45950
#
# Poissons Ratio (x) = -0.00762 0.07819
# Poissons Ratio (y) = -0.01272 -0.01262
# Poissons Ratio (z) = 0.17411 -0.01684
#
# Static dielectric constant tensor:
#      x y z
#    x 2.009170 0.000000 -0.019480 
#    y 0.000000 1.972840 0.000000 
#    z -0.019480 0.000000 2.095350 
# 
# From -- ./inp_files/7661.got.cif
#   From: 2010.05.17/outbox.cif.g08.bks.cpg/sg4_4_cif.got.tgz:7661.got - 2010.06.03 18:43:04.
