data_PCOD9115530
_publ_section_title
;
Structure prediction by ZEFSAII (Michael W. Deem and Ramdas Pophale) SiO2 
 PCOD9115530
Probable space group: P 21
;
_chemical_formula_sum "Si O2"
_cell_formula_units_Z 10
_cell_length_a 6.612561
_cell_length_b 8.337897
_cell_length_c 6.809071
_cell_angle_alpha 90.000000
_cell_angle_beta 84.751425
_cell_angle_gamma 90.000000
_cell_volume 373.843078
_symmetry_space_group_name_H-M "P 21"
_symmetry_group_IT_number 4
_symmetry_cell_setting 'monoclinic'
loop_
_space_group_symop_operation_xyz
x,y,z
-x,1/2+y,-z
loop_
_atom_site_type_symbol
_atom_site_label
_atom_site_fract_x
_atom_site_fract_y
_atom_site_fract_z
Si Si1 0.487819 0.379610 0.977828
Si Si2 0.656127 0.243357 0.606197
Si Si3 0.060279 0.252608 0.949314
Si Si4 0.709672 0.535720 0.325485
Si Si5 0.188246 0.560168 0.744343
O O1 0.574032 0.454635 0.165909
O O2 0.649653 0.275955 0.838421
O O3 0.283305 0.277426 0.029652
O O4 0.400552 0.512811 0.831341
O O5 0.722708 0.405022 0.492349
O O6 0.419876 0.190953 0.591196
O O7 0.777037 0.102697 0.484471
O O8 0.090281 0.103184 0.798322
O O9 0.046922 0.410778 0.815893
O O10 0.909697 0.210818 0.136372
#
# Coordination Sequence:
#
# PCOD9115530 Si02
#       5
#     2   2   2   2   2
#     4   9  23  36  63  94 120 166 215 252 309 371
#     4  11  21  38  66  89 125 168 209 266 299 381
#     4   9  21  38  64  94 123 174 197 266 319 368
#     4  11  21  40  64  93 127 161 222 252 317 371
#     4  10  20  40  61  94 127 165 209 250 330 355
#
# _framework density 26.749193000000002
#
# number of rings (size 3 to 8) (size 9 to 14) (size 15 to 20)
#    1.200    0.800    2.000    1.200    5.600    0.000 
#    0.000    2.000    8.800    0.000    0.000    0.000 
#    0.000    0.000    0.000    0.000    0.000    0.000 
#
# Total GULP energy -55922.795769 kJ/mol
# GULP energy per Si atom -5592.279577 kJ/mol
# Density = 2.668831 g / cm^3
# Si number density = 26.749193 Si / 1000 Ang^3
#
#
#
# Elastic Constant Matrix: (Units=GPa)
#
#
# Indices 1 2 3 4 5 6 
#
# 1 64.3153 14.3633 48.4444 0.0000 -0.7491 0.0000
# 2 14.3633 94.0826 34.9551 0.0000 -6.2094 0.0000
# 3 48.4444 34.9551 135.4534 0.0000 -15.9801 0.0000
# 4 0.0000 0.0000 0.0000 56.4912 0.0000 -21.2429
# 5 -0.7491 -6.2094 -15.9801 0.0000 53.9987 0.0000
# 6 0.0000 0.0000 0.0000 -21.2429 0.0000 39.0438
#
#
#
# Elastic Compliance Matrix: (Units=1/GPa)
#
#
# Indices 1 2 3 4 5 6 
#
# 1 0.021521 -0.000522 -0.007807 0.000000 -0.002072 0.000000
# 2 -0.000522 0.011780 -0.002792 0.000000 0.000521 0.000000
# 3 -0.007807 -0.002792 0.011237 0.000000 0.002896 0.000000
# 4 0.000000 0.000000 0.000000 0.022255 0.000000 0.012109
# 5 -0.002072 0.000521 0.002896 0.000000 0.019407 0.000000
# 6 0.000000 0.000000 0.000000 0.012109 0.000000 0.032200
#
#
# Mechanical properties :
#
#
# Convention : Reuss Voigt Hill
#
# Bulk Modulus (GPa) = 44.84840 54.37519 49.61180
# Shear Modulus (GPa) = 33.76685 42.97929 38.37307
#
# Velocity S-wave (km/s) = 3.55681 4.01278 3.79166
# Velocity P-wave (km/s) = 5.80263 6.46852 6.14460
#
# Compressibility (1/GPa) = 0.02229734
#
# Stress axis : x y z
#
# Youngs Moduli (GPa) = 46.46609 84.88734 88.99338
#
# Poissons Ratio (x) = 0.04430 0.69474
# Poissons Ratio (y) = 0.02425 0.24846
# Poissons Ratio (z) = 0.36275 0.23700
#
# Static dielectric constant tensor:
#      x y z
#    x 2.138630 0.000000 0.002160 
#    y 0.000000 2.188940 0.000000 
#    z 0.002160 0.000000 1.976920 
# 
# From -- ./inp_files/1003.got.cif
#   From: 2010.05.17/outbox.cif.g08.bks.cpg/sg4_1_cif.got.tgz:1003.got - 2010.06.03 18:43:04.
