data_PCOD9115054
_publ_section_title
;
Structure prediction by ZEFSAII (Michael W. Deem and Ramdas Pophale) SiO2 
 PCOD9115054
Probable space group: P 21
;
_chemical_formula_sum "Si O2"
_cell_formula_units_Z 16
_cell_length_a 15.525560
_cell_length_b 6.653716
_cell_length_c 15.955512
_cell_angle_alpha 90.000000
_cell_angle_beta 152.405371
_cell_angle_gamma 90.000000
_cell_volume 763.489343
_symmetry_space_group_name_H-M "P 21"
_symmetry_group_IT_number 4
_symmetry_cell_setting 'monoclinic'
loop_
_space_group_symop_operation_xyz
x,y,z
-x,1/2+y,-z
loop_
_atom_site_type_symbol
_atom_site_label
_atom_site_fract_x
_atom_site_fract_y
_atom_site_fract_z
Si Si1 0.488090 0.475680 0.384546
Si Si2 0.356561 0.273314 0.787847
Si Si3 0.412088 0.480232 0.123522
Si Si4 0.232732 0.296808 0.296205
Si Si5 0.686925 0.598200 0.067032
Si Si6 0.006644 0.576031 0.796493
Si Si7 0.903647 0.901015 0.577532
Si Si8 0.199455 0.675038 0.379374
O O1 0.471430 0.496435 0.270900
O O2 0.302750 0.392612 0.269767
O O3 0.588415 0.672770 0.511260
O O4 0.631242 0.292186 0.515254
O O5 0.313363 0.219965 0.845887
O O6 0.175463 0.348920 0.581338
O O7 0.438568 0.080707 0.809040
O O8 0.520085 0.437992 0.926114
O O9 0.360532 0.257740 0.046919
O O10 0.220164 0.604845 0.959184
O O11 0.063486 0.144965 0.171616
O O12 0.163016 0.489031 0.288057
O O13 0.888049 0.489829 0.236755
O O14 0.897259 0.704087 0.631723
O O15 0.957194 0.342676 0.746780
O O16 0.771913 0.070493 0.506102
#
# Coordination Sequence:
#
# PCOD9115054 Si02
#       8
#     2   2   2   2   2   2   2   2
#     4  11  22  40  67  94 134 179 234 283 347 415
#     4  12  26  46  70 102 138 181 236 287 353 417
#     4  12  24  45  68  98 138 186 227 294 351 412
#     4  10  21  40  62  96 131 179 231 286 335 412
#     4  12  26  46  70 101 142 178 234 294 348 426
#     4  10  22  41  65  93 137 173 229 282 340 421
#     4  11  24  44  71  98 133 185 226 283 352 413
#     4  10  19  40  65  92 127 175 223 273 338 406
#
# _framework density 20.956416999999998
#
# number of rings (size 3 to 8) (size 9 to 14) (size 15 to 20)
#    0.000    1.000    5.000    3.000    0.000    2.000 
#    4.500    0.000    0.000    0.000    0.000    0.000 
#    0.000    0.000    0.000    0.000    0.000    0.000 
#
# Total GULP energy -89207.352415 kJ/mol
# GULP energy per Si atom -5575.459526 kJ/mol
# Density = 2.090872 g / cm^3
# Si number density = 20.956417 Si / 1000 Ang^3
#
#
#
# Elastic Constant Matrix: (Units=GPa)
#
#
# Indices 1 2 3 4 5 6 
#
# 1 72.7923 18.5130 11.5154 0.0000 -3.9959 0.0000
# 2 18.5130 98.6404 22.7728 0.0000 3.6624 0.0000
# 3 11.5154 22.7728 41.8439 0.0000 13.2807 0.0000
# 4 0.0000 0.0000 0.0000 20.7616 0.0000 2.3144
# 5 -3.9959 3.6624 13.2807 0.0000 12.0959 0.0000
# 6 0.0000 0.0000 0.0000 2.3144 0.0000 42.1936
#
#
#
# Elastic Compliance Matrix: (Units=1/GPa)
#
#
# Indices 1 2 3 4 5 6 
#
# 1 0.016317 -0.001694 -0.008353 0.000000 0.015075 0.000000
# 2 -0.001694 0.011991 -0.007260 0.000000 0.003781 0.000000
# 3 -0.008353 -0.007260 0.046547 0.000000 -0.051667 0.000000
# 4 0.000000 0.000000 0.000000 0.048462 0.000000 -0.002658
# 5 0.015075 0.003781 -0.051667 0.000000 0.143237 0.000000
# 6 0.000000 0.000000 0.000000 -0.002658 0.000000 0.023846
#
#
# Mechanical properties :
#
#
# Convention : Reuss Voigt Hill
#
# Bulk Modulus (GPa) = 24.84989 35.43102 30.14045
# Shear Modulus (GPa) = 14.77417 25.70856 20.24136
#
# Velocity S-wave (km/s) = 2.65805 3.50632 3.11123
# Velocity P-wave (km/s) = 4.61562 5.77374 5.22685
#
# Compressibility (1/GPa) = 0.04024163
#
# Stress axis : x y z
#
# Youngs Moduli (GPa) = 61.28401 83.39291 21.48374
#
# Poissons Ratio (x) = 0.14124 0.17946
# Poissons Ratio (y) = 0.10380 0.15597
# Poissons Ratio (z) = 0.51193 0.60543
#
# Static dielectric constant tensor:
#      x y z
#    x 1.768960 0.000000 0.013800 
#    y 0.000000 1.798410 0.000000 
#    z 0.013800 0.000000 1.801660 
# 
# From -- ./inp_files/14108.got.cif
#   From: 2010.05.17/outbox.cif.g08.bks.cpg/sg4_8_cif.got.tgz:14108.got - 2010.06.03 18:43:04.
