data_PCOD9115259
_publ_section_title
;
Structure prediction by ZEFSAII (Michael W. Deem and Ramdas Pophale) SiO2 
 PCOD9115259
Probable space group: P 21
;
_chemical_formula_sum "Si O2"
_cell_formula_units_Z 12
_cell_length_a 22.464361
_cell_length_b 4.895754
_cell_length_c 9.343942
_cell_angle_alpha 90.000000
_cell_angle_beta 26.060888
_cell_angle_gamma 90.000000
_cell_volume 451.471917
_symmetry_space_group_name_H-M "P 21"
_symmetry_group_IT_number 4
_symmetry_cell_setting 'monoclinic'
loop_
_space_group_symop_operation_xyz
x,y,z
-x,1/2+y,-z
loop_
_atom_site_type_symbol
_atom_site_label
_atom_site_fract_x
_atom_site_fract_y
_atom_site_fract_z
Si Si1 0.825784 0.315430 0.908877
Si Si2 0.176662 0.408333 0.684106
Si Si3 0.855188 0.418108 0.423167
Si Si4 0.470041 0.601663 0.468057
Si Si5 0.887364 0.802264 0.606325
Si Si6 0.456277 0.552293 0.184985
O O1 0.839183 0.636896 0.850288
O O2 0.949658 0.262940 0.748760
O O3 0.860208 0.119789 0.695631
O O4 0.672343 0.240900 0.265481
O O5 0.196105 0.094410 0.600480
O O6 0.295490 0.491182 0.533251
O O7 0.188440 0.611183 0.520045
O O8 0.019498 0.422086 0.066514
O O9 0.820394 0.617425 0.629495
O O10 0.455328 0.340994 0.604251
O O11 0.522057 0.509800 0.199538
O O12 0.514171 0.351466 0.938491
#
# Coordination Sequence:
#
# PCOD9115259 Si02
#       6
#     2   2   2   2   2   2
#     4  10  22  38  59  89 122 160 205 256 319 380
#     4  10  22  38  59  89 122 160 205 256 319 380
#     4  10  20  36  61  90 121 157 201 259 319 380
#     4  12  27  46  68  95 132 177 223 271 323 384
#     4  10  20  36  61  90 121 157 201 259 319 380
#     4  12  27  46  68  95 132 177 223 271 323 384
#
# _framework density 26.579726999999998
#
# number of rings (size 3 to 8) (size 9 to 14) (size 15 to 20)
#    0.000    1.333    0.000    5.000    0.000    8.000 
#    0.000   10.000    0.000    0.000    0.000    0.000 
#    0.000    0.000    0.000    0.000    0.000    0.000 
#
# Total GULP energy -67083.414421 kJ/mol
# GULP energy per Si atom -5590.284535 kJ/mol
# Density = 2.651923 g / cm^3
# Si number density = 26.579727 Si / 1000 Ang^3
#
#
#
# Elastic Constant Matrix: (Units=GPa)
#
#
# Indices 1 2 3 4 5 6 
#
# 1 99.1388 15.0986 13.7099 0.0000 -12.5531 0.0000
# 2 15.0986 140.6168 -4.6211 0.0000 -1.0865 0.0000
# 3 13.7099 -4.6211 45.5817 0.0000 -27.6678 0.0000
# 4 0.0000 0.0000 0.0000 31.7280 0.0000 -10.8225
# 5 -12.5531 -1.0865 -27.6678 0.0000 45.2981 0.0000
# 6 0.0000 0.0000 0.0000 -10.8225 0.0000 19.7774
#
#
#
# Elastic Compliance Matrix: (Units=1/GPa)
#
#
# Indices 1 2 3 4 5 6 
#
# 1 0.010802 -0.001231 -0.002503 0.000000 0.001435 0.000000
# 2 -0.001231 0.007303 0.001605 0.000000 0.000814 0.000000
# 3 -0.002503 0.001605 0.035687 0.000000 0.021143 0.000000
# 4 0.000000 0.000000 0.000000 0.038751 0.000000 0.021205
# 5 0.001435 0.000814 0.021143 0.000000 0.035407 0.000000
# 6 0.000000 0.000000 0.000000 0.021205 0.000000 0.062166
#
#
# Mechanical properties :
#
#
# Convention : Reuss Voigt Hill
#
# Bulk Modulus (GPa) = 20.18773 37.07913 28.63343
# Shear Modulus (GPa) = 23.70948 36.77071 30.24010
#
# Velocity S-wave (km/s) = 2.98990 3.72346 3.37666
# Velocity P-wave (km/s) = 4.41939 5.69789 5.09887
#
# Compressibility (1/GPa) = 0.04953504
#
# Stress axis : x y z
#
# Youngs Moduli (GPa) = 92.57386 136.93491 28.02102
#
# Poissons Ratio (x) = 0.16857 0.07012
# Poissons Ratio (y) = 0.11396 -0.04497
# Poissons Ratio (z) = 0.23167 -0.21976
#
# Static dielectric constant tensor:
#      x y z
#    x 2.155510 0.000000 0.095090 
#    y 0.000000 1.934000 0.000000 
#    z 0.095090 0.000000 2.163880 
# 
# From -- ./inp_files/2354.got.cif
#   From: 2010.05.17/outbox.cif.g08.bks.cpg/sg4_2_cif.got.tgz:2354.got - 2010.06.03 18:43:04.
