data_PCOD9115542
_publ_section_title
;
Structure prediction by ZEFSAII (Michael W. Deem and Ramdas Pophale) SiO2 
 PCOD9115542
Probable space group: P 21
;
_chemical_formula_sum "Si O2"
_cell_formula_units_Z 16
_cell_length_a 9.224617
_cell_length_b 7.832205
_cell_length_c 16.178890
_cell_angle_alpha 90.000000
_cell_angle_beta 30.174746
_cell_angle_gamma 90.000000
_cell_volume 587.539753
_symmetry_space_group_name_H-M "P 21"
_symmetry_group_IT_number 4
_symmetry_cell_setting 'monoclinic'
loop_
_space_group_symop_operation_xyz
x,y,z
-x,1/2+y,-z
loop_
_atom_site_type_symbol
_atom_site_label
_atom_site_fract_x
_atom_site_fract_y
_atom_site_fract_z
Si Si1 0.567209 0.585210 0.415234
Si Si2 0.511146 0.568167 0.811065
Si Si3 0.586233 0.377233 0.265743
Si Si4 0.577658 0.858224 0.288804
Si Si5 0.408542 0.965051 0.048026
Si Si6 0.900823 0.123711 0.730267
Si Si7 0.870048 0.141662 0.554763
Si Si8 0.125566 0.664001 0.758290
O O1 0.430652 0.424843 0.432809
O O2 0.710175 0.696348 0.270397
O O3 0.306093 0.687795 0.585293
O O4 0.814087 0.571916 0.360885
O O5 0.421761 0.733128 0.801427
O O6 0.361666 0.413521 0.834460
O O7 0.469149 0.549173 0.928072
O O8 0.857029 0.565806 0.626398
O O9 0.418187 0.526121 0.299366
O O10 0.870033 0.318614 0.178673
O O11 0.242151 0.804366 0.442492
O O12 0.683400 0.016732 0.290582
O O13 0.250259 0.791615 0.154505
O O14 0.176672 0.085823 0.117289
O O15 0.679184 0.965955 0.852691
O O16 0.958236 0.168247 0.606217
#
# Coordination Sequence:
#
# PCOD9115542 Si02
#       8
#     2   2   2   2   2   2   2   2
#     4  11  23  42  72 101 143 184 239 291 352 417
#     4  11  23  42  72 101 143 184 239 291 352 417
#     4  10  24  38  65 108 129 176 240 286 348 412
#     4  10  20  40  63  96 131 182 228 294 340 404
#     4  12  28  49  71 104 147 192 234 293 359 422
#     4  12  28  49  71 104 147 192 234 293 359 422
#     4  11  23  42  72 101 143 184 239 291 352 417
#     4  11  23  42  72 101 143 184 239 291 352 417
#
# _framework density 27.232201
#
# number of rings (size 3 to 8) (size 9 to 14) (size 15 to 20)
#    0.000    1.000    2.500    4.500    7.000    0.000 
#    0.000    7.500    0.000    0.000    0.000    0.000 
#    0.000    0.000    0.000    0.000    0.000    0.000 
#
# Total GULP energy -89171.778387 kJ/mol
# GULP energy per Si atom -5573.236149 kJ/mol
# Density = 2.717022 g / cm^3
# Si number density = 27.232201 Si / 1000 Ang^3
#
#
#
# Elastic Constant Matrix: (Units=GPa)
#
#
# Indices 1 2 3 4 5 6 
#
# 1 222.9187 31.0984 40.1856 0.0000 -3.8374 0.0000
# 2 31.0984 44.0708 15.0457 0.0000 0.1777 0.0000
# 3 40.1856 15.0457 87.6188 0.0000 3.2214 0.0000
# 4 0.0000 0.0000 0.0000 21.5678 0.0000 -9.0732
# 5 -3.8374 0.1777 3.2214 0.0000 26.9223 0.0000
# 6 0.0000 0.0000 0.0000 -9.0732 0.0000 60.3973
#
#
#
# Elastic Compliance Matrix: (Units=1/GPa)
#
#
# Indices 1 2 3 4 5 6 
#
# 1 0.005280 -0.003070 -0.001931 0.000000 0.001004 0.000000
# 2 -0.003070 0.025892 -0.003029 0.000000 -0.000246 0.000000
# 3 -0.001931 -0.003029 0.012885 0.000000 -0.001797 0.000000
# 4 0.000000 0.000000 0.000000 0.049493 0.000000 0.007435
# 5 0.001004 -0.000246 -0.001797 0.000000 0.037504 0.000000
# 6 0.000000 0.000000 0.000000 0.007435 0.000000 0.017674
#
#
# Mechanical properties :
#
#
# Convention : Reuss Voigt Hill
#
# Bulk Modulus (GPa) = 35.71918 58.58531 47.15224
# Shear Modulus (GPa) = 28.71567 39.66272 34.18919
#
# Velocity S-wave (km/s) = 3.25079 3.82050 3.54710
# Velocity P-wave (km/s) = 5.21873 6.40481 5.84195
#
# Compressibility (1/GPa) = 0.02799617
#
# Stress axis : x y z
#
# Youngs Moduli (GPa) = 189.40543 38.62135 77.60979
#
# Poissons Ratio (x) = 0.11858 0.14988
# Poissons Ratio (y) = 0.58154 0.23508
# Poissons Ratio (z) = 0.36577 0.11698
#
# Static dielectric constant tensor:
#      x y z
#    x 2.061190 0.000000 -0.029620 
#    y 0.000000 2.396740 0.000000 
#    z -0.029620 0.000000 2.083640 
# 
# From -- ./inp_files/14934.got.cif
#   From: 2010.05.17/outbox.cif.g08.bks.cpg/sg4_8_cif.got.tgz:14934.got - 2010.06.03 18:43:04.
