data_PCOD9115727
_publ_section_title
;
Structure prediction by ZEFSAII (Michael W. Deem and Ramdas Pophale) SiO2 
 PCOD9115727
Probable space group: P 21
;
_chemical_formula_sum "Si O2"
_cell_formula_units_Z 16
_cell_length_a 5.667807
_cell_length_b 13.757848
_cell_length_c 9.439091
_cell_angle_alpha 90.000000
_cell_angle_beta 70.616812
_cell_angle_gamma 90.000000
_cell_volume 694.312227
_symmetry_space_group_name_H-M "P 21"
_symmetry_group_IT_number 4
_symmetry_cell_setting 'monoclinic'
loop_
_space_group_symop_operation_xyz
x,y,z
-x,1/2+y,-z
loop_
_atom_site_type_symbol
_atom_site_label
_atom_site_fract_x
_atom_site_fract_y
_atom_site_fract_z
Si Si1 0.544650 0.972010 0.112669
Si Si2 0.770032 0.159694 0.971839
Si Si3 0.231606 0.761909 0.749368
Si Si4 0.229041 0.926154 0.949197
Si Si5 0.310665 0.219375 0.535500
Si Si6 0.847256 0.907537 0.287952
Si Si7 0.345291 0.144740 0.831407
Si Si8 0.093178 0.097584 0.325780
O O1 0.590517 0.916467 0.250386
O O2 0.322027 0.047500 0.196426
O O3 0.477524 0.903323 0.994918
O O4 0.758795 0.045519 0.016320
O O5 0.583749 0.176786 0.877882
O O6 0.062914 0.189047 0.904065
O O7 0.662380 0.214203 0.128757
O O8 0.156311 0.865797 0.825273
O O9 0.450927 0.763614 0.592276
O O10 0.021061 0.688137 0.737223
O O11 0.297975 0.033567 0.883478
O O12 0.032082 0.907917 0.115318
O O13 0.145559 0.311863 0.618415
O O14 0.402153 0.163582 0.656663
O O15 0.175279 0.142788 0.458835
O O16 0.896989 0.007396 0.363922
#
# Coordination Sequence:
#
# PCOD9115727 Si02
#       8
#     2   2   2   2   2   2   2   2
#     4  10  20  43  73 100 137 189 248 305 368 427
#     4  11  21  46  75 103 139 198 250 309 363 442
#     4  12  25  43  72 106 147 193 247 308 377 455
#     4  10  24  42  72 107 141 194 250 315 358 454
#     4  12  29  43  71 110 146 197 242 314 379 462
#     4  11  23  45  72 102 142 194 252 311 374 449
#     4  11  26  47  75 109 148 195 254 312 375 441
#     4  11  24  47  70 101 152 196 237 306 388 448
#
# _framework density 23.044387
#
# number of rings (size 3 to 8) (size 9 to 14) (size 15 to 20)
#    0.000    1.000    3.750    2.250    3.500    6.000 
#    2.250    0.000    0.000    0.000    0.000    0.000 
#    0.000    0.000    0.000    0.000    0.000    0.000 
#
# Total GULP energy -89239.405321 kJ/mol
# GULP energy per Si atom -5577.462833 kJ/mol
# Density = 2.299194 g / cm^3
# Si number density = 23.044387 Si / 1000 Ang^3
#
#
#
# Elastic Constant Matrix: (Units=GPa)
#
#
# Indices 1 2 3 4 5 6 
#
# 1 71.2707 -3.4665 28.2765 0.0000 23.1650 0.0000
# 2 -3.4665 48.1329 23.9271 0.0000 13.8248 0.0000
# 3 28.2765 23.9271 134.6588 0.0000 20.3805 0.0000
# 4 0.0000 0.0000 0.0000 43.2903 0.0000 14.7993
# 5 23.1650 13.8248 20.3805 0.0000 43.0892 0.0000
# 6 0.0000 0.0000 0.0000 14.7993 0.0000 21.8736
#
#
#
# Elastic Compliance Matrix: (Units=1/GPa)
#
#
# Indices 1 2 3 4 5 6 
#
# 1 0.019184 0.006185 -0.003518 0.000000 -0.010634 0.000000
# 2 0.006185 0.026219 -0.004503 0.000000 -0.009607 0.000000
# 3 -0.003518 -0.004503 0.009112 0.000000 -0.000974 0.000000
# 4 0.000000 0.000000 0.000000 0.030050 0.000000 -0.020332
# 5 -0.010634 -0.009607 -0.000974 0.000000 0.032467 0.000000
# 6 0.000000 0.000000 0.000000 -0.020332 0.000000 0.059473
#
#
# Mechanical properties :
#
#
# Convention : Reuss Voigt Hill
#
# Bulk Modulus (GPa) = 19.66876 39.05961 29.36418
# Shear Modulus (GPa) = 25.36429 35.33897 30.35163
#
# Velocity S-wave (km/s) = 3.32124 3.92026 3.63312
# Velocity P-wave (km/s) = 4.82298 6.12191 5.51085
#
# Compressibility (1/GPa) = 0.05084204
#
# Stress axis : x y z
#
# Youngs Moduli (GPa) = 52.12738 38.13988 109.73949
#
# Poissons Ratio (x) = -0.23588 0.38605
# Poissons Ratio (y) = -0.32239 0.49421
# Poissons Ratio (z) = 0.18338 0.17176
#
# Static dielectric constant tensor:
#      x y z
#    x 2.064290 0.000000 -0.029650 
#    y 0.000000 1.970900 0.000000 
#    z -0.029650 0.000000 1.844750 
# 
# From -- ./inp_files/1531.got.cif
#   From: 2010.05.17/outbox.cif.g08.bks.cpg/sg4_1_cif.got.tgz:1531.got - 2010.06.03 18:43:04.
