data_PCOD9115566
_publ_section_title
;
Structure prediction by ZEFSAII (Michael W. Deem and Ramdas Pophale) SiO2 
 PCOD9115566
Probable space group: P 21
;
_chemical_formula_sum "Si O2"
_cell_formula_units_Z 16
_cell_length_a 6.968471
_cell_length_b 5.169110
_cell_length_c 19.552545
_cell_angle_alpha 90.000000
_cell_angle_beta 76.910257
_cell_angle_gamma 90.000000
_cell_volume 685.998066
_symmetry_space_group_name_H-M "P 21"
_symmetry_group_IT_number 4
_symmetry_cell_setting 'monoclinic'
loop_
_space_group_symop_operation_xyz
x,y,z
-x,1/2+y,-z
loop_
_atom_site_type_symbol
_atom_site_label
_atom_site_fract_x
_atom_site_fract_y
_atom_site_fract_z
Si Si1 0.317347 0.006120 0.501965
Si Si2 0.208827 0.005717 0.730321
Si Si3 0.630862 0.582638 0.842243
Si Si4 0.074576 0.283394 0.424409
Si Si5 0.975952 0.502538 0.707071
Si Si6 0.426050 0.640821 0.389830
Si Si7 0.641866 0.582959 0.135963
Si Si8 0.632020 0.483215 0.989587
O O1 0.165742 0.227262 0.491679
O O2 0.476975 0.028733 0.547688
O O3 0.408771 0.930571 0.421020
O O4 0.156742 0.812319 0.545292
O O5 0.064641 0.218767 0.709446
O O6 0.422689 0.077764 0.682200
O O7 0.217656 0.040267 0.811063
O O8 0.136993 0.720144 0.716068
O O9 0.460868 0.363477 0.851651
O O10 0.788471 0.539787 0.770840
O O11 0.528770 0.862872 0.846044
O O12 0.730473 0.542834 0.908965
O O13 0.215157 0.519062 0.390261
O O14 0.086141 0.071663 0.364330
O O15 0.736170 0.541098 0.053191
O O16 0.550547 0.189980 0.995465
#
# Coordination Sequence:
#
# PCOD9115566 Si02
#       8
#     2   2   2   2   2   2   2   2
#     4  12  26  44  68  96 124 166 224 272 332 396
#     4  12  28  44  64  94 136 173 218 269 327 391
#     4  10  20  40  67  95 128 170 221 266 325 387
#     4  12  27  44  68  94 129 171 218 275 336 390
#     4  12  28  44  64  94 136 173 218 269 327 391
#     4  12  27  44  68  94 129 171 218 275 336 390
#     4  10  20  40  67  95 128 170 221 266 325 387
#     4   8  16  32  62  96 124 162 214 270 314 384
#
# _framework density 23.323678999999998
#
# number of rings (size 3 to 8) (size 9 to 14) (size 15 to 20)
#    0.000    1.000    3.750    2.250    8.750    0.000 
#    0.000    1.250    0.000    0.000    0.000    0.000 
#    0.000    0.000    0.000    0.000    0.000    0.000 
#
# Total GULP energy -89371.201438 kJ/mol
# GULP energy per Si atom -5585.700090 kJ/mol
# Density = 2.327059 g / cm^3
# Si number density = 23.323679 Si / 1000 Ang^3
#
#
#
# Elastic Constant Matrix: (Units=GPa)
#
#
# Indices 1 2 3 4 5 6 
#
# 1 66.5452 7.1690 24.5966 0.0000 20.9803 0.0000
# 2 7.1690 61.0310 5.0376 0.0000 4.5446 0.0000
# 3 24.5966 5.0376 90.3628 0.0000 25.3595 0.0000
# 4 0.0000 0.0000 0.0000 28.2313 0.0000 6.1393
# 5 20.9803 4.5446 25.3595 0.0000 41.5237 0.0000
# 6 0.0000 0.0000 0.0000 6.1393 0.0000 33.0268
#
#
#
# Elastic Compliance Matrix: (Units=1/GPa)
#
#
# Indices 1 2 3 4 5 6 
#
# 1 0.018604 -0.001390 -0.002886 0.000000 -0.007485 0.000000
# 2 -0.001390 0.016642 -0.000284 0.000000 -0.000946 0.000000
# 3 -0.002886 -0.000284 0.013818 0.000000 -0.006950 0.000000
# 4 0.000000 0.000000 0.000000 0.036914 0.000000 -0.006862
# 5 -0.007485 -0.000946 -0.006950 0.000000 0.032213 0.000000
# 6 0.000000 0.000000 0.000000 -0.006862 0.000000 0.031554
#
#
# Mechanical properties :
#
#
# Convention : Reuss Voigt Hill
#
# Bulk Modulus (GPa) = 25.03436 32.39394 28.71415
# Shear Modulus (GPa) = 29.03957 32.63208 30.83582
#
# Velocity S-wave (km/s) = 3.53238 3.74451 3.63999
# Velocity P-wave (km/s) = 5.23390 5.71088 5.47758
#
# Compressibility (1/GPa) = 0.03994510
#
# Stress axis : x y z
#
# Youngs Moduli (GPa) = 53.75282 60.08808 72.36783
#
# Poissons Ratio (x) = 0.08350 0.20884
# Poissons Ratio (y) = 0.07470 0.02056
# Poissons Ratio (z) = 0.15512 0.01707
#
# Static dielectric constant tensor:
#      x y z
#    x 1.853560 0.000000 0.019750 
#    y 0.000000 2.014710 0.000000 
#    z 0.019750 0.000000 1.889970 
# 
# From -- ./inp_files/4209.got.cif
#   From: 2010.05.17/outbox.cif.g08.bks.cpg/sg4_3_cif.got.tgz:4209.got - 2010.06.03 18:43:04.
