data_PCOD9115603
_publ_section_title
;
Structure prediction by ZEFSAII (Michael W. Deem and Ramdas Pophale) SiO2 
 PCOD9115603
Probable space group: P 21
;
_chemical_formula_sum "Si O2"
_cell_formula_units_Z 16
_cell_length_a 5.435696
_cell_length_b 11.494261
_cell_length_c 10.213464
_cell_angle_alpha 90.000000
_cell_angle_beta 84.164559
_cell_angle_gamma 90.000000
_cell_volume 634.823384
_symmetry_space_group_name_H-M "P 21"
_symmetry_group_IT_number 4
_symmetry_cell_setting 'monoclinic'
loop_
_space_group_symop_operation_xyz
x,y,z
-x,1/2+y,-z
loop_
_atom_site_type_symbol
_atom_site_label
_atom_site_fract_x
_atom_site_fract_y
_atom_site_fract_z
Si Si1 0.076321 0.270210 0.352502
Si Si2 0.966469 0.016059 0.747663
Si Si3 0.282094 0.357046 0.930571
Si Si4 0.577359 0.190049 0.761407
Si Si5 0.340086 0.099328 0.517017
Si Si6 0.231657 0.938858 0.975283
Si Si7 0.199278 0.891041 0.397067
Si Si8 0.055201 0.550961 0.786967
O O1 0.148065 0.391480 0.282414
O O2 0.293517 0.195839 0.409166
O O3 0.906786 0.313105 0.481673
O O4 0.934972 0.183357 0.260968
O O5 0.757503 0.098702 0.819899
O O6 0.085652 0.073685 0.611977
O O7 0.191435 0.994157 0.835393
O O8 0.340170 0.240768 0.847105
O O9 0.271004 0.476062 0.843604
O O10 0.005244 0.352784 0.000292
O O11 0.509700 0.376937 0.015685
O O12 0.518067 0.140872 0.621230
O O13 0.723339 0.309165 0.725321
O O14 0.405053 0.976268 0.447574
O O15 0.166083 0.031488 0.094439
O O16 0.008574 0.979941 0.341497
#
# Coordination Sequence:
#
# PCOD9115603 Si02
#       8
#     2   2   2   2   2   2   2   2
#     4  10  21  45  64 100 143 181 233 303 358 436
#     4  11  26  43  68 101 145 182 246 295 369 428
#     4  10  23  44  73  98 137 186 242 290 361 420
#     4  12  23  40  70 102 139 193 234 301 361 441
#     4  10  24  39  68  99 137 184 233 296 358 438
#     4  10  24  47  69 105 136 183 244 297 353 434
#     4  10  20  41  63 101 136 176 240 282 363 425
#     4   9  21  43  69  96 135 185 236 294 361 424
#
# _framework density 25.203863999999999
#
# number of rings (size 3 to 8) (size 9 to 14) (size 15 to 20)
#    0.750    1.000    2.500    0.750    5.250    2.000 
#    0.000    0.000    0.000    0.000    0.000    0.000 
#    0.000    0.000    0.000    0.000    0.000    0.000 
#
# Total GULP energy -89432.860573 kJ/mol
# GULP energy per Si atom -5589.553786 kJ/mol
# Density = 2.514650 g / cm^3
# Si number density = 25.203864 Si / 1000 Ang^3
#
#
#
# Elastic Constant Matrix: (Units=GPa)
#
#
# Indices 1 2 3 4 5 6 
#
# 1 84.1610 25.7727 18.4568 0.0000 14.3832 0.0000
# 2 25.7727 128.7554 18.8418 0.0000 3.7254 0.0000
# 3 18.4568 18.8418 91.9976 0.0000 10.4390 0.0000
# 4 0.0000 0.0000 0.0000 27.0521 0.0000 4.8830
# 5 14.3832 3.7254 10.4390 0.0000 43.8108 0.0000
# 6 0.0000 0.0000 0.0000 4.8830 0.0000 25.1616
#
#
#
# Elastic Compliance Matrix: (Units=1/GPa)
#
#
# Indices 1 2 3 4 5 6 
#
# 1 0.013661 -0.002357 -0.001821 0.000000 -0.003851 0.000000
# 2 -0.002357 0.008417 -0.001293 0.000000 0.000366 0.000000
# 3 -0.001821 -0.001293 0.011737 0.000000 -0.002089 0.000000
# 4 0.000000 0.000000 0.000000 0.038308 0.000000 -0.007434
# 5 -0.003851 0.000366 -0.002089 0.000000 0.024556 0.000000
# 6 0.000000 0.000000 0.000000 -0.007434 0.000000 0.041186
#
#
# Mechanical properties :
#
#
# Convention : Reuss Voigt Hill
#
# Bulk Modulus (GPa) = 43.71706 47.89517 45.80612
# Shear Modulus (GPa) = 31.96317 35.32775 33.64546
#
# Velocity S-wave (km/s) = 3.56502 3.74796 3.65764
# Velocity P-wave (km/s) = 5.85909 6.14606 6.00429
#
# Compressibility (1/GPa) = 0.02287436
#
# Stress axis : x y z
#
# Youngs Moduli (GPa) = 73.20049 118.80795 85.20087
#
# Poissons Ratio (x) = 0.27998 0.15516
# Poissons Ratio (y) = 0.17250 0.11013
# Poissons Ratio (z) = 0.13331 0.15357
#
# Static dielectric constant tensor:
#      x y z
#    x 2.023330 0.000000 -0.023600 
#    y 0.000000 2.010210 0.000000 
#    z -0.023600 0.000000 2.003560 
# 
# From -- ./inp_files/3085.got.cif
#   From: 2010.05.17/outbox.cif.g08.bks.cpg/sg4_2_cif.got.tgz:3085.got - 2010.06.03 18:43:04.
