data_PCOD9115199
_publ_section_title
;
Structure prediction by ZEFSAII (Michael W. Deem and Ramdas Pophale) SiO2 
 PCOD9115199
Probable space group: P 21
;
_chemical_formula_sum "Si O2"
_cell_formula_units_Z 12
_cell_length_a 5.302157
_cell_length_b 8.535730
_cell_length_c 9.942038
_cell_angle_alpha 90.000000
_cell_angle_beta 92.448525
_cell_angle_gamma 90.000000
_cell_volume 449.543769
_symmetry_space_group_name_H-M "P 21"
_symmetry_group_IT_number 4
_symmetry_cell_setting 'monoclinic'
loop_
_space_group_symop_operation_xyz
x,y,z
-x,1/2+y,-z
loop_
_atom_site_type_symbol
_atom_site_label
_atom_site_fract_x
_atom_site_fract_y
_atom_site_fract_z
Si Si1 0.689836 0.481450 0.994003
Si Si2 0.550044 0.355866 0.527736
Si Si3 0.199008 0.326542 0.886263
Si Si4 0.170924 0.146303 0.398536
Si Si5 0.145686 0.846231 0.747328
Si Si6 0.911632 0.144196 0.664467
O O1 0.725875 0.663465 0.035493
O O2 0.658683 0.381474 0.132056
O O3 0.441443 0.439913 0.901782
O O4 0.948572 0.407233 0.941814
O O5 0.287968 0.305500 0.460167
O O6 0.608526 0.519574 0.600383
O O7 0.716698 0.354526 0.393830
O O8 0.643463 0.224657 0.636157
O O9 0.100432 0.270281 0.736852
O O10 0.989196 0.099653 0.515349
O O11 0.015279 0.187111 0.262658
O O12 0.947262 0.990547 0.753718
#
# Coordination Sequence:
#
# PCOD9115199 Si02
#       6
#     2   2   2   2   2   2
#     4  11  25  45  68  96 131 174 221 271 325 386
#     4  10  20  35  59  89 119 155 199 253 313 376
#     4  11  25  45  68  96 131 174 221 271 325 386
#     4  10  20  35  59  89 119 155 199 253 313 376
#     4   9  21  40  59  83 120 161 203 254 316 376
#     4   9  21  40  59  83 120 161 203 254 316 376
#
# _framework density 26.693731
#
# number of rings (size 3 to 8) (size 9 to 14) (size 15 to 20)
#    0.000    2.000    0.000    2.000    4.667    4.000 
#    0.000    0.000    0.000    0.000    0.000    0.000 
#    0.000    0.000    0.000    0.000    0.000    0.000 
#
# Total GULP energy -67075.947477 kJ/mol
# GULP energy per Si atom -5589.662290 kJ/mol
# Density = 2.663297 g / cm^3
# Si number density = 26.693731 Si / 1000 Ang^3
#
#
#
# Elastic Constant Matrix: (Units=GPa)
#
#
# Indices 1 2 3 4 5 6 
#
# 1 105.8455 28.6350 15.0983 0.0000 17.1036 0.0000
# 2 28.6350 81.0096 5.4267 0.0000 1.5476 0.0000
# 3 15.0983 5.4267 93.6909 0.0000 8.8942 0.0000
# 4 0.0000 0.0000 0.0000 43.2522 0.0000 18.0251
# 5 17.1036 1.5476 8.8942 0.0000 36.1265 0.0000
# 6 0.0000 0.0000 0.0000 18.0251 0.0000 42.2826
#
#
#
# Elastic Compliance Matrix: (Units=1/GPa)
#
#
# Indices 1 2 3 4 5 6 
#
# 1 0.011466 -0.003881 -0.001150 0.000000 -0.004979 0.000000
# 2 -0.003881 0.013710 -0.000294 0.000000 0.001322 0.000000
# 3 -0.001150 -0.000294 0.011082 0.000000 -0.002171 0.000000
# 4 0.000000 0.000000 0.000000 0.028115 0.000000 -0.011985
# 5 -0.004979 0.001322 -0.002171 0.000000 0.030516 0.000000
# 6 0.000000 0.000000 0.000000 -0.011985 0.000000 0.028760
#
#
# Mechanical properties :
#
#
# Convention : Reuss Voigt Hill
#
# Bulk Modulus (GPa) = 39.05075 42.09623 40.57349
# Shear Modulus (GPa) = 35.00513 39.75800 37.38156
#
# Velocity S-wave (km/s) = 3.62520 3.86348 3.74623
# Velocity P-wave (km/s) = 5.67307 5.97547 5.82623
#
# Compressibility (1/GPa) = 0.02560770
#
# Stress axis : x y z
#
# Youngs Moduli (GPa) = 87.21189 72.93697 90.23705
#
# Poissons Ratio (x) = 0.28306 0.10380
# Poissons Ratio (y) = 0.33846 0.02655
# Poissons Ratio (z) = 0.10032 0.02146
#
# Static dielectric constant tensor:
#      x y z
#    x 2.076000 0.000000 -0.038650 
#    y 0.000000 2.137950 0.000000 
#    z -0.038650 0.000000 2.069640 
# 
# From -- ./inp_files/10274.got.cif
#   From: 2010.05.17/outbox.cif.g08.bks.cpg/sg4_6_cif.got.tgz:10274.got - 2010.06.03 18:43:04.
