data_PCOD9115122
_publ_section_title
;
Structure prediction by ZEFSAII (Michael W. Deem and Ramdas Pophale) SiO2 
 PCOD9115122
Probable space group: P 21
;
_chemical_formula_sum "Si O2"
_cell_formula_units_Z 16
_cell_length_a 5.559416
_cell_length_b 18.099142
_cell_length_c 7.338938
_cell_angle_alpha 90.000000
_cell_angle_beta 64.763436
_cell_angle_gamma 90.000000
_cell_volume 667.967651
_symmetry_space_group_name_H-M "P 21"
_symmetry_group_IT_number 4
_symmetry_cell_setting 'monoclinic'
loop_
_space_group_symop_operation_xyz
x,y,z
-x,1/2+y,-z
loop_
_atom_site_type_symbol
_atom_site_label
_atom_site_fract_x
_atom_site_fract_y
_atom_site_fract_z
Si Si1 0.998228 0.764570 0.515871
Si Si2 0.881561 0.758766 0.144052
Si Si3 0.435028 0.661321 0.244229
Si Si4 0.836703 0.042716 0.477340
Si Si5 0.411255 0.389599 0.950587
Si Si6 0.400364 0.019986 0.357672
Si Si7 0.427703 0.755710 0.876766
Si Si8 0.963982 0.422169 0.353654
O O1 0.989085 0.782164 0.304011
O O2 0.095389 0.837861 0.584975
O O3 0.224963 0.702796 0.445318
O O4 0.696792 0.745805 0.675074
O O5 0.727343 0.681696 0.219053
O O6 0.679285 0.822511 0.150635
O O7 0.118391 0.749025 0.921448
O O8 0.330415 0.579423 0.304084
O O9 0.435912 0.696467 0.041955
O O10 0.672798 0.054035 0.344259
O O11 0.877158 0.957346 0.524493
O O12 0.147419 0.068486 0.376802
O O13 0.558870 0.455399 0.802845
O O14 0.553060 0.341656 0.062285
O O15 0.146172 0.424336 0.119920
O O16 0.287134 0.975666 0.570928
#
# Coordination Sequence:
#
# PCOD9115122 Si02
#       8
#     2   2   2   2   2   2   2   2
#     4  10  20  39  63  92 121 161 210 261 315 372
#     4  10  20  32  64  88 121 158 204 263 312 375
#     4  10  22  40  58  85 124 166 208 257 314 373
#     4  10  24  42  64  85 133 165 209 257 314 370
#     4  10  20  37  61  93 120 159 204 260 315 373
#     4  10  22  41  61  91 121 166 202 257 305 376
#     4   9  21  37  61  89 123 156 210 260 313 372
#     4   9  21  38  62  91 125 159 207 259 314 369
#
# _framework density 23.953258999999999
#
# number of rings (size 3 to 8) (size 9 to 14) (size 15 to 20)
#    0.750    1.500    0.000    3.000    5.250    6.000 
#    2.250    0.000    0.000    0.000    0.000    0.000 
#    0.000    0.000    0.000    0.000    0.000    0.000 
#
# Total GULP energy -89156.494508 kJ/mol
# GULP energy per Si atom -5572.280907 kJ/mol
# Density = 2.389874 g / cm^3
# Si number density = 23.953259 Si / 1000 Ang^3
#
#
#
# Elastic Constant Matrix: (Units=GPa)
#
#
# Indices 1 2 3 4 5 6 
#
# 1 82.1682 4.2603 8.0881 0.0000 -13.5859 0.0000
# 2 4.2603 42.0576 8.8267 0.0000 -7.5934 0.0000
# 3 8.0881 8.8267 84.5867 0.0000 -36.4903 0.0000
# 4 0.0000 0.0000 0.0000 18.3989 0.0000 -8.1444
# 5 -13.5859 -7.5934 -36.4903 0.0000 27.8641 0.0000
# 6 0.0000 0.0000 0.0000 -8.1444 0.0000 17.9728
#
#
#
# Elastic Compliance Matrix: (Units=1/GPa)
#
#
# Indices 1 2 3 4 5 6 
#
# 1 0.013702 -0.000090 0.003610 0.000000 0.011384 0.000000
# 2 -0.000090 0.025029 0.000736 0.000000 0.007741 0.000000
# 3 0.003610 0.000736 0.028149 0.000000 0.038824 0.000000
# 4 0.000000 0.000000 0.000000 0.067989 0.000000 0.030809
# 5 0.011384 0.007741 0.038824 0.000000 0.094391 0.000000
# 6 0.000000 0.000000 0.000000 0.030809 0.000000 0.069601
#
#
# Mechanical properties :
#
#
# Convention : Reuss Voigt Hill
#
# Bulk Modulus (GPa) = 13.26399 27.90697 20.58548
# Shear Modulus (GPa) = 15.84892 25.35632 20.60262
#
# Velocity S-wave (km/s) = 2.57507 3.25710 2.93596
# Velocity P-wave (km/s) = 3.79352 5.08142 4.48395
#
# Compressibility (1/GPa) = 0.07539208
#
# Stress axis : x y z
#
# Youngs Moduli (GPa) = 72.98344 39.95333 35.52582
#
# Poissons Ratio (x) = 0.00361 -0.12826
# Poissons Ratio (y) = 0.00659 -0.02616
# Poissons Ratio (z) = -0.26349 -0.02942
#
# Static dielectric constant tensor:
#      x y z
#    x 2.054220 0.000000 -0.001650 
#    y 0.000000 1.908860 0.000000 
#    z -0.001650 0.000000 1.913850 
# 
# From -- ./inp_files/2214.got.cif
#   From: 2010.05.17/outbox.cif.g08.bks.cpg/sg4_2_cif.got.tgz:2214.got - 2010.06.03 18:43:04.
