data_PCOD9115636
_publ_section_title
;
Structure prediction by ZEFSAII (Michael W. Deem and Ramdas Pophale) SiO2 
 PCOD9115636
Probable space group: P 21
;
_chemical_formula_sum "Si O2"
_cell_formula_units_Z 14
_cell_length_a 16.619700
_cell_length_b 5.167526
_cell_length_c 14.769260
_cell_angle_alpha 90.000000
_cell_angle_beta 26.310099
_cell_angle_gamma 90.000000
_cell_volume 562.202730
_symmetry_space_group_name_H-M "P 21"
_symmetry_group_IT_number 4
_symmetry_cell_setting 'monoclinic'
loop_
_space_group_symop_operation_xyz
x,y,z
-x,1/2+y,-z
loop_
_atom_site_type_symbol
_atom_site_label
_atom_site_fract_x
_atom_site_fract_y
_atom_site_fract_z
Si Si1 0.017665 0.743450 0.828446
Si Si2 0.155618 0.115676 0.433680
Si Si3 0.770959 0.114817 0.757726
Si Si4 0.646675 0.723320 0.121352
Si Si5 0.503700 0.722171 0.816292
Si Si6 0.188535 0.074699 0.785760
Si Si7 0.633800 0.083397 0.457580
O O1 0.216360 0.625483 0.612215
O O2 0.060202 0.027678 0.826509
O O3 0.864249 0.725272 0.908307
O O4 0.935143 0.608485 0.002060
O O5 0.209844 0.335381 0.306288
O O6 0.281570 0.176974 0.391932
O O7 0.938562 0.140728 0.659587
O O8 0.200922 0.834951 0.346367
O O9 0.584887 0.147405 0.998185
O O10 0.566456 0.509850 0.134060
O O11 0.560175 0.630971 0.303547
O O12 0.575918 0.011051 0.172712
O O13 0.306484 0.814037 0.668635
O O14 0.318238 0.312552 0.634017
#
# Coordination Sequence:
#
# PCOD9115636 Si02
#       7
#     2   2   2   2   2   2   2
#     4  10  23  41  66  90 118 162 213 269 312 376
#     4  10  21  40  68  93 121 152 214 258 301 357
#     4  10  21  40  69  93 114 164 207 257 302 354
#     4  12  28  38  61  90 134 169 208 236 332 386
#     4  12  25  41  58  94 130 169 194 256 304 388
#     4  10  20  41  69  85 118 155 218 272 320 333
#     4  10  22  41  59  91 117 163 202 270 307 370
#
# _framework density 24.902048000000001
#
# number of rings (size 3 to 8) (size 9 to 14) (size 15 to 20)
#    0.857    0.571    1.429    3.429    2.000    3.429 
#    0.000    0.000    0.000    0.000    0.000    0.000 
#    0.000    0.000    0.000    0.000    0.000    0.000 
#
# Total GULP energy -78305.805378 kJ/mol
# GULP energy per Si atom -5593.271813 kJ/mol
# Density = 2.484537 g / cm^3
# Si number density = 24.902048 Si / 1000 Ang^3
#
#
#
# Elastic Constant Matrix: (Units=GPa)
#
#
# Indices 1 2 3 4 5 6 
#
# 1 67.3448 2.3833 17.7891 0.0000 -40.1559 0.0000
# 2 2.3833 98.1453 8.7299 0.0000 3.2289 0.0000
# 3 17.7891 8.7299 69.6998 0.0000 -26.2093 0.0000
# 4 0.0000 0.0000 0.0000 18.8279 0.0000 13.2120
# 5 -40.1559 3.2289 -26.2093 0.0000 58.5512 0.0000
# 6 0.0000 0.0000 0.0000 13.2120 0.0000 33.3166
#
#
#
# Elastic Compliance Matrix: (Units=1/GPa)
#
#
# Indices 1 2 3 4 5 6 
#
# 1 0.025264 -0.001216 0.000295 0.000000 0.017526 0.000000
# 2 -0.001216 0.010456 -0.001839 0.000000 -0.002234 0.000000
# 3 0.000295 -0.001839 0.017575 0.000000 0.008170 0.000000
# 4 0.000000 0.000000 0.000000 0.073591 0.000000 -0.029183
# 5 0.017526 -0.002234 0.008170 0.000000 0.032879 0.000000
# 6 0.000000 0.000000 0.000000 -0.029183 0.000000 0.041588
#
#
# Mechanical properties :
#
#
# Convention : Reuss Voigt Hill
#
# Bulk Modulus (GPa) = 20.93239 32.55496 26.74367
# Shear Modulus (GPa) = 22.44167 35.89164 29.16665
#
# Velocity S-wave (km/s) = 3.00525 3.80058 3.42607
# Velocity P-wave (km/s) = 4.52396 5.68866 5.13941
#
# Compressibility (1/GPa) = 0.04777286
#
# Stress axis : x y z
#
# Youngs Moduli (GPa) = 39.58132 95.64245 56.89969
#
# Poissons Ratio (x) = 0.11633 -0.01676
# Poissons Ratio (y) = 0.04814 0.10465
# Poissons Ratio (z) = -0.01166 0.17591
#
# Static dielectric constant tensor:
#      x y z
#    x 2.100000 0.000000 -0.069130 
#    y 0.000000 1.925070 0.000000 
#    z -0.069130 0.000000 1.905850 
# 
# From -- ./inp_files/14039.got.cif
#   From: 2010.05.17/outbox.cif.g08.bks.cpg/sg4_8_cif.got.tgz:14039.got - 2010.06.03 18:43:04.
