data_PCOD9115454
_publ_section_title
;
Structure prediction by ZEFSAII (Michael W. Deem and Ramdas Pophale) SiO2 
 PCOD9115454
Probable space group: P 21
;
_chemical_formula_sum "Si O2"
_cell_formula_units_Z 14
_cell_length_a 7.075839
_cell_length_b 7.755159
_cell_length_c 12.213601
_cell_angle_alpha 90.000000
_cell_angle_beta 47.954657
_cell_angle_gamma 90.000000
_cell_volume 497.709724
_symmetry_space_group_name_H-M "P 21"
_symmetry_group_IT_number 4
_symmetry_cell_setting 'monoclinic'
loop_
_space_group_symop_operation_xyz
x,y,z
-x,1/2+y,-z
loop_
_atom_site_type_symbol
_atom_site_label
_atom_site_fract_x
_atom_site_fract_y
_atom_site_fract_z
Si Si1 0.792018 0.048730 0.650665
Si Si2 0.401105 0.958892 0.641371
Si Si3 0.875184 0.986981 0.967637
Si Si4 0.161120 0.783508 0.156952
Si Si5 0.701789 0.676168 0.653558
Si Si6 0.659134 0.983090 0.320220
Si Si7 0.864950 0.620247 0.912627
O O1 0.557213 0.089134 0.660892
O O2 0.799850 0.180954 0.747192
O O3 0.041933 0.079931 0.479810
O O4 0.764558 0.847078 0.702469
O O5 0.449746 0.977847 0.495067
O O6 0.113525 0.969569 0.790059
O O7 0.569631 0.790655 0.609107
O O8 0.755445 0.798483 0.995894
O O9 0.748150 0.163577 0.977554
O O10 0.025883 0.021091 0.022094
O O11 0.857662 0.825383 0.258765
O O12 0.284033 0.973643 0.095460
O O13 0.483718 0.526266 0.739539
O O14 0.873580 0.131395 0.258339
#
# Coordination Sequence:
#
# PCOD9115454 Si02
#       7
#     2   2   2   2   2   2   2
#     4  10  21  41  58 101 142 181 211 295 358 408
#     4  10  22  36  68  96 136 178 230 284 342 417
#     4  12  21  40  68  99 130 183 238 290 338 412
#     4  10  21  38  69  91 134 177 228 281 350 406
#     4  10  20  39  60  95 145 172 229 280 347 409
#     4  10  20  41  65 102 131 181 233 284 332 417
#     4  10  21  39  64  98 134 170 241 288 341 403
#
# _framework density 28.128848999999999
#
# number of rings (size 3 to 8) (size 9 to 14) (size 15 to 20)
#    1.714    0.000    4.286    0.857    0.000    2.286 
#    0.000    0.000    3.143    1.714    0.000    0.000 
#    0.000    0.000    0.000    0.000    0.000    0.000 
#
# Total GULP energy -78050.139431 kJ/mol
# GULP energy per Si atom -5575.009959 kJ/mol
# Density = 2.806483 g / cm^3
# Si number density = 28.128849 Si / 1000 Ang^3
#
#
#
# Elastic Constant Matrix: (Units=GPa)
#
#
# Indices 1 2 3 4 5 6 
#
# 1 108.9387 57.2205 10.3176 0.0000 -7.0677 0.0000
# 2 57.2205 128.0322 -18.8524 0.0000 -16.6094 0.0000
# 3 10.3176 -18.8524 40.3809 0.0000 -2.0750 0.0000
# 4 0.0000 0.0000 0.0000 29.3159 0.0000 1.4554
# 5 -7.0677 -16.6094 -2.0750 0.0000 37.4380 0.0000
# 6 0.0000 0.0000 0.0000 1.4554 0.0000 56.9839
#
#
#
# Elastic Compliance Matrix: (Units=1/GPa)
#
#
# Indices 1 2 3 4 5 6 
#
# 1 0.013545 -0.007198 -0.006873 0.000000 -0.001017 0.000000
# 2 -0.007198 0.012837 0.008078 0.000000 0.004784 0.000000
# 3 -0.006873 0.008078 0.030496 0.000000 0.003977 0.000000
# 4 0.000000 0.000000 0.000000 0.034155 0.000000 -0.000872
# 5 -0.001017 0.004784 0.003977 0.000000 0.028862 0.000000
# 6 0.000000 0.000000 0.000000 -0.000872 0.000000 0.017571
#
#
# Mechanical properties :
#
#
# Convention : Reuss Voigt Hill
#
# Bulk Modulus (GPa) = 22.27514 41.63591 31.95552
# Shear Modulus (GPa) = 30.41064 39.99197 35.20131
#
# Velocity S-wave (km/s) = 3.29160 3.77469 3.54139
# Velocity P-wave (km/s) = 4.73100 5.81650 5.30161
#
# Compressibility (1/GPa) = 0.04489309
#
# Stress axis : x y z
#
# Youngs Moduli (GPa) = 73.82765 77.89686 32.79098
#
# Poissons Ratio (x) = 0.56067 0.22539
# Poissons Ratio (y) = 0.53138 -0.26489
# Poissons Ratio (z) = 0.50745 -0.62927
#
# Static dielectric constant tensor:
#      x y z
#    x 2.212310 0.000000 -0.063070 
#    y 0.000000 2.576960 0.000000 
#    z -0.063070 0.000000 2.303750 
# 
# From -- ./inp_files/13711.got.cif
#   From: 2010.05.17/outbox.cif.g08.bks.cpg/sg4_7_cif.got.tgz:13711.got - 2010.06.03 18:43:04.
