data_PCOD9115562
_publ_section_title
;
Structure prediction by ZEFSAII (Michael W. Deem and Ramdas Pophale) SiO2 
 PCOD9115562
Probable space group: P 21
;
_chemical_formula_sum "Si O2"
_cell_formula_units_Z 16
_cell_length_a 11.618857
_cell_length_b 11.383634
_cell_length_c 5.406944
_cell_angle_alpha 90.000000
_cell_angle_beta 109.138525
_cell_angle_gamma 90.000000
_cell_volume 675.621253
_symmetry_space_group_name_H-M "P 21"
_symmetry_group_IT_number 4
_symmetry_cell_setting 'monoclinic'
loop_
_space_group_symop_operation_xyz
x,y,z
-x,1/2+y,-z
loop_
_atom_site_type_symbol
_atom_site_label
_atom_site_fract_x
_atom_site_fract_y
_atom_site_fract_z
Si Si1 0.089927 0.847910 0.711932
Si Si2 0.841547 0.803083 0.798964
Si Si3 0.926334 0.972924 0.239659
Si Si4 0.314509 0.879031 0.604251
Si Si5 0.550478 0.165751 0.530756
Si Si6 0.844941 0.543175 0.871682
Si Si7 0.513975 0.559707 0.009403
Si Si8 0.720133 0.988525 0.415112
O O1 0.219327 0.801940 0.702650
O O2 0.985787 0.800451 0.822116
O O3 0.008834 0.871207 0.415782
O O4 0.130508 0.972852 0.859708
O O5 0.803270 0.676313 0.863670
O O6 0.754727 0.857119 0.525760
O O7 0.836578 0.905443 0.996610
O O8 0.848408 0.033991 0.396828
O O9 0.022663 0.050305 0.165320
O O10 0.400578 0.793867 0.505740
O O11 0.240371 0.962980 0.363250
O O12 0.390822 0.961847 0.840094
O O13 0.465568 0.122963 0.241031
O O14 0.664531 0.074694 0.583035
O O15 0.498340 0.148211 0.767246
O O16 0.385025 0.496217 0.864019
#
# Coordination Sequence:
#
# PCOD9115562 Si02
#       8
#     2   2   2   2   2   2   2   2
#     4   9  22  41  62 100 135 190 222 293 352 425
#     4  10  20  40  66  99 141 182 232 290 347 428
#     4   9  19  40  57  96 136 176 229 281 347 417
#     4  11  25  46  70  99 142 181 241 293 359 420
#     4  10  25  45  71 101 135 185 232 295 348 418
#     4  10  23  38  67 100 140 177 238 285 360 413
#     4  10  25  45  69 105 135 185 240 288 355 412
#     4   9  21  41  68  94 136 180 238 277 356 407
#
# _framework density 23.681906999999999
#
# number of rings (size 3 to 8) (size 9 to 14) (size 15 to 20)
#    0.750    1.500    0.000    0.750    5.250    5.000 
#   27.000    0.000    0.000    0.000    0.000    0.000 
#    0.000    0.000    0.000    0.000    0.000    0.000 
#
# Total GULP energy -89203.190773 kJ/mol
# GULP energy per Si atom -5575.199423 kJ/mol
# Density = 2.362801 g / cm^3
# Si number density = 23.681907 Si / 1000 Ang^3
#
#
#
# Elastic Constant Matrix: (Units=GPa)
#
#
# Indices 1 2 3 4 5 6 
#
# 1 48.5471 11.6590 20.8207 0.0000 23.6199 0.0000
# 2 11.6590 105.7108 20.5088 0.0000 11.8396 0.0000
# 3 20.8207 20.5088 101.2108 0.0000 5.8156 0.0000
# 4 0.0000 0.0000 0.0000 5.6339 0.0000 14.5683
# 5 23.6199 11.8396 5.8156 0.0000 21.3829 0.0000
# 6 0.0000 0.0000 0.0000 14.5683 0.0000 4.9556
#
#
#
# Elastic Compliance Matrix: (Units=1/GPa)
#
#
# Indices 1 2 3 4 5 6 
#
# 1 0.049465 0.002015 -0.007498 0.000000 -0.053716 0.000000
# 2 0.002015 0.010482 -0.002110 0.000000 -0.007456 0.000000
# 3 -0.007498 -0.002110 0.011487 0.000000 0.006326 0.000000
# 4 0.000000 0.000000 0.000000 -0.026886 0.000000 0.079040
# 5 -0.053716 -0.007456 0.006326 0.000000 0.108510 0.000000
# 6 0.000000 0.000000 0.000000 0.079040 0.000000 -0.030566
#
#
# Mechanical properties :
#
#
# Convention : Reuss Voigt Hill
#
# Bulk Modulus (GPa) = 17.77815 40.16066 28.96940
# Shear Modulus (GPa) = 31.96411 19.89316 25.92863
#
# Velocity S-wave (km/s) = 3.67785 2.90145 3.31247
# Velocity P-wave (km/s) = 5.05557 5.31222 5.18548
#
# Compressibility (1/GPa) = 0.05624882
#
# Stress axis : x y z
#
# Youngs Moduli (GPa) = 20.21632 95.40201 87.05628
#
# Poissons Ratio (x) = -0.19226 0.65271
# Poissons Ratio (y) = -0.04074 0.18370
# Poissons Ratio (z) = 0.15157 0.20131
#
# Static dielectric constant tensor:
#      x y z
#    x 1.975250 0.000000 -0.036320 
#    y 0.000000 1.891960 0.000000 
#    z -0.036320 0.000000 1.883530 
# 
# From -- ./inp_files/3756.got.cif
#   From: 2010.05.17/outbox.cif.g08.bks.cpg/sg4_2_cif.got.tgz:3756.got - 2010.06.03 18:43:04.
