data_PCOD9115975
_publ_section_title
;
Structure prediction by ZEFSAII (Michael W. Deem and Ramdas Pophale) SiO2 
 PCOD9115975
Probable space group: P 21
;
_chemical_formula_sum "Si O2"
_cell_formula_units_Z 14
_cell_length_a 13.160378
_cell_length_b 5.872511
_cell_length_c 14.830700
_cell_angle_alpha 90.000000
_cell_angle_beta 29.225611
_cell_angle_gamma 90.000000
_cell_volume 559.623482
_symmetry_space_group_name_H-M "P 21"
_symmetry_group_IT_number 4
_symmetry_cell_setting 'monoclinic'
loop_
_space_group_symop_operation_xyz
x,y,z
-x,1/2+y,-z
loop_
_atom_site_type_symbol
_atom_site_label
_atom_site_fract_x
_atom_site_fract_y
_atom_site_fract_z
Si Si1 0.745537 0.122980 0.740588
Si Si2 0.552429 0.781919 0.166988
Si Si3 0.284798 0.450521 0.710174
Si Si4 0.503236 0.685416 0.698483
Si Si5 0.181300 0.077565 0.904938
Si Si6 0.128710 0.124521 0.298103
Si Si7 0.218953 0.555975 0.555602
O O1 0.525236 0.143817 0.857868
O O2 0.766456 0.373367 0.771860
O O3 0.938531 0.123621 0.519318
O O4 0.762212 0.873501 0.774534
O O5 0.768366 0.750213 0.052162
O O6 0.377180 0.715806 0.378437
O O7 0.521776 0.051464 0.188810
O O8 0.461825 0.552991 0.636719
O O9 0.271392 0.182423 0.742985
O O10 0.279098 0.532779 0.612799
O O11 0.058355 0.529842 0.921136
O O12 0.319121 0.868768 0.832370
O O13 0.725641 0.805276 0.525622
O O14 0.011395 0.123326 0.292584
#
# Coordination Sequence:
#
# PCOD9115975 Si02
#       7
#     2   2   2   2   2   2   2
#     4   9  18  33  59  83 124 151 194 248 309 370
#     4   9  21  36  60  90 112 155 201 256 306 366
#     4  11  22  39  57  82 122 166 205 252 300 365
#     4  10  22  36  58  84 121 152 208 249 304 366
#     4  10  21  39  56  82 115 163 209 239 297 373
#     4   9  19  33  54  89 120 155 191 248 311 372
#     4  10  23  34  58  88 122 152 202 254 315 356
#
# _framework density 25.016818000000001
#
# number of rings (size 3 to 8) (size 9 to 14) (size 15 to 20)
#    0.000    2.286    1.429    0.000   18.000    0.000 
#    0.000    0.000    0.000    1.714    0.000    0.000 
#    0.000    0.000    0.000    0.000    0.000    0.000 
#
# Total GULP energy -78030.503294 kJ/mol
# GULP energy per Si atom -5573.607378 kJ/mol
# Density = 2.495988 g / cm^3
# Si number density = 25.016818 Si / 1000 Ang^3
#
#
#
# Elastic Constant Matrix: (Units=GPa)
#
#
# Indices 1 2 3 4 5 6 
#
# 1 136.6943 63.2988 21.3341 0.0000 -30.6977 0.0000
# 2 63.2988 129.2012 16.8939 0.0000 -9.3795 0.0000
# 3 21.3341 16.8939 47.1850 0.0000 0.8874 0.0000
# 4 0.0000 0.0000 0.0000 21.0161 0.0000 -7.5110
# 5 -30.6977 -9.3795 0.8874 0.0000 30.7691 0.0000
# 6 0.0000 0.0000 0.0000 -7.5110 0.0000 40.5651
#
#
#
# Elastic Compliance Matrix: (Units=1/GPa)
#
#
# Indices 1 2 3 4 5 6 
#
# 1 0.012806 -0.004889 -0.004254 0.000000 0.011408 0.000000
# 2 -0.004889 0.010194 -0.001406 0.000000 -0.001730 0.000000
# 3 -0.004254 -0.001406 0.023721 0.000000 -0.005357 0.000000
# 4 0.000000 0.000000 0.000000 0.050954 0.000000 0.009435
# 5 0.011408 -0.001730 -0.005357 0.000000 0.043509 0.000000
# 6 0.000000 0.000000 0.000000 0.009435 0.000000 0.026399
#
#
# Mechanical properties :
#
#
# Convention : Reuss Voigt Hill
#
# Bulk Modulus (GPa) = 39.03113 57.34824 48.18968
# Shear Modulus (GPa) = 25.35221 32.57364 28.96293
#
# Velocity S-wave (km/s) = 3.18686 3.61234 3.40625
# Velocity P-wave (km/s) = 5.40160 6.35392 5.89701
#
# Compressibility (1/GPa) = 0.02562058
#
# Stress axis : x y z
#
# Youngs Moduli (GPa) = 78.09117 98.10091 42.15707
#
# Poissons Ratio (x) = 0.47965 0.17933
# Poissons Ratio (y) = 0.38181 0.05929
# Poissons Ratio (z) = 0.33219 0.13798
#
# Static dielectric constant tensor:
#      x y z
#    x 1.967200 0.000000 0.041770 
#    y 0.000000 2.265140 0.000000 
#    z 0.041770 0.000000 2.006440 
# 
# From -- ./inp_files/8946.got.cif
#   From: 2010.05.17/outbox.cif.g08.bks.cpg/sg4_5_cif.got.tgz:8946.got - 2010.06.03 18:43:04.
