data_PCOD9115005
_publ_section_title
;
Structure prediction by ZEFSAII (Michael W. Deem and Ramdas Pophale) SiO2 
 PCOD9115005
Probable space group: P 21
;
_chemical_formula_sum "Si O2"
_cell_formula_units_Z 14
_cell_length_a 16.730785
_cell_length_b 8.620434
_cell_length_c 9.013268
_cell_angle_alpha 90.000000
_cell_angle_beta 28.793050
_cell_angle_gamma 90.000000
_cell_volume 626.119069
_symmetry_space_group_name_H-M "P 21"
_symmetry_group_IT_number 4
_symmetry_cell_setting 'monoclinic'
loop_
_space_group_symop_operation_xyz
x,y,z
-x,1/2+y,-z
loop_
_atom_site_type_symbol
_atom_site_label
_atom_site_fract_x
_atom_site_fract_y
_atom_site_fract_z
Si Si1 0.579934 0.380480 0.117498
Si Si2 0.794690 0.215933 0.267378
Si Si3 0.374161 0.961548 0.265698
Si Si4 0.008606 0.518997 0.826890
Si Si5 0.716462 0.039638 0.861746
Si Si6 0.556812 0.064490 0.409681
Si Si7 0.717262 0.707516 0.359320
O O1 0.570491 0.459075 0.290947
O O2 0.381494 0.351312 0.410904
O O3 0.639941 0.485079 0.885089
O O4 0.690521 0.225858 0.923130
O O5 0.690676 0.296906 0.569562
O O6 0.892152 0.075116 0.187278
O O7 0.670611 0.159082 0.339725
O O8 0.913441 0.355631 0.012584
O O9 0.273205 0.089573 0.519338
O O10 0.561224 0.981242 0.017661
O O11 0.121681 0.503013 0.496494
O O12 0.887447 0.669940 0.001484
O O13 0.679727 0.981216 0.090452
O O14 0.428678 0.158207 0.516305
#
# Coordination Sequence:
#
# PCOD9115005 Si02
#       7
#     2   2   2   2   2   2   2
#     4  10  19  38  68  91 127 174 230 263 328 405
#     4  11  24  43  70  94 141 171 226 274 342 393
#     4   9  19  38  63  92 118 175 217 266 315 402
#     4  11  24  46  63 105 136 171 217 295 334 395
#     4  10  23  40  67  97 131 176 223 281 331 404
#     4  10  23  41  67  94 125 188 219 269 331 411
#     4   9  24  38  64  95 130 169 222 278 333 388
#
# _framework density 22.359963
#
# number of rings (size 3 to 8) (size 9 to 14) (size 15 to 20)
#    0.000    2.286    1.429    0.857   18.000    0.000 
#    2.571    2.857    0.000    0.000    0.000    0.000 
#    0.000    0.000    0.000    0.000    0.000    0.000 
#
# Total GULP energy -77941.193730 kJ/mol
# GULP energy per Si atom -5567.228124 kJ/mol
# Density = 2.230907 g / cm^3
# Si number density = 22.359963 Si / 1000 Ang^3
#
#
#
# Elastic Constant Matrix: (Units=GPa)
#
#
# Indices 1 2 3 4 5 6 
#
# 1 66.2627 14.4126 22.4659 0.0000 23.4545 0.0000
# 2 14.4126 47.6182 12.1726 0.0000 9.8743 0.0000
# 3 22.4659 12.1726 125.0246 0.0000 27.4529 0.0000
# 4 0.0000 0.0000 0.0000 31.6535 0.0000 -5.0700
# 5 23.4545 9.8743 27.4529 0.0000 40.9915 0.0000
# 6 0.0000 0.0000 0.0000 -5.0700 0.0000 34.3451
#
#
#
# Elastic Compliance Matrix: (Units=1/GPa)
#
#
# Indices 1 2 3 4 5 6 
#
# 1 0.019669 -0.003680 -0.001055 0.000000 -0.009662 0.000000
# 2 -0.003680 0.022936 -0.000963 0.000000 -0.002775 0.000000
# 3 -0.001055 -0.000963 0.009494 0.000000 -0.005523 0.000000
# 4 0.000000 0.000000 0.000000 0.032357 0.000000 0.004777
# 5 -0.009662 -0.002775 -0.005523 0.000000 0.034291 0.000000
# 6 0.000000 0.000000 0.000000 0.004777 0.000000 0.029821
#
#
# Mechanical properties :
#
#
# Convention : Reuss Voigt Hill
#
# Bulk Modulus (GPa) = 24.56721 37.44529 31.00625
# Shear Modulus (GPa) = 28.81315 34.05497 31.43406
#
# Velocity S-wave (km/s) = 3.59361 3.90684 3.75349
# Velocity P-wave (km/s) = 5.31316 6.09378 5.71681
#
# Compressibility (1/GPa) = 0.04070467
#
# Stress axis : x y z
#
# Youngs Moduli (GPa) = 50.84065 43.60026 105.32446
#
# Poissons Ratio (x) = 0.16046 0.11108
# Poissons Ratio (y) = 0.18711 0.10138
# Poissons Ratio (z) = 0.05362 0.04197
#
# Static dielectric constant tensor:
#      x y z
#    x 1.835520 0.000000 0.005120 
#    y 0.000000 2.032270 0.000000 
#    z 0.005120 0.000000 1.864690 
# 
# From -- ./inp_files/9656.got.cif
#   From: 2010.05.17/outbox.cif.g08.bks.cpg/sg4_5_cif.got.tgz:9656.got - 2010.06.03 18:43:04.
