data_PCOD9115067
_publ_section_title
;
Structure prediction by ZEFSAII (Michael W. Deem and Ramdas Pophale) SiO2 
 PCOD9115067
Probable space group: P 21
;
_chemical_formula_sum "Si O2"
_cell_formula_units_Z 16
_cell_length_a 18.731973
_cell_length_b 8.132125
_cell_length_c 9.145624
_cell_angle_alpha 90.000000
_cell_angle_beta 36.896112
_cell_angle_gamma 90.000000
_cell_volume 836.405674
_symmetry_space_group_name_H-M "P 21"
_symmetry_group_IT_number 4
_symmetry_cell_setting 'monoclinic'
loop_
_space_group_symop_operation_xyz
x,y,z
-x,1/2+y,-z
loop_
_atom_site_type_symbol
_atom_site_label
_atom_site_fract_x
_atom_site_fract_y
_atom_site_fract_z
Si Si1 0.559294 0.291790 0.964305
Si Si2 0.024942 0.604498 0.954360
Si Si3 0.789212 0.590183 0.178661
Si Si4 0.640956 0.777783 0.203729
Si Si5 0.648107 0.924681 0.880544
Si Si6 0.269358 0.778021 0.563007
Si Si7 0.452461 0.518389 0.391529
Si Si8 0.166131 0.303376 0.647198
O O1 0.448604 0.301851 0.033328
O O2 0.669989 0.348481 0.682472
O O3 0.523973 0.409557 0.155610
O O4 0.593006 0.107231 0.957894
O O5 0.133826 0.728410 0.754816
O O6 0.091112 0.432914 0.866152
O O7 0.931407 0.584619 0.973563
O O8 0.935267 0.669288 0.226957
O O9 0.746859 0.670460 0.099620
O O10 0.733035 0.413627 0.305433
O O11 0.747986 0.707637 0.381930
O O12 0.672248 0.877525 0.007058
O O13 0.537592 0.652173 0.326629
O O14 0.596993 0.900989 0.401137
O O15 0.765650 0.896651 0.590913
O O16 0.346479 0.619838 0.485601
#
# Coordination Sequence:
#
# PCOD9115067 Si02
#       8
#     2   2   2   2   2   2   2   2
#     4  12  24  41  64  98 124 168 224 267 324 368
#     4  10  19  40  68  95 121 165 224 272 310 370
#     4  10  23  37  68  91 129 167 216 262 325 384
#     4  12  25  42  59  93 138 175 208 260 338 397
#     4  12  24  39  65  96 134 167 217 275 319 388
#     4  12  22  40  71  97 124 164 229 274 318 375
#     4  12  26  40  64  92 135 176 213 264 332 395
#     4  10  21  41  67  96 121 170 223 276 306 373
#
# _framework density 19.129473000000001
#
# number of rings (size 3 to 8) (size 9 to 14) (size 15 to 20)
#    0.750    0.000    5.000    3.000    5.250    0.000 
#    0.000    0.000    8.250    0.000    0.000    0.000 
#    0.000    0.000    0.000    0.000    0.000    0.000 
#
# Total GULP energy -89226.496147 kJ/mol
# GULP energy per Si atom -5576.656009 kJ/mol
# Density = 1.908593 g / cm^3
# Si number density = 19.129473 Si / 1000 Ang^3
#
#
#
# Elastic Constant Matrix: (Units=GPa)
#
#
# Indices 1 2 3 4 5 6 
#
# 1 82.2924 41.8471 47.2070 0.0000 2.0220 0.0000
# 2 41.8471 112.3194 55.6816 0.0000 3.6596 0.0000
# 3 47.2070 55.6816 95.1832 0.0000 -0.4678 0.0000
# 4 0.0000 0.0000 0.0000 36.9622 0.0000 -1.2580
# 5 2.0220 3.6596 -0.4678 0.0000 29.4034 0.0000
# 6 0.0000 0.0000 0.0000 -1.2580 0.0000 34.5116
#
#
#
# Elastic Compliance Matrix: (Units=1/GPa)
#
#
# Indices 1 2 3 4 5 6 
#
# 1 0.017775 -0.003126 -0.006992 0.000000 -0.000945 0.000000
# 2 -0.003126 0.013173 -0.006163 0.000000 -0.001523 0.000000
# 3 -0.006992 -0.006163 0.017587 0.000000 0.001528 0.000000
# 4 0.000000 0.000000 0.000000 0.027088 0.000000 0.000987
# 5 -0.000945 -0.001523 0.001528 0.000000 0.034288 0.000000
# 6 0.000000 0.000000 0.000000 0.000987 0.000000 0.029012
#
#
# Mechanical properties :
#
#
# Convention : Reuss Voigt Hill
#
# Bulk Modulus (GPa) = 62.60534 64.36294 63.48414
# Shear Modulus (GPa) = 28.27900 29.84605 29.06253
#
# Velocity S-wave (km/s) = 3.84903 3.95424 3.90199
# Velocity P-wave (km/s) = 7.24925 7.38695 7.31842
#
# Compressibility (1/GPa) = 0.01597308
#
# Stress axis : x y z
#
# Youngs Moduli (GPa) = 56.25752 75.91455 56.86073
#
# Poissons Ratio (x) = 0.23728 0.39757
# Poissons Ratio (y) = 0.17584 0.35045
# Poissons Ratio (z) = 0.39336 0.46788
#
# Static dielectric constant tensor:
#      x y z
#    x 1.655860 0.000000 -0.020610 
#    y 0.000000 1.744120 0.000000 
#    z -0.020610 0.000000 1.680190 
# 
# From -- ./inp_files/9939.got.cif
#   From: 2010.05.17/outbox.cif.g08.bks.cpg/sg4_5_cif.got.tgz:9939.got - 2010.06.03 18:43:04.
