data_PCOD9115171
_publ_section_title
;
Structure prediction by ZEFSAII (Michael W. Deem and Ramdas Pophale) SiO2 
 PCOD9115171
Probable space group: P 21
;
_chemical_formula_sum "Si O2"
_cell_formula_units_Z 16
_cell_length_a 7.643092
_cell_length_b 11.195045
_cell_length_c 9.245885
_cell_angle_alpha 90.000000
_cell_angle_beta 56.044597
_cell_angle_gamma 90.000000
_cell_volume 656.213938
_symmetry_space_group_name_H-M "P 21"
_symmetry_group_IT_number 4
_symmetry_cell_setting 'monoclinic'
loop_
_space_group_symop_operation_xyz
x,y,z
-x,1/2+y,-z
loop_
_atom_site_type_symbol
_atom_site_label
_atom_site_fract_x
_atom_site_fract_y
_atom_site_fract_z
Si Si1 0.068344 0.760570 0.170071
Si Si2 0.825460 0.610699 0.528649
Si Si3 0.682286 0.040763 0.023319
Si Si4 0.313382 0.981460 0.998298
Si Si5 0.590233 0.833782 0.655949
Si Si6 0.036972 0.627968 0.740541
Si Si7 0.676754 0.919865 0.309187
Si Si8 0.011486 0.392098 0.316113
O O1 0.220320 0.871938 0.136981
O O2 0.975144 0.689832 0.351487
O O3 0.870931 0.827976 0.188539
O O4 0.200695 0.667477 0.012536
O O5 0.616340 0.690004 0.650427
O O6 0.931926 0.597868 0.634708
O O7 0.830020 0.480709 0.455098
O O8 0.498647 0.053017 0.990704
O O9 0.590846 0.962523 0.196326
O O10 0.859937 0.958601 0.867718
O O11 0.126824 0.076732 0.064333
O O12 0.412087 0.910091 0.818603
O O13 0.570141 0.861145 0.496295
O O14 0.811849 0.871627 0.636840
O O15 0.067543 0.768132 0.713179
O O16 0.236670 0.544940 0.666474
#
# Coordination Sequence:
#
# PCOD9115171 Si02
#       8
#     2   2   2   2   2   2   2   2
#     4   9  21  39  61  85 120 155 205 252 299 366
#     4   9  17  35  61  91 107 156 211 252 281 356
#     4  10  22  35  61  89 119 154 199 256 309 363
#     4  10  22  38  62  87 120 160 204 246 307 364
#     4   9  18  35  60  81 119 159 195 250 301 363
#     4  10  20  34  64  88 117 158 204 248 305 362
#     4  10  20  38  60  85 120 155 199 251 307 358
#     4   9  18  34  57  88 112 153 209 241 287 364
#
# _framework density 24.382296
#
# number of rings (size 3 to 8) (size 9 to 14) (size 15 to 20)
#    0.000    2.500    1.250    0.000    8.750    0.000 
#    0.000    0.000   16.500    0.000    0.000    0.000 
#    0.000    0.000    0.000    0.000    0.000    0.000 
#
# Total GULP energy -89331.087727 kJ/mol
# GULP energy per Si atom -5583.192983 kJ/mol
# Density = 2.432680 g / cm^3
# Si number density = 24.382296 Si / 1000 Ang^3
#
#
#
# Elastic Constant Matrix: (Units=GPa)
#
#
# Indices 1 2 3 4 5 6 
#
# 1 40.6217 24.1767 15.3357 0.0000 5.5340 0.0000
# 2 24.1767 155.9812 28.1157 0.0000 -10.3997 0.0000
# 3 15.3357 28.1157 97.7588 0.0000 -3.7214 0.0000
# 4 0.0000 0.0000 0.0000 44.1295 0.0000 -1.2348
# 5 5.5340 -10.3997 -3.7214 0.0000 19.9307 0.0000
# 6 0.0000 0.0000 0.0000 -1.2348 0.0000 31.6425
#
#
#
# Elastic Compliance Matrix: (Units=1/GPa)
#
#
# Indices 1 2 3 4 5 6 
#
# 1 0.030535 -0.004820 -0.003850 0.000000 -0.011712 0.000000
# 2 -0.004820 0.007730 -0.001272 0.000000 0.005134 0.000000
# 3 -0.003850 -0.001272 0.011295 0.000000 0.002514 0.000000
# 4 0.000000 0.000000 0.000000 0.022685 0.000000 0.000885
# 5 -0.011712 0.005134 0.002514 0.000000 0.056574 0.000000
# 6 0.000000 0.000000 0.000000 0.000885 0.000000 0.031638
#
#
# Mechanical properties :
#
#
# Convention : Reuss Voigt Hill
#
# Bulk Modulus (GPa) = 33.69618 47.73532 40.71575
# Shear Modulus (GPa) = 26.28390 34.25613 30.27002
#
# Velocity S-wave (km/s) = 3.28684 3.75234 3.52728
# Velocity P-wave (km/s) = 5.31548 6.19627 5.77270
#
# Compressibility (1/GPa) = 0.02967695
#
# Stress axis : x y z
#
# Youngs Moduli (GPa) = 32.74941 129.37314 88.53803
#
# Poissons Ratio (x) = 0.62355 0.34085
# Poissons Ratio (y) = 0.15785 0.11258
# Poissons Ratio (z) = 0.12608 0.16450
#
# Static dielectric constant tensor:
#      x y z
#    x 1.952230 0.000000 -0.012450 
#    y 0.000000 1.932850 0.000000 
#    z -0.012450 0.000000 1.985940 
# 
# From -- ./inp_files/6314.got.cif
#   From: 2010.05.17/outbox.cif.g08.bks.cpg/sg4_4_cif.got.tgz:6314.got - 2010.06.03 18:43:04.
