data_PCOD9115580
_publ_section_title
;
Structure prediction by ZEFSAII (Michael W. Deem and Ramdas Pophale) SiO2 
 PCOD9115580
Probable space group: P 21
;
_chemical_formula_sum "Si O2"
_cell_formula_units_Z 16
_cell_length_a 10.082511
_cell_length_b 17.027672
_cell_length_c 5.618347
_cell_angle_alpha 90.000000
_cell_angle_beta 43.758417
_cell_angle_gamma 90.000000
_cell_volume 667.113239
_symmetry_space_group_name_H-M "P 21"
_symmetry_group_IT_number 4
_symmetry_cell_setting 'monoclinic'
loop_
_space_group_symop_operation_xyz
x,y,z
-x,1/2+y,-z
loop_
_atom_site_type_symbol
_atom_site_label
_atom_site_fract_x
_atom_site_fract_y
_atom_site_fract_z
Si Si1 0.298487 0.227330 0.271755
Si Si2 0.881709 0.456611 0.745795
Si Si3 0.787012 0.271625 0.319259
Si Si4 0.605406 0.330420 0.061442
Si Si5 0.023929 0.607969 0.323050
Si Si6 0.820906 0.983511 0.251367
Si Si7 0.341903 0.622636 0.290264
Si Si8 0.149284 0.343519 0.069754
O O1 0.104606 0.181315 0.585107
O O2 0.257989 0.280972 0.092135
O O3 0.399026 0.287379 0.324658
O O4 0.450430 0.157152 0.031459
O O5 0.669581 0.421370 0.997087
O O6 0.899550 0.547275 0.647351
O O7 0.989534 0.452670 0.858595
O O8 0.014905 0.398792 0.413222
O O9 0.679122 0.305510 0.698372
O O10 0.743593 0.179573 0.396472
O O11 0.004064 0.296529 0.089419
O O12 0.712967 0.299082 0.158941
O O13 0.202424 0.636294 0.248001
O O14 0.100206 0.548866 0.027818
O O15 0.684670 0.031828 0.605594
O O16 0.732659 0.910832 0.222102
#
# Coordination Sequence:
#
# PCOD9115580 Si02
#       8
#     2   2   2   2   2   2   2   2
#     4  11  24  45  70 109 139 187 245 301 358 438
#     4   9  20  42  68  98 137 192 232 295 363 431
#     4  10  20  40  69  96 142 184 236 293 355 421
#     4  10  22  42  67 101 141 182 233 299 355 426
#     4  10  22  45  70  97 143 188 241 290 366 430
#     4  10  21  42  74  96 139 196 236 292 367 433
#     4  10  23  42  68 102 143 184 233 306 358 425
#     4  10  20  42  72 101 138 193 246 288 360 438
#
# _framework density 23.983934999999999
#
# number of rings (size 3 to 8) (size 9 to 14) (size 15 to 20)
#    0.000    2.000    2.500    0.000    3.500    0.000 
#   20.250    0.000    0.000    0.000    0.000    0.000 
#    0.000    0.000    0.000    0.000    0.000    0.000 
#
# Total GULP energy -89335.144334 kJ/mol
# GULP energy per Si atom -5583.446521 kJ/mol
# Density = 2.392935 g / cm^3
# Si number density = 23.983935 Si / 1000 Ang^3
#
#
#
# Elastic Constant Matrix: (Units=GPa)
#
#
# Indices 1 2 3 4 5 6 
#
# 1 165.4810 66.1592 46.4286 0.0000 -3.7736 0.0000
# 2 66.1592 101.0172 36.2190 0.0000 -5.5539 0.0000
# 3 46.4286 36.2190 65.8274 0.0000 -4.9698 0.0000
# 4 0.0000 0.0000 0.0000 41.8169 0.0000 -8.0170
# 5 -3.7736 -5.5539 -4.9698 0.0000 31.1072 0.0000
# 6 0.0000 0.0000 0.0000 -8.0170 0.0000 53.8036
#
#
#
# Elastic Compliance Matrix: (Units=1/GPa)
#
#
# Indices 1 2 3 4 5 6 
#
# 1 0.008901 -0.004470 -0.003844 0.000000 -0.000332 0.000000
# 2 -0.004470 0.014616 -0.004791 0.000000 0.001302 0.000000
# 3 -0.003844 -0.004791 0.020688 0.000000 0.001984 0.000000
# 4 0.000000 0.000000 0.000000 0.024617 0.000000 0.003668
# 5 -0.000332 0.001302 0.001984 0.000000 0.032656 0.000000
# 6 0.000000 0.000000 0.000000 0.003668 0.000000 0.019133
#
#
# Mechanical properties :
#
#
# Convention : Reuss Voigt Hill
#
# Bulk Modulus (GPa) = 55.56770 69.99325 62.78047
# Shear Modulus (GPa) = 32.71867 37.58010 35.14938
#
# Velocity S-wave (km/s) = 3.69750 3.96269 3.83239
# Velocity P-wave (km/s) = 6.43799 7.08406 6.76874
#
# Compressibility (1/GPa) = 0.01799607
#
# Stress axis : x y z
#
# Youngs Moduli (GPa) = 112.35027 68.41840 48.33687
#
# Poissons Ratio (x) = 0.30580 0.18579
# Poissons Ratio (y) = 0.50215 0.23159
# Poissons Ratio (z) = 0.43184 0.32781
#
# Static dielectric constant tensor:
#      x y z
#    x 1.868890 0.000000 -0.009560 
#    y 0.000000 1.988750 0.000000 
#    z -0.009560 0.000000 2.062790 
# 
# From -- ./inp_files/2022.got.cif
#   From: 2010.05.17/outbox.cif.g08.bks.cpg/sg4_2_cif.got.tgz:2022.got - 2010.06.03 18:43:04.
