data_PCOD9115560
_publ_section_title
;
Structure prediction by ZEFSAII (Michael W. Deem and Ramdas Pophale) SiO2 
 PCOD9115560
Probable space group: P 21
;
_chemical_formula_sum "Si O2"
_cell_formula_units_Z 16
_cell_length_a 5.308410
_cell_length_b 16.980771
_cell_length_c 8.254682
_cell_angle_alpha 90.000000
_cell_angle_beta 120.970636
_cell_angle_gamma 90.000000
_cell_volume 638.001156
_symmetry_space_group_name_H-M "P 21"
_symmetry_group_IT_number 4
_symmetry_cell_setting 'monoclinic'
loop_
_space_group_symop_operation_xyz
x,y,z
-x,1/2+y,-z
loop_
_atom_site_type_symbol
_atom_site_label
_atom_site_fract_x
_atom_site_fract_y
_atom_site_fract_z
Si Si1 0.329741 0.888860 0.605039
Si Si2 0.334778 0.687374 0.356245
Si Si3 0.684965 0.299758 0.927501
Si Si4 0.257246 0.248545 0.264281
Si Si5 0.361267 0.426328 0.634071
Si Si6 0.429014 0.049083 0.748314
Si Si7 0.861619 0.097265 0.399277
Si Si8 0.436918 0.158176 0.029205
O O1 0.468323 0.804976 0.692696
O O2 0.462776 0.907557 0.471661
O O3 0.976061 0.894646 0.490527
O O4 0.471042 0.956479 0.766326
O O5 0.218197 0.759592 0.211844
O O6 0.654204 0.716700 0.529169
O O7 0.334520 0.610683 0.240966
O O8 0.180927 0.658773 0.468704
O O9 0.527932 0.380810 0.833012
O O10 0.459758 0.235532 0.925980
O O11 0.965464 0.299314 0.137920
O O12 0.265820 0.178592 0.135783
O O13 0.345703 0.520384 0.649126
O O14 0.332187 0.085709 0.886463
O O15 0.178901 0.060569 0.529182
O O16 0.763781 0.136556 0.200705
#
# Coordination Sequence:
#
# PCOD9115560 Si02
#       8
#     2   2   2   2   2   2   2   2
#     4  11  25  46  73  99 138 186 228 279 345 408
#     4  10  20  40  66  94 134 176 224 288 328 416
#     4  11  24  41  67 100 138 178 231 275 349 400
#     4  11  24  41  67 100 138 178 231 275 349 400
#     4  11  25  46  73  99 138 186 228 279 345 408
#     4  10  21  42  66  92 133 176 230 276 344 394
#     4  10  21  42  66  92 133 176 230 276 344 394
#     4  10  24  40  64 104 126 182 222 292 330 412
#
# _framework density 25.078325
#
# number of rings (size 3 to 8) (size 9 to 14) (size 15 to 20)
#    0.000    1.500    2.500    1.500    3.500    5.000 
#    4.500    1.250    0.000    0.000    0.000    0.000 
#    0.000    0.000    0.000    0.000    0.000    0.000 
#
# Total GULP energy -89456.210671 kJ/mol
# GULP energy per Si atom -5591.013167 kJ/mol
# Density = 2.502125 g / cm^3
# Si number density = 25.078325 Si / 1000 Ang^3
#
#
#
# Elastic Constant Matrix: (Units=GPa)
#
#
# Indices 1 2 3 4 5 6 
#
# 1 96.2185 13.7769 23.4679 0.0000 -3.6248 0.0000
# 2 13.7769 93.4756 14.6196 0.0000 -15.9275 0.0000
# 3 23.4679 14.6196 101.8899 0.0000 -0.1853 0.0000
# 4 0.0000 0.0000 0.0000 41.8662 0.0000 1.9678
# 5 -3.6248 -15.9275 -0.1853 0.0000 35.0476 0.0000
# 6 0.0000 0.0000 0.0000 1.9678 0.0000 22.3012
#
#
#
# Elastic Compliance Matrix: (Units=1/GPa)
#
#
# Indices 1 2 3 4 5 6 
#
# 1 0.011169 -0.001166 -0.002404 0.000000 0.000613 0.000000
# 2 -0.001166 0.012003 -0.001444 0.000000 0.005327 0.000000
# 3 -0.002404 -0.001444 0.010574 0.000000 -0.000849 0.000000
# 4 0.000000 0.000000 0.000000 0.023985 0.000000 -0.002116
# 5 0.000613 0.005327 -0.000849 0.000000 0.031012 0.000000
# 6 0.000000 0.000000 0.000000 -0.002116 0.000000 0.045027
#
#
# Mechanical properties :
#
#
# Convention : Reuss Voigt Hill
#
# Bulk Modulus (GPa) = 42.16126 43.92363 43.04245
# Shear Modulus (GPa) = 32.95853 35.82429 34.39141
#
# Velocity S-wave (km/s) = 3.62916 3.78365 3.70721
# Velocity P-wave (km/s) = 5.86595 6.05315 5.96028
#
# Compressibility (1/GPa) = 0.02371846
#
# Stress axis : x y z
#
# Youngs Moduli (GPa) = 89.53028 83.31049 94.57223
#
# Poissons Ratio (x) = 0.09712 0.22737
# Poissons Ratio (y) = 0.10437 0.13657
# Poissons Ratio (z) = 0.21525 0.12031
#
# Static dielectric constant tensor:
#      x y z
#    x 2.076120 0.000000 0.036120 
#    y 0.000000 2.028470 0.000000 
#    z 0.036120 0.000000 2.017290 
# 
# From -- ./inp_files/463.got.cif
#   From: 2010.05.17/outbox.cif.g08.bks.cpg/sg4_1_cif.got.tgz:463.got - 2010.06.03 18:43:04.
