data_PCOD9115998
_publ_section_title
;
Structure prediction by ZEFSAII (Michael W. Deem and Ramdas Pophale) SiO2 
 PCOD9115998
Probable space group: P 21
;
_chemical_formula_sum "Si O2"
_cell_formula_units_Z 16
_cell_length_a 11.722236
_cell_length_b 9.225094
_cell_length_c 7.780067
_cell_angle_alpha 90.000000
_cell_angle_beta 41.972776
_cell_angle_gamma 90.000000
_cell_volume 562.660210
_symmetry_space_group_name_H-M "P 21"
_symmetry_group_IT_number 4
_symmetry_cell_setting 'monoclinic'
loop_
_space_group_symop_operation_xyz
x,y,z
-x,1/2+y,-z
loop_
_atom_site_type_symbol
_atom_site_label
_atom_site_fract_x
_atom_site_fract_y
_atom_site_fract_z
Si Si1 0.155839 0.320870 0.813770
Si Si2 0.644035 0.197902 0.502045
Si Si3 0.469385 0.939580 0.585178
Si Si4 0.858526 0.702321 0.625470
Si Si5 0.019488 0.074165 0.142099
Si Si6 0.972924 0.946426 0.677668
Si Si7 0.504527 0.082470 0.018355
Si Si8 0.686552 0.334854 0.901271
O O1 0.092665 0.394092 0.064806
O O2 0.140589 0.149343 0.864695
O O3 0.350720 0.364036 0.564521
O O4 0.033827 0.406157 0.816749
O O5 0.607387 0.362428 0.495062
O O6 0.840895 0.156150 0.296313
O O7 0.563999 0.139778 0.765896
O O8 0.536035 0.102194 0.487296
O O9 0.333254 0.910896 0.890257
O O10 0.847289 0.871891 0.680276
O O11 0.907676 0.626770 0.755494
O O12 0.997104 0.617566 0.356345
O O13 0.682062 0.649822 0.745235
O O14 0.146593 0.869724 0.401964
O O15 0.641235 0.166520 0.979189
O O16 0.464357 0.914610 0.037798
#
# Coordination Sequence:
#
# PCOD9115998 Si02
#       8
#     2   2   2   2   2   2   2   2
#     4  10  22  39  59  87 119 154 197 240 290 348
#     4  10  21  39  61  87 120 155 194 242 293 346
#     4  10  23  40  59  88 119 154 198 240 291 348
#     4  10  22  38  59  88 121 155 193 240 293 348
#     4  10  22  38  59  88 121 155 193 240 293 348
#     4  10  22  39  59  87 119 154 197 240 290 348
#     4  10  21  39  61  87 120 155 194 242 293 346
#     4  10  23  40  59  88 119 154 198 240 291 348
#
# _framework density 28.436344999999999
#
# number of rings (size 3 to 8) (size 9 to 14) (size 15 to 20)
#    0.000    2.000    0.000    3.000    0.000   14.000 
#    0.000    0.000    0.000    0.000    0.000    0.000 
#    0.000    0.000    0.000    0.000    0.000    0.000 
#
# Total GULP energy -89450.094039 kJ/mol
# GULP energy per Si atom -5590.630877 kJ/mol
# Density = 2.837162 g / cm^3
# Si number density = 28.436345 Si / 1000 Ang^3
#
#
#
# Elastic Constant Matrix: (Units=GPa)
#
#
# Indices 1 2 3 4 5 6 
#
# 1 77.0539 -1.4645 45.5729 0.0000 2.4664 0.0000
# 2 -1.4645 91.4713 -8.3854 0.0000 6.6968 0.0000
# 3 45.5729 -8.3854 120.8576 0.0000 -4.6765 0.0000
# 4 0.0000 0.0000 0.0000 42.2550 0.0000 -4.0687
# 5 2.4664 6.6968 -4.6765 0.0000 64.5633 0.0000
# 6 0.0000 0.0000 0.0000 -4.0687 0.0000 50.0790
#
#
#
# Elastic Compliance Matrix: (Units=1/GPa)
#
#
# Indices 1 2 3 4 5 6 
#
# 1 0.016786 -0.000238 -0.006388 0.000000 -0.001079 0.000000
# 2 -0.000238 0.011083 0.000817 0.000000 -0.001081 0.000000
# 3 -0.006388 0.000817 0.010776 0.000000 0.000940 0.000000
# 4 0.000000 0.000000 0.000000 0.023852 0.000000 0.001938
# 5 -0.001079 -0.001081 0.000940 0.000000 0.015710 0.000000
# 6 0.000000 0.000000 0.000000 0.001938 0.000000 0.020126
#
#
# Mechanical properties :
#
#
# Convention : Reuss Voigt Hill
#
# Bulk Modulus (GPa) = 37.00047 40.09210 38.54629
# Shear Modulus (GPa) = 42.03093 48.29010 45.16051
#
# Velocity S-wave (km/s) = 3.84874 4.12537 3.98945
# Velocity P-wave (km/s) = 5.72628 6.06804 5.89964
#
# Compressibility (1/GPa) = 0.02702668
#
# Stress axis : x y z
#
# Youngs Moduli (GPa) = 59.57331 90.23136 92.79881
#
# Poissons Ratio (x) = 0.02146 0.59279
# Poissons Ratio (y) = 0.01417 -0.07580
# Poissons Ratio (z) = 0.38055 -0.07370
#
# Static dielectric constant tensor:
#      x y z
#    x 2.306660 0.000000 -0.024770 
#    y 0.000000 2.388130 0.000000 
#    z -0.024770 0.000000 2.200760 
# 
# From -- ./inp_files/8308.got.cif
#   From: 2010.05.17/outbox.cif.g08.bks.cpg/sg4_5_cif.got.tgz:8308.got - 2010.06.03 18:43:04.
