data_PCOD9115745
_publ_section_title
;
Structure prediction by ZEFSAII (Michael W. Deem and Ramdas Pophale) SiO2 
 PCOD9115745
Probable space group: P 21
;
_chemical_formula_sum "Si O2"
_cell_formula_units_Z 16
_cell_length_a 6.834278
_cell_length_b 9.438481
_cell_length_c 14.910234
_cell_angle_alpha 90.000000
_cell_angle_beta 42.050831
_cell_angle_gamma 90.000000
_cell_volume 644.195416
_symmetry_space_group_name_H-M "P 21"
_symmetry_group_IT_number 4
_symmetry_cell_setting 'monoclinic'
loop_
_space_group_symop_operation_xyz
x,y,z
-x,1/2+y,-z
loop_
_atom_site_type_symbol
_atom_site_label
_atom_site_fract_x
_atom_site_fract_y
_atom_site_fract_z
Si Si1 0.557187 0.710920 0.488112
Si Si2 0.948274 0.553024 0.916087
Si Si3 0.350653 0.378818 0.882638
Si Si4 0.435755 0.706908 0.027979
Si Si5 0.286428 0.156042 0.259409
Si Si6 0.252024 0.151304 0.768696
Si Si7 0.211913 0.479217 0.636236
Si Si8 0.663826 0.318603 0.256234
O O1 0.555061 0.704675 0.380895
O O2 0.540246 0.545470 0.523792
O O3 0.351208 0.780079 0.633903
O O4 0.817214 0.829338 0.402720
O O5 0.040625 0.456719 0.967814
O O6 0.084648 0.482261 0.779893
O O7 0.093552 0.710795 0.868639
O O8 0.607562 0.576939 0.017087
O O9 0.551404 0.506519 0.778449
O O10 0.345027 0.240037 0.823579
O O11 0.475921 0.336833 0.936972
O O12 0.583855 0.714041 0.879170
O O13 0.093305 0.679051 0.133133
O O14 0.368793 0.265177 0.308262
O O15 0.959574 0.101788 0.358854
O O16 0.297220 0.984559 0.762486
#
# Coordination Sequence:
#
# PCOD9115745 Si02
#       8
#     2   2   2   2   2   2   2   2
#     4  11  21  45  71 102 141 190 238 299 361 414
#     4   9  22  44  71  98 141 188 230 288 369 420
#     4  11  25  44  72 104 143 193 233 299 355 431
#     4  11  27  43  74 107 144 184 239 297 359 435
#     4  10  25  49  70 104 145 193 242 286 372 433
#     4  12  26  44  71 111 146 184 246 301 354 424
#     4  10  20  44  72  98 140 188 232 298 356 424
#     4  10  24  45  73 102 144 188 238 302 352 425
#
# _framework density 24.837181000000001
#
# number of rings (size 3 to 8) (size 9 to 14) (size 15 to 20)
#    0.000    1.500    2.500    0.750    7.000    1.000 
#    9.000    0.000    0.000    0.000    0.000    0.000 
#    0.000    0.000    0.000    0.000    0.000    0.000 
#
# Total GULP energy -89272.266356 kJ/mol
# GULP energy per Si atom -5579.516647 kJ/mol
# Density = 2.478065 g / cm^3
# Si number density = 24.837181 Si / 1000 Ang^3
#
#
#
# Elastic Constant Matrix: (Units=GPa)
#
#
# Indices 1 2 3 4 5 6 
#
# 1 105.9112 69.1899 29.5066 0.0000 15.9463 0.0000
# 2 69.1899 167.6751 44.1425 0.0000 22.3181 0.0000
# 3 29.5066 44.1425 110.0041 0.0000 16.8240 0.0000
# 4 0.0000 0.0000 0.0000 35.3496 0.0000 15.7978
# 5 15.9463 22.3181 16.8240 0.0000 17.9482 0.0000
# 6 0.0000 0.0000 0.0000 15.7978 0.0000 59.5767
#
#
#
# Elastic Compliance Matrix: (Units=1/GPa)
#
#
# Indices 1 2 3 4 5 6 
#
# 1 0.013535 -0.004617 -0.000953 0.000000 -0.005391 0.000000
# 2 -0.004617 0.009026 -0.001511 0.000000 -0.005706 0.000000
# 3 -0.000953 -0.001511 0.011132 0.000000 -0.007708 0.000000
# 4 0.000000 0.000000 0.000000 0.032092 0.000000 -0.008510
# 5 -0.005391 -0.005706 -0.007708 0.000000 0.074826 0.000000
# 6 0.000000 0.000000 0.000000 -0.008510 0.000000 0.019042
#
#
# Mechanical properties :
#
#
# Convention : Reuss Voigt Hill
#
# Bulk Modulus (GPa) = 51.20173 74.36316 62.78245
# Shear Modulus (GPa) = 27.72770 38.62498 33.17634
#
# Velocity S-wave (km/s) = 3.34485 3.94779 3.65876
# Velocity P-wave (km/s) = 5.96465 7.12638 6.57124
#
# Compressibility (1/GPa) = 0.01953059
#
# Stress axis : x y z
#
# Youngs Moduli (GPa) = 73.88170 110.78896 89.83435
#
# Poissons Ratio (x) = 0.51147 0.08566
# Poissons Ratio (y) = 0.34108 0.13575
# Poissons Ratio (z) = 0.07045 0.16741
#
# Static dielectric constant tensor:
#      x y z
#    x 2.139020 0.000000 -0.129790 
#    y 0.000000 2.026510 0.000000 
#    z -0.129790 0.000000 2.048210 
# 
# From -- ./inp_files/13713.got.cif
#   From: 2010.05.17/outbox.cif.g08.bks.cpg/sg4_7_cif.got.tgz:13713.got - 2010.06.03 18:43:04.
