data_PCOD9115321
_publ_section_title
;
Structure prediction by ZEFSAII (Michael W. Deem and Ramdas Pophale) SiO2 
 PCOD9115321
Probable space group: P 21
;
_chemical_formula_sum "Si O2"
_cell_formula_units_Z 16
_cell_length_a 9.841792
_cell_length_b 5.166578
_cell_length_c 27.720965
_cell_angle_alpha 90.000000
_cell_angle_beta 30.991756
_cell_angle_gamma 90.000000
_cell_volume 725.806475
_symmetry_space_group_name_H-M "P 21"
_symmetry_group_IT_number 4
_symmetry_cell_setting 'monoclinic'
loop_
_space_group_symop_operation_xyz
x,y,z
-x,1/2+y,-z
loop_
_atom_site_type_symbol
_atom_site_label
_atom_site_fract_x
_atom_site_fract_y
_atom_site_fract_z
Si Si1 0.294158 0.276940 0.526461
Si Si2 0.655150 0.941919 0.272952
Si Si3 0.861863 0.717318 0.056401
Si Si4 0.709115 0.454310 0.204551
Si Si5 0.289947 0.911218 0.222168
Si Si6 0.837713 0.914236 0.676283
Si Si7 0.241402 0.513504 0.648686
Si Si8 0.950344 0.479353 0.547020
O O1 0.291439 0.355362 0.583488
O O2 0.594833 0.268072 0.416525
O O3 0.129407 0.005904 0.571016
O O4 0.133641 0.458775 0.538403
O O5 0.785455 0.177132 0.203307
O O6 0.643198 0.958037 0.334148
O O7 0.780251 0.670144 0.221553
O O8 0.353284 0.942735 0.347321
O O9 0.814749 0.569241 0.121756
O O10 0.596938 0.865577 0.118649
O O11 0.944595 0.467651 0.998930
O O12 0.391538 0.447122 0.293265
O O13 0.231416 0.140488 0.278292
O O14 0.073792 0.992338 0.248452
O O15 0.216806 0.634500 0.267094
O O16 0.977108 0.746015 0.510585
#
# Coordination Sequence:
#
# PCOD9115321 Si02
#       8
#     2   2   2   2   2   2   2   2
#     4  11  24  40  64  93 138 195 250 289 325 375
#     4  12  25  42  63  94 141 185 229 277 341 402
#     4  11  22  43  76 111 132 160 220 289 351 424
#     4  11  23  41  68  99 134 172 218 287 342 406
#     4  10  22  40  62  98 137 167 214 276 344 407
#     4  10  20  37  62  92 130 178 225 278 328 373
#     4  11  26  40  63  97 141 193 232 281 336 396
#     4  12  26  43  64  92 133 188 252 301 329 369
#
# _framework density 22.044443000000001
#
# number of rings (size 3 to 8) (size 9 to 14) (size 15 to 20)
#    0.000    1.000    2.500    5.250    3.500    2.000 
#    0.000    0.000    0.000    3.000    0.000    1.750 
#    0.000    0.000    0.000    0.000    0.000    0.000 
#
# Total GULP energy -89191.296294 kJ/mol
# GULP energy per Si atom -5574.456018 kJ/mol
# Density = 2.199427 g / cm^3
# Si number density = 22.044443 Si / 1000 Ang^3
#
#
#
# Elastic Constant Matrix: (Units=GPa)
#
#
# Indices 1 2 3 4 5 6 
#
# 1 94.0458 8.7708 5.1533 0.0000 9.3945 0.0000
# 2 8.7708 73.9605 20.9701 0.0000 0.8958 0.0000
# 3 5.1533 20.9701 47.9481 0.0000 -5.0183 0.0000
# 4 0.0000 0.0000 0.0000 37.8683 0.0000 7.9066
# 5 9.3945 0.8958 -5.0183 0.0000 24.4316 0.0000
# 6 0.0000 0.0000 0.0000 7.9066 0.0000 25.2198
#
#
#
# Elastic Compliance Matrix: (Units=1/GPa)
#
#
# Indices 1 2 3 4 5 6 
#
# 1 0.011244 -0.000914 -0.001285 0.000000 -0.004554 0.000000
# 2 -0.000914 0.015605 -0.006898 0.000000 -0.001638 0.000000
# 3 -0.001285 -0.006898 0.024618 0.000000 0.005804 0.000000
# 4 0.000000 0.000000 0.000000 0.028257 0.000000 -0.008859
# 5 -0.004554 -0.001638 0.005804 0.000000 0.043934 0.000000
# 6 0.000000 0.000000 0.000000 -0.008859 0.000000 0.042429
#
#
# Mechanical properties :
#
#
# Convention : Reuss Voigt Hill
#
# Bulk Modulus (GPa) = 30.05487 31.74920 30.90203
# Shear Modulus (GPa) = 25.59232 29.57462 27.58347
#
# Velocity S-wave (km/s) = 3.41096 3.66675 3.54116
# Velocity P-wave (km/s) = 5.40150 5.68861 5.54691
#
# Compressibility (1/GPa) = 0.03327248
#
# Stress axis : x y z
#
# Youngs Moduli (GPa) = 88.93888 64.08333 40.62026
#
# Poissons Ratio (x) = 0.05856 0.05222
# Poissons Ratio (y) = 0.08127 0.28019
# Poissons Ratio (z) = 0.11433 0.44204
#
# Static dielectric constant tensor:
#      x y z
#    x 1.837170 0.000000 -0.030130 
#    y 0.000000 1.897280 0.000000 
#    z -0.030130 0.000000 1.910780 
# 
# From -- ./inp_files/16075.got.cif
#   From: 2010.05.17/outbox.cif.g08.bks.cpg/sg4_9_cif.got.tgz:16075.got - 2010.06.03 18:43:04.
