data_PCOD9115370
_publ_section_title
;
Structure prediction by ZEFSAII (Michael W. Deem and Ramdas Pophale) SiO2 
 PCOD9115370
Probable space group: P 21
;
_chemical_formula_sum "Si O2"
_cell_formula_units_Z 12
_cell_length_a 8.451696
_cell_length_b 9.472045
_cell_length_c 10.910475
_cell_angle_alpha 90.000000
_cell_angle_beta 32.234114
_cell_angle_gamma 90.000000
_cell_volume 465.873504
_symmetry_space_group_name_H-M "P 21"
_symmetry_group_IT_number 4
_symmetry_cell_setting 'monoclinic'
loop_
_space_group_symop_operation_xyz
x,y,z
-x,1/2+y,-z
loop_
_atom_site_type_symbol
_atom_site_label
_atom_site_fract_x
_atom_site_fract_y
_atom_site_fract_z
Si Si1 0.741762 0.686150 0.630163
Si Si2 0.914461 0.919824 0.338753
Si Si3 0.299660 0.250305 0.709282
Si Si4 0.367501 0.632039 0.323636
Si Si5 0.443552 0.396082 0.068549
Si Si6 0.815921 0.472018 0.376196
O O1 0.553427 0.740595 0.869539
O O2 0.710303 0.540511 0.576869
O O3 0.723398 0.801361 0.534000
O O4 0.077042 0.703908 0.460349
O O5 0.939021 0.864243 0.184320
O O6 0.232561 0.926043 0.195112
O O7 0.749379 0.064074 0.472328
O O8 0.346252 0.218133 0.822626
O O9 0.600557 0.342397 0.484559
O O10 0.210198 0.102535 0.702043
O O11 0.426922 0.509743 0.188757
O O12 0.154434 0.422335 0.176352
#
# Coordination Sequence:
#
# PCOD9115370 Si02
#       6
#     2   2   2   2   2   2
#     4   9  20  38  65  86 121 166 209 252 308 378
#     4  10  22  39  63  91 123 160 210 259 315 365
#     4  11  20  40  61  93 125 167 204 256 325 372
#     4  10  20  38  61  85 125 161 205 252 312 369
#     4  10  21  41  62  94 118 166 217 257 301 381
#     4  10  21  38  64  91 126 168 207 256 319 371
#
# _framework density 25.758063
#
# number of rings (size 3 to 8) (size 9 to 14) (size 15 to 20)
#    0.000    2.000    3.333    0.000    0.000    4.000 
#    3.000    1.667    0.000    0.000    0.000    0.000 
#    0.000    0.000    0.000    0.000    0.000    0.000 
#
# Total GULP energy -66912.625690 kJ/mol
# GULP energy per Si atom -5576.052141 kJ/mol
# Density = 2.569944 g / cm^3
# Si number density = 25.758063 Si / 1000 Ang^3
#
#
#
# Elastic Constant Matrix: (Units=GPa)
#
#
# Indices 1 2 3 4 5 6 
#
# 1 157.8872 48.1180 14.5076 0.0000 -31.9780 0.0000
# 2 48.1180 99.6611 17.7404 0.0000 1.1600 0.0000
# 3 14.5076 17.7404 43.7701 0.0000 -17.2236 0.0000
# 4 0.0000 0.0000 0.0000 23.6916 0.0000 -0.2614
# 5 -31.9780 1.1600 -17.2236 0.0000 30.7517 0.0000
# 6 0.0000 0.0000 0.0000 -0.2614 0.0000 59.7484
#
#
#
# Elastic Compliance Matrix: (Units=1/GPa)
#
#
# Indices 1 2 3 4 5 6 
#
# 1 0.010513 -0.005995 0.004279 0.000000 0.013555 0.000000
# 2 -0.005995 0.014567 -0.008448 0.000000 -0.011516 0.000000
# 3 0.004279 -0.008448 0.034285 0.000000 0.023971 0.000000
# 4 0.000000 0.000000 0.000000 0.042211 0.000000 0.000185
# 5 0.013555 -0.011516 0.023971 0.000000 0.060475 0.000000
# 6 0.000000 0.000000 0.000000 0.000185 0.000000 0.016738
#
#
# Mechanical properties :
#
#
# Convention : Reuss Voigt Hill
#
# Bulk Modulus (GPa) = 25.61713 51.33892 38.47802
# Shear Modulus (GPa) = 23.57059 37.56848 30.56953
#
# Velocity S-wave (km/s) = 3.02830 3.82319 3.44873
# Velocity P-wave (km/s) = 4.71109 6.28200 5.55238
#
# Compressibility (1/GPa) = 0.03903638
#
# Stress axis : x y z
#
# Youngs Moduli (GPa) = 95.12000 68.65032 29.16719
#
# Poissons Ratio (x) = 0.41159 -0.12482
# Poissons Ratio (y) = 0.57028 0.24641
# Poissons Ratio (z) = -0.40706 0.57997
#
# Static dielectric constant tensor:
#      x y z
#    x 2.065770 0.000000 0.066380 
#    y 0.000000 2.086930 0.000000 
#    z 0.066380 0.000000 2.049100 
# 
# From -- ./inp_files/1098.got.cif
#   From: 2010.05.17/outbox.cif.g08.bks.cpg/sg4_1_cif.got.tgz:1098.got - 2010.06.03 18:43:04.
