data_PCOD9115770
_publ_section_title
;
Structure prediction by ZEFSAII (Michael W. Deem and Ramdas Pophale) SiO2 
 PCOD9115770
Probable space group: P 21
;
_chemical_formula_sum "Si O2"
_cell_formula_units_Z 14
_cell_length_a 6.456430
_cell_length_b 9.592057
_cell_length_c 15.718835
_cell_angle_alpha 90.000000
_cell_angle_beta 37.708360
_cell_angle_gamma 90.000000
_cell_volume 595.418321
_symmetry_space_group_name_H-M "P 21"
_symmetry_group_IT_number 4
_symmetry_cell_setting 'monoclinic'
loop_
_space_group_symop_operation_xyz
x,y,z
-x,1/2+y,-z
loop_
_atom_site_type_symbol
_atom_site_label
_atom_site_fract_x
_atom_site_fract_y
_atom_site_fract_z
Si Si1 0.738107 0.002460 0.513859
Si Si2 0.872219 0.910369 0.992085
Si Si3 0.990643 0.410061 0.242430
Si Si4 0.790451 0.600082 0.794280
Si Si5 0.045100 0.399302 0.848517
Si Si6 0.785143 0.277376 0.610952
Si Si7 0.699629 0.194876 0.828072
O O1 0.721411 0.142875 0.574269
O O2 0.992122 0.037146 0.354021
O O3 0.372093 0.951455 0.600377
O O4 0.905158 0.877253 0.513784
O O5 0.063924 0.908923 0.018472
O O6 0.666848 0.764615 0.056231
O O7 0.588344 0.034817 0.087176
O O8 0.071255 0.915650 0.839584
O O9 0.146755 0.264503 0.221500
O O10 0.252645 0.533388 0.173771
O O11 0.951151 0.536440 0.827531
O O12 0.444743 0.368988 0.719983
O O13 0.879358 0.275331 0.847446
O O14 0.854854 0.230165 0.685373
#
# Coordination Sequence:
#
# PCOD9115770 Si02
#       7
#     2   2   2   2   2   2   2
#     4  12  27  44  73 104 138 185 232 289 349 415
#     4  10  23  49  72  99 139 186 230 290 351 403
#     4  12  27  42  71 110 136 181 243 280 344 423
#     4  11  26  45  70 104 141 187 226 290 351 411
#     4  10  20  47  71  90 138 186 225 277 355 404
#     4  11  25  46  68  98 138 184 226 288 347 402
#     4  10  22  47  71  95 138 187 222 284 349 410
#
# _framework density 23.512879000000002
#
# number of rings (size 3 to 8) (size 9 to 14) (size 15 to 20)
#    0.000    1.143    5.714    0.857    8.000    1.143 
#    5.143    0.000    0.000    0.000    0.000    0.000 
#    0.000    0.000    0.000    0.000    0.000    0.000 
#
# Total GULP energy -78377.029393 kJ/mol
# GULP energy per Si atom -5598.359242 kJ/mol
# Density = 2.345936 g / cm^3
# Si number density = 23.512879 Si / 1000 Ang^3
#
#
#
# Elastic Constant Matrix: (Units=GPa)
#
#
# Indices 1 2 3 4 5 6 
#
# 1 103.7474 37.7524 4.2030 0.0000 -5.8418 0.0000
# 2 37.7524 180.1271 4.0769 0.0000 -13.6820 0.0000
# 3 4.2030 4.0769 62.3605 0.0000 -4.8015 0.0000
# 4 0.0000 0.0000 0.0000 24.0346 0.0000 6.5584
# 5 -5.8418 -13.6820 -4.8015 0.0000 31.7499 0.0000
# 6 0.0000 0.0000 0.0000 6.5584 0.0000 6.8738
#
#
#
# Elastic Compliance Matrix: (Units=1/GPa)
#
#
# Indices 1 2 3 4 5 6 
#
# 1 0.010481 -0.002114 -0.000496 0.000000 0.000943 0.000000
# 2 -0.002114 0.006168 -0.000087 0.000000 0.002256 0.000000
# 3 -0.000496 -0.000087 0.016254 0.000000 0.002329 0.000000
# 4 0.000000 0.000000 0.000000 0.056252 0.000000 -0.053671
# 5 0.000943 0.002256 0.002329 0.000000 0.032994 0.000000
# 6 0.000000 0.000000 0.000000 -0.053671 0.000000 0.196689
#
#
# Mechanical properties :
#
#
# Convention : Reuss Voigt Hill
#
# Bulk Modulus (GPa) = 36.35023 48.69998 42.52511
# Shear Modulus (GPa) = 14.99690 32.54516 23.77103
#
# Velocity S-wave (km/s) = 2.52824 3.72444 3.18304
# Velocity P-wave (km/s) = 4.90061 6.26517 5.62442
#
# Compressibility (1/GPa) = 0.02751014
#
# Stress axis : x y z
#
# Youngs Moduli (GPa) = 95.40917 162.12695 61.52245
#
# Poissons Ratio (x) = 0.34272 0.03049
# Poissons Ratio (y) = 0.20169 0.00536
# Poissons Ratio (z) = 0.04729 0.01412
#
# Static dielectric constant tensor:
#      x y z
#    x 1.877360 0.000000 0.028180 
#    y 0.000000 1.891640 0.000000 
#    z 0.028180 0.000000 1.916500 
# 
# From -- ./inp_files/10252.got.cif
#   From: 2010.05.17/outbox.cif.g08.bks.cpg/sg4_6_cif.got.tgz:10252.got - 2010.06.03 18:43:04.
