data_PCOD9115760
_publ_section_title
;
Structure prediction by ZEFSAII (Michael W. Deem and Ramdas Pophale) SiO2 
 PCOD9115760
Probable space group: P 21
;
_chemical_formula_sum "Si O2"
_cell_formula_units_Z 14
_cell_length_a 9.118018
_cell_length_b 8.068971
_cell_length_c 9.662521
_cell_angle_alpha 90.000000
_cell_angle_beta 45.245392
_cell_angle_gamma 90.000000
_cell_volume 504.831154
_symmetry_space_group_name_H-M "P 21"
_symmetry_group_IT_number 4
_symmetry_cell_setting 'monoclinic'
loop_
_space_group_symop_operation_xyz
x,y,z
-x,1/2+y,-z
loop_
_atom_site_type_symbol
_atom_site_label
_atom_site_fract_x
_atom_site_fract_y
_atom_site_fract_z
Si Si1 0.887456 0.815270 0.828297
Si Si2 0.320042 0.726819 0.449752
Si Si3 0.669479 0.224187 0.251225
Si Si4 0.924789 0.883657 0.092360
Si Si5 0.590711 0.042606 0.867883
Si Si6 0.009481 0.675465 0.293905
Si Si7 0.671985 0.578389 0.712839
O O1 0.997590 0.495376 0.230459
O O2 0.170753 0.865893 0.899830
O O3 0.706902 0.877284 0.845594
O O4 0.824670 0.781145 0.028389
O O5 0.074847 0.705693 0.648061
O O6 0.400772 0.578794 0.299471
O O7 0.344239 0.897255 0.348329
O O8 0.810019 0.057738 0.164476
O O9 0.580682 0.245895 0.464403
O O10 0.915495 0.805287 0.251290
O O11 0.501336 0.187002 0.248117
O O12 0.749931 0.181815 0.825434
O O13 0.376775 0.056131 0.092301
O O14 0.884258 0.655272 0.518067
#
# Coordination Sequence:
#
# PCOD9115760 Si02
#       7
#     2   2   2   2   2   2   2
#     4   8  18  38  64  86 129 168 213 277 321 383
#     4  10  24  41  67  99 132 174 229 271 344 402
#     4  11  23  39  70 103 134 178 228 279 332 406
#     4  11  17  40  63 104 128 182 216 274 336 395
#     4  10  20  46  60  91 133 177 213 277 335 397
#     4   9  20  37  67  90 128 174 212 270 338 383
#     4  11  22  45  65  95 136 173 225 288 326 396
#
# _framework density 27.732047000000001
#
# number of rings (size 3 to 8) (size 9 to 14) (size 15 to 20)
#    0.857    1.143    4.286    0.000    2.000    1.143 
#    5.143    0.000    0.000    0.000    0.000    0.000 
#    0.000    0.000    0.000    0.000    0.000    0.000 
#
# Total GULP energy -78293.500303 kJ/mol
# GULP energy per Si atom -5592.392879 kJ/mol
# Density = 2.766893 g / cm^3
# Si number density = 27.732047 Si / 1000 Ang^3
#
#
#
# Elastic Constant Matrix: (Units=GPa)
#
#
# Indices 1 2 3 4 5 6 
#
# 1 86.1523 13.2615 16.6716 0.0000 14.9872 0.0000
# 2 13.2615 76.4325 17.6256 0.0000 3.5139 0.0000
# 3 16.6716 17.6256 167.6571 0.0000 23.5377 0.0000
# 4 0.0000 0.0000 0.0000 38.5553 0.0000 -0.4671
# 5 14.9872 3.5139 23.5377 0.0000 43.8598 0.0000
# 6 0.0000 0.0000 0.0000 -0.4671 0.0000 40.0055
#
#
#
# Elastic Compliance Matrix: (Units=1/GPa)
#
#
# Indices 1 2 3 4 5 6 
#
# 1 0.012679 -0.001902 -0.000513 0.000000 -0.003905 0.000000
# 2 -0.001902 0.013699 -0.001285 0.000000 0.000242 0.000000
# 3 -0.000513 -0.001285 0.006610 0.000000 -0.003269 0.000000
# 4 0.000000 0.000000 0.000000 0.025940 0.000000 0.000303
# 5 -0.003905 0.000242 -0.003269 0.000000 0.025869 0.000000
# 6 0.000000 0.000000 0.000000 0.000303 0.000000 0.025000
#
#
# Mechanical properties :
#
#
# Convention : Reuss Voigt Hill
#
# Bulk Modulus (GPa) = 39.08142 47.26213 43.17178
# Shear Modulus (GPa) = 39.76934 43.32967 41.54951
#
# Velocity S-wave (km/s) = 3.79100 3.95706 3.87492
# Velocity P-wave (km/s) = 5.76935 6.16094 5.96836
#
# Compressibility (1/GPa) = 0.02558760
#
# Stress axis : x y z
#
# Youngs Moduli (GPa) = 78.87284 72.99986 151.29631
#
# Poissons Ratio (x) = 0.13885 0.07755
# Poissons Ratio (y) = 0.15002 0.19441
# Poissons Ratio (z) = 0.04043 0.09380
#
# Static dielectric constant tensor:
#      x y z
#    x 2.185830 0.000000 0.021930 
#    y 0.000000 2.235150 0.000000 
#    z 0.021930 0.000000 2.220560 
# 
# From -- ./inp_files/12088.got.cif
#   From: 2010.05.17/outbox.cif.g08.bks.cpg/sg4_7_cif.got.tgz:12088.got - 2010.06.03 18:43:04.
