data_PCOD9115150
_publ_section_title
;
Structure prediction by ZEFSAII (Michael W. Deem and Ramdas Pophale) SiO2 
 PCOD9115150
Probable space group: P 21
;
_chemical_formula_sum "Si O2"
_cell_formula_units_Z 16
_cell_length_a 17.775768
_cell_length_b 5.002474
_cell_length_c 12.568887
_cell_angle_alpha 90.000000
_cell_angle_beta 45.005520
_cell_angle_gamma 90.000000
_cell_volume 790.381696
_symmetry_space_group_name_H-M "P 21"
_symmetry_group_IT_number 4
_symmetry_cell_setting 'monoclinic'
loop_
_space_group_symop_operation_xyz
x,y,z
-x,1/2+y,-z
loop_
_atom_site_type_symbol
_atom_site_label
_atom_site_fract_x
_atom_site_fract_y
_atom_site_fract_z
Si Si1 0.235769 0.126720 0.951345
Si Si2 0.500296 0.636570 0.657075
Si Si3 0.575209 0.920172 0.912179
Si Si4 0.342644 0.886427 0.657587
Si Si5 0.808623 0.359201 0.371425
Si Si6 0.319989 0.609350 0.988610
Si Si7 0.687171 0.876619 0.577094
Si Si8 0.012621 0.170237 0.062592
O O1 0.243943 0.399818 0.006741
O O2 0.119379 0.088065 0.018484
O O3 0.280127 0.897505 0.987173
O O4 0.311432 0.121555 0.770783
O O5 0.405347 0.693956 0.671831
O O6 0.577233 0.443921 0.517526
O O7 0.582294 0.871656 0.606269
O O8 0.439285 0.554582 0.823699
O O9 0.637876 0.837940 0.742768
O O10 0.662000 0.044669 0.906570
O O11 0.512040 0.657422 0.017781
O O12 0.237032 0.804298 0.702215
O O13 0.767314 0.647353 0.452586
O O14 0.931446 0.294689 0.230563
O O15 0.750782 0.149654 0.505359
O O16 0.029805 0.407470 0.958145
#
# Coordination Sequence:
#
# PCOD9115150 Si02
#       8
#     2   2   2   2   2   2   2   2
#     4  11  24  40  62  93 130 169 216 266 324 383
#     4  10  20  34  54  88 128 174 200 244 306 392
#     4  12  24  42  68  96 128 176 222 276 322 386
#     4  10  20  34  54  88 128 174 200 244 306 392
#     4  11  24  40  62  93 130 169 216 266 324 383
#     4  11  24  40  62  93 130 169 216 266 324 383
#     4  11  24  40  62  93 130 169 216 266 324 383
#     4  12  24  42  68  96 128 176 222 276 322 386
#
# _framework density 20.243385
#
# number of rings (size 3 to 8) (size 9 to 14) (size 15 to 20)
#    0.000    1.000    2.500    4.500    7.000    0.000 
#    0.000    0.000    0.000    3.000    0.000    0.000 
#    0.000    0.000    0.000    0.000    0.000    0.000 
#
# Total GULP energy -89249.295525 kJ/mol
# GULP energy per Si atom -5578.080970 kJ/mol
# Density = 2.019731 g / cm^3
# Si number density = 20.243385 Si / 1000 Ang^3
#
#
#
# Elastic Constant Matrix: (Units=GPa)
#
#
# Indices 1 2 3 4 5 6 
#
# 1 70.9916 8.3561 26.7468 0.0000 -5.6967 0.0000
# 2 8.3561 58.0559 8.3634 0.0000 0.0210 0.0000
# 3 26.7468 8.3634 71.0217 0.0000 5.6119 0.0000
# 4 0.0000 0.0000 0.0000 21.8055 0.0000 -0.0049
# 5 -5.6967 0.0210 5.6119 0.0000 10.9703 0.0000
# 6 0.0000 0.0000 0.0000 -0.0049 0.0000 21.7943
#
#
#
# Elastic Compliance Matrix: (Units=1/GPa)
#
#
# Indices 1 2 3 4 5 6 
#
# 1 0.018271 -0.001516 -0.007766 0.000000 0.013463 0.000000
# 2 -0.001516 0.017660 -0.001505 0.000000 -0.000051 0.000000
# 3 -0.007766 -0.001505 0.018238 0.000000 -0.013360 0.000000
# 4 0.000000 0.000000 0.000000 0.045860 0.000000 0.000010
# 5 0.013463 -0.000051 -0.013360 0.000000 0.104981 0.000000
# 6 0.000000 0.000000 0.000000 0.000010 0.000000 0.045883
#
#
# Mechanical properties :
#
#
# Convention : Reuss Voigt Hill
#
# Bulk Modulus (GPa) = 30.67952 31.88909 31.28431
# Shear Modulus (GPa) = 17.64721 21.35424 19.50072
#
# Velocity S-wave (km/s) = 2.95575 3.25141 3.10710
# Velocity P-wave (km/s) = 5.18043 5.46650 5.32538
#
# Compressibility (1/GPa) = 0.03259504
#
# Stress axis : x y z
#
# Youngs Moduli (GPa) = 54.73175 56.62602 54.83124
#
# Poissons Ratio (x) = 0.08584 0.42583
# Poissons Ratio (y) = 0.08296 0.08250
# Poissons Ratio (z) = 0.42506 0.08520
#
# Static dielectric constant tensor:
#      x y z
#    x 1.767390 0.000000 0.000030 
#    y 0.000000 1.768150 0.000000 
#    z 0.000030 0.000000 1.767220 
# 
# From -- ./inp_files/12731.got.cif
#   From: 2010.05.17/outbox.cif.g08.bks.cpg/sg4_7_cif.got.tgz:12731.got - 2010.06.03 18:43:04.
