data_PCOD9115270
_publ_section_title
;
Structure prediction by ZEFSAII (Michael W. Deem and Ramdas Pophale) SiO2 
 PCOD9115270
Probable space group: P 21
;
_chemical_formula_sum "Si O2"
_cell_formula_units_Z 16
_cell_length_a 9.394231
_cell_length_b 17.634370
_cell_length_c 9.354642
_cell_angle_alpha 90.000000
_cell_angle_beta 147.509361
_cell_angle_gamma 90.000000
_cell_volume 832.441039
_symmetry_space_group_name_H-M "P 21"
_symmetry_group_IT_number 4
_symmetry_cell_setting 'monoclinic'
loop_
_space_group_symop_operation_xyz
x,y,z
-x,1/2+y,-z
loop_
_atom_site_type_symbol
_atom_site_label
_atom_site_fract_x
_atom_site_fract_y
_atom_site_fract_z
Si Si1 0.035786 0.511600 0.285905
Si Si2 0.743478 0.073616 0.261575
Si Si3 0.519358 0.532497 0.519928
Si Si4 0.935498 0.754441 0.946650
Si Si5 0.237362 0.891928 0.111627
Si Si6 0.506106 0.738985 0.337024
Si Si7 0.652475 0.591710 0.320151
Si Si8 0.657993 0.643764 0.895443
O O1 0.220486 0.511022 0.582009
O O2 0.209455 0.522203 0.290157
O O3 0.868552 0.436776 0.115491
O O4 0.857725 0.586891 0.145609
O O5 0.607177 0.142929 0.234683
O O6 0.035671 0.087020 0.447929
O O7 0.538030 0.055723 0.961294
O O8 0.648347 0.454731 0.685239
O O9 0.592596 0.553923 0.422437
O O10 0.604976 0.599030 0.702056
O O11 0.745050 0.737631 0.651654
O O12 0.791776 0.722223 0.964510
O O13 0.008812 0.843055 0.997355
O O14 0.223874 0.715220 0.170337
O O15 0.447111 0.826407 0.248152
O O16 0.568932 0.679906 0.266322
#
# Coordination Sequence:
#
# PCOD9115270 Si02
#       8
#     2   2   2   2   2   2   2   2
#     4  10  20  42  63  98 123 174 211 266 314 388
#     4  11  25  38  61  96 134 165 206 261 326 380
#     4  10  21  36  69  96 122 161 223 266 311 369
#     4  10  20  36  63  99 120 157 206 276 311 366
#     4   9  22  36  66 100 125 161 217 271 326 372
#     4  10  21  37  61  99 126 158 206 275 320 365
#     4  12  23  40  63 102 128 165 214 272 313 375
#     4  10  20  39  64  96 124 165 209 265 315 377
#
# _framework density 19.220580999999999
#
# number of rings (size 3 to 8) (size 9 to 14) (size 15 to 20)
#    0.750    1.000    2.500    2.250    5.250    0.000 
#    0.000    0.000    0.000   10.500    0.000    0.000 
#    0.000    0.000    0.000    0.000    0.000    0.000 
#
# Total GULP energy -89130.240493 kJ/mol
# GULP energy per Si atom -5570.640031 kJ/mol
# Density = 1.917683 g / cm^3
# Si number density = 19.220581 Si / 1000 Ang^3
#
#
#
# Elastic Constant Matrix: (Units=GPa)
#
#
# Indices 1 2 3 4 5 6 
#
# 1 116.4632 13.3817 43.1180 0.0000 9.4135 0.0000
# 2 13.3817 72.5333 19.8289 0.0000 -0.2971 0.0000
# 3 43.1180 19.8289 101.2323 0.0000 5.3920 0.0000
# 4 0.0000 0.0000 0.0000 12.9431 0.0000 5.4650
# 5 9.4135 -0.2971 5.3920 0.0000 33.3601 0.0000
# 6 0.0000 0.0000 0.0000 5.4650 0.0000 14.2127
#
#
#
# Elastic Compliance Matrix: (Units=1/GPa)
#
#
# Indices 1 2 3 4 5 6 
#
# 1 0.010398 -0.000792 -0.004153 0.000000 -0.002270 0.000000
# 2 -0.000792 0.014639 -0.002571 0.000000 0.000770 0.000000
# 3 -0.004153 -0.002571 0.012194 0.000000 -0.000822 0.000000
# 4 0.000000 0.000000 0.000000 0.092236 0.000000 -0.035466
# 5 -0.002270 0.000770 -0.000822 0.000000 0.030756 0.000000
# 6 0.000000 0.000000 0.000000 -0.035466 0.000000 0.083997
#
#
# Mechanical properties :
#
#
# Convention : Reuss Voigt Hill
#
# Bulk Modulus (GPa) = 45.04608 49.20956 47.12782
# Shear Modulus (GPa) = 18.75091 26.36319 22.55705
#
# Velocity S-wave (km/s) = 3.12679 3.70755 3.42948
# Velocity P-wave (km/s) = 6.04343 6.63219 6.34464
#
# Compressibility (1/GPa) = 0.02219949
#
# Stress axis : x y z
#
# Youngs Moduli (GPa) = 96.16808 68.31098 82.00432
#
# Poissons Ratio (x) = 0.05413 0.34056
# Poissons Ratio (y) = 0.07620 0.21082
# Poissons Ratio (z) = 0.39938 0.17562
#
# Static dielectric constant tensor:
#      x y z
#    x 1.688810 0.000000 0.026470 
#    y 0.000000 1.692590 0.000000 
#    z 0.026470 0.000000 1.727530 
# 
# From -- ./inp_files/6811.got.cif
#   From: 2010.05.17/outbox.cif.g08.bks.cpg/sg4_4_cif.got.tgz:6811.got - 2010.06.03 18:43:04.
