data_PCOD9115626
_publ_section_title
;
Structure prediction by ZEFSAII (Michael W. Deem and Ramdas Pophale) SiO2 
 PCOD9115626
Probable space group: P 21
;
_chemical_formula_sum "Si O2"
_cell_formula_units_Z 14
_cell_length_a 11.243365
_cell_length_b 11.513195
_cell_length_c 7.298342
_cell_angle_alpha 90.000000
_cell_angle_beta 140.535917
_cell_angle_gamma 90.000000
_cell_volume 600.477078
_symmetry_space_group_name_H-M "P 21"
_symmetry_group_IT_number 4
_symmetry_cell_setting 'monoclinic'
loop_
_space_group_symop_operation_xyz
x,y,z
-x,1/2+y,-z
loop_
_atom_site_type_symbol
_atom_site_label
_atom_site_fract_x
_atom_site_fract_y
_atom_site_fract_z
Si Si1 0.226999 0.640540 0.302213
Si Si2 0.488013 0.719230 0.172978
Si Si3 0.394731 0.228916 0.112300
Si Si4 0.899335 0.290856 0.169251
Si Si5 0.289902 0.480522 0.901283
Si Si6 0.017568 0.132652 0.622081
Si Si7 0.756643 0.903234 0.554831
O O1 0.424756 0.705295 0.550333
O O2 0.115727 0.652843 0.361921
O O3 0.263831 0.504026 0.323945
O O4 0.110306 0.695034 0.001115
O O5 0.666770 0.777629 0.482696
O O6 0.532841 0.718173 0.010778
O O7 0.312542 0.802454 0.014071
O O8 0.416450 0.587810 0.123087
O O9 0.317712 0.360209 0.040032
O O10 0.231253 0.133346 0.940277
O O11 0.009578 0.242721 0.475453
O O12 0.022923 0.391769 0.229258
O O13 0.080154 0.532980 0.619636
O O14 0.340757 0.449673 0.748692
#
# Coordination Sequence:
#
# PCOD9115626 Si02
#       7
#     2   2   2   2   2   2   2
#     4  11  25  45  63 102 132 171 228 267 334 402
#     4  10  20  41  67  95 125 177 217 269 339 385
#     4  11  20  42  67  96 131 171 219 277 323 397
#     4  11  22  43  65  93 136 169 218 273 325 395
#     4   9  19  38  65  96 126 164 227 256 331 393
#     4  10  21  43  66  93 129 170 223 267 325 393
#     4  10  21  42  65  95 137 170 220 279 329 395
#
# _framework density 23.314795
#
# number of rings (size 3 to 8) (size 9 to 14) (size 15 to 20)
#    0.000    1.714    7.143    0.000    0.000    3.429 
#   15.429    0.000    0.000    0.000    0.000    0.000 
#    0.000    0.000    0.000    0.000    0.000    0.000 
#
# Total GULP energy -78114.601149 kJ/mol
# GULP energy per Si atom -5579.614368 kJ/mol
# Density = 2.326173 g / cm^3
# Si number density = 23.314795 Si / 1000 Ang^3
#
#
#
# Elastic Constant Matrix: (Units=GPa)
#
#
# Indices 1 2 3 4 5 6 
#
# 1 77.6248 31.6383 41.1689 0.0000 9.7590 0.0000
# 2 31.6383 124.2519 43.4839 0.0000 11.3647 0.0000
# 3 41.1689 43.4839 85.3061 0.0000 16.9705 0.0000
# 4 0.0000 0.0000 0.0000 50.7090 0.0000 4.1170
# 5 9.7590 11.3647 16.9705 0.0000 37.9730 0.0000
# 6 0.0000 0.0000 0.0000 4.1170 0.0000 35.9229
#
#
#
# Elastic Compliance Matrix: (Units=1/GPa)
#
#
# Indices 1 2 3 4 5 6 
#
# 1 0.017669 -0.001826 -0.007465 0.000000 -0.000658 0.000000
# 2 -0.001826 0.010005 -0.004079 0.000000 -0.000702 0.000000
# 3 -0.007465 -0.004079 0.018417 0.000000 -0.005092 0.000000
# 4 0.000000 0.000000 0.000000 0.019906 0.000000 -0.002281
# 5 -0.000658 -0.000702 -0.005092 0.000000 0.028989 0.000000
# 6 0.000000 0.000000 0.000000 -0.002281 0.000000 0.028099
#
#
# Mechanical properties :
#
#
# Convention : Reuss Voigt Hill
#
# Bulk Modulus (GPa) = 51.67870 57.75166 54.71518
# Shear Modulus (GPa) = 31.99484 36.31375 34.15429
#
# Velocity S-wave (km/s) = 3.70847 3.95085 3.83158
# Velocity P-wave (km/s) = 6.36795 6.75548 6.56457
#
# Compressibility (1/GPa) = 0.01935033
#
# Stress axis : x y z
#
# Youngs Moduli (GPa) = 56.59709 99.95135 54.29694
#
# Poissons Ratio (x) = 0.18254 0.40533
# Poissons Ratio (y) = 0.10336 0.22147
# Poissons Ratio (z) = 0.42251 0.40769
#
# Static dielectric constant tensor:
#      x y z
#    x 1.903130 0.000000 0.011610 
#    y 0.000000 1.957440 0.000000 
#    z 0.011610 0.000000 1.855000 
# 
# From -- ./inp_files/8456.got.cif
#   From: 2010.05.17/outbox.cif.g08.bks.cpg/sg4_5_cif.got.tgz:8456.got - 2010.06.03 18:43:04.
