data_PCOD9115783
_publ_section_title
;
Structure prediction by ZEFSAII (Michael W. Deem and Ramdas Pophale) SiO2 
 PCOD9115783
Probable space group: P 21
;
_chemical_formula_sum "Si O2"
_cell_formula_units_Z 16
_cell_length_a 17.705833
_cell_length_b 5.250509
_cell_length_c 11.662013
_cell_angle_alpha 90.000000
_cell_angle_beta 37.071195
_cell_angle_gamma 90.000000
_cell_volume 653.536022
_symmetry_space_group_name_H-M "P 21"
_symmetry_group_IT_number 4
_symmetry_cell_setting 'monoclinic'
loop_
_space_group_symop_operation_xyz
x,y,z
-x,1/2+y,-z
loop_
_atom_site_type_symbol
_atom_site_label
_atom_site_fract_x
_atom_site_fract_y
_atom_site_fract_z
Si Si1 0.394092 0.390690 0.184467
Si Si2 0.349619 0.864300 0.752358
Si Si3 0.038413 0.018452 0.660386
Si Si4 0.231494 0.514441 0.056415
Si Si5 0.719035 0.540175 0.513287
Si Si6 0.140143 0.540968 0.427622
Si Si7 0.475014 0.256008 0.834498
Si Si8 0.348918 0.361717 0.609442
O O1 0.325405 0.137048 0.307679
O O2 0.274891 0.577331 0.327254
O O3 0.494902 0.473215 0.156657
O O4 0.448847 0.382004 0.991444
O O5 0.316793 0.627248 0.708110
O O6 0.499807 0.863716 0.587238
O O7 0.314699 0.124532 0.732929
O O8 0.283441 0.786583 0.951032
O O9 0.067868 0.802495 0.530855
O O10 0.893727 0.976531 0.866335
O O11 0.137232 0.965354 0.643306
O O12 0.067499 0.300491 0.572726
O O13 0.179213 0.501797 0.248975
O O14 0.354083 0.332166 0.907992
O O15 0.602159 0.358658 0.621219
O O16 0.712376 0.782174 0.436362
#
# Coordination Sequence:
#
# PCOD9115783 Si02
#       8
#     2   2   2   2   2   2   2   2
#     4  10  21  34  59  96 129 161 213 261 306 381
#     4  10  23  42  61  91 122 154 214 269 312 371
#     4  11  24  43  62  96 132 170 209 249 310 397
#     4  11  24  41  64  95 127 172 209 263 318 369
#     4  11  22  39  63  87 125 170 202 258 325 368
#     4  10  23  41  64  91 136 172 206 247 311 390
#     4  11  20  37  58  95 127 162 209 259 312 378
#     4  10  23  41  63  89 120 161 208 266 324 362
#
# _framework density 24.482202999999998
#
# number of rings (size 3 to 8) (size 9 to 14) (size 15 to 20)
#    0.000    1.500    3.750    0.750    1.750    3.000 
#    2.250    1.250    0.000    0.000    0.000    0.000 
#    0.000    0.000    0.000    0.000    0.000    0.000 
#
# Total GULP energy -89376.977630 kJ/mol
# GULP energy per Si atom -5586.061102 kJ/mol
# Density = 2.442648 g / cm^3
# Si number density = 24.482203 Si / 1000 Ang^3
#
#
#
# Elastic Constant Matrix: (Units=GPa)
#
#
# Indices 1 2 3 4 5 6 
#
# 1 125.2214 27.5702 55.7520 0.0000 -27.9622 0.0000
# 2 27.5702 100.9048 21.7206 0.0000 -5.2733 0.0000
# 3 55.7520 21.7206 77.5655 0.0000 -20.9271 0.0000
# 4 0.0000 0.0000 0.0000 32.8783 0.0000 7.9778
# 5 -27.9622 -5.2733 -20.9271 0.0000 43.6546 0.0000
# 6 0.0000 0.0000 0.0000 7.9778 0.0000 26.9275
#
#
#
# Elastic Compliance Matrix: (Units=1/GPa)
#
#
# Indices 1 2 3 4 5 6 
#
# 1 0.012627 -0.001619 -0.007458 0.000000 0.004317 0.000000
# 2 -0.001619 0.010755 -0.002041 0.000000 -0.000716 0.000000
# 3 -0.007458 -0.002041 0.020064 0.000000 0.004595 0.000000
# 4 0.000000 0.000000 0.000000 0.032771 0.000000 -0.009709
# 5 0.004317 -0.000716 0.004595 0.000000 0.027789 0.000000
# 6 0.000000 0.000000 0.000000 -0.009709 0.000000 0.040013
#
#
# Mechanical properties :
#
#
# Convention : Reuss Voigt Hill
#
# Bulk Modulus (GPa) = 47.14835 57.08636 52.11736
# Shear Modulus (GPa) = 28.84778 33.93534 31.39156
#
# Velocity S-wave (km/s) = 3.43639 3.72711 3.58469
# Velocity P-wave (km/s) = 5.91988 6.47224 6.20221
#
# Compressibility (1/GPa) = 0.02120965
#
# Stress axis : x y z
#
# Youngs Moduli (GPa) = 79.19745 92.98307 49.84081
#
# Poissons Ratio (x) = 0.15054 0.37169
# Poissons Ratio (y) = 0.12823 0.10173
# Poissons Ratio (z) = 0.59062 0.18980
#
# Static dielectric constant tensor:
#      x y z
#    x 2.014490 0.000000 -0.014830 
#    y 0.000000 2.009380 0.000000 
#    z -0.014830 0.000000 1.917100 
# 
# From -- ./inp_files/12852.got.cif
#   From: 2010.05.17/outbox.cif.g08.bks.cpg/sg4_7_cif.got.tgz:12852.got - 2010.06.03 18:43:04.
