data_PCOD9115831
_publ_section_title
;
Structure prediction by ZEFSAII (Michael W. Deem and Ramdas Pophale) SiO2 
 PCOD9115831
Probable space group: P 21
;
_chemical_formula_sum "Si O2"
_cell_formula_units_Z 16
_cell_length_a 11.998184
_cell_length_b 6.893238
_cell_length_c 10.814681
_cell_angle_alpha 90.000000
_cell_angle_beta 48.807019
_cell_angle_gamma 90.000000
_cell_volume 673.064163
_symmetry_space_group_name_H-M "P 21"
_symmetry_group_IT_number 4
_symmetry_cell_setting 'monoclinic'
loop_
_space_group_symop_operation_xyz
x,y,z
-x,1/2+y,-z
loop_
_atom_site_type_symbol
_atom_site_label
_atom_site_fract_x
_atom_site_fract_y
_atom_site_fract_z
Si Si1 0.069698 0.588110 0.153462
Si Si2 0.420569 0.104582 0.712312
Si Si3 0.489429 0.158832 0.378518
Si Si4 0.805849 0.756641 0.485043
Si Si5 0.263405 0.710888 0.501616
Si Si6 0.103096 0.149768 0.067415
Si Si7 0.200050 0.645501 0.820786
Si Si8 0.056601 0.295505 0.349160
O O1 0.124135 0.499228 0.246061
O O2 0.914595 0.681256 0.299489
O O3 0.064555 0.380463 0.089535
O O4 0.158424 0.717762 0.990548
O O5 0.426603 0.151805 0.562716
O O6 0.563837 0.220319 0.662176
O O7 0.260583 0.129301 0.889276
O O8 0.456735 0.875024 0.695302
O O9 0.343946 0.129392 0.402503
O O10 0.643020 0.038006 0.266670
O O11 0.887968 0.756108 0.555875
O O12 0.766227 0.978792 0.483774
O O13 0.247678 0.761745 0.660114
O O14 0.122596 0.802760 0.533830
O O15 0.105000 0.127969 0.215375
O O16 0.956502 0.061623 0.113562
#
# Coordination Sequence:
#
# PCOD9115831 Si02
#       8
#     2   2   2   2   2   2   2   2
#     4  10  23  36  63  88 116 163 194 259 296 363
#     4  10  21  38  59  89 124 156 202 251 316 357
#     4  10  24  35  62  90 124 164 194 259 305 369
#     4  11  21  39  61  87 119 161 208 246 299 370
#     4   9  21  36  62  88 119 158 195 257 307 358
#     4   9  22  36  61  85 123 157 197 256 302 357
#     4  10  21  37  56  94 122 149 207 243 321 354
#     4   9  21  41  58  87 117 162 207 245 302 360
#
# _framework density 23.771878000000001
#
# number of rings (size 3 to 8) (size 9 to 14) (size 15 to 20)
#    0.750    1.500    0.000    1.500   10.500    1.000 
#    0.000    3.750    0.000    0.000    0.000    0.000 
#    0.000    0.000    0.000    0.000    0.000    0.000 
#
# Total GULP energy -89088.598736 kJ/mol
# GULP energy per Si atom -5568.037421 kJ/mol
# Density = 2.371777 g / cm^3
# Si number density = 23.771878 Si / 1000 Ang^3
#
#
#
# Elastic Constant Matrix: (Units=GPa)
#
#
# Indices 1 2 3 4 5 6 
#
# 1 161.2632 25.3059 104.0916 0.0000 -30.4074 0.0000
# 2 25.3059 63.5857 34.1051 0.0000 -6.0560 0.0000
# 3 104.0916 34.1051 203.3416 0.0000 -40.6201 0.0000
# 4 0.0000 0.0000 0.0000 36.4450 0.0000 -7.3556
# 5 -30.4074 -6.0560 -40.6201 0.0000 37.7132 0.0000
# 6 0.0000 0.0000 0.0000 -7.3556 0.0000 30.0166
#
#
#
# Elastic Compliance Matrix: (Units=1/GPa)
#
#
# Indices 1 2 3 4 5 6 
#
# 1 0.009641 -0.001349 -0.004077 0.000000 0.003166 0.000000
# 2 -0.001349 0.017476 -0.002417 0.000000 -0.000885 0.000000
# 3 -0.004077 -0.002417 0.008506 0.000000 0.005487 0.000000
# 4 0.000000 0.000000 0.000000 0.028866 0.000000 0.007074
# 5 0.003166 -0.000885 0.005487 0.000000 0.034836 0.000000
# 6 0.000000 0.000000 0.000000 0.007074 0.000000 0.035048
#
#
# Mechanical properties :
#
#
# Convention : Reuss Voigt Hill
#
# Bulk Modulus (GPa) = 50.15712 83.91064 67.03388
# Shear Modulus (GPa) = 31.90697 38.48080 35.19389
#
# Velocity S-wave (km/s) = 3.66760 4.02774 3.85188
# Velocity P-wave (km/s) = 6.25142 7.55017 6.93128
#
# Compressibility (1/GPa) = 0.01993735
#
# Stress axis : x y z
#
# Youngs Moduli (GPa) = 103.72327 57.22145 117.56150
#
# Poissons Ratio (x) = 0.07718 0.47925
# Poissons Ratio (y) = 0.13991 0.28420
# Poissons Ratio (z) = 0.42284 0.13833
#
# Static dielectric constant tensor:
#      x y z
#    x 1.903220 0.000000 -0.021050 
#    y 0.000000 2.246310 0.000000 
#    z -0.021050 0.000000 1.966940 
# 
# From -- ./inp_files/12100.got.cif
#   From: 2010.05.17/outbox.cif.g08.bks.cpg/sg4_7_cif.got.tgz:12100.got - 2010.06.03 18:43:04.
