data_PCOD9115585
_publ_section_title
;
Structure prediction by ZEFSAII (Michael W. Deem and Ramdas Pophale) SiO2 
 PCOD9115585
Probable space group: P 21
;
_chemical_formula_sum "Si O2"
_cell_formula_units_Z 12
_cell_length_a 5.109752
_cell_length_b 8.519136
_cell_length_c 10.704008
_cell_angle_alpha 90.000000
_cell_angle_beta 98.466970
_cell_angle_gamma 90.000000
_cell_volume 460.874203
_symmetry_space_group_name_H-M "P 21"
_symmetry_group_IT_number 4
_symmetry_cell_setting 'monoclinic'
loop_
_space_group_symop_operation_xyz
x,y,z
-x,1/2+y,-z
loop_
_atom_site_type_symbol
_atom_site_label
_atom_site_fract_x
_atom_site_fract_y
_atom_site_fract_z
Si Si1 0.884068 0.943840 0.179488
Si Si2 0.481577 0.135862 0.043698
Si Si3 0.658798 0.133188 0.476806
Si Si4 0.783395 0.738471 0.741569
Si Si5 0.115839 0.908586 0.918397
Si Si6 0.214218 0.273251 0.595168
O O1 0.875580 0.796127 0.268135
O O2 0.582361 0.998931 0.143048
O O3 0.048021 0.079581 0.261517
O O4 0.979503 0.941267 0.043374
O O5 0.296923 0.238557 0.118183
O O6 0.726452 0.248045 0.039121
O O7 0.329216 0.049756 0.924408
O O8 0.474736 0.221829 0.360086
O O9 0.466181 0.162719 0.583148
O O10 0.947249 0.212576 0.508862
O O11 0.700705 0.949246 0.446580
O O12 0.976468 0.886990 0.772646
#
# Coordination Sequence:
#
# PCOD9115585 Si02
#       6
#     2   2   2   2   2   2
#     4  10  21  42  72 100 140 193 236 290 376 442
#     4  10  20  40  70  98 140 182 240 286 358 442
#     4  12  26  48  81 110 146 198 254 305 370 439
#     4  10  21  42  72 100 140 193 236 290 376 442
#     4  10  22  38  72 106 132 192 236 294 358 448
#     4  12  26  48  81 110 146 198 254 305 370 439
#
# _framework density 26.037472000000001
#
# number of rings (size 3 to 8) (size 9 to 14) (size 15 to 20)
#    0.000    1.333    1.667    4.000    4.667    0.000 
#    0.000    8.333   18.333    0.000    0.000    0.000 
#    0.000    0.000    0.000    0.000    0.000    0.000 
#
# Total GULP energy -66974.596408 kJ/mol
# GULP energy per Si atom -5581.216367 kJ/mol
# Density = 2.597821 g / cm^3
# Si number density = 26.037472 Si / 1000 Ang^3
#
#
#
# Elastic Constant Matrix: (Units=GPa)
#
#
# Indices 1 2 3 4 5 6 
#
# 1 92.5668 17.1728 21.6531 0.0000 5.0225 0.0000
# 2 17.1728 62.6446 32.3822 0.0000 12.2354 0.0000
# 3 21.6531 32.3822 55.0849 0.0000 18.9096 0.0000
# 4 0.0000 0.0000 0.0000 46.9713 0.0000 4.7825
# 5 5.0225 12.2354 18.9096 0.0000 34.1981 0.0000
# 6 0.0000 0.0000 0.0000 4.7825 0.0000 48.9772
#
#
#
# Elastic Compliance Matrix: (Units=1/GPa)
#
#
# Indices 1 2 3 4 5 6 
#
# 1 0.011994 -0.001250 -0.004355 0.000000 0.001094 0.000000
# 2 -0.001250 0.023085 -0.012722 0.000000 -0.001041 0.000000
# 3 -0.004355 -0.012722 0.031551 0.000000 -0.012255 0.000000
# 4 0.000000 0.000000 0.000000 0.021503 0.000000 -0.002100
# 5 0.001094 -0.001041 -0.012255 0.000000 0.036229 0.000000
# 6 0.000000 0.000000 0.000000 -0.002100 0.000000 0.020623
#
#
# Mechanical properties :
#
#
# Convention : Reuss Voigt Hill
#
# Bulk Modulus (GPa) = 33.36026 39.19027 36.27527
# Shear Modulus (GPa) = 26.09137 35.30188 30.69662
#
# Velocity S-wave (km/s) = 3.16898 3.68613 3.43729
# Velocity P-wave (km/s) = 5.12154 5.76202 5.45119
#
# Compressibility (1/GPa) = 0.02997578
#
# Stress axis : x y z
#
# Youngs Moduli (GPa) = 83.37216 43.31731 31.69431
#
# Poissons Ratio (x) = 0.05416 0.13804
# Poissons Ratio (y) = 0.10424 0.40322
# Poissons Ratio (z) = 0.36312 0.55108
#
# Static dielectric constant tensor:
#      x y z
#    x 2.128940 0.000000 -0.035060 
#    y 0.000000 2.078500 0.000000 
#    z -0.035060 0.000000 2.132010 
# 
# From -- ./inp_files/2599.got.cif
#   From: 2010.05.17/outbox.cif.g08.bks.cpg/sg4_2_cif.got.tgz:2599.got - 2010.06.03 18:43:04.
