data_PCOD9115114
_publ_section_title
;
Structure prediction by ZEFSAII (Michael W. Deem and Ramdas Pophale) SiO2 
 PCOD9115114
Probable space group: P 21
;
_chemical_formula_sum "Si O2"
_cell_formula_units_Z 16
_cell_length_a 12.867741
_cell_length_b 5.348671
_cell_length_c 11.687741
_cell_angle_alpha 90.000000
_cell_angle_beta 128.715008
_cell_angle_gamma 90.000000
_cell_volume 627.656159
_symmetry_space_group_name_H-M "P 21"
_symmetry_group_IT_number 4
_symmetry_cell_setting 'monoclinic'
loop_
_space_group_symop_operation_xyz
x,y,z
-x,1/2+y,-z
loop_
_atom_site_type_symbol
_atom_site_label
_atom_site_fract_x
_atom_site_fract_y
_atom_site_fract_z
Si Si1 0.574140 0.404430 0.122113
Si Si2 0.257054 0.038716 0.991430
Si Si3 0.556644 0.698502 0.682078
Si Si4 0.340615 0.392517 0.787853
Si Si5 0.938494 0.749772 0.313127
Si Si6 0.088913 0.250793 0.381054
Si Si7 0.034105 0.765975 0.953675
Si Si8 0.613321 0.700129 0.465556
O O1 0.587305 0.648296 0.208430
O O2 0.372396 0.669014 0.771486
O O3 0.426020 0.400306 0.968266
O O4 0.352951 0.187113 0.142604
O O5 0.329629 0.931908 0.925586
O O6 0.136559 0.209747 0.860338
O O7 0.185672 0.821146 0.015684
O O8 0.639838 0.708720 0.621448
O O9 0.481994 0.433101 0.626048
O O10 0.457023 0.933759 0.604603
O O11 0.187769 0.326059 0.697048
O O12 0.010459 0.485006 0.383123
O O13 0.037811 0.980370 0.385216
O O14 0.246569 0.259612 0.497529
O O15 0.049105 0.262409 0.220520
O O16 0.988238 0.006927 0.995660
#
# Coordination Sequence:
#
# PCOD9115114 Si02
#       8
#     2   2   2   2   2   2   2   2
#     4   9  18  29  50  72 108 139 160 201 244 314
#     4  10  21  35  52  80 106 133 172 210 261 304
#     4  10  22  36  54  70 100 137 178 224 249 290
#     4   9  16  31  47  76 108 137 161 189 255 315
#     4  10  20  32  54  80 107 131 159 209 260 315
#     4  11  21  35  52  73 102 135 175 210 247 308
#     4  11  22  32  48  74 105 137 164 209 264 309
#     4  10  22  38  51  71  96 141 185 214 252 287
#
# _framework density 25.491664
#
# number of rings (size 3 to 8) (size 9 to 14) (size 15 to 20)
#    0.000    2.000    0.000    5.250    0.000    9.000 
#    0.000    0.000    0.000    0.000    0.000    3.500 
#    0.000    0.000    0.000    0.000    0.000    0.000 
#
# Total GULP energy -89544.497679 kJ/mol
# GULP energy per Si atom -5596.531105 kJ/mol
# Density = 2.543364 g / cm^3
# Si number density = 25.491664 Si / 1000 Ang^3
#
#
#
# Elastic Constant Matrix: (Units=GPa)
#
#
# Indices 1 2 3 4 5 6 
#
# 1 117.3252 20.6994 26.6729 0.0000 -9.1391 0.0000
# 2 20.6994 177.0499 8.5482 0.0000 -4.2822 0.0000
# 3 26.6729 8.5482 100.9015 0.0000 -6.4137 0.0000
# 4 0.0000 0.0000 0.0000 8.8003 0.0000 21.7886
# 5 -9.1391 -4.2822 -6.4137 0.0000 52.4566 0.0000
# 6 0.0000 0.0000 0.0000 21.7886 0.0000 28.5453
#
#
#
# Elastic Compliance Matrix: (Units=1/GPa)
#
#
# Indices 1 2 3 4 5 6 
#
# 1 0.009312 -0.000947 -0.002301 0.000000 0.001264 0.000000
# 2 -0.000947 0.005776 -0.000221 0.000000 0.000279 0.000000
# 3 -0.002301 -0.000221 0.010593 0.000000 0.000876 0.000000
# 4 0.000000 0.000000 0.000000 -0.127699 0.000000 0.097472
# 5 0.001264 0.000279 0.000876 0.000000 0.019414 0.000000
# 6 0.000000 0.000000 0.000000 0.097472 0.000000 -0.039369
#
#
# Mechanical properties :
#
#
# Convention : Reuss Voigt Hill
#
# Bulk Modulus (GPa) = 53.35322 56.34640 54.84981
# Shear Modulus (GPa) = -45.96180 40.58418 -2.68881
#
# Velocity S-wave (km/s) = -4.25080 3.99439 -1.02814
# Velocity P-wave (km/s) = 1.76557 6.58979 4.48933
#
# Compressibility (1/GPa) = 0.01874301
#
# Stress axis : x y z
#
# Youngs Moduli (GPa) = 107.38891 173.12165 94.39875
#
# Poissons Ratio (x) = 0.16395 0.21721
# Poissons Ratio (y) = 0.10170 0.02089
# Poissons Ratio (z) = 0.24710 0.03830
#
# Static dielectric constant tensor:
#      x y z
#    x 2.074410 0.000000 -0.069100 
#    y 0.000000 2.044940 0.000000 
#    z -0.069100 0.000000 2.030830 
# 
# From -- ./inp_files/14133.got.cif
#   From: 2010.05.17/outbox.cif.g08.bks.cpg/sg4_8_cif.got.tgz:14133.got - 2010.06.03 18:43:04.
