data_PCOD9115025
_publ_section_title
;
Structure prediction by ZEFSAII (Michael W. Deem and Ramdas Pophale) SiO2 
 PCOD9115025
Probable space group: P 21
;
_chemical_formula_sum "Si O2"
_cell_formula_units_Z 12
_cell_length_a 9.556617
_cell_length_b 13.754661
_cell_length_c 5.069356
_cell_angle_alpha 90.000000
_cell_angle_beta 129.797507
_cell_angle_gamma 90.000000
_cell_volume 511.969544
_symmetry_space_group_name_H-M "P 21"
_symmetry_group_IT_number 4
_symmetry_cell_setting 'monoclinic'
loop_
_space_group_symop_operation_xyz
x,y,z
-x,1/2+y,-z
loop_
_atom_site_type_symbol
_atom_site_label
_atom_site_fract_x
_atom_site_fract_y
_atom_site_fract_z
Si Si1 0.001889 0.990680 0.977458
Si Si2 0.531989 0.413546 0.808710
Si Si3 0.902549 0.309574 0.257100
Si Si4 0.033403 0.199273 0.918634
Si Si5 0.335273 0.464259 0.073897
Si Si6 0.359901 0.080403 0.385551
O O1 0.862583 0.976253 0.045151
O O2 0.013066 0.903346 0.787100
O O3 0.959457 0.090619 0.770613
O O4 0.205437 0.011093 0.334225
O O5 0.693349 0.338982 0.055927
O O6 0.378887 0.420805 0.844584
O O7 0.440649 0.396987 0.414868
O O8 0.611283 0.523560 0.857152
O O9 0.991372 0.272665 0.633971
O O10 0.937958 0.229701 0.074510
O O11 0.250024 0.179900 0.223352
O O12 0.448712 0.566285 0.240076
#
# Coordination Sequence:
#
# PCOD9115025 Si02
#       6
#     2   2   2   2   2   2
#     4   9  22  42  66  90 123 166 201 257 302 368
#     4   9  20  36  63  82 126 154 195 251 305 344
#     4  11  22  40  64  90 122 165 206 245 311 366
#     4  10  23  37  65  92 118 165 207 247 306 367
#     4  10  19  39  63  90 116 166 200 244 318 349
#     4   7  20  38  61  84 121 156 195 246 302 344
#
# _framework density 23.438894999999999
#
# number of rings (size 3 to 8) (size 9 to 14) (size 15 to 20)
#    2.000    0.667    0.000    1.000    2.333    4.000 
#    3.000    5.000    0.000    0.000    0.000    0.000 
#    0.000    0.000    0.000    0.000    0.000    0.000 
#
# Total GULP energy -66878.986504 kJ/mol
# GULP energy per Si atom -5573.248875 kJ/mol
# Density = 2.338555 g / cm^3
# Si number density = 23.438895 Si / 1000 Ang^3
#
#
#
# Elastic Constant Matrix: (Units=GPa)
#
#
# Indices 1 2 3 4 5 6 
#
# 1 154.4610 7.6585 11.4235 0.0000 3.4406 0.0000
# 2 7.6585 66.1165 -12.8870 0.0000 8.8943 0.0000
# 3 11.4235 -12.8870 22.9035 0.0000 -9.2760 0.0000
# 4 0.0000 0.0000 0.0000 17.4652 0.0000 -1.3045
# 5 3.4406 8.8943 -9.2760 0.0000 19.1114 0.0000
# 6 0.0000 0.0000 0.0000 -1.3045 0.0000 27.2010
#
#
#
# Elastic Compliance Matrix: (Units=1/GPa)
#
#
# Indices 1 2 3 4 5 6 
#
# 1 0.007043 -0.001476 -0.005699 0.000000 -0.003347 0.000000
# 2 -0.001476 0.017555 0.009227 0.000000 -0.003426 0.000000
# 3 -0.005699 0.009227 0.062697 0.000000 0.027163 0.000000
# 4 0.000000 0.000000 0.000000 0.057462 0.000000 0.002756
# 5 -0.003347 -0.003426 0.027163 0.000000 0.067706 0.000000
# 6 0.000000 0.000000 0.000000 0.002756 0.000000 0.036896
#
#
# Mechanical properties :
#
#
# Convention : Reuss Voigt Hill
#
# Bulk Modulus (GPa) = 10.94135 28.43011 19.68573
# Shear Modulus (GPa) = 18.13414 28.57460 23.35437
#
# Velocity S-wave (km/s) = 2.78452 3.49536 3.15999
# Velocity P-wave (km/s) = 3.87508 5.33347 4.66166
#
# Compressibility (1/GPa) = 0.09139643
#
# Stress axis : x y z
#
# Youngs Moduli (GPa) = 141.97694 56.96359 15.94983
#
# Poissons Ratio (x) = 0.08410 0.09090
# Poissons Ratio (y) = 0.20962 -0.14716
# Poissons Ratio (z) = 0.80918 -0.52558
#
# Static dielectric constant tensor:
#      x y z
#    x 1.867090 0.000000 0.066060 
#    y 0.000000 1.979710 0.000000 
#    z 0.066060 0.000000 1.932280 
# 
# From -- ./inp_files/1554.got.cif
#   From: 2010.05.17/outbox.cif.g08.bks.cpg/sg4_1_cif.got.tgz:1554.got - 2010.06.03 18:43:04.
