data_PCOD9115391
_publ_section_title
;
Structure prediction by ZEFSAII (Michael W. Deem and Ramdas Pophale) SiO2 
 PCOD9115391
Probable space group: P 21
;
_chemical_formula_sum "Si O2"
_cell_formula_units_Z 16
_cell_length_a 11.632457
_cell_length_b 5.161212
_cell_length_c 13.402542
_cell_angle_alpha 90.000000
_cell_angle_beta 125.082916
_cell_angle_gamma 90.000000
_cell_volume 658.467125
_symmetry_space_group_name_H-M "P 21"
_symmetry_group_IT_number 4
_symmetry_cell_setting 'monoclinic'
loop_
_space_group_symop_operation_xyz
x,y,z
-x,1/2+y,-z
loop_
_atom_site_type_symbol
_atom_site_label
_atom_site_fract_x
_atom_site_fract_y
_atom_site_fract_z
Si Si1 0.664793 0.733790 0.546230
Si Si2 0.041552 0.513854 0.965914
Si Si3 0.453611 0.486280 0.327514
Si Si4 0.866363 0.880405 0.323110
Si Si5 0.685531 0.726661 0.892792
Si Si6 0.593769 0.736270 0.053474
Si Si7 0.942201 0.887502 0.594501
Si Si8 0.781486 0.368107 0.753035
O O1 0.575355 0.691926 0.402366
O O2 0.554754 0.820419 0.575991
O O3 0.807048 0.888184 0.599285
O O4 0.721885 0.467477 0.620187
O O5 0.202199 0.452337 0.028956
O O6 0.007306 0.813550 0.969535
O O7 0.947305 0.393033 0.832052
O O8 0.457813 0.332170 0.227938
O O9 0.299192 0.612036 0.257736
O O10 0.714312 0.823515 0.194180
O O11 0.873391 0.877810 0.448604
O O12 0.967063 0.642332 0.345884
O O13 0.949591 0.146647 0.337597
O O14 0.741831 0.554184 0.828231
O O15 0.663788 0.607158 0.989177
O O16 0.483894 0.502716 0.022985
#
# Coordination Sequence:
#
# PCOD9115391 Si02
#       8
#     2   2   2   2   2   2   2   2
#     4  11  24  37  67 100 132 185 222 282 344 407
#     4  10  20  38  62  91 125 172 215 259 324 400
#     4  11  22  42  60  99 142 174 232 274 341 428
#     4  10  24  51  70 106 135 174 248 290 347 423
#     4  10  25  42  66  93 137 181 219 282 342 404
#     4  12  29  48  73 107 137 186 237 291 355 424
#     4  10  24  45  77 100 137 186 228 303 351 395
#     4  10  22  41  61  96 135 174 223 269 336 411
#
# _framework density 24.298857999999999
#
# number of rings (size 3 to 8) (size 9 to 14) (size 15 to 20)
#    0.000    1.500    2.500    0.750    7.000    0.000 
#    4.500    0.000    0.000    0.000    0.000    0.000 
#    0.000    0.000    0.000    0.000    0.000    0.000 
#
# Total GULP energy -89164.062434 kJ/mol
# GULP energy per Si atom -5572.753902 kJ/mol
# Density = 2.424355 g / cm^3
# Si number density = 24.298858 Si / 1000 Ang^3
#
#
#
# Elastic Constant Matrix: (Units=GPa)
#
#
# Indices 1 2 3 4 5 6 
#
# 1 54.2573 -0.4926 21.2481 0.0000 -0.6474 0.0000
# 2 -0.4926 87.7583 22.1980 0.0000 3.4503 0.0000
# 3 21.2481 22.1980 148.0418 0.0000 21.4850 0.0000
# 4 0.0000 0.0000 0.0000 33.4292 0.0000 3.6568
# 5 -0.6474 3.4503 21.4850 0.0000 29.6117 0.0000
# 6 0.0000 0.0000 0.0000 3.6568 0.0000 22.3232
#
#
#
# Elastic Compliance Matrix: (Units=1/GPa)
#
#
# Indices 1 2 3 4 5 6 
#
# 1 0.019792 0.000855 -0.003372 0.000000 0.002780 0.000000
# 2 0.000855 0.011881 -0.001907 0.000000 0.000018 0.000000
# 3 -0.003372 -0.001907 0.008386 0.000000 -0.005936 0.000000
# 4 0.000000 0.000000 0.000000 0.030460 0.000000 -0.004990
# 5 0.002780 0.000018 -0.005936 0.000000 0.038136 0.000000
# 6 0.000000 0.000000 0.000000 -0.004990 0.000000 0.045614
#
#
# Mechanical properties :
#
#
# Convention : Reuss Voigt Hill
#
# Bulk Modulus (GPa) = 32.03973 41.77382 36.90677
# Shear Modulus (GPa) = 28.81476 33.54643 31.18059
#
# Velocity S-wave (km/s) = 3.44735 3.71964 3.58608
# Velocity P-wave (km/s) = 5.39073 5.97299 5.68931
#
# Compressibility (1/GPa) = 0.03121125
#
# Stress axis : x y z
#
# Youngs Moduli (GPa) = 50.52468 84.16558 119.24189
#
# Poissons Ratio (x) = -0.07195 0.40213
# Poissons Ratio (y) = -0.04319 0.22737
# Poissons Ratio (z) = 0.17039 0.16049
#
# Static dielectric constant tensor:
#      x y z
#    x 1.945970 0.000000 0.002340 
#    y 0.000000 2.004480 0.000000 
#    z 0.002340 0.000000 2.057590 
# 
# From -- ./inp_files/11616.got.cif
#   From: 2010.05.17/outbox.cif.g08.bks.cpg/sg4_6_cif.got.tgz:11616.got - 2010.06.03 18:43:04.
