data_PCOD9115299
_publ_section_title
;
Structure prediction by ZEFSAII (Michael W. Deem and Ramdas Pophale) SiO2 
 PCOD9115299
Probable space group: P 21
;
_chemical_formula_sum "Si O2"
_cell_formula_units_Z 16
_cell_length_a 10.397163
_cell_length_b 13.084553
_cell_length_c 8.507097
_cell_angle_alpha 90.000000
_cell_angle_beta 137.232810
_cell_angle_gamma 90.000000
_cell_volume 785.847637
_symmetry_space_group_name_H-M "P 21"
_symmetry_group_IT_number 4
_symmetry_cell_setting 'monoclinic'
loop_
_space_group_symop_operation_xyz
x,y,z
-x,1/2+y,-z
loop_
_atom_site_type_symbol
_atom_site_label
_atom_site_fract_x
_atom_site_fract_y
_atom_site_fract_z
Si Si1 0.788995 0.288620 0.080063
Si Si2 0.254975 0.806926 0.597746
Si Si3 0.424749 0.145580 0.081730
Si Si4 0.727605 0.474629 0.817631
Si Si5 0.453071 0.153679 0.747742
Si Si6 0.875817 0.796215 0.059787
Si Si7 0.449254 0.447569 0.297649
Si Si8 0.090109 0.150354 0.210598
O O1 0.817863 0.312536 0.289007
O O2 0.902826 0.187518 0.131103
O O3 0.829519 0.384822 0.004928
O O4 0.570007 0.257894 0.861839
O O5 0.380407 0.702943 0.693562
O O6 0.403902 0.896441 0.693776
O O7 0.078943 0.812644 0.321185
O O8 0.365363 0.054260 0.142998
O O9 0.440142 0.114198 0.914572
O O10 0.258471 0.230035 0.944984
O O11 0.556671 0.430111 0.558747
O O12 0.867221 0.539409 0.828179
O O13 0.254471 0.167882 0.485049
O O14 0.556292 0.067706 0.736771
O O15 0.752415 0.894959 0.904495
O O16 0.892743 0.727329 0.920162
#
# Coordination Sequence:
#
# PCOD9115299 Si02
#       8
#     2   2   2   2   2   2   2   2
#     4  11  22  38  60  85 116 156 195 239 291 346
#     4  10  21  38  61  86 117 153 192 237 290 347
#     4   9  20  39  59  83 115 150 192 241 287 343
#     4  10  21  39  61  85 117 154 195 241 292 346
#     4  10  21  38  58  83 114 150 194 239 290 344
#     4  10  20  37  59  84 115 152 191 237 290 345
#     4  10  21  36  58  84 114 150 189 240 290 343
#     4  10  22  37  58  86 116 151 192 242 288 342
#
# _framework density 20.360181999999998
#
# number of rings (size 3 to 8) (size 9 to 14) (size 15 to 20)
#    0.000    2.000    0.000    3.000    0.000    7.000 
#    0.000   11.250    0.000    0.000    0.000    0.000 
#    0.000    0.000    0.000    0.000    0.000    0.000 
#
# Total GULP energy -89305.896355 kJ/mol
# GULP energy per Si atom -5581.618522 kJ/mol
# Density = 2.031384 g / cm^3
# Si number density = 20.360182 Si / 1000 Ang^3
#
#
#
# Elastic Constant Matrix: (Units=GPa)
#
#
# Indices 1 2 3 4 5 6 
#
# 1 56.0386 15.3941 39.9713 0.0000 -0.4839 0.0000
# 2 15.3941 46.6034 42.6019 0.0000 4.5226 0.0000
# 3 39.9713 42.6019 119.9112 0.0000 13.3174 0.0000
# 4 0.0000 0.0000 0.0000 25.1595 0.0000 -7.3293
# 5 -0.4839 4.5226 13.3174 0.0000 30.5810 0.0000
# 6 0.0000 0.0000 0.0000 -7.3293 0.0000 28.0152
#
#
#
# Elastic Compliance Matrix: (Units=1/GPa)
#
#
# Indices 1 2 3 4 5 6 
#
# 1 0.023901 -0.000879 -0.008103 0.000000 0.004037 0.000000
# 2 -0.000879 0.031812 -0.011018 0.000000 0.000079 0.000000
# 3 -0.008103 -0.011018 0.015540 0.000000 -0.005266 0.000000
# 4 0.000000 0.000000 0.000000 0.043025 0.000000 0.011256
# 5 0.004037 0.000079 -0.005266 0.000000 0.035045 0.000000
# 6 0.000000 0.000000 0.000000 0.011256 0.000000 0.038640
#
#
# Mechanical properties :
#
#
# Convention : Reuss Voigt Hill
#
# Bulk Modulus (GPa) = 31.99760 46.49866 39.24813
# Shear Modulus (GPa) = 20.97470 25.05687 23.01579
#
# Velocity S-wave (km/s) = 3.21313 3.51191 3.36584
# Velocity P-wave (km/s) = 5.43281 6.27155 5.86719
#
# Compressibility (1/GPa) = 0.03125234
#
# Stress axis : x y z
#
# Youngs Moduli (GPa) = 41.83906 31.43435 64.35060
#
# Poissons Ratio (x) = 0.02765 0.52144
# Poissons Ratio (y) = 0.03680 0.70901
# Poissons Ratio (z) = 0.33903 0.34634
#
# Static dielectric constant tensor:
#      x y z
#    x 1.740270 0.000000 0.009630 
#    y 0.000000 1.746050 0.000000 
#    z 0.009630 0.000000 1.692450 
# 
# From -- ./inp_files/1352.got.cif
#   From: 2010.05.17/outbox.cif.g08.bks.cpg/sg4_1_cif.got.tgz:1352.got - 2010.06.03 18:43:04.
