data_PCOD9115107
_publ_section_title
;
Structure prediction by ZEFSAII (Michael W. Deem and Ramdas Pophale) SiO2 
 PCOD9115107
Probable space group: P 21
;
_chemical_formula_sum "Si O2"
_cell_formula_units_Z 16
_cell_length_a 9.471186
_cell_length_b 5.750221
_cell_length_c 16.846136
_cell_angle_alpha 90.000000
_cell_angle_beta 41.423712
_cell_angle_gamma 90.000000
_cell_volume 607.014831
_symmetry_space_group_name_H-M "P 21"
_symmetry_group_IT_number 4
_symmetry_cell_setting 'monoclinic'
loop_
_space_group_symop_operation_xyz
x,y,z
-x,1/2+y,-z
loop_
_atom_site_type_symbol
_atom_site_label
_atom_site_fract_x
_atom_site_fract_y
_atom_site_fract_z
Si Si1 0.683280 0.190520 0.989863
Si Si2 0.943456 0.666244 0.351704
Si Si3 0.200840 0.284979 0.943093
Si Si4 0.602147 0.031738 0.844417
Si Si5 0.275136 0.673633 0.420450
Si Si6 0.100843 0.491883 0.833112
Si Si7 0.769015 0.669919 0.595891
Si Si8 0.793795 0.169641 0.370733
O O1 0.456691 0.262609 0.124862
O O2 0.774990 0.008321 0.011903
O O3 0.623315 0.103641 0.928084
O O4 0.874732 0.379499 0.898778
O O5 0.178216 0.613097 0.282143
O O6 0.886211 0.433729 0.325272
O O7 0.796723 0.658662 0.489572
O O8 0.927397 0.930788 0.329642
O O9 0.397941 0.134185 0.889232
O O10 0.207658 0.305144 0.845643
O O11 0.979754 0.177236 0.067812
O O12 0.336363 0.426085 0.354049
O O13 0.009019 0.675137 0.533360
O O14 0.338274 0.677064 0.489241
O O15 0.329513 0.913326 0.350638
O O16 0.252423 0.603107 0.702142
#
# Coordination Sequence:
#
# PCOD9115107 Si02
#       8
#     2   2   2   2   2   2   2   2
#     4  11  21  35  50  68  94 131 167 212 249 302
#     4  10  20  32  50  77 103 133 166 206 254 302
#     4  11  23  36  50  69  96 133 173 216 253 300
#     4  11  22  32  51  71  97 130 171 206 257 297
#     4   8  14  26  43  70  99 129 157 194 249 298
#     4  11  22  36  52  69  98 134 175 210 258 296
#     4   8  14  26  44  67 103 129 153 196 249 301
#     4  10  20  31  52  75 102 133 168 208 249 304
#
# _framework density 26.358497
#
# number of rings (size 3 to 8) (size 9 to 14) (size 15 to 20)
#    0.000    2.000    3.750    0.750    3.500    0.000 
#    0.000    0.000    0.000    0.000    0.000    0.000 
#    3.750    0.000    0.000    0.000    0.250    0.000 
#
# Total GULP energy -89126.278084 kJ/mol
# GULP energy per Si atom -5570.392380 kJ/mol
# Density = 2.629850 g / cm^3
# Si number density = 26.358497 Si / 1000 Ang^3
#
#
#
# Elastic Constant Matrix: (Units=GPa)
#
#
# Indices 1 2 3 4 5 6 
#
# 1 85.3776 14.8195 16.7295 0.0000 22.3306 0.0000
# 2 14.8195 129.3631 16.6161 0.0000 0.7939 0.0000
# 3 16.7295 16.6161 39.4630 0.0000 12.0017 0.0000
# 4 0.0000 0.0000 0.0000 23.3883 0.0000 8.0550
# 5 22.3306 0.7939 12.0017 0.0000 42.2996 0.0000
# 6 0.0000 0.0000 0.0000 8.0550 0.0000 17.9035
#
#
#
# Elastic Compliance Matrix: (Units=1/GPa)
#
#
# Indices 1 2 3 4 5 6 
#
# 1 0.014322 -0.001137 -0.003611 0.000000 -0.006515 0.000000
# 2 -0.001137 0.008294 -0.003442 0.000000 0.001421 0.000000
# 3 -0.003611 -0.003442 0.030339 0.000000 -0.006637 0.000000
# 4 0.000000 0.000000 0.000000 0.050596 0.000000 -0.022764
# 5 -0.006515 0.001421 -0.006637 0.000000 0.028936 0.000000
# 6 0.000000 0.000000 0.000000 -0.022764 0.000000 0.066097
#
#
# Mechanical properties :
#
#
# Convention : Reuss Voigt Hill
#
# Bulk Modulus (GPa) = 27.34246 38.94822 33.14534
# Shear Modulus (GPa) = 22.01124 30.45418 26.23271
#
# Velocity S-wave (km/s) = 2.89290 3.40278 3.15815
# Velocity P-wave (km/s) = 4.64266 5.49973 5.08927
#
# Compressibility (1/GPa) = 0.03657316
#
# Stress axis : x y z
#
# Youngs Moduli (GPa) = 69.82502 120.57110 32.96066
#
# Poissons Ratio (x) = 0.13706 0.11903
# Poissons Ratio (y) = 0.07938 0.11347
# Poissons Ratio (z) = 0.25217 0.41507
#
# Static dielectric constant tensor:
#      x y z
#    x 2.174310 0.000000 0.110800 
#    y 0.000000 2.244980 0.000000 
#    z 0.110800 0.000000 2.181080 
# 
# From -- ./inp_files/8658.got.cif
#   From: 2010.05.17/outbox.cif.g08.bks.cpg/sg4_5_cif.got.tgz:8658.got - 2010.06.03 18:43:04.
