data_PCOD9115504
_publ_section_title
;
Structure prediction by ZEFSAII (Michael W. Deem and Ramdas Pophale) SiO2 
 PCOD9115504
Probable space group: P 21
;
_chemical_formula_sum "Si O2"
_cell_formula_units_Z 16
_cell_length_a 15.382734
_cell_length_b 5.319669
_cell_length_c 9.799121
_cell_angle_alpha 90.000000
_cell_angle_beta 60.077408
_cell_angle_gamma 90.000000
_cell_volume 694.982903
_symmetry_space_group_name_H-M "P 21"
_symmetry_group_IT_number 4
_symmetry_cell_setting 'monoclinic'
loop_
_space_group_symop_operation_xyz
x,y,z
-x,1/2+y,-z
loop_
_atom_site_type_symbol
_atom_site_label
_atom_site_fract_x
_atom_site_fract_y
_atom_site_fract_z
Si Si1 0.866928 0.192150 0.344590
Si Si2 0.233288 0.983849 0.820212
Si Si3 0.704492 0.426303 0.679178
Si Si4 0.351237 0.840098 0.991062
Si Si5 0.280965 0.319705 0.542777
Si Si6 0.468186 0.346416 0.849037
Si Si7 0.553320 0.026861 0.435835
Si Si8 0.037722 0.247942 0.046919
O O1 0.828783 0.301023 0.229654
O O2 0.796002 0.308463 0.518462
O O3 0.984991 0.238039 0.237810
O O4 0.834525 0.901534 0.369249
O O5 0.292731 0.845365 0.892840
O O6 0.297106 0.126744 0.654005
O O7 0.155562 0.181080 0.949584
O O8 0.694871 0.705126 0.621892
O O9 0.588670 0.336515 0.755955
O O10 0.723501 0.384933 0.823644
O O11 0.416767 0.588396 0.960198
O O12 0.422168 0.084870 0.933163
O O13 0.351205 0.544174 0.539611
O O14 0.434785 0.398549 0.719868
O O15 0.487778 0.806094 0.558575
O O16 0.012371 0.514873 0.998079
#
# Coordination Sequence:
#
# PCOD9115504 Si02
#       8
#     2   2   2   2   2   2   2   2
#     4  10  22  40  67  94 126 163 214 267 325 375
#     4  10  22  40  65  98 124 163 211 269 315 382
#     4  11  26  41  63  90 132 176 215 260 318 390
#     4  12  27  43  64  92 133 175 218 257 321 379
#     4  11  21  37  63  90 123 160 206 265 312 369
#     4  12  25  43  63  90 130 177 218 261 310 385
#     4  12  23  37  60  93 125 156 206 266 311 360
#     4  10  20  39  67  99 127 160 208 271 330 380
#
# _framework density 23.02215
#
# number of rings (size 3 to 8) (size 9 to 14) (size 15 to 20)
#    0.000    1.000    3.750    3.000    5.250    0.000 
#    0.000    0.000    2.750    0.000    0.000    0.000 
#    0.000    0.000    0.000    0.000    0.000    0.000 
#
# Total GULP energy -89269.234108 kJ/mol
# GULP energy per Si atom -5579.327132 kJ/mol
# Density = 2.296975 g / cm^3
# Si number density = 23.022150 Si / 1000 Ang^3
#
#
#
# Elastic Constant Matrix: (Units=GPa)
#
#
# Indices 1 2 3 4 5 6 
#
# 1 12.3339 1.6217 4.8247 0.0000 -0.8648 0.0000
# 2 1.6217 81.8476 14.8949 0.0000 -12.7519 0.0000
# 3 4.8247 14.8949 132.1001 0.0000 -1.6156 0.0000
# 4 0.0000 0.0000 0.0000 36.0894 0.0000 -19.9983
# 5 -0.8648 -12.7519 -1.6156 0.0000 35.7475 0.0000
# 6 0.0000 0.0000 0.0000 -19.9983 0.0000 22.3100
#
#
#
# Elastic Compliance Matrix: (Units=1/GPa)
#
#
# Indices 1 2 3 4 5 6 
#
# 1 0.082432 -0.000864 -0.002894 0.000000 0.001555 0.000000
# 2 -0.000864 0.013211 -0.001401 0.000000 0.004628 0.000000
# 3 -0.002894 -0.001401 0.007831 0.000000 -0.000216 0.000000
# 4 0.000000 0.000000 0.000000 0.055056 0.000000 0.049351
# 5 0.001555 0.004628 -0.000216 0.000000 0.029653 0.000000
# 6 0.000000 0.000000 0.000000 0.049351 0.000000 0.089060
#
#
# Mechanical properties :
#
#
# Convention : Reuss Voigt Hill
#
# Bulk Modulus (GPa) = 10.73490 29.88494 20.30992
# Shear Modulus (GPa) = 15.69293 32.49208 24.09250
#
# Velocity S-wave (km/s) = 2.61367 3.76086 3.23846
# Velocity P-wave (km/s) = 3.71232 5.64516 4.77751
#
# Compressibility (1/GPa) = 0.09315413
#
# Stress axis : x y z
#
# Youngs Moduli (GPa) = 12.13123 75.69396 127.69602
#
# Poissons Ratio (x) = 0.06543 0.36958
# Poissons Ratio (y) = 0.01049 0.17896
# Poissons Ratio (z) = 0.03511 0.10608
#
# Static dielectric constant tensor:
#      x y z
#    x 1.907850 0.000000 -0.072670 
#    y 0.000000 1.966500 0.000000 
#    z -0.072670 0.000000 1.958410 
# 
# From -- ./inp_files/8677.got.cif
#   From: 2010.05.17/outbox.cif.g08.bks.cpg/sg4_5_cif.got.tgz:8677.got - 2010.06.03 18:43:04.
