data_PCOD9115273
_publ_section_title
;
Structure prediction by ZEFSAII (Michael W. Deem and Ramdas Pophale) SiO2 
 PCOD9115273
Probable space group: P 21
;
_chemical_formula_sum "Si O2"
_cell_formula_units_Z 14
_cell_length_a 5.340608
_cell_length_b 14.016515
_cell_length_c 9.283000
_cell_angle_alpha 90.000000
_cell_angle_beta 126.868587
_cell_angle_gamma 90.000000
_cell_volume 555.925424
_symmetry_space_group_name_H-M "P 21"
_symmetry_group_IT_number 4
_symmetry_cell_setting 'monoclinic'
loop_
_space_group_symop_operation_xyz
x,y,z
-x,1/2+y,-z
loop_
_atom_site_type_symbol
_atom_site_label
_atom_site_fract_x
_atom_site_fract_y
_atom_site_fract_z
Si Si1 0.898132 0.135820 0.907005
Si Si2 0.178966 0.128948 0.683573
Si Si3 0.937907 0.437398 0.892716
Si Si4 0.189899 0.248898 0.265638
Si Si5 0.867577 0.547502 0.608095
Si Si6 0.328690 0.404626 0.798611
Si Si7 0.143707 0.799749 0.575809
O O1 0.079253 0.206164 0.076135
O O2 0.923491 0.029833 0.983693
O O3 0.050565 0.126701 0.801053
O O4 0.534093 0.166308 0.792293
O O5 0.198926 0.037109 0.584067
O O6 0.932975 0.193683 0.511886
O O7 0.737272 0.473057 0.681790
O O8 0.688530 0.388216 0.905279
O O9 0.199498 0.373843 0.908732
O O10 0.246238 0.149884 0.375587
O O11 0.944779 0.301294 0.286817
O O12 0.496642 0.312445 0.343957
O O13 0.235396 0.518428 0.760145
O O14 0.111027 0.359073 0.602509
#
# Coordination Sequence:
#
# PCOD9115273 Si02
#       7
#     2   2   2   2   2   2   2
#     4  11  22  36  60  86 117 149 190 237 298 339
#     4  11  22  34  60  89 116 145 196 249 279 340
#     4   9  20  35  61  80 113 151 195 234 290 354
#     4  10  21  37  61  82 112 156 199 233 287 355
#     4   8  21  34  62  83 111 142 205 241 278 330
#     4  10  20  36  64  84 113 150 205 242 287 343
#     4  11  22  38  62  86 114 157 200 244 289 339
#
# _framework density 25.183233999999999
#
# number of rings (size 3 to 8) (size 9 to 14) (size 15 to 20)
#    0.857    1.143    0.000    4.286   10.000    0.000 
#    0.000    0.000   18.857    0.000    0.000    0.000 
#    0.000    0.000    0.000    0.000    0.000    0.000 
#
# Total GULP energy -78050.608438 kJ/mol
# GULP energy per Si atom -5575.043460 kJ/mol
# Density = 2.512592 g / cm^3
# Si number density = 25.183234 Si / 1000 Ang^3
#
#
#
# Elastic Constant Matrix: (Units=GPa)
#
#
# Indices 1 2 3 4 5 6 
#
# 1 213.9189 15.9370 63.1348 0.0000 -40.2927 0.0000
# 2 15.9370 40.4408 9.6857 0.0000 -13.6907 0.0000
# 3 63.1348 9.6857 102.3794 0.0000 -45.7068 0.0000
# 4 0.0000 0.0000 0.0000 43.5395 0.0000 3.9584
# 5 -40.2927 -13.6907 -45.7068 0.0000 43.6610 0.0000
# 6 0.0000 0.0000 0.0000 3.9584 0.0000 19.8381
#
#
#
# Elastic Compliance Matrix: (Units=1/GPa)
#
#
# Indices 1 2 3 4 5 6 
#
# 1 0.005954 -0.000847 -0.002360 0.000000 0.002758 0.000000
# 2 -0.000847 0.028091 0.002719 0.000000 0.010873 0.000000
# 3 -0.002360 0.002719 0.019477 0.000000 0.019064 0.000000
# 4 0.000000 0.000000 0.000000 0.023392 0.000000 -0.004668
# 5 0.002758 0.010873 0.019064 0.000000 0.048816 0.000000
# 6 0.000000 0.000000 0.000000 -0.004668 0.000000 0.051339
#
#
# Mechanical properties :
#
#
# Convention : Reuss Voigt Hill
#
# Bulk Modulus (GPa) = 19.03117 59.36155 39.19636
# Shear Modulus (GPa) = 25.56754 39.27317 32.42036
#
# Velocity S-wave (km/s) = 3.18977 3.95333 3.59190
# Velocity P-wave (km/s) = 4.59779 6.66794 5.72718
#
# Compressibility (1/GPa) = 0.05254537
#
# Stress axis : x y z
#
# Youngs Moduli (GPa) = 167.95869 35.59850 51.34326
#
# Poissons Ratio (x) = 0.03016 0.12117
# Poissons Ratio (y) = 0.14231 -0.13961
# Poissons Ratio (z) = 0.39639 -0.09680
#
# Static dielectric constant tensor:
#      x y z
#    x 2.061270 0.000000 -0.033690 
#    y 0.000000 2.111130 0.000000 
#    z -0.033690 0.000000 1.980990 
# 
# From -- ./inp_files/4976.got.cif
#   From: 2010.05.17/outbox.cif.g08.bks.cpg/sg4_3_cif.got.tgz:4976.got - 2010.06.03 18:43:04.
