data_PCOD9115687
_publ_section_title
;
Structure prediction by ZEFSAII (Michael W. Deem and Ramdas Pophale) SiO2 
 PCOD9115687
Probable space group: P 21
;
_chemical_formula_sum "Si O2"
_cell_formula_units_Z 16
_cell_length_a 11.837312
_cell_length_b 9.361378
_cell_length_c 6.195012
_cell_angle_alpha 90.000000
_cell_angle_beta 85.277620
_cell_angle_gamma 90.000000
_cell_volume 684.160857
_symmetry_space_group_name_H-M "P 21"
_symmetry_group_IT_number 4
_symmetry_cell_setting 'monoclinic'
loop_
_space_group_symop_operation_xyz
x,y,z
-x,1/2+y,-z
loop_
_atom_site_type_symbol
_atom_site_label
_atom_site_fract_x
_atom_site_fract_y
_atom_site_fract_z
Si Si1 0.549824 0.829730 0.485365
Si Si2 0.749116 0.705924 0.204162
Si Si3 0.766006 0.473099 0.524505
Si Si4 0.994309 0.585309 0.703608
Si Si5 0.427256 0.597674 0.252687
Si Si6 0.001810 0.301853 0.947414
Si Si7 0.176714 0.664489 0.351287
Si Si8 0.407941 0.124973 0.145473
O O1 0.677070 0.802335 0.379343
O O2 0.470747 0.753450 0.321894
O O3 0.536206 0.739509 0.705821
O O4 0.537126 0.991286 0.560306
O O5 0.741396 0.544903 0.298724
O O6 0.877369 0.752705 0.164021
O O7 0.684229 0.705735 0.988906
O O8 0.785074 0.305113 0.521096
O O9 0.666254 0.515746 0.703677
O O10 0.879069 0.551271 0.595403
O O11 0.098349 0.570938 0.521405
O O12 0.995612 0.470224 0.898746
O O13 0.999560 0.742279 0.809319
O O14 0.292095 0.593231 0.250276
O O15 0.496652 0.561108 0.026361
O O16 0.901088 0.226467 0.829011
#
# Coordination Sequence:
#
# PCOD9115687 Si02
#       8
#     2   2   2   2   2   2   2   2
#     4  10  25  43  68  98 129 180 221 282 332 398
#     4  10  20  42  68  94 133 173 223 271 337 400
#     4  10  22  41  69  98 133 177 225 274 341 398
#     4  11  24  41  64 101 135 179 224 274 335 399
#     4  11  26  45  69  97 137 175 227 279 341 396
#     4  11  24  41  67 100 135 180 223 275 336 402
#     4  11  26  41  67 100 142 175 220 286 335 401
#     4  10  23  40  70  96 126 175 225 277 331 402
#
# _framework density 23.386312
#
# number of rings (size 3 to 8) (size 9 to 14) (size 15 to 20)
#    0.000    1.500    2.500    0.750    8.750    3.000 
#    0.000    0.000    0.000    0.000    0.000    0.000 
#    0.000    0.000    0.000    0.000    0.000    0.000 
#
# Total GULP energy -89529.939766 kJ/mol
# GULP energy per Si atom -5595.621235 kJ/mol
# Density = 2.333308 g / cm^3
# Si number density = 23.386312 Si / 1000 Ang^3
#
#
#
# Elastic Constant Matrix: (Units=GPa)
#
#
# Indices 1 2 3 4 5 6 
#
# 1 137.5877 15.8769 23.4215 0.0000 -35.8713 0.0000
# 2 15.8769 61.5273 3.0381 0.0000 -1.4076 0.0000
# 3 23.4215 3.0381 40.9351 0.0000 -15.9658 0.0000
# 4 0.0000 0.0000 0.0000 23.6791 0.0000 6.2879
# 5 -35.8713 -1.4076 -15.9658 0.0000 37.9371 0.0000
# 6 0.0000 0.0000 0.0000 6.2879 0.0000 26.3528
#
#
#
# Elastic Compliance Matrix: (Units=1/GPa)
#
#
# Indices 1 2 3 4 5 6 
#
# 1 0.010155 -0.002311 -0.002306 0.000000 0.008546 0.000000
# 2 -0.002311 0.016839 -0.000641 0.000000 -0.001830 0.000000
# 3 -0.002306 -0.000641 0.029833 0.000000 0.010351 0.000000
# 4 0.000000 0.000000 0.000000 0.045088 0.000000 -0.010758
# 5 0.008546 -0.001830 0.010351 0.000000 0.038729 0.000000
# 6 0.000000 0.000000 0.000000 -0.010758 0.000000 0.040514
#
#
# Mechanical properties :
#
#
# Convention : Reuss Voigt Hill
#
# Bulk Modulus (GPa) = 21.59307 36.08036 28.83671
# Shear Modulus (GPa) = 24.14156 30.77469 27.45813
#
# Velocity S-wave (km/s) = 3.21642 3.63151 3.43025
# Velocity P-wave (km/s) = 4.80074 5.74850 5.29586
#
# Compressibility (1/GPa) = 0.04631116
#
# Stress axis : x y z
#
# Youngs Moduli (GPa) = 98.46922 59.38548 33.51986
#
# Poissons Ratio (x) = 0.13725 0.07729
# Poissons Ratio (y) = 0.22758 0.02150
# Poissons Ratio (z) = 0.22704 0.03808
#
# Static dielectric constant tensor:
#      x y z
#    x 1.871280 0.000000 0.006660 
#    y 0.000000 1.896150 0.000000 
#    z 0.006660 0.000000 1.853880 
# 
# From -- ./inp_files/2629.got.cif
#   From: 2010.05.17/outbox.cif.g08.bks.cpg/sg4_2_cif.got.tgz:2629.got - 2010.06.03 18:43:04.
