data_PCOD9115533
_publ_section_title
;
Structure prediction by ZEFSAII (Michael W. Deem and Ramdas Pophale) SiO2 
 PCOD9115533
Probable space group: P 21
;
_chemical_formula_sum "Si O2"
_cell_formula_units_Z 12
_cell_length_a 6.576089
_cell_length_b 10.684127
_cell_length_c 7.460761
_cell_angle_alpha 90.000000
_cell_angle_beta 63.993751
_cell_angle_gamma 90.000000
_cell_volume 471.115001
_symmetry_space_group_name_H-M "P 21"
_symmetry_group_IT_number 4
_symmetry_cell_setting 'monoclinic'
loop_
_space_group_symop_operation_xyz
x,y,z
-x,1/2+y,-z
loop_
_atom_site_type_symbol
_atom_site_label
_atom_site_fract_x
_atom_site_fract_y
_atom_site_fract_z
Si Si1 0.651250 0.190680 0.822820
Si Si2 0.594999 0.607151 0.605944
Si Si3 0.100540 0.614606 0.914548
Si Si4 0.239561 0.293973 0.165091
Si Si5 0.181920 0.870338 0.526482
Si Si6 0.321448 0.007856 0.786678
O O1 0.780385 0.245380 0.600727
O O2 0.516772 0.059650 0.839065
O O3 0.811514 0.170038 0.930796
O O4 0.455871 0.292746 0.951632
O O5 0.328409 0.579814 0.722391
O O6 0.732117 0.486550 0.623388
O O7 0.673736 0.616175 0.369747
O O8 0.663955 0.719718 0.703001
O O9 0.950525 0.713060 0.864355
O O10 0.919117 0.505501 0.022954
O O11 0.075264 0.396995 0.314746
O O12 0.333366 0.887960 0.650276
#
# Coordination Sequence:
#
# PCOD9115533 Si02
#       6
#     2   2   2   2   2   2
#     4  10  21  41  61  87 122 154 196 244 291 350
#     4   9  21  38  61  88 117 152 199 243 288 344
#     4  10  20  40  62  84 126 154 188 252 290 342
#     4  10  21  41  61  87 122 154 196 244 291 350
#     4  10  22  38  64  90 112 160 200 234 302 344
#     4   9  21  38  61  88 117 152 199 243 288 344
#
# _framework density 25.471488999999998
#
# number of rings (size 3 to 8) (size 9 to 14) (size 15 to 20)
#    1.000    1.333    0.000    2.000    2.333    0.000 
#    9.000   10.000    0.000    0.000    0.000    0.000 
#    0.000    0.000    0.000    0.000    0.000    0.000 
#
# Total GULP energy -66954.287862 kJ/mol
# GULP energy per Si atom -5579.523989 kJ/mol
# Density = 2.541352 g / cm^3
# Si number density = 25.471489 Si / 1000 Ang^3
#
#
#
# Elastic Constant Matrix: (Units=GPa)
#
#
# Indices 1 2 3 4 5 6 
#
# 1 125.1283 17.8396 46.9675 0.0000 -12.0479 0.0000
# 2 17.8396 18.6183 10.3368 0.0000 -5.2389 0.0000
# 3 46.9675 10.3368 105.5939 0.0000 -27.9085 0.0000
# 4 0.0000 0.0000 0.0000 34.6093 0.0000 -7.4865
# 5 -12.0479 -5.2389 -27.9085 0.0000 40.1842 0.0000
# 6 0.0000 0.0000 0.0000 -7.4865 0.0000 28.9960
#
#
#
# Elastic Compliance Matrix: (Units=1/GPa)
#
#
# Indices 1 2 3 4 5 6 
#
# 1 0.010624 -0.008096 -0.004128 0.000000 -0.000737 0.000000
# 2 -0.008096 0.063591 -0.001316 0.000000 0.004949 0.000000
# 3 -0.004128 -0.001316 0.013550 0.000000 0.008001 0.000000
# 4 0.000000 0.000000 0.000000 0.030603 0.000000 0.007901
# 5 -0.000737 0.004949 0.008001 0.000000 0.030867 0.000000
# 6 0.000000 0.000000 0.000000 0.007901 0.000000 0.036528
#
#
# Mechanical properties :
#
#
# Convention : Reuss Voigt Hill
#
# Bulk Modulus (GPa) = 16.47822 44.40312 30.44067
# Shear Modulus (GPa) = 21.45267 32.37101 26.91184
#
# Velocity S-wave (km/s) = 2.90526 3.56880 3.25398
# Velocity P-wave (km/s) = 4.21157 5.86959 5.10830
#
# Compressibility (1/GPa) = 0.06068618
#
# Stress axis : x y z
#
# Youngs Moduli (GPa) = 94.12209 15.72546 73.80099
#
# Poissons Ratio (x) = 0.12731 0.30465
# Poissons Ratio (y) = 0.76198 0.09712
# Poissons Ratio (z) = 0.38854 0.02070
#
# Static dielectric constant tensor:
#      x y z
#    x 1.988920 0.000000 -0.020590 
#    y 0.000000 2.148890 0.000000 
#    z -0.020590 0.000000 2.045610 
# 
# From -- ./inp_files/1661.got.cif
#   From: 2010.05.17/outbox.cif.g08.bks.cpg/sg4_1_cif.got.tgz:1661.got - 2010.06.03 18:43:04.
