data_PCOD9115410
_publ_section_title
;
Structure prediction by ZEFSAII (Michael W. Deem and Ramdas Pophale) SiO2 
 PCOD9115410
Probable space group: P 21
;
_chemical_formula_sum "Si O2"
_cell_formula_units_Z 16
_cell_length_a 7.050358
_cell_length_b 18.241120
_cell_length_c 5.237720
_cell_angle_alpha 90.000000
_cell_angle_beta 116.363754
_cell_angle_gamma 90.000000
_cell_volume 603.544781
_symmetry_space_group_name_H-M "P 21"
_symmetry_group_IT_number 4
_symmetry_cell_setting 'monoclinic'
loop_
_space_group_symop_operation_xyz
x,y,z
-x,1/2+y,-z
loop_
_atom_site_type_symbol
_atom_site_label
_atom_site_fract_x
_atom_site_fract_y
_atom_site_fract_z
Si Si1 0.739033 0.892030 0.151904
Si Si2 0.147549 0.868155 0.122711
Si Si3 0.597995 0.663088 0.638396
Si Si4 0.922583 0.032504 0.477361
Si Si5 0.727680 0.084213 0.859033
Si Si6 0.137339 0.282453 0.393081
Si Si7 0.546178 0.305019 0.307104
Si Si8 0.650676 0.507123 0.565991
O O1 0.923498 0.907278 0.055129
O O2 0.825087 0.812668 0.304919
O O3 0.786012 0.956775 0.378962
O O4 0.505322 0.867693 0.927490
O O5 0.247760 0.817760 0.404233
O O6 0.306047 0.936800 0.237773
O O7 0.078575 0.815241 0.850130
O O8 0.418556 0.652468 0.312135
O O9 0.498006 0.719696 0.780634
O O10 0.640528 0.579781 0.737691
O O11 0.809762 0.698606 0.642323
O O12 0.896652 0.070389 0.734664
O O13 0.158140 0.014721 0.522843
O O14 0.819810 0.082347 0.194037
O O15 0.563697 0.015672 0.725559
O O16 0.345532 0.316297 0.378071
#
# Coordination Sequence:
#
# PCOD9115410 Si02
#       8
#     2   2   2   2   2   2   2   2
#     4  10  22  37  63  95 131 170 230 282 343 402
#     4  10  20  38  64  90 127 172 234 268 350 408
#     4   8  21  44  62  95 139 175 224 290 344 407
#     4  11  24  41  71  97 139 180 229 287 348 407
#     4  10  24  44  64 104 134 182 229 280 350 416
#     4   9  21  39  60  92 129 169 218 282 337 405
#     4   9  20  40  61  89 128 175 213 277 338 407
#     4   9  22  43  63 104 131 177 227 292 330 420
#
# _framework density 26.510048999999999
#
# number of rings (size 3 to 8) (size 9 to 14) (size 15 to 20)
#    1.500    1.000    0.000    0.750    7.000    4.000 
#    4.500    0.000    0.000    0.000    0.000    0.000 
#    0.000    0.000    0.000    0.000    0.000    0.000 
#
# Total GULP energy -89186.063536 kJ/mol
# GULP energy per Si atom -5574.128971 kJ/mol
# Density = 2.644971 g / cm^3
# Si number density = 26.510049 Si / 1000 Ang^3
#
#
#
# Elastic Constant Matrix: (Units=GPa)
#
#
# Indices 1 2 3 4 5 6 
#
# 1 91.2204 -0.8283 19.5059 0.0000 10.5328 0.0000
# 2 -0.8283 89.8804 -3.7796 0.0000 -19.0351 0.0000
# 3 19.5059 -3.7796 83.9107 0.0000 7.6760 0.0000
# 4 0.0000 0.0000 0.0000 27.6079 0.0000 9.5155
# 5 10.5328 -19.0351 7.6760 0.0000 31.9448 0.0000
# 6 0.0000 0.0000 0.0000 9.5155 0.0000 41.3737
#
#
#
# Elastic Compliance Matrix: (Units=1/GPa)
#
#
# Indices 1 2 3 4 5 6 
#
# 1 0.011922 -0.000802 -0.002458 0.000000 -0.003818 0.000000
# 2 -0.000802 0.012788 0.000042 0.000000 0.007874 0.000000
# 3 -0.002458 0.000042 0.012693 0.000000 -0.002214 0.000000
# 4 0.000000 0.000000 0.000000 0.039340 0.000000 -0.009048
# 5 -0.003818 0.007874 -0.002214 0.000000 0.037787 0.000000
# 6 0.000000 0.000000 0.000000 -0.009048 0.000000 0.026251
#
#
# Mechanical properties :
#
#
# Convention : Reuss Voigt Hill
#
# Bulk Modulus (GPa) = 32.29282 32.75639 32.52461
# Shear Modulus (GPa) = 31.73810 36.85951 34.29881
#
# Velocity S-wave (km/s) = 3.46383 3.73285 3.60085
# Velocity P-wave (km/s) = 5.31086 5.56434 5.43908
#
# Compressibility (1/GPa) = 0.03096664
#
# Stress axis : x y z
#
# Youngs Moduli (GPa) = 83.88093 78.19877 78.78153
#
# Poissons Ratio (x) = 0.06272 0.19366
# Poissons Ratio (y) = 0.06728 -0.00332
# Poissons Ratio (z) = 0.20619 -0.00330
#
# Static dielectric constant tensor:
#      x y z
#    x 2.095750 0.000000 -0.036880 
#    y 0.000000 2.174070 0.000000 
#    z -0.036880 0.000000 2.167140 
# 
# From -- ./inp_files/2069.got.cif
#   From: 2010.05.17/outbox.cif.g08.bks.cpg/sg4_2_cif.got.tgz:2069.got - 2010.06.03 18:43:04.
