data_PCOD9115800
_publ_section_title
;
Structure prediction by ZEFSAII (Michael W. Deem and Ramdas Pophale) SiO2 
 PCOD9115800
Probable space group: P 21
;
_chemical_formula_sum "Si O2"
_cell_formula_units_Z 14
_cell_length_a 10.808725
_cell_length_b 8.818937
_cell_length_c 7.642928
_cell_angle_alpha 90.000000
_cell_angle_beta 135.000001
_cell_angle_gamma 90.000000
_cell_volume 515.152095
_symmetry_space_group_name_H-M "P 21"
_symmetry_group_IT_number 4
_symmetry_cell_setting 'monoclinic'
loop_
_space_group_symop_operation_xyz
x,y,z
-x,1/2+y,-z
loop_
_atom_site_type_symbol
_atom_site_label
_atom_site_fract_x
_atom_site_fract_y
_atom_site_fract_z
Si Si1 0.390932 0.234250 0.000003
Si Si2 0.890931 0.329698 0.281865
Si Si3 0.750000 0.281976 0.500003
Si Si4 0.890931 0.734252 0.999997
Si Si5 0.749999 0.031975 1.000000
Si Si6 0.390932 0.829699 0.281860
Si Si7 0.250000 0.281974 0.500003
O O1 0.250000 0.180901 0.000003
O O2 0.366920 0.417745 0.000001
O O3 0.633079 0.146204 0.766161
O O4 0.587165 0.195647 0.248760
O O5 0.838407 0.368303 0.425573
O O6 0.087164 0.368301 0.425575
O O7 0.866918 0.917746 0.999997
O O8 0.750000 0.383047 0.000003
O O9 0.912836 0.195649 0.751247
O O10 0.866919 0.146203 0.233841
O O11 0.838406 0.695647 0.751240
O O12 0.661592 0.695645 0.248754
O O13 0.587164 0.868303 0.425567
O O14 0.338408 0.868304 0.425570
#
# Coordination Sequence:
#
# PCOD9115800 Si02
#       7
#     2   2   2   2   2   2   2
#     4  10  21  36  57  88 111 149 184 240 269 344
#     4  10  21  36  57  88 111 149 184 240 269 344
#     4  12  20  38  64  80 116 150 196 220 292 326
#     4  10  21  36  57  88 111 149 184 240 269 344
#     4   8  20  40  52  88 120 138 192 236 284 324
#     4  10  21  36  57  88 111 149 184 240 269 344
#     4  12  20  38  64  80 116 150 196 220 292 326
#
# _framework density 27.176438000000001
#
# number of rings (size 3 to 8) (size 9 to 14) (size 15 to 20)
#    1.714    0.000    5.714    0.000    0.000    2.286 
#    0.000    0.000    0.000    0.000    0.000    0.000 
#    0.000    0.000    0.000    0.000    0.000    0.000 
#
# Total GULP energy -78268.001038 kJ/mol
# GULP energy per Si atom -5590.571503 kJ/mol
# Density = 2.711458 g / cm^3
# Si number density = 27.176438 Si / 1000 Ang^3
#
#
#
# Elastic Constant Matrix: (Units=GPa)
#
#
# Indices 1 2 3 4 5 6 
#
# 1 268.7052 14.5430 113.9194 0.0000 -0.2572 0.0000
# 2 14.5430 145.6305 14.5431 0.0000 0.0002 0.0000
# 3 113.9194 14.5431 268.7053 0.0000 0.2568 0.0000
# 4 0.0000 0.0000 0.0000 3.6509 0.0000 0.0002
# 5 -0.2572 0.0002 0.2568 0.0000 79.0369 0.0000
# 6 0.0000 0.0000 0.0000 0.0002 0.0000 3.6507
#
#
#
# Elastic Compliance Matrix: (Units=1/GPa)
#
#
# Indices 1 2 3 4 5 6 
#
# 1 0.004547 -0.000263 -0.001914 0.000000 0.000021 0.000000
# 2 -0.000263 0.006919 -0.000263 0.000000 0.000000 0.000000
# 3 -0.001914 -0.000263 0.004547 0.000000 -0.000021 0.000000
# 4 0.000000 0.000000 0.000000 0.273906 0.000000 -0.000013
# 5 0.000021 0.000000 -0.000021 0.000000 0.012652 0.000000
# 6 0.000000 0.000000 0.000000 -0.000013 0.000000 0.273921
#
#
# Mechanical properties :
#
#
# Convention : Reuss Voigt Hill
#
# Bulk Modulus (GPa) = 89.81259 107.67246 98.74253
# Shear Modulus (GPa) = 8.54579 53.27006 30.90792
#
# Velocity S-wave (km/s) = 1.77521 4.43217 3.37606
# Velocity P-wave (km/s) = 6.10914 8.11775 7.18399
#
# Compressibility (1/GPa) = 0.01113430
#
# Stress axis : x y z
#
# Youngs Moduli (GPa) = 219.92208 144.52500 219.92218
#
# Poissons Ratio (x) = 0.03801 0.42083
# Poissons Ratio (y) = 0.05784 0.05784
# Poissons Ratio (z) = 0.42083 0.03801
#
# Static dielectric constant tensor:
#      x y z
#    x 2.065970 0.000000 0.000000 
#    y 0.000000 2.074920 0.000000 
#    z 0.000000 0.000000 2.065970 
# 
# From -- ./inp_files/8380.got.cif
#   From: 2010.05.17/outbox.cif.g08.bks.cpg/sg4_5_cif.got.tgz:8380.got - 2010.06.03 18:43:04.
