data_PCOD9115646
_publ_section_title
;
Structure prediction by ZEFSAII (Michael W. Deem and Ramdas Pophale) SiO2 
 PCOD9115646
Probable space group: P 21
;
_chemical_formula_sum "Si O2"
_cell_formula_units_Z 12
_cell_length_a 4.983758
_cell_length_b 7.536197
_cell_length_c 13.786364
_cell_angle_alpha 90.000000
_cell_angle_beta 123.493072
_cell_angle_gamma 90.000000
_cell_volume 431.817534
_symmetry_space_group_name_H-M "P 21"
_symmetry_group_IT_number 4
_symmetry_cell_setting 'monoclinic'
loop_
_space_group_symop_operation_xyz
x,y,z
-x,1/2+y,-z
loop_
_atom_site_type_symbol
_atom_site_label
_atom_site_fract_x
_atom_site_fract_y
_atom_site_fract_z
Si Si1 0.855346 0.171710 0.128960
Si Si2 0.344532 0.364272 0.360362
Si Si3 0.901320 0.871643 0.272763
Si Si4 0.056453 0.878206 0.026496
Si Si5 0.420404 0.574496 0.190403
Si Si6 0.369899 0.486177 0.579956
O O1 0.033378 0.285634 0.245377
O O2 0.714651 0.013640 0.166910
O O3 0.733377 0.313922 0.025375
O O4 0.071351 0.051311 0.097770
O O5 0.463311 0.511188 0.308664
O O6 0.271283 0.428149 0.453155
O O7 0.585579 0.197692 0.411388
O O8 0.740452 0.680642 0.225954
O O9 0.844115 0.926888 0.373076
O O10 0.278071 0.899811 0.332366
O O11 0.131214 0.717404 0.115576
O O12 0.709186 0.913904 0.903288
#
# Coordination Sequence:
#
# PCOD9115646 Si02
#       6
#     2   2   2   2   2   2
#     4   9  20  41  71 107 148 195 248 310 377 449
#     4  10  22  42  70 108 154 202 254 316 381 454
#     4  11  24  46  72 105 149 195 251 313 378 455
#     4   9  19  42  71 105 142 189 246 305 374 445
#     4  10  20  41  72 105 147 195 248 312 378 449
#     4  11  25  44  70 108 150 202 255 308 378 456
#
# _framework density 27.78952
#
# number of rings (size 3 to 8) (size 9 to 14) (size 15 to 20)
#    0.000    2.000    0.000    3.000    0.000    4.000 
#    0.000   35.000    0.000    0.000    0.000    0.000 
#    0.000    0.000    0.000    0.000    0.000    0.000 
#
# Total GULP energy -67107.285417 kJ/mol
# GULP energy per Si atom -5592.273785 kJ/mol
# Density = 2.772627 g / cm^3
# Si number density = 27.789520 Si / 1000 Ang^3
#
#
#
# Elastic Constant Matrix: (Units=GPa)
#
#
# Indices 1 2 3 4 5 6 
#
# 1 76.8505 30.0599 38.8912 0.0000 -23.3403 0.0000
# 2 30.0599 133.2102 73.5158 0.0000 -22.9377 0.0000
# 3 38.8912 73.5158 220.6882 0.0000 -45.5517 0.0000
# 4 0.0000 0.0000 0.0000 79.7439 0.0000 -13.1186
# 5 -23.3403 -22.9377 -45.5517 0.0000 36.7993 0.0000
# 6 0.0000 0.0000 0.0000 -13.1186 0.0000 38.8843
#
#
#
# Elastic Compliance Matrix: (Units=1/GPa)
#
#
# Indices 1 2 3 4 5 6 
#
# 1 0.016692 -0.002000 -0.000467 0.000000 0.008763 0.000000
# 2 -0.002000 0.009628 -0.002522 0.000000 0.001610 0.000000
# 3 -0.000467 -0.002522 0.006807 0.000000 0.006558 0.000000
# 4 0.000000 0.000000 0.000000 0.013277 0.000000 0.004479
# 5 0.008763 0.001610 0.006558 0.000000 0.041854 0.000000
# 6 0.000000 0.000000 0.000000 0.004479 0.000000 0.027229
#
#
# Mechanical properties :
#
#
# Convention : Reuss Voigt Hill
#
# Bulk Modulus (GPa) = 43.19885 79.52032 61.35958
# Shear Modulus (GPa) = 37.54274 50.30430 43.92352
#
# Velocity S-wave (km/s) = 3.67954 4.25925 3.97996
# Velocity P-wave (km/s) = 5.79920 7.27087 6.57633
#
# Compressibility (1/GPa) = 0.02314877
#
# Stress axis : x y z
#
# Youngs Moduli (GPa) = 59.90840 103.86831 146.89841
#
# Poissons Ratio (x) = 0.20777 0.06853
# Poissons Ratio (y) = 0.11984 0.37052
# Poissons Ratio (z) = 0.02795 0.26199
#
# Static dielectric constant tensor:
#      x y z
#    x 2.195270 0.000000 0.067290 
#    y 0.000000 2.271960 0.000000 
#    z 0.067290 0.000000 2.147340 
# 
# From -- ./inp_files/13302.got.cif
#   From: 2010.05.17/outbox.cif.g08.bks.cpg/sg4_7_cif.got.tgz:13302.got - 2010.06.03 18:43:04.
