data_PCOD9115887
_publ_section_title
;
Structure prediction by ZEFSAII (Michael W. Deem and Ramdas Pophale) SiO2 
 PCOD9115887
Probable space group: P 21
;
_chemical_formula_sum "Si O2"
_cell_formula_units_Z 16
_cell_length_a 5.673810
_cell_length_b 19.788169
_cell_length_c 8.330370
_cell_angle_alpha 90.000000
_cell_angle_beta 140.797788
_cell_angle_gamma 90.000000
_cell_volume 591.156490
_symmetry_space_group_name_H-M "P 21"
_symmetry_group_IT_number 4
_symmetry_cell_setting 'monoclinic'
loop_
_space_group_symop_operation_xyz
x,y,z
-x,1/2+y,-z
loop_
_atom_site_type_symbol
_atom_site_label
_atom_site_fract_x
_atom_site_fract_y
_atom_site_fract_z
Si Si1 0.394046 0.169660 0.125189
Si Si2 0.364343 0.091301 0.439247
Si Si3 0.234145 0.295224 0.853357
Si Si4 0.752515 0.714216 0.448221
Si Si5 0.519481 0.041826 0.026693
Si Si6 0.505109 0.464579 0.652307
Si Si7 0.657453 0.922172 0.920968
Si Si8 0.617059 0.839307 0.577346
O O1 0.312829 0.133456 0.248490
O O2 0.831743 0.188244 0.364000
O O3 0.315148 0.113231 0.945846
O O4 0.214266 0.240706 0.986118
O O5 0.482433 0.147312 0.631232
O O6 0.950947 0.064904 0.258361
O O7 0.612819 0.025716 0.529153
O O8 0.381760 0.255791 0.776689
O O9 0.811073 0.319097 0.610815
O O10 0.460311 0.361917 0.021655
O O11 0.781862 0.768048 0.608876
O O12 0.476928 0.995247 0.161723
O O13 0.434770 0.992214 0.831467
O O14 0.310222 0.392655 0.529606
O O15 0.923247 0.445467 0.819438
O O16 0.706272 0.885112 0.777783
#
# Coordination Sequence:
#
# PCOD9115887 Si02
#       8
#     2   2   2   2   2   2   2   2
#     4  10  22  41  63  89 123 159 202 249 300 360
#     4   9  19  39  62  87 122 158 198 253 303 355
#     4  11  23  38  59  88 122 161 204 249 298 359
#     4  11  22  37  60  89 120 161 205 248 303 358
#     4   9  19  39  64  87 118 159 198 248 306 358
#     4   9  20  39  60  86 119 157 202 251 303 358
#     4  10  21  38  59  86 121 158 203 253 302 357
#     4  11  24  39  61  90 123 161 202 249 299 357
#
# _framework density 27.065591999999999
#
# number of rings (size 3 to 8) (size 9 to 14) (size 15 to 20)
#    0.000    2.000    0.000    3.000    0.000    7.000 
#    0.000   13.750    0.000    0.000    0.000    0.000 
#    0.000    0.000    0.000    0.000    0.000    0.000 
#
# Total GULP energy -89542.927280 kJ/mol
# GULP energy per Si atom -5596.432955 kJ/mol
# Density = 2.700399 g / cm^3
# Si number density = 27.065592 Si / 1000 Ang^3
#
#
#
# Elastic Constant Matrix: (Units=GPa)
#
#
# Indices 1 2 3 4 5 6 
#
# 1 68.5067 48.1785 9.2033 0.0000 -13.7669 0.0000
# 2 48.1785 191.9156 23.6361 0.0000 -10.1688 0.0000
# 3 9.2033 23.6361 38.1495 0.0000 -3.5393 0.0000
# 4 0.0000 0.0000 0.0000 45.1456 0.0000 -22.4142
# 5 -13.7669 -10.1688 -3.5393 0.0000 36.6078 0.0000
# 6 0.0000 0.0000 0.0000 -22.4142 0.0000 66.6040
#
#
#
# Elastic Compliance Matrix: (Units=1/GPa)
#
#
# Indices 1 2 3 4 5 6 
#
# 1 0.018961 -0.004282 -0.001382 0.000000 0.005808 0.000000
# 2 -0.004282 0.006664 -0.003102 0.000000 -0.000059 0.000000
# 3 -0.001382 -0.003102 0.028596 0.000000 0.001383 0.000000
# 4 0.000000 0.000000 0.000000 0.026594 0.000000 0.008950
# 5 0.005808 -0.000059 0.001383 0.000000 0.029618 0.000000
# 6 0.000000 0.000000 0.000000 0.008950 0.000000 0.018026
#
#
# Mechanical properties :
#
#
# Convention : Reuss Voigt Hill
#
# Bulk Modulus (GPa) = 27.25553 51.17862 39.21708
# Shear Modulus (GPa) = 31.60121 44.17507 37.88814
#
# Velocity S-wave (km/s) = 3.42069 4.04437 3.74553
# Velocity P-wave (km/s) = 5.06888 6.38431 5.76424
#
# Compressibility (1/GPa) = 0.03668980
#
# Stress axis : x y z
#
# Youngs Moduli (GPa) = 52.73888 150.04983 34.96979
#
# Poissons Ratio (x) = 0.64253 0.04834
# Poissons Ratio (y) = 0.22583 0.10846
# Poissons Ratio (z) = 0.07291 0.46538
#
# Static dielectric constant tensor:
#      x y z
#    x 2.132690 0.000000 -0.029990 
#    y 0.000000 2.096060 0.000000 
#    z -0.029990 0.000000 2.144810 
# 
# From -- ./inp_files/461.got.cif
#   From: 2010.05.17/outbox.cif.g08.bks.cpg/sg4_1_cif.got.tgz:461.got - 2010.06.03 18:43:04.
