data_PCOD9115977
_publ_section_title
;
Structure prediction by ZEFSAII (Michael W. Deem and Ramdas Pophale) SiO2 
 PCOD9115977
Probable space group: P 21
;
_chemical_formula_sum "Si O2"
_cell_formula_units_Z 16
_cell_length_a 17.588341
_cell_length_b 4.973786
_cell_length_c 6.838972
_cell_angle_alpha 90.000000
_cell_angle_beta 79.751089
_cell_angle_gamma 90.000000
_cell_volume 588.731605
_symmetry_space_group_name_H-M "P 21"
_symmetry_group_IT_number 4
_symmetry_cell_setting 'monoclinic'
loop_
_space_group_symop_operation_xyz
x,y,z
-x,1/2+y,-z
loop_
_atom_site_type_symbol
_atom_site_label
_atom_site_fract_x
_atom_site_fract_y
_atom_site_fract_z
Si Si1 0.784287 0.074030 0.084233
Si Si2 0.997556 0.720927 0.573891
Si Si3 0.129873 0.092660 0.057887
Si Si4 0.121789 0.260158 0.634565
Si Si5 0.593882 0.510787 0.925904
Si Si6 0.473758 0.513277 0.269944
Si Si7 0.348516 0.653544 0.585447
Si Si8 0.717899 0.652134 0.606916
O O1 0.828715 0.309095 0.951150
O O2 0.695004 0.104930 0.188260
O O3 0.805584 0.818587 0.945976
O O4 0.829034 0.010356 0.268296
O O5 0.951987 0.500228 0.440626
O O6 0.060204 0.458801 0.543126
O O7 0.945630 0.664510 0.785188
O O8 0.102496 0.117111 0.848310
O O9 0.191273 0.141614 0.471355
O O10 0.569086 0.222540 0.855818
O O11 0.681733 0.560903 0.828635
O O12 0.551186 0.723467 0.800428
O O13 0.563150 0.545960 0.161390
O O14 0.439535 0.594518 0.498569
O O15 0.311224 0.444796 0.446144
O O16 0.321817 0.946915 0.529746
#
# Coordination Sequence:
#
# PCOD9115977 Si02
#       8
#     2   2   2   2   2   2   2   2
#     4   9  17  34  57  78 104 138 177 217 260 304
#     4  12  28  42  60  85 112 139 176 219 271 333
#     4  10  21  39  59  81 106 137 172 223 256 324
#     4   9  22  37  62  77 108 140 176 217 271 309
#     4   8  13  20  30  55  90 128 157 202 251 289
#     4   8  13  18  30  53  93 128 156 201 252 294
#     4   9  13  23  41  68  93 131 170 206 254 300
#     4   9  15  25  45  67  92 129 172 207 249 307
#
# _framework density 27.177067000000001
#
# number of rings (size 3 to 8) (size 9 to 14) (size 15 to 20)
#    0.750    2.000    1.250    0.750    1.750    1.000 
#    0.000    0.000    0.000    0.000    0.000    0.000 
#    0.000    2.000    0.250    0.000    0.000    7.250 
#
# Total GULP energy -89275.644854 kJ/mol
# GULP energy per Si atom -5579.727803 kJ/mol
# Density = 2.711521 g / cm^3
# Si number density = 27.177067 Si / 1000 Ang^3
#
#
#
# Elastic Constant Matrix: (Units=GPa)
#
#
# Indices 1 2 3 4 5 6 
#
# 1 112.3171 25.9745 53.1259 0.0000 -18.7041 0.0000
# 2 25.9745 163.5433 22.0399 0.0000 -0.4216 0.0000
# 3 53.1259 22.0399 178.2891 0.0000 -53.8159 0.0000
# 4 0.0000 0.0000 0.0000 41.0258 0.0000 -10.9268
# 5 -18.7041 -0.4216 -53.8159 0.0000 43.4700 0.0000
# 6 0.0000 0.0000 0.0000 -10.9268 0.0000 20.8670
#
#
#
# Elastic Compliance Matrix: (Units=1/GPa)
#
#
# Indices 1 2 3 4 5 6 
#
# 1 0.010671 -0.001340 -0.002606 0.000000 0.001353 0.000000
# 2 -0.001340 0.006442 -0.000882 0.000000 -0.001606 0.000000
# 3 -0.002606 -0.000882 0.009825 0.000000 0.011033 0.000000
# 4 0.000000 0.000000 0.000000 0.028325 0.000000 0.014832
# 5 0.001353 -0.001606 0.011033 0.000000 0.037230 0.000000
# 6 0.000000 0.000000 0.000000 0.014832 0.000000 0.055689
#
#
# Mechanical properties :
#
#
# Convention : Reuss Voigt Hill
#
# Bulk Modulus (GPa) = 57.86207 72.93669 65.39938
# Shear Modulus (GPa) = 30.56261 44.60649 37.58455
#
# Velocity S-wave (km/s) = 3.35710 4.05573 3.72284
# Velocity P-wave (km/s) = 6.03025 6.98768 6.52655
#
# Compressibility (1/GPa) = 0.01728248
#
# Stress axis : x y z
#
# Youngs Moduli (GPa) = 93.71132 155.22831 101.78481
#
# Poissons Ratio (x) = 0.20803 0.26523
# Poissons Ratio (y) = 0.12559 0.08975
# Poissons Ratio (z) = 0.24419 0.13687
#
# Static dielectric constant tensor:
#      x y z
#    x 2.323700 0.000000 0.021670 
#    y 0.000000 2.124080 0.000000 
#    z 0.021670 0.000000 2.092360 
# 
# From -- ./inp_files/10059.got.cif
#   From: 2010.05.17/outbox.cif.g08.bks.cpg/sg4_6_cif.got.tgz:10059.got - 2010.06.03 18:43:04.
