data_PCOD9115046
_publ_section_title
;
Structure prediction by ZEFSAII (Michael W. Deem and Ramdas Pophale) SiO2 
 PCOD9115046
Probable space group: P 21
;
_chemical_formula_sum "Si O2"
_cell_formula_units_Z 10
_cell_length_a 13.621415
_cell_length_b 7.470739
_cell_length_c 8.238536
_cell_angle_alpha 90.000000
_cell_angle_beta 153.491907
_cell_angle_gamma 90.000000
_cell_volume 374.184923
_symmetry_space_group_name_H-M "P 21"
_symmetry_group_IT_number 4
_symmetry_cell_setting 'monoclinic'
loop_
_space_group_symop_operation_xyz
x,y,z
-x,1/2+y,-z
loop_
_atom_site_type_symbol
_atom_site_label
_atom_site_fract_x
_atom_site_fract_y
_atom_site_fract_z
Si Si1 0.401549 0.691270 0.567085
Si Si2 0.757488 0.809709 0.603527
Si Si3 0.701685 0.538136 0.758919
Si Si4 0.247805 0.790889 0.855125
Si Si5 0.850716 0.626740 0.421118
O O1 0.258438 0.524560 0.420599
O O2 0.473396 0.617998 0.493811
O O3 0.312898 0.888494 0.402531
O O4 0.627057 0.702904 0.006030
O O5 0.824087 0.711070 0.868394
O O6 0.881597 0.729419 0.634670
O O7 0.501690 0.743898 0.209377
O O8 0.773429 0.429659 0.024546
O O9 0.065839 0.647836 0.627533
O O10 0.189765 0.916261 0.617087
#
# Coordination Sequence:
#
# PCOD9115046 Si02
#       5
#     2   2   2   2   2
#     4  10  21  37  67  90 124 173 200 267 311 372
#     4  10  22  42  63  94 123 167 220 251 312 382
#     4  10  19  40  63  89 125 170 210 251 322 367
#     4  10  24  42  63  95 127 172 202 268 323 367
#     4  10  24  41  62  98 125 162 218 257 320 374
#
# _framework density 26.724753
#
# number of rings (size 3 to 8) (size 9 to 14) (size 15 to 20)
#    0.000    2.400    4.000    0.000    8.400    0.000 
#    3.600    0.000    0.000    0.000    0.000    0.000 
#    0.000    0.000    0.000    0.000    0.000    0.000 
#
# Total GULP energy -55871.321183 kJ/mol
# GULP energy per Si atom -5587.132118 kJ/mol
# Density = 2.666393 g / cm^3
# Si number density = 26.724753 Si / 1000 Ang^3
#
#
#
# Elastic Constant Matrix: (Units=GPa)
#
#
# Indices 1 2 3 4 5 6 
#
# 1 93.5402 7.0939 7.6305 0.0000 10.9395 0.0000
# 2 7.0939 87.0563 30.7094 0.0000 -2.2027 0.0000
# 3 7.6305 30.7094 79.4071 0.0000 12.2554 0.0000
# 4 0.0000 0.0000 0.0000 45.9779 0.0000 -4.3504
# 5 10.9395 -2.2027 12.2554 0.0000 31.6309 0.0000
# 6 0.0000 0.0000 0.0000 -4.3504 0.0000 33.3444
#
#
#
# Elastic Compliance Matrix: (Units=1/GPa)
#
#
# Indices 1 2 3 4 5 6 
#
# 1 0.011231 -0.000980 -0.000096 0.000000 -0.003915 0.000000
# 2 -0.000980 0.013680 -0.005739 0.000000 0.003515 0.000000
# 3 -0.000096 -0.005739 0.015825 0.000000 -0.006498 0.000000
# 4 0.000000 0.000000 0.000000 0.022021 0.000000 0.002873
# 5 -0.003915 0.003515 -0.006498 0.000000 0.035731 0.000000
# 6 0.000000 0.000000 0.000000 0.002873 0.000000 0.030365
#
#
# Mechanical properties :
#
#
# Convention : Reuss Voigt Hill
#
# Bulk Modulus (GPa) = 36.89299 38.98569 37.93934
# Shear Modulus (GPa) = 32.99933 36.49530 34.74731
#
# Velocity S-wave (km/s) = 3.51776 3.69941 3.60973
# Velocity P-wave (km/s) = 5.50766 5.73298 5.62145
#
# Compressibility (1/GPa) = 0.02710542
#
# Stress axis : x y z
#
# Youngs Moduli (GPa) = 89.04209 73.09914 63.19192
#
# Poissons Ratio (x) = 0.07167 0.00605
# Poissons Ratio (y) = 0.08730 0.36265
# Poissons Ratio (z) = 0.00853 0.41951
#
# Static dielectric constant tensor:
#      x y z
#    x 2.095860 0.000000 -0.042230 
#    y 0.000000 2.156440 0.000000 
#    z -0.042230 0.000000 2.177470 
# 
# From -- ./inp_files/5180.got.cif
#   From: 2010.05.17/outbox.cif.g08.bks.cpg/sg4_3_cif.got.tgz:5180.got - 2010.06.03 18:43:04.
