data_PCOD9115072
_publ_section_title
;
Structure prediction by ZEFSAII (Michael W. Deem and Ramdas Pophale) SiO2 
 PCOD9115072
Probable space group: P 21
;
_chemical_formula_sum "Si O2"
_cell_formula_units_Z 16
_cell_length_a 5.464034
_cell_length_b 13.138502
_cell_length_c 11.907443
_cell_angle_alpha 90.000000
_cell_angle_beta 129.255715
_cell_angle_gamma 90.000000
_cell_volume 661.917065
_symmetry_space_group_name_H-M "P 21"
_symmetry_group_IT_number 4
_symmetry_cell_setting 'monoclinic'
loop_
_space_group_symop_operation_xyz
x,y,z
-x,1/2+y,-z
loop_
_atom_site_type_symbol
_atom_site_label
_atom_site_fract_x
_atom_site_fract_y
_atom_site_fract_z
Si Si1 0.165787 0.870690 0.334415
Si Si2 0.096852 0.873095 0.849953
Si Si3 0.117468 0.561074 0.629315
Si Si4 0.831775 0.941228 0.015469
Si Si5 0.299389 0.185934 0.778880
Si Si6 0.421039 0.201861 0.586772
Si Si7 0.286697 0.647495 0.907910
Si Si8 0.178338 0.521421 0.403795
O O1 0.055409 0.896997 0.177448
O O2 0.928514 0.781670 0.305357
O O3 0.495088 0.811607 0.435782
O O4 0.112913 0.971140 0.392915
O O5 0.083992 0.750299 0.839197
O O6 0.876793 0.927899 0.694463
O O7 0.466679 0.905081 0.933857
O O8 0.969014 0.909692 0.934474
O O9 0.935389 0.663675 0.537029
O O10 0.270472 0.514761 0.561610
O O11 0.319913 0.593888 0.796526
O O12 0.842685 0.062301 0.043823
O O13 0.547099 0.204630 0.751739
O O14 0.163855 0.077154 0.702189
O O15 0.398893 0.181767 0.936047
O O16 0.611206 0.111000 0.585465
#
# Coordination Sequence:
#
# PCOD9115072 Si02
#       8
#     2   2   2   2   2   2   2   2
#     4  10  22  41  69  96 138 184 238 301 377 430
#     4  12  25  43  76 105 149 191 247 305 376 437
#     4  10  25  44  62 101 144 183 242 308 363 450
#     4  11  25  45  70 115 141 189 241 316 368 438
#     4  10  19  40  70  93 132 174 239 294 369 429
#     4  10  22  42  68  93 130 194 238 292 368 455
#     4  11  23  45  71 109 144 186 250 313 367 442
#     4  10  23  42  66  96 134 191 237 299 358 447
#
# _framework density 24.172211000000001
#
# number of rings (size 3 to 8) (size 9 to 14) (size 15 to 20)
#    0.000    1.500    2.500    1.500    1.750    7.000 
#    9.000    0.000    0.000    0.000    0.000    0.000 
#    0.000    0.000    0.000    0.000    0.000    0.000 
#
# Total GULP energy -89288.549840 kJ/mol
# GULP energy per Si atom -5580.534365 kJ/mol
# Density = 2.411719 g / cm^3
# Si number density = 24.172211 Si / 1000 Ang^3
#
#
#
# Elastic Constant Matrix: (Units=GPa)
#
#
# Indices 1 2 3 4 5 6 
#
# 1 89.3110 41.4341 43.9659 0.0000 -29.2371 0.0000
# 2 41.4341 163.0618 48.8230 0.0000 -19.2629 0.0000
# 3 43.9659 48.8230 129.3239 0.0000 -38.3847 0.0000
# 4 0.0000 0.0000 0.0000 43.1335 0.0000 5.2227
# 5 -29.2371 -19.2629 -38.3847 0.0000 33.4502 0.0000
# 6 0.0000 0.0000 0.0000 5.2227 0.0000 33.0193
#
#
#
# Elastic Compliance Matrix: (Units=1/GPa)
#
#
# Indices 1 2 3 4 5 6 
#
# 1 0.016859 -0.002505 -0.001274 0.000000 0.011831 0.000000
# 2 -0.002505 0.007336 -0.001993 0.000000 -0.000251 0.000000
# 3 -0.001274 -0.001993 0.012506 0.000000 0.012090 0.000000
# 4 0.000000 0.000000 0.000000 0.023637 0.000000 -0.003739
# 5 0.011831 -0.000251 0.012090 0.000000 0.053965 0.000000
# 6 0.000000 0.000000 0.000000 -0.003739 0.000000 0.030877
#
#
# Mechanical properties :
#
#
# Convention : Reuss Voigt Hill
#
# Bulk Modulus (GPa) = 39.74835 72.23807 55.99321
# Shear Modulus (GPa) = 30.28296 38.41883 34.35090
#
# Velocity S-wave (km/s) = 3.54333 3.99103 3.77382
# Velocity P-wave (km/s) = 5.76366 7.15454 6.49643
#
# Compressibility (1/GPa) = 0.02515828
#
# Stress axis : x y z
#
# Youngs Moduli (GPa) = 59.31467 136.31359 79.95859
#
# Poissons Ratio (x) = 0.34143 0.10190
# Poissons Ratio (y) = 0.14857 0.15932
# Poissons Ratio (z) = 0.07559 0.27161
#
# Static dielectric constant tensor:
#      x y z
#    x 2.023740 0.000000 0.045530 
#    y 0.000000 1.943550 0.000000 
#    z 0.045530 0.000000 1.987860 
# 
# From -- ./inp_files/10588.got.cif
#   From: 2010.05.17/outbox.cif.g08.bks.cpg/sg4_6_cif.got.tgz:10588.got - 2010.06.03 18:43:04.
