data_PCOD9115390
_publ_section_title
;
Structure prediction by ZEFSAII (Michael W. Deem and Ramdas Pophale) SiO2 
 PCOD9115390
Probable space group: P 21
;
_chemical_formula_sum "Si O2"
_cell_formula_units_Z 10
_cell_length_a 6.804588
_cell_length_b 8.124533
_cell_length_c 6.916554
_cell_angle_alpha 90.000000
_cell_angle_beta 83.126559
_cell_angle_gamma 90.000000
_cell_volume 379.627300
_symmetry_space_group_name_H-M "P 21"
_symmetry_group_IT_number 4
_symmetry_cell_setting 'monoclinic'
loop_
_space_group_symop_operation_xyz
x,y,z
-x,1/2+y,-z
loop_
_atom_site_type_symbol
_atom_site_label
_atom_site_fract_x
_atom_site_fract_y
_atom_site_fract_z
Si Si1 0.839368 0.490370 0.193338
Si Si2 0.422974 0.268545 0.964319
Si Si3 0.542033 0.278054 0.396230
Si Si4 0.767045 0.951304 0.323885
Si Si5 0.869969 0.276588 0.832466
O O1 0.703397 0.607840 0.074182
O O2 0.699332 0.427539 0.380501
O O3 0.540592 0.776041 0.813134
O O4 0.894343 0.331905 0.055784
O O5 0.636626 0.268766 0.834575
O O6 0.001199 0.412630 0.704125
O O7 0.306734 0.424265 0.888569
O O8 0.353416 0.309144 0.550772
O O9 0.677067 0.118546 0.412094
O O10 0.024289 0.603698 0.223149
#
# Coordination Sequence:
#
# PCOD9115390 Si02
#       5
#     2   2   2   2   2
#     4  10  21  38  63  91 123 162 203 250 306 361
#     4  10  22  42  65  90 122 162 202 253 309 359
#     4  11  22  41  64  90 128 163 200 257 305 357
#     4  11  23  41  64  92 125 161 206 252 303 362
#     4  10  20  38  62  91 122 160 205 248 301 367
#
# _framework density 26.341626999999999
#
# number of rings (size 3 to 8) (size 9 to 14) (size 15 to 20)
#    0.000    1.600    0.000    7.200    0.000    3.200 
#    0.000   22.000    0.000    0.000    0.000    0.000 
#    0.000    0.000    0.000    0.000    0.000    0.000 
#
# Total GULP energy -56030.860443 kJ/mol
# GULP energy per Si atom -5603.086044 kJ/mol
# Density = 2.628167 g / cm^3
# Si number density = 26.341627 Si / 1000 Ang^3
#
#
#
# Elastic Constant Matrix: (Units=GPa)
#
#
# Indices 1 2 3 4 5 6 
#
# 1 127.3780 -1.0701 32.0964 0.0000 -16.0647 0.0000
# 2 -1.0701 82.3428 -3.2787 0.0000 -1.9798 0.0000
# 3 32.0964 -3.2787 112.1172 0.0000 -27.4589 0.0000
# 4 0.0000 0.0000 0.0000 45.0244 0.0000 -17.9142
# 5 -16.0647 -1.9798 -27.4589 0.0000 46.2145 0.0000
# 6 0.0000 0.0000 0.0000 -17.9142 0.0000 30.5718
#
#
#
# Elastic Compliance Matrix: (Units=1/GPa)
#
#
# Indices 1 2 3 4 5 6 
#
# 1 0.008585 0.000074 -0.002017 0.000000 0.001789 0.000000
# 2 0.000074 0.012188 0.000549 0.000000 0.000874 0.000000
# 3 -0.002017 0.000549 0.010939 0.000000 0.005822 0.000000
# 4 0.000000 0.000000 0.000000 0.028963 0.000000 0.016971
# 5 0.001789 0.000874 0.005822 0.000000 0.025756 0.000000
# 6 0.000000 0.000000 0.000000 0.016971 0.000000 0.042655
#
#
# Mechanical properties :
#
#
# Convention : Reuss Voigt Hill
#
# Bulk Modulus (GPa) = 34.57309 41.92593 38.24951
# Shear Modulus (GPa) = 35.33197 43.96817 39.65007
#
# Velocity S-wave (km/s) = 3.66635 4.08996 3.88393
# Velocity P-wave (km/s) = 5.57460 6.18502 5.88773
#
# Compressibility (1/GPa) = 0.02892423
#
# Stress axis : x y z
#
# Youngs Moduli (GPa) = 116.47910 82.04646 91.41916
#
# Poissons Ratio (x) = -0.00609 0.18444
# Poissons Ratio (y) = -0.00865 -0.05022
# Poissons Ratio (z) = 0.23499 -0.04507
#
# Static dielectric constant tensor:
#      x y z
#    x 2.032850 0.000000 0.033610 
#    y 0.000000 2.123490 0.000000 
#    z 0.033610 0.000000 2.075580 
# 
# From -- ./inp_files/11817.got.cif
#   From: 2010.05.17/outbox.cif.g08.bks.cpg/sg4_6_cif.got.tgz:11817.got - 2010.06.03 18:43:04.
