data_PCOD9115871
_publ_section_title
;
Structure prediction by ZEFSAII (Michael W. Deem and Ramdas Pophale) SiO2 
 PCOD9115871
Probable space group: P 21
;
_chemical_formula_sum "Si O2"
_cell_formula_units_Z 14
_cell_length_a 16.827271
_cell_length_b 6.960428
_cell_length_c 7.337610
_cell_angle_alpha 90.000000
_cell_angle_beta 34.477341
_cell_angle_gamma 90.000000
_cell_volume 486.499367
_symmetry_space_group_name_H-M "P 21"
_symmetry_group_IT_number 4
_symmetry_cell_setting 'monoclinic'
loop_
_space_group_symop_operation_xyz
x,y,z
-x,1/2+y,-z
loop_
_atom_site_type_symbol
_atom_site_label
_atom_site_fract_x
_atom_site_fract_y
_atom_site_fract_z
Si Si1 0.380500 0.681560 0.075153
Si Si2 0.321218 0.135614 0.383153
Si Si3 0.565289 0.610760 0.180807
Si Si4 0.264554 0.688789 0.712517
Si Si5 0.208883 0.130679 0.939978
Si Si6 0.082819 0.576467 0.580264
Si Si7 0.970838 0.648957 0.189600
O O1 0.321246 0.674422 0.395907
O O2 0.240438 0.625804 0.228337
O O3 0.531734 0.576482 0.795558
O O4 0.418801 0.896829 0.934206
O O5 0.178808 0.043518 0.558662
O O6 0.251740 0.252078 0.680203
O O7 0.387269 0.237386 0.082775
O O8 0.407191 0.635787 0.548400
O O9 0.678852 0.654978 0.117425
O O10 0.231364 0.913019 0.818803
O O11 0.112773 0.589317 0.027026
O O12 0.046714 0.140703 0.302394
O O13 0.073832 0.351853 0.642079
O O14 0.032945 0.669048 0.867550
#
# Coordination Sequence:
#
# PCOD9115871 Si02
#       7
#     2   2   2   2   2   2   2
#     4  10  21  37  64  90 126 160 207 254 315 359
#     4  10  22  38  63  90 125 160 209 252 311 368
#     4  11  23  38  62  93 123 164 206 258 313 367
#     4   9  20  40  63  88 124 160 210 251 306 373
#     4  10  21  42  60  87 126 162 205 255 304 372
#     4   9  20  39  63  92 128 162 210 256 306 372
#     4   9  19  36  67  90 124 168 203 256 311 363
#
# _framework density 28.777018000000002
#
# number of rings (size 3 to 8) (size 9 to 14) (size 15 to 20)
#    0.000    2.286    1.429    0.000   10.000    0.000 
#    5.143    0.000    0.000    0.000    0.000    0.000 
#    0.000    0.000    0.000    0.000    0.000    0.000 
#
# Total GULP energy -78138.904291 kJ/mol
# GULP energy per Si atom -5581.350307 kJ/mol
# Density = 2.871152 g / cm^3
# Si number density = 28.777018 Si / 1000 Ang^3
#
#
#
# Elastic Constant Matrix: (Units=GPa)
#
#
# Indices 1 2 3 4 5 6 
#
# 1 140.8273 4.8541 85.1202 0.0000 -46.5203 0.0000
# 2 4.8541 99.2252 51.1500 0.0000 -15.9579 0.0000
# 3 85.1202 51.1500 271.3177 0.0000 -80.7860 0.0000
# 4 0.0000 0.0000 0.0000 47.0511 0.0000 -13.2203
# 5 -46.5203 -15.9579 -80.7860 0.0000 99.7811 0.0000
# 6 0.0000 0.0000 0.0000 -13.2203 0.0000 12.0593
#
#
#
# Elastic Compliance Matrix: (Units=1/GPa)
#
#
# Indices 1 2 3 4 5 6 
#
# 1 0.009368 0.001192 -0.002380 0.000000 0.002631 0.000000
# 2 0.001192 0.011315 -0.002376 0.000000 0.000442 0.000000
# 3 -0.002380 -0.002376 0.005846 0.000000 0.003244 0.000000
# 4 0.000000 0.000000 0.000000 0.030714 0.000000 0.033671
# 5 0.002631 0.000442 0.003244 0.000000 0.013945 0.000000
# 6 0.000000 0.000000 0.000000 0.033671 0.000000 0.119837
#
#
# Mechanical properties :
#
#
# Convention : Reuss Voigt Hill
#
# Bulk Modulus (GPa) = 51.54307 88.17989 69.86148
# Shear Modulus (GPa) = 24.43550 56.46136 40.44843
#
# Velocity S-wave (km/s) = 2.91715 4.43429 3.75318
# Velocity P-wave (km/s) = 5.41262 7.54494 6.56592
#
# Compressibility (1/GPa) = 0.01940125
#
# Stress axis : x y z
#
# Youngs Moduli (GPa) = 106.75143 88.37485 171.05472
#
# Poissons Ratio (x) = -0.10533 0.40714
# Poissons Ratio (y) = -0.12723 0.40635
# Poissons Ratio (z) = 0.25409 0.20994
#
# Static dielectric constant tensor:
#      x y z
#    x 2.357050 0.000000 -0.032710 
#    y 0.000000 2.374700 0.000000 
#    z -0.032710 0.000000 2.235000 
# 
# From -- ./inp_files/9199.got.cif
#   From: 2010.05.17/outbox.cif.g08.bks.cpg/sg4_5_cif.got.tgz:9199.got - 2010.06.03 18:43:04.
