data_PCOD9115757
_publ_section_title
;
Structure prediction by ZEFSAII (Michael W. Deem and Ramdas Pophale) SiO2 
 PCOD9115757
Probable space group: P 21
;
_chemical_formula_sum "Si O2"
_cell_formula_units_Z 16
_cell_length_a 13.725332
_cell_length_b 7.610503
_cell_length_c 11.089741
_cell_angle_alpha 90.000000
_cell_angle_beta 147.571335
_cell_angle_gamma 90.000000
_cell_volume 621.189684
_symmetry_space_group_name_H-M "P 21"
_symmetry_group_IT_number 4
_symmetry_cell_setting 'monoclinic'
loop_
_space_group_symop_operation_xyz
x,y,z
-x,1/2+y,-z
loop_
_atom_site_type_symbol
_atom_site_label
_atom_site_fract_x
_atom_site_fract_y
_atom_site_fract_z
Si Si1 0.046962 0.558700 0.176513
Si Si2 0.331841 0.053455 0.281307
Si Si3 0.210189 0.543811 0.824643
Si Si4 0.463410 0.632645 0.901141
Si Si5 0.243533 0.925483 0.952236
Si Si6 0.299537 0.457233 0.241071
Si Si7 0.406847 0.006911 0.730526
Si Si8 0.953557 0.454727 0.744790
O O1 0.219941 0.468606 0.296802
O O2 0.081755 0.763651 0.235624
O O3 0.879145 0.527676 0.906626
O O4 0.948886 0.497994 0.197626
O O5 0.324159 0.254616 0.229184
O O6 0.351879 0.914157 0.193048
O O7 0.501443 0.036988 0.544125
O O8 0.035574 0.444868 0.692383
O O9 0.291405 0.521816 0.774817
O O10 0.194891 0.751657 0.829356
O O11 0.383974 0.493802 0.091005
O O12 0.573710 0.649788 0.142799
O O13 0.615561 0.544350 0.976121
O O14 0.385299 0.811100 0.764179
O O15 0.128832 0.541353 0.992030
O O16 0.238865 0.048004 0.470942
#
# Coordination Sequence:
#
# PCOD9115757 Si02
#       8
#     2   2   2   2   2   2   2   2
#     4   9  24  44  68  99 138 182 232 282 349 414
#     4   9  25  42  72  97 135 187 229 290 342 420
#     4  10  22  43  68 104 137 180 225 287 343 420
#     4  10  20  45  72  98 139 178 229 279 351 413
#     4  10  21  47  66  99 137 180 232 278 346 417
#     4  11  24  47  67 103 135 186 234 288 351 407
#     4  10  23  44  70 101 137 183 225 291 344 416
#     4  11  25  44  67 105 138 178 238 287 346 413
#
# _framework density 25.757028999999999
#
# number of rings (size 3 to 8) (size 9 to 14) (size 15 to 20)
#    1.500    0.500    1.250    0.750    3.500    5.000 
#    9.000    1.250    0.000    0.000    0.000    0.000 
#    0.000    0.000    0.000    0.000    0.000    0.000 
#
# Total GULP energy -89081.834269 kJ/mol
# GULP energy per Si atom -5567.614642 kJ/mol
# Density = 2.569841 g / cm^3
# Si number density = 25.757029 Si / 1000 Ang^3
#
#
#
# Elastic Constant Matrix: (Units=GPa)
#
#
# Indices 1 2 3 4 5 6 
#
# 1 112.0318 12.3128 22.1462 0.0000 30.2909 0.0000
# 2 12.3128 72.6050 -4.6890 0.0000 -3.3148 0.0000
# 3 22.1462 -4.6890 111.2894 0.0000 25.2578 0.0000
# 4 0.0000 0.0000 0.0000 26.8336 0.0000 0.5756
# 5 30.2909 -3.3148 25.2578 0.0000 32.2536 0.0000
# 6 0.0000 0.0000 0.0000 0.5756 0.0000 34.9837
#
#
#
# Elastic Compliance Matrix: (Units=1/GPa)
#
#
# Indices 1 2 3 4 5 6 
#
# 1 0.012457 -0.002655 0.000154 0.000000 -0.012092 0.000000
# 2 -0.002655 0.014413 0.000284 0.000000 0.003752 0.000000
# 3 0.000154 0.000284 0.010937 0.000000 -0.008680 0.000000
# 4 0.000000 0.000000 0.000000 0.037280 0.000000 -0.000613
# 5 -0.012092 0.003752 -0.008680 0.000000 0.049543 0.000000
# 6 0.000000 0.000000 0.000000 -0.000613 0.000000 0.028595
#
#
# Mechanical properties :
#
#
# Convention : Reuss Voigt Hill
#
# Bulk Modulus (GPa) = 29.96466 39.49625 34.73045
# Shear Modulus (GPa) = 29.62388 36.55793 33.09090
#
# Velocity S-wave (km/s) = 3.39503 3.77150 3.58821
# Velocity P-wave (km/s) = 5.19877 5.85944 5.53896
#
# Compressibility (1/GPa) = 0.03337265
#
# Stress axis : x y z
#
# Youngs Moduli (GPa) = 80.27735 69.38184 91.43366
#
# Poissons Ratio (x) = 0.18418 -0.01405
# Poissons Ratio (y) = 0.21311 -0.02597
# Poissons Ratio (z) = -0.01233 -0.01970
#
# Static dielectric constant tensor:
#      x y z
#    x 2.243690 0.000000 -0.096730 
#    y 0.000000 1.980130 0.000000 
#    z -0.096730 0.000000 2.055340 
# 
# From -- ./inp_files/12667.got.cif
#   From: 2010.05.17/outbox.cif.g08.bks.cpg/sg4_7_cif.got.tgz:12667.got - 2010.06.03 18:43:04.
