data_PCOD9115669
_publ_section_title
;
Structure prediction by ZEFSAII (Michael W. Deem and Ramdas Pophale) SiO2 
 PCOD9115669
Probable space group: P 21
;
_chemical_formula_sum "Si O2"
_cell_formula_units_Z 16
_cell_length_a 5.402590
_cell_length_b 13.942410
_cell_length_c 9.805117
_cell_angle_alpha 90.000000
_cell_angle_beta 65.637915
_cell_angle_gamma 90.000000
_cell_volume 672.806900
_symmetry_space_group_name_H-M "P 21"
_symmetry_group_IT_number 4
_symmetry_cell_setting 'monoclinic'
loop_
_space_group_symop_operation_xyz
x,y,z
-x,1/2+y,-z
loop_
_atom_site_type_symbol
_atom_site_label
_atom_site_fract_x
_atom_site_fract_y
_atom_site_fract_z
Si Si1 0.999706 0.100540 0.314697
Si Si2 0.193224 0.582164 0.346793
Si Si3 0.664745 0.826055 0.057106
Si Si4 0.454355 0.706099 0.888538
Si Si5 0.269358 0.202885 0.695781
Si Si6 0.856780 0.019763 0.077566
Si Si7 0.981628 0.428814 0.211232
Si Si8 0.606763 0.286288 0.384030
O O1 0.286318 0.137225 0.192980
O O2 0.972462 0.063857 0.475039
O O3 0.806643 0.194959 0.360135
O O4 0.912290 0.021030 0.224839
O O5 0.483548 0.629011 0.319352
O O6 0.995146 0.650534 0.302705
O O7 0.196617 0.487540 0.252162
O O8 0.763642 0.769914 0.165712
O O9 0.628155 0.938211 0.100351
O O10 0.438975 0.766029 0.030482
O O11 0.891053 0.833899 0.886624
O O12 0.214558 0.629194 0.936453
O O13 0.476809 0.775389 0.753942
O O14 0.376214 0.268389 0.546519
O O15 0.079262 0.988512 0.913713
O O16 0.745289 0.390137 0.360637
#
# Coordination Sequence:
#
# PCOD9115669 Si02
#       8
#     2   2   2   2   2   2   2   2
#     4  10  20  42  65  93 136 182 231 288 359 425
#     4  11  25  46  73 106 141 192 240 297 363 432
#     4  10  24  42  65 107 137 188 239 296 360 425
#     4  11  20  40  72  93 138 186 233 294 357 428
#     4  11  25  48  72 103 146 190 241 297 361 434
#     4   9  23  41  63 102 135 182 242 283 367 420
#     4  10  23  44  65 106 138 183 239 298 360 430
#     4  10  22  43  67  96 137 183 237 295 359 426
#
# _framework density 23.780965999999999
#
# number of rings (size 3 to 8) (size 9 to 14) (size 15 to 20)
#    0.750    1.000    2.500    0.750    1.750    4.000 
#    9.000    0.000    0.000    0.000    0.000    0.000 
#    0.000    0.000    0.000    0.000    0.000    0.000 
#
# Total GULP energy -89254.206048 kJ/mol
# GULP energy per Si atom -5578.387878 kJ/mol
# Density = 2.372684 g / cm^3
# Si number density = 23.780966 Si / 1000 Ang^3
#
#
#
# Elastic Constant Matrix: (Units=GPa)
#
#
# Indices 1 2 3 4 5 6 
#
# 1 52.9775 21.3547 26.6843 0.0000 7.9635 0.0000
# 2 21.3547 84.0160 57.7641 0.0000 5.5601 0.0000
# 3 26.6843 57.7641 129.4415 0.0000 25.1227 0.0000
# 4 0.0000 0.0000 0.0000 45.4560 0.0000 -1.6660
# 5 7.9635 5.5601 25.1227 0.0000 33.4112 0.0000
# 6 0.0000 0.0000 0.0000 -1.6660 0.0000 15.1467
#
#
#
# Elastic Compliance Matrix: (Units=1/GPa)
#
#
# Indices 1 2 3 4 5 6 
#
# 1 0.022000 -0.003851 -0.002252 0.000000 -0.002909 0.000000
# 2 -0.003851 0.018181 -0.008091 0.000000 0.003976 0.000000
# 3 -0.002252 -0.008091 0.013389 0.000000 -0.008184 0.000000
# 4 0.000000 0.000000 0.000000 0.022088 0.000000 0.002430
# 5 -0.002909 0.003976 -0.008184 0.000000 0.036116 0.000000
# 6 0.000000 0.000000 0.000000 0.002430 0.000000 0.066288
#
#
# Mechanical properties :
#
#
# Convention : Reuss Voigt Hill
#
# Bulk Modulus (GPa) = 39.71182 53.11570 46.41376
# Shear Modulus (GPa) = 23.27257 29.51157 26.39207
#
# Velocity S-wave (km/s) = 3.13169 3.52657 3.33498
# Velocity P-wave (km/s) = 5.46002 6.24228 5.86421
#
# Compressibility (1/GPa) = 0.02518142
#
# Stress axis : x y z
#
# Youngs Moduli (GPa) = 45.45483 55.00169 74.68777
#
# Poissons Ratio (x) = 0.21180 0.16821
# Poissons Ratio (y) = 0.17504 0.60433
# Poissons Ratio (z) = 0.10237 0.44504
#
# Static dielectric constant tensor:
#      x y z
#    x 2.083150 0.000000 -0.017350 
#    y 0.000000 1.913320 0.000000 
#    z -0.017350 0.000000 1.895580 
# 
# From -- ./inp_files/4733.got.cif
#   From: 2010.05.17/outbox.cif.g08.bks.cpg/sg4_3_cif.got.tgz:4733.got - 2010.06.03 18:43:04.
