data_PCOD9115486
_publ_section_title
;
Structure prediction by ZEFSAII (Michael W. Deem and Ramdas Pophale) SiO2 
 PCOD9115486
Probable space group: P 21
;
_chemical_formula_sum "Si O2"
_cell_formula_units_Z 16
_cell_length_a 11.067550
_cell_length_b 8.056562
_cell_length_c 7.881870
_cell_angle_alpha 90.000000
_cell_angle_beta 60.217473
_cell_angle_gamma 90.000000
_cell_volume 609.970307
_symmetry_space_group_name_H-M "P 21"
_symmetry_group_IT_number 4
_symmetry_cell_setting 'monoclinic'
loop_
_space_group_symop_operation_xyz
x,y,z
-x,1/2+y,-z
loop_
_atom_site_type_symbol
_atom_site_label
_atom_site_fract_x
_atom_site_fract_y
_atom_site_fract_z
Si Si1 0.801286 0.348820 0.554007
Si Si2 0.827210 0.985963 0.377255
Si Si3 0.655769 0.470309 0.310236
Si Si4 0.589256 0.094270 0.312937
Si Si5 0.421984 0.017357 0.093078
Si Si6 0.680415 0.878329 0.781763
Si Si7 0.930479 0.609610 0.983406
Si Si8 0.056923 0.460726 0.211702
O O1 0.809655 0.155896 0.499000
O O2 0.731633 0.432142 0.436932
O O3 0.702887 0.390191 0.780537
O O4 0.954041 0.431405 0.443977
O O5 0.727590 0.003675 0.282671
O O6 0.759708 0.851129 0.547800
O O7 0.982766 0.986075 0.199037
O O8 0.621281 0.287348 0.266448
O O9 0.521687 0.575537 0.456417
O O10 0.770654 0.560566 0.117072
O O11 0.517710 0.020766 0.196521
O O12 0.357775 0.198692 0.119850
O O13 0.534163 0.973782 0.872062
O O14 0.788249 0.973064 0.827564
O O15 0.001603 0.597163 0.119852
O O16 0.951588 0.788730 0.887153
#
# Coordination Sequence:
#
# PCOD9115486 Si02
#       8
#     2   2   2   2   2   2   2   2
#     4   8  19  40  60  85 122 161 209 262 313 373
#     4  10  21  40  63  91 125 164 213 265 318 377
#     4   9  19  35  62  95 122 158 213 267 308 365
#     4  10  20  39  65  90 122 168 215 260 314 379
#     4  11  24  42  62  91 130 170 214 262 319 384
#     4  12  26  41  63  97 133 169 210 265 326 377
#     4  10  22  42  66  94 127 168 218 261 313 387
#     4  10  23  43  67  95 127 166 212 266 321 380
#
# _framework density 26.230788
#
# number of rings (size 3 to 8) (size 9 to 14) (size 15 to 20)
#    0.000    2.000    0.000    3.000    0.000   11.000 
#    0.000    3.750    0.000    0.000    0.000    0.000 
#    0.000    0.000    0.000    0.000    0.000    0.000 
#
# Total GULP energy -89673.957149 kJ/mol
# GULP energy per Si atom -5604.622322 kJ/mol
# Density = 2.617109 g / cm^3
# Si number density = 26.230788 Si / 1000 Ang^3
#
#
#
# Elastic Constant Matrix: (Units=GPa)
#
#
# Indices 1 2 3 4 5 6 
#
# 1 59.6483 10.4055 45.6215 0.0000 -4.6933 0.0000
# 2 10.4055 59.9557 7.6040 0.0000 -1.6087 0.0000
# 3 45.6215 7.6040 124.5694 0.0000 -20.8604 0.0000
# 4 0.0000 0.0000 0.0000 39.1561 0.0000 2.5534
# 5 -4.6933 -1.6087 -20.8604 0.0000 51.5059 0.0000
# 6 0.0000 0.0000 0.0000 2.5534 0.0000 27.6404
#
#
#
# Elastic Compliance Matrix: (Units=1/GPa)
#
#
# Indices 1 2 3 4 5 6 
#
# 1 0.023936 -0.003075 -0.008828 0.000000 -0.001490 0.000000
# 2 -0.003075 0.017205 0.000128 0.000000 0.000309 0.000000
# 3 -0.008828 0.000128 0.011928 0.000000 0.004031 0.000000
# 4 0.000000 0.000000 0.000000 0.025694 0.000000 -0.002374
# 5 -0.001490 0.000309 0.004031 0.000000 0.020921 0.000000
# 6 0.000000 0.000000 0.000000 -0.002374 0.000000 0.036398
#
#
# Mechanical properties :
#
#
# Convention : Reuss Voigt Hill
#
# Bulk Modulus (GPa) = 33.87706 41.27058 37.57382
# Shear Modulus (GPa) = 29.50342 35.69663 32.60002
#
# Velocity S-wave (km/s) = 3.35739 3.69300 3.52918
# Velocity P-wave (km/s) = 5.28890 5.82684 5.56437
#
# Compressibility (1/GPa) = 0.02951850
#
# Stress axis : x y z
#
# Youngs Moduli (GPa) = 41.77785 58.12365 83.83653
#
# Poissons Ratio (x) = 0.17870 0.74012
# Poissons Ratio (y) = 0.12845 -0.01069
# Poissons Ratio (z) = 0.36882 -0.00741
#
# Static dielectric constant tensor:
#      x y z
#    x 2.051830 0.000000 0.005440 
#    y 0.000000 1.994810 0.000000 
#    z 0.005440 0.000000 2.103790 
# 
# From -- ./inp_files/7990.got.cif
#   From: 2010.05.17/outbox.cif.g08.bks.cpg/sg4_4_cif.got.tgz:7990.got - 2010.06.03 18:43:04.
