data_PCOD9115043
_publ_section_title
;
Structure prediction by ZEFSAII (Michael W. Deem and Ramdas Pophale) SiO2 
 PCOD9115043
Probable space group: P 21
;
_chemical_formula_sum "Si O2"
_cell_formula_units_Z 14
_cell_length_a 9.268166
_cell_length_b 9.420850
_cell_length_c 7.591805
_cell_angle_alpha 90.000000
_cell_angle_beta 58.904565
_cell_angle_gamma 90.000000
_cell_volume 567.621789
_symmetry_space_group_name_H-M "P 21"
_symmetry_group_IT_number 4
_symmetry_cell_setting 'monoclinic'
loop_
_space_group_symop_operation_xyz
x,y,z
-x,1/2+y,-z
loop_
_atom_site_type_symbol
_atom_site_label
_atom_site_fract_x
_atom_site_fract_y
_atom_site_fract_z
Si Si1 0.248671 0.955720 0.351979
Si Si2 0.464232 0.653319 0.759696
Si Si3 0.961170 0.803083 0.678129
Si Si4 0.266581 0.368490 0.468501
Si Si5 0.597282 0.146958 0.787504
Si Si6 0.114086 0.568555 0.822234
Si Si7 0.767131 0.625108 0.012863
O O1 0.071990 0.939846 0.566008
O O2 0.307435 0.793281 0.297886
O O3 0.398231 0.031707 0.363114
O O4 0.230349 0.023987 0.166415
O O5 0.554667 0.792435 0.626837
O O6 0.274967 0.628735 0.819350
O O7 0.456349 0.655575 0.975513
O O8 0.077143 0.679247 0.685837
O O9 0.862785 0.771059 0.559108
O O10 0.813038 0.785920 0.917103
O O11 0.300226 0.506235 0.324866
O O12 0.174597 0.421461 0.700510
O O13 0.419743 0.130774 0.795283
O O14 0.926857 0.568535 0.024055
#
# Coordination Sequence:
#
# PCOD9115043 Si02
#       7
#     2   2   2   2   2   2   2
#     4  11  20  38  65  87 115 162 204 239 291 367
#     4  11  24  38  62  93 125 152 199 261 302 341
#     4  10  19  40  59  89 112 165 201 244 279 374
#     4  12  22  41  65  87 118 167 205 241 293 370
#     4  11  22  40  64  88 117 162 206 240 298 364
#     4  10  23  38  61  87 127 149 199 253 302 342
#     4   9  20  35  58  85 120 149 198 242 291 352
#
# _framework density 24.66431
#
# number of rings (size 3 to 8) (size 9 to 14) (size 15 to 20)
#    0.857    0.571    5.714    1.714    2.000    0.000 
#    0.000    5.714    3.143    0.000    0.000    0.000 
#    0.000    0.000    0.000    0.000    0.000    0.000 
#
# Total GULP energy -78067.962622 kJ/mol
# GULP energy per Si atom -5576.283044 kJ/mol
# Density = 2.460817 g / cm^3
# Si number density = 24.664310 Si / 1000 Ang^3
#
#
#
# Elastic Constant Matrix: (Units=GPa)
#
#
# Indices 1 2 3 4 5 6 
#
# 1 155.2983 13.5372 16.0962 0.0000 -25.0101 0.0000
# 2 13.5372 73.4887 8.4603 0.0000 0.6311 0.0000
# 3 16.0962 8.4603 34.2094 0.0000 -1.3143 0.0000
# 4 0.0000 0.0000 0.0000 16.7049 0.0000 -20.0204
# 5 -25.0101 0.6311 -1.3143 0.0000 22.8925 0.0000
# 6 0.0000 0.0000 0.0000 -20.0204 0.0000 33.7304
#
#
#
# Elastic Compliance Matrix: (Units=1/GPa)
#
#
# Indices 1 2 3 4 5 6 
#
# 1 0.008326 -0.001234 -0.003269 0.000000 0.008942 0.000000
# 2 -0.001234 0.014197 -0.003004 0.000000 -0.001912 0.000000
# 3 -0.003269 -0.003004 0.031448 0.000000 -0.001683 0.000000
# 4 0.000000 0.000000 0.000000 0.207383 0.000000 0.123090
# 5 0.008942 -0.001912 -0.001683 0.000000 0.053408 0.000000
# 6 0.000000 0.000000 0.000000 0.123090 0.000000 0.102706
#
#
# Mechanical properties :
#
#
# Convention : Reuss Voigt Hill
#
# Bulk Modulus (GPa) = 25.66901 37.68708 31.67805
# Shear Modulus (GPa) = 11.22420 29.65907 20.44164
#
# Velocity S-wave (km/s) = 2.13557 3.47148 2.88200
# Velocity P-wave (km/s) = 4.06335 5.60191 4.89348
#
# Compressibility (1/GPa) = 0.03895748
#
# Stress axis : x y z
#
# Youngs Moduli (GPa) = 120.11021 70.43692 31.79858
#
# Poissons Ratio (x) = 0.08693 0.10394
# Poissons Ratio (y) = 0.14823 0.09552
# Poissons Ratio (z) = 0.39260 0.21158
#
# Static dielectric constant tensor:
#      x y z
#    x 2.016100 0.000000 -0.037760 
#    y 0.000000 1.979430 0.000000 
#    z -0.037760 0.000000 2.013200 
# 
# From -- ./inp_files/5246.got.cif
#   From: 2010.05.17/outbox.cif.g08.bks.cpg/sg4_3_cif.got.tgz:5246.got - 2010.06.03 18:43:04.
