data_PCOD9115955
_publ_section_title
;
Structure prediction by ZEFSAII (Michael W. Deem and Ramdas Pophale) SiO2 
 PCOD9115955
Probable space group: P 21
;
_chemical_formula_sum "Si O2"
_cell_formula_units_Z 16
_cell_length_a 9.539983
_cell_length_b 7.668032
_cell_length_c 12.469404
_cell_angle_alpha 90.000000
_cell_angle_beta 45.284367
_cell_angle_gamma 90.000000
_cell_volume 648.197001
_symmetry_space_group_name_H-M "P 21"
_symmetry_group_IT_number 4
_symmetry_cell_setting 'monoclinic'
loop_
_space_group_symop_operation_xyz
x,y,z
-x,1/2+y,-z
loop_
_atom_site_type_symbol
_atom_site_label
_atom_site_fract_x
_atom_site_fract_y
_atom_site_fract_z
Si Si1 0.290842 0.111440 0.770901
Si Si2 0.968208 0.581013 0.748271
Si Si3 0.679290 0.117740 0.693865
Si Si4 0.279636 0.588981 0.003043
Si Si5 0.881757 0.696921 0.344650
Si Si6 0.945098 0.775167 0.534594
Si Si7 0.918639 0.241278 0.085833
Si Si8 0.463938 0.924256 0.992281
O O1 0.508023 0.134276 0.699694
O O2 0.284893 0.132671 0.646214
O O3 0.199295 0.922892 0.851283
O O4 0.128980 0.241622 0.910501
O O5 0.101066 0.406880 0.669414
O O6 0.956599 0.699835 0.648436
O O7 0.037421 0.683602 0.816768
O O8 0.751557 0.501465 0.877709
O O9 0.824291 0.282102 0.624157
O O10 0.577796 0.062207 0.857628
O O11 0.823481 0.952541 0.596754
O O12 0.210377 0.611842 0.918862
O O13 0.431919 0.746745 0.944874
O O14 0.398963 0.419271 0.976029
O O15 0.083212 0.618102 0.182528
O O16 0.858087 0.658115 0.483234
#
# Coordination Sequence:
#
# PCOD9115955 Si02
#       8
#     2   2   2   2   2   2   2   2
#     4  11  24  46  74 105 157 188 248 308 370 447
#     4  11  24  44  71 108 146 191 252 302 377 442
#     4  12  25  50  68 107 146 195 247 301 370 439
#     4  10  21  38  66 105 140 175 238 300 361 424
#     4  10  23  45  66 102 149 192 235 305 370 449
#     4  12  26  47  75 103 150 198 247 309 367 450
#     4  11  22  42  71 111 144 195 239 315 373 434
#     4  11  21  42  69 103 134 184 240 306 350 425
#
# _framework density 24.683855000000001
#
# number of rings (size 3 to 8) (size 9 to 14) (size 15 to 20)
#    0.000    1.000    5.000    2.250    1.750    2.000 
#    4.500    2.500    0.000    0.000    0.000    0.000 
#    0.000    0.000    0.000    0.000    0.000    0.000 
#
# Total GULP energy -89537.032246 kJ/mol
# GULP energy per Si atom -5596.064515 kJ/mol
# Density = 2.462767 g / cm^3
# Si number density = 24.683855 Si / 1000 Ang^3
#
#
#
# Elastic Constant Matrix: (Units=GPa)
#
#
# Indices 1 2 3 4 5 6 
#
# 1 225.8111 45.8076 35.4130 0.0000 22.0175 0.0000
# 2 45.8076 81.1642 18.8269 0.0000 -3.7080 0.0000
# 3 35.4130 18.8269 61.7173 0.0000 24.1015 0.0000
# 4 0.0000 0.0000 0.0000 34.0637 0.0000 -3.1631
# 5 22.0175 -3.7080 24.1015 0.0000 48.8164 0.0000
# 6 0.0000 0.0000 0.0000 -3.1631 0.0000 38.5260
#
#
#
# Elastic Compliance Matrix: (Units=1/GPa)
#
#
# Indices 1 2 3 4 5 6 
#
# 1 0.005419 -0.002795 -0.001510 0.000000 -0.001911 0.000000
# 2 -0.002795 0.015270 -0.004955 0.000000 0.004867 0.000000
# 3 -0.001510 -0.004955 0.022872 0.000000 -0.010987 0.000000
# 4 0.000000 0.000000 0.000000 0.029582 0.000000 0.002429
# 5 -0.001911 0.004867 -0.010987 0.000000 0.027141 0.000000
# 6 0.000000 0.000000 0.000000 0.002429 0.000000 0.026156
#
#
# Mechanical properties :
#
#
# Convention : Reuss Voigt Hill
#
# Bulk Modulus (GPa) = 39.93688 63.19864 51.56776
# Shear Modulus (GPa) = 32.61435 42.19089 37.40262
#
# Velocity S-wave (km/s) = 3.63889 4.13879 3.89687
# Velocity P-wave (km/s) = 5.81978 6.96407 6.41748
#
# Compressibility (1/GPa) = 0.02503951
#
# Stress axis : x y z
#
# Youngs Moduli (GPa) = 184.54772 65.48841 43.72199
#
# Poissons Ratio (x) = 0.18305 0.06604
# Poissons Ratio (y) = 0.51583 0.21664
# Poissons Ratio (z) = 0.27875 0.32448
#
# Static dielectric constant tensor:
#      x y z
#    x 1.984170 0.000000 0.042550 
#    y 0.000000 2.045000 0.000000 
#    z 0.042550 0.000000 2.000080 
# 
# From -- ./inp_files/11031.got.cif
#   From: 2010.05.17/outbox.cif.g08.bks.cpg/sg4_6_cif.got.tgz:11031.got - 2010.06.03 18:43:04.
