data_PCOD9115864
_publ_section_title
;
Structure prediction by ZEFSAII (Michael W. Deem and Ramdas Pophale) SiO2 
 PCOD9115864
Probable space group: P 21
;
_chemical_formula_sum "Si O2"
_cell_formula_units_Z 14
_cell_length_a 17.037505
_cell_length_b 5.022279
_cell_length_c 15.749605
_cell_angle_alpha 90.000000
_cell_angle_beta 155.092897
_cell_angle_gamma 90.000000
_cell_volume 567.559641
_symmetry_space_group_name_H-M "P 21"
_symmetry_group_IT_number 4
_symmetry_cell_setting 'monoclinic'
loop_
_space_group_symop_operation_xyz
x,y,z
-x,1/2+y,-z
loop_
_atom_site_type_symbol
_atom_site_label
_atom_site_fract_x
_atom_site_fract_y
_atom_site_fract_z
Si Si1 0.284238 0.806170 0.514654
Si Si2 0.766837 0.102269 0.074899
Si Si3 0.638106 0.796320 0.299270
Si Si4 0.969678 0.467399 0.160600
Si Si5 0.029548 0.037638 0.476625
Si Si6 0.111809 0.272330 0.132985
Si Si7 0.647403 0.783649 0.785326
O O1 0.333901 0.597653 0.639841
O O2 0.076445 0.739395 0.283992
O O3 0.429036 0.750789 0.581323
O O4 0.312461 0.102268 0.573822
O O5 0.918037 0.321529 0.195448
O O6 0.884091 0.945137 0.260389
O O7 0.579878 0.233610 0.929982
O O8 0.705863 0.957647 0.926615
O O9 0.781657 0.684865 0.370331
O O10 0.103453 0.325242 0.224482
O O11 0.768437 0.519977 0.921771
O O12 0.927938 0.272183 0.429242
O O13 0.284258 0.355932 0.242113
O O14 0.051454 0.967730 0.061674
#
# Coordination Sequence:
#
# PCOD9115864 Si02
#       7
#     2   2   2   2   2   2   2
#     4  11  23  38  68  98 131 172 227 263 323 394
#     4  11  23  42  72  91 133 178 218 261 347 392
#     4  11  24  44  67 100 128 170 218 271 322 413
#     4  11  21  39  67  95 131 182 218 274 326 390
#     4  12  28  45  69  99 132 164 216 278 333 404
#     4  10  21  37  62  94 133 173 226 273 321 382
#     4  10  22  41  63  99 132 181 221 278 318 399
#
# _framework density 24.667010000000001
#
# number of rings (size 3 to 8) (size 9 to 14) (size 15 to 20)
#    0.000    1.143    4.286    1.714    2.000    1.143 
#    0.000    8.571    0.000    0.000    0.000    0.000 
#    0.000    0.000    0.000    0.000    0.000    0.000 
#
# Total GULP energy -78190.864888 kJ/mol
# GULP energy per Si atom -5585.061778 kJ/mol
# Density = 2.461087 g / cm^3
# Si number density = 24.667010 Si / 1000 Ang^3
#
#
#
# Elastic Constant Matrix: (Units=GPa)
#
#
# Indices 1 2 3 4 5 6 
#
# 1 104.4798 13.8088 32.1588 0.0000 22.7314 0.0000
# 2 13.8088 57.8122 14.5957 0.0000 -11.0513 0.0000
# 3 32.1588 14.5957 83.2655 0.0000 21.4084 0.0000
# 4 0.0000 0.0000 0.0000 27.9984 0.0000 -4.6498
# 5 22.7314 -11.0513 21.4084 0.0000 37.9473 0.0000
# 6 0.0000 0.0000 0.0000 -4.6498 0.0000 42.1987
#
#
#
# Elastic Compliance Matrix: (Units=1/GPa)
#
#
# Indices 1 2 3 4 5 6 
#
# 1 0.012328 -0.003755 -0.002250 0.000000 -0.007209 0.000000
# 2 -0.003755 0.021763 -0.005348 0.000000 0.011605 0.000000
# 3 -0.002250 -0.005348 0.016223 0.000000 -0.009363 0.000000
# 4 0.000000 0.000000 0.000000 0.036382 0.000000 0.004009
# 5 -0.007209 0.011605 -0.009363 0.000000 0.039333 0.000000
# 6 0.000000 0.000000 0.000000 0.004009 0.000000 0.024139
#
#
# Mechanical properties :
#
#
# Convention : Reuss Voigt Hill
#
# Bulk Modulus (GPa) = 36.22007 40.74266 38.48137
# Shear Modulus (GPa) = 27.46089 33.96183 30.71136
#
# Velocity S-wave (km/s) = 3.34018 3.71457 3.53234
# Velocity P-wave (km/s) = 5.43978 5.91187 5.68073
#
# Compressibility (1/GPa) = 0.02760900
#
# Stress axis : x y z
#
# Youngs Moduli (GPa) = 81.11294 45.94990 61.63948
#
# Poissons Ratio (x) = 0.17254 0.13867
# Poissons Ratio (y) = 0.30457 0.32966
# Poissons Ratio (z) = 0.18248 0.24575
#
# Static dielectric constant tensor:
#      x y z
#    x 2.032610 0.000000 -0.027700 
#    y 0.000000 1.983340 0.000000 
#    z -0.027700 0.000000 1.947450 
# 
# From -- ./inp_files/14054.got.cif
#   From: 2010.05.17/outbox.cif.g08.bks.cpg/sg4_8_cif.got.tgz:14054.got - 2010.06.03 18:43:04.
