data_PCOD9115846
_publ_section_title
;
Structure prediction by ZEFSAII (Michael W. Deem and Ramdas Pophale) SiO2 
 PCOD9115846
Probable space group: P 21
;
_chemical_formula_sum "Si O2"
_cell_formula_units_Z 16
_cell_length_a 14.482143
_cell_length_b 6.814635
_cell_length_c 22.794129
_cell_angle_alpha 90.000000
_cell_angle_beta 161.815601
_cell_angle_gamma 90.000000
_cell_volume 702.035603
_symmetry_space_group_name_H-M "P 21"
_symmetry_group_IT_number 4
_symmetry_cell_setting 'monoclinic'
loop_
_space_group_symop_operation_xyz
x,y,z
-x,1/2+y,-z
loop_
_atom_site_type_symbol
_atom_site_label
_atom_site_fract_x
_atom_site_fract_y
_atom_site_fract_z
Si Si1 0.640738 0.795200 0.797568
Si Si2 0.349082 0.100864 0.532930
Si Si3 0.358067 0.951391 0.966744
Si Si4 0.126862 0.339621 0.814714
Si Si5 0.289815 0.003741 0.678235
Si Si6 0.844040 0.121647 0.067877
Si Si7 0.754186 0.452651 0.781195
Si Si8 0.861313 0.202781 0.329639
O O1 0.417994 0.823455 0.717362
O O2 0.621436 0.589396 0.752354
O O3 0.546482 0.967417 0.695531
O O4 0.963348 0.842972 0.018750
O O5 0.545904 0.281803 0.630021
O O6 0.082374 0.196335 0.408845
O O7 0.169929 0.952200 0.383389
O O8 0.581814 0.890085 0.049382
O O9 0.576870 0.074352 0.141462
O O10 0.201892 0.778190 0.908229
O O11 0.110884 0.106832 0.798426
O O12 0.177071 0.413953 0.911051
O O13 0.194183 0.922805 0.683109
O O14 0.035259 0.100917 0.487706
O O15 0.566594 0.145836 0.856646
O O16 0.128537 0.101117 0.198450
#
# Coordination Sequence:
#
# PCOD9115846 Si02
#       8
#     2   2   2   2   2   2   2   2
#     4  10  22  41  66  93 131 185 222 283 340 400
#     4  10  24  43  64  99 134 181 237 269 344 409
#     4  11  22  42  69  97 136 182 224 285 359 408
#     4  11  23  44  68  96 140 179 231 287 348 414
#     4  10  21  37  60 102 134 167 226 279 346 398
#     4  11  24  41  67 101 132 180 233 281 341 412
#     4  11  23  43  69  96 140 182 231 278 336 414
#     4  10  21  37  63 100 137 170 218 288 338 409
#
# _framework density 22.790866999999999
#
# number of rings (size 3 to 8) (size 9 to 14) (size 15 to 20)
#    0.000    1.500    3.750    0.750    1.750    3.000 
#    2.250    0.000    0.000    0.000    0.000    0.000 
#    0.000    0.000    0.000    0.000    0.000    0.000 
#
# Total GULP energy -89367.726413 kJ/mol
# GULP energy per Si atom -5585.482901 kJ/mol
# Density = 2.273899 g / cm^3
# Si number density = 22.790867 Si / 1000 Ang^3
#
#
#
# Elastic Constant Matrix: (Units=GPa)
#
#
# Indices 1 2 3 4 5 6 
#
# 1 51.2074 13.1696 16.6590 0.0000 -3.9175 0.0000
# 2 13.1696 64.3970 23.1293 0.0000 16.4272 0.0000
# 3 16.6590 23.1293 72.6324 0.0000 9.0561 0.0000
# 4 0.0000 0.0000 0.0000 25.6848 0.0000 0.1743
# 5 -3.9175 16.4272 9.0561 0.0000 20.0598 0.0000
# 6 0.0000 0.0000 0.0000 0.1743 0.0000 44.8045
#
#
#
# Elastic Compliance Matrix: (Units=1/GPa)
#
#
# Indices 1 2 3 4 5 6 
#
# 1 0.023603 -0.006059 -0.004956 0.000000 0.011809 0.000000
# 2 -0.006059 0.022678 -0.003570 0.000000 -0.018143 0.000000
# 3 -0.004956 -0.003570 0.016740 0.000000 -0.005602 0.000000
# 4 0.000000 0.000000 0.000000 0.038934 0.000000 -0.000151
# 5 0.011809 -0.018143 -0.005602 0.000000 0.069544 0.000000
# 6 0.000000 0.000000 0.000000 -0.000151 0.000000 0.022320
#
#
# Mechanical properties :
#
#
# Convention : Reuss Voigt Hill
#
# Bulk Modulus (GPa) = 29.54201 32.68364 31.11283
# Shear Modulus (GPa) = 21.34267 27.12843 24.23555
#
# Velocity S-wave (km/s) = 3.06348 3.45384 3.26450
# Velocity P-wave (km/s) = 5.05010 5.50247 5.28113
#
# Compressibility (1/GPa) = 0.03385010
#
# Stress axis : x y z
#
# Youngs Moduli (GPa) = 42.36831 44.09542 59.73705
#
# Poissons Ratio (x) = 0.26718 0.29608
# Poissons Ratio (y) = 0.25671 0.21325
# Poissons Ratio (z) = 0.20999 0.15741
#
# Static dielectric constant tensor:
#      x y z
#    x 1.844540 0.000000 -0.005860 
#    y 0.000000 1.852240 0.000000 
#    z -0.005860 0.000000 1.898020 
# 
# From -- ./inp_files/14532.got.cif
#   From: 2010.05.17/outbox.cif.g08.bks.cpg/sg4_8_cif.got.tgz:14532.got - 2010.06.03 18:43:04.
