data_PCOD9115586
_publ_section_title
;
Structure prediction by ZEFSAII (Michael W. Deem and Ramdas Pophale) SiO2 
 PCOD9115586
Probable space group: P 21
;
_chemical_formula_sum "Si O2"
_cell_formula_units_Z 14
_cell_length_a 5.644394
_cell_length_b 13.760276
_cell_length_c 7.261092
_cell_angle_alpha 90.000000
_cell_angle_beta 93.563771
_cell_angle_gamma 90.000000
_cell_volume 562.866975
_symmetry_space_group_name_H-M "P 21"
_symmetry_group_IT_number 4
_symmetry_cell_setting 'monoclinic'
loop_
_space_group_symop_operation_xyz
x,y,z
-x,1/2+y,-z
loop_
_atom_site_type_symbol
_atom_site_label
_atom_site_fract_x
_atom_site_fract_y
_atom_site_fract_z
Si Si1 0.565506 0.044050 0.215778
Si Si2 0.406334 0.329659 0.747176
Si Si3 0.598180 0.058958 0.658738
Si Si4 0.475429 0.844020 0.661644
Si Si5 0.762382 0.239734 0.055761
Si Si6 0.910599 0.659096 0.357269
Si Si7 0.825630 0.668963 0.775391
O O1 0.590450 0.058060 0.435898
O O2 0.691420 0.130341 0.113927
O O3 0.288652 0.067731 0.167618
O O4 0.645876 0.936255 0.177788
O O5 0.548092 0.342680 0.559825
O O6 0.169702 0.269652 0.687040
O O7 0.585749 0.277169 0.894149
O O8 0.339597 0.103332 0.699874
O O9 0.844616 0.115568 0.713548
O O10 0.592781 0.946542 0.718623
O O11 0.250360 0.818307 0.776448
O O12 0.630567 0.749715 0.715900
O O13 0.039465 0.220241 0.050730
O O14 0.944470 0.651760 0.581902
#
# Coordination Sequence:
#
# PCOD9115586 Si02
#       7
#     2   2   2   2   2   2   2
#     4   9  20  43  61  97 136 183 223 293 351 421
#     4  10  23  43  66 100 133 180 241 282 353 422
#     4  10  20  40  70  99 136 179 231 275 354 411
#     4   9  22  41  66  97 135 177 226 287 343 424
#     4  11  21  42  68  93 136 180 227 291 349 413
#     4  10  21  40  65 100 132 181 227 284 335 423
#     4   9  19  39  66  90 132 182 219 282 355 402
#
# _framework density 24.872661000000001
#
# number of rings (size 3 to 8) (size 9 to 14) (size 15 to 20)
#    0.000    2.286    1.429    0.857    2.000    1.143 
#    7.714    0.000    0.000    0.000    0.000    0.000 
#    0.000    0.000    0.000    0.000    0.000    0.000 
#
# Total GULP energy -78133.144353 kJ/mol
# GULP energy per Si atom -5580.938882 kJ/mol
# Density = 2.481605 g / cm^3
# Si number density = 24.872661 Si / 1000 Ang^3
#
#
#
# Elastic Constant Matrix: (Units=GPa)
#
#
# Indices 1 2 3 4 5 6 
#
# 1 92.1612 42.6258 18.4488 0.0000 9.5628 0.0000
# 2 42.6258 157.9591 15.1642 0.0000 6.7587 0.0000
# 3 18.4488 15.1642 98.9172 0.0000 -0.2207 0.0000
# 4 0.0000 0.0000 0.0000 24.6249 0.0000 6.3704
# 5 9.5628 6.7587 -0.2207 0.0000 28.1913 0.0000
# 6 0.0000 0.0000 0.0000 6.3704 0.0000 22.3895
#
#
#
# Elastic Compliance Matrix: (Units=1/GPa)
#
#
# Indices 1 2 3 4 5 6 
#
# 1 0.013102 -0.003189 -0.001963 0.000000 -0.003695 0.000000
# 2 -0.003189 0.007270 -0.000521 0.000000 -0.000665 0.000000
# 3 -0.001963 -0.000521 0.010557 0.000000 0.000873 0.000000
# 4 0.000000 0.000000 0.000000 0.043836 0.000000 -0.012472
# 5 -0.003695 -0.000665 0.000873 0.000000 0.036892 0.000000
# 6 0.000000 0.000000 0.000000 -0.012472 0.000000 0.048212
#
#
# Mechanical properties :
#
#
# Convention : Reuss Voigt Hill
#
# Bulk Modulus (GPa) = 51.06531 55.72391 53.39461
# Shear Modulus (GPa) = 28.13050 33.22773 30.67912
#
# Velocity S-wave (km/s) = 3.36665 3.65898 3.51586
# Velocity P-wave (km/s) = 5.97392 6.34848 6.16405
#
# Compressibility (1/GPa) = 0.01958276
#
# Stress axis : x y z
#
# Youngs Moduli (GPa) = 76.32497 137.55494 94.72015
#
# Poissons Ratio (x) = 0.43867 0.18593
# Poissons Ratio (y) = 0.24340 0.04937
# Poissons Ratio (z) = 0.14982 0.07169
#
# Static dielectric constant tensor:
#      x y z
#    x 2.218900 0.000000 -0.059680 
#    y 0.000000 1.955920 0.000000 
#    z -0.059680 0.000000 2.044440 
# 
# From -- ./inp_files/1568.got.cif
#   From: 2010.05.17/outbox.cif.g08.bks.cpg/sg4_1_cif.got.tgz:1568.got - 2010.06.03 18:43:04.
