data_PCOD9115508
_publ_section_title
;
Structure prediction by ZEFSAII (Michael W. Deem and Ramdas Pophale) SiO2 
 PCOD9115508
Probable space group: P 21
;
_chemical_formula_sum "Si O2"
_cell_formula_units_Z 16
_cell_length_a 15.828180
_cell_length_b 9.145889
_cell_length_c 16.837972
_cell_angle_alpha 90.000000
_cell_angle_beta 17.390101
_cell_angle_gamma 90.000000
_cell_volume 728.513528
_symmetry_space_group_name_H-M "P 21"
_symmetry_group_IT_number 4
_symmetry_cell_setting 'monoclinic'
loop_
_space_group_symop_operation_xyz
x,y,z
-x,1/2+y,-z
loop_
_atom_site_type_symbol
_atom_site_label
_atom_site_fract_x
_atom_site_fract_y
_atom_site_fract_z
Si Si1 0.726319 0.096250 0.884664
Si Si2 0.275037 0.950698 0.888952
Si Si3 0.656929 0.527337 0.999270
Si Si4 0.289433 0.063810 0.604635
Si Si5 0.655992 0.906410 0.404626
Si Si6 0.330711 0.607014 0.878612
Si Si7 0.918155 0.833381 0.485429
Si Si8 0.714903 0.780786 0.822581
O O1 0.668223 0.078766 0.029296
O O2 0.034682 0.171341 0.594457
O O3 0.674466 0.943759 0.888650
O O4 0.507341 0.205375 0.038020
O O5 0.305569 0.783036 0.891753
O O6 0.978215 0.959153 0.109377
O O7 0.276956 0.045066 0.966955
O O8 0.526333 0.974234 0.601795
O O9 0.695358 0.676723 0.916246
O O10 0.876975 0.424503 0.755561
O O11 0.357872 0.439199 0.265946
O O12 0.344403 0.230980 0.584376
O O13 0.955194 0.040994 0.902515
O O14 0.461442 0.956981 0.507198
O O15 0.410290 0.054891 0.407065
O O16 0.980632 0.800432 0.522953
#
# Coordination Sequence:
#
# PCOD9115508 Si02
#       8
#     2   2   2   2   2   2   2   2
#     4  12  25  45  71 101 141 187 241 294 352 422
#     4  10  20  39  68  94 124 179 219 274 341 420
#     4  12  25  44  68  99 137 178 242 289 349 420
#     4  10  22  42  64  98 126 173 215 275 341 418
#     4  10  21  40  67  93 129 167 219 269 344 418
#     4  10  22  39  67  94 131 173 226 271 343 413
#     4  12  23  45  69  93 134 185 232 291 342 417
#     4  12  26  46  66 102 138 190 234 295 356 416
#
# _framework density 21.962530000000001
#
# number of rings (size 3 to 8) (size 9 to 14) (size 15 to 20)
#    0.000    1.000    3.750    2.250    5.250    0.000 
#    4.500    0.000    0.000    0.000    0.000    0.000 
#    0.000    0.000    0.000    0.000    0.000    0.000 
#
# Total GULP energy -89306.093470 kJ/mol
# GULP energy per Si atom -5581.630842 kJ/mol
# Density = 2.191254 g / cm^3
# Si number density = 21.962530 Si / 1000 Ang^3
#
#
#
# Elastic Constant Matrix: (Units=GPa)
#
#
# Indices 1 2 3 4 5 6 
#
# 1 63.5657 26.2652 -5.5426 0.0000 15.8986 0.0000
# 2 26.2652 70.6975 6.3273 0.0000 3.8553 0.0000
# 3 -5.5426 6.3273 75.7118 0.0000 9.1622 0.0000
# 4 0.0000 0.0000 0.0000 11.8826 0.0000 10.7537
# 5 15.8986 3.8553 9.1622 0.0000 24.7761 0.0000
# 6 0.0000 0.0000 0.0000 10.7537 0.0000 32.7816
#
#
#
# Elastic Compliance Matrix: (Units=1/GPa)
#
#
# Indices 1 2 3 4 5 6 
#
# 1 0.023305 -0.008206 0.004237 0.000000 -0.015244 0.000000
# 2 -0.008206 0.017223 -0.002463 0.000000 0.003496 0.000000
# 3 0.004237 -0.002463 0.014663 0.000000 -0.007758 0.000000
# 4 0.000000 0.000000 0.000000 0.119690 0.000000 -0.039263
# 5 -0.015244 0.003496 -0.007758 0.000000 0.052468 0.000000
# 6 0.000000 0.000000 0.000000 -0.039263 0.000000 0.043385
#
#
# Mechanical properties :
#
#
# Convention : Reuss Voigt Hill
#
# Bulk Modulus (GPa) = 23.62646 29.34166 26.48406
# Shear Modulus (GPa) = 16.79502 26.08306 21.43904
#
# Velocity S-wave (km/s) = 2.76834 3.44992 3.12775
# Velocity P-wave (km/s) = 4.58250 5.40908 5.01285
#
# Compressibility (1/GPa) = 0.04232543
#
# Stress axis : x y z
#
# Youngs Moduli (GPa) = 42.91010 58.06141 68.20004
#
# Poissons Ratio (x) = 0.47644 -0.28893
# Poissons Ratio (y) = 0.35211 0.16799
# Poissons Ratio (z) = -0.18179 0.14302
#
# Static dielectric constant tensor:
#      x y z
#    x 1.829200 0.000000 -0.053040 
#    y 0.000000 1.787600 0.000000 
#    z -0.053040 0.000000 1.923020 
# 
# From -- ./inp_files/14190.got.cif
#   From: 2010.05.17/outbox.cif.g08.bks.cpg/sg4_8_cif.got.tgz:14190.got - 2010.06.03 18:43:04.
