data_PCOD9115485
_publ_section_title
;
Structure prediction by ZEFSAII (Michael W. Deem and Ramdas Pophale) SiO2 
 PCOD9115485
Probable space group: P 21
;
_chemical_formula_sum "Si O2"
_cell_formula_units_Z 16
_cell_length_a 28.254426
_cell_length_b 5.201929
_cell_length_c 7.056153
_cell_angle_alpha 90.000000
_cell_angle_beta 137.100446
_cell_angle_gamma 90.000000
_cell_volume 705.966877
_symmetry_space_group_name_H-M "P 21"
_symmetry_group_IT_number 4
_symmetry_cell_setting 'monoclinic'
loop_
_space_group_symop_operation_xyz
x,y,z
-x,1/2+y,-z
loop_
_atom_site_type_symbol
_atom_site_label
_atom_site_fract_x
_atom_site_fract_y
_atom_site_fract_z
Si Si1 0.983060 0.552090 0.064558
Si Si2 0.139214 0.144024 0.038570
Si Si3 0.505613 0.986341 0.706152
Si Si4 0.722814 0.537622 0.702034
Si Si5 0.892524 0.143079 0.300001
Si Si6 0.608726 0.136439 0.682879
Si Si7 0.247718 0.538267 0.977505
Si Si8 0.575272 0.768823 0.250360
O O1 0.032422 0.606652 0.389221
O O2 0.996540 0.265559 0.030396
O O3 0.904446 0.595796 0.901399
O O4 0.222282 0.109000 0.300380
O O5 0.122206 0.422040 0.899212
O O6 0.116429 0.922152 0.821108
O O7 0.425268 0.918091 0.425815
O O8 0.552347 0.018109 0.660637
O O9 0.493099 0.202307 0.826447
O O10 0.546799 0.787626 0.955790
O O11 0.642370 0.586214 0.428716
O O12 0.736660 0.248452 0.810609
O O13 0.743375 0.744928 0.927060
O O14 0.833738 0.094191 0.291122
O O15 0.603288 0.006750 0.459672
O O16 0.688685 0.103580 0.977758
#
# Coordination Sequence:
#
# PCOD9115485 Si02
#       8
#     2   2   2   2   2   2   2   2
#     4  12  24  38  60  92 132 158 186 250 308 344
#     4  10  20  39  65  89 114 160 210 239 286 365
#     4  12  22  36  60  84 116 158 204 254 310 366
#     4   9  19  36  62  86 115 155 199 252 298 349
#     4  10  20  39  65  89 114 160 210 239 286 365
#     4  11  22  37  58  86 118 155 204 257 306 364
#     4   9  19  36  62  86 115 155 199 252 298 349
#     4  11  22  37  58  86 118 155 204 257 306 364
#
# _framework density 22.663954
#
# number of rings (size 3 to 8) (size 9 to 14) (size 15 to 20)
#    0.000    1.500    3.750    2.250    0.000    0.000 
#    2.250    0.000    5.500    0.000    0.000    0.000 
#    0.000    0.000    0.000    0.000    0.000    0.000 
#
# Total GULP energy -89158.491125 kJ/mol
# GULP energy per Si atom -5572.405695 kJ/mol
# Density = 2.261237 g / cm^3
# Si number density = 22.663954 Si / 1000 Ang^3
#
#
#
# Elastic Constant Matrix: (Units=GPa)
#
#
# Indices 1 2 3 4 5 6 
#
# 1 154.7981 -6.0045 9.0486 0.0000 26.6197 0.0000
# 2 -6.0045 61.6610 3.9040 0.0000 4.6214 0.0000
# 3 9.0486 3.9040 20.2389 0.0000 1.7606 0.0000
# 4 0.0000 0.0000 0.0000 14.1154 0.0000 3.3621
# 5 26.6197 4.6214 1.7606 0.0000 20.2616 0.0000
# 6 0.0000 0.0000 0.0000 3.3621 0.0000 35.7762
#
#
#
# Elastic Compliance Matrix: (Units=1/GPa)
#
#
# Indices 1 2 3 4 5 6 
#
# 1 0.008723 0.001927 -0.003261 0.000000 -0.011616 0.000000
# 2 0.001927 0.017093 -0.003627 0.000000 -0.006115 0.000000
# 3 -0.003261 -0.003627 0.051512 0.000000 0.000636 0.000000
# 4 0.000000 0.000000 0.000000 0.072467 0.000000 -0.006810
# 5 -0.011616 -0.006115 0.000636 0.000000 0.065955 0.000000
# 6 0.000000 0.000000 0.000000 -0.006810 0.000000 0.028592
#
#
# Mechanical properties :
#
#
# Convention : Reuss Voigt Hill
#
# Bulk Modulus (GPa) = 14.83548 27.84380 21.33964
# Shear Modulus (GPa) = 18.06794 29.34728 23.70761
#
# Velocity S-wave (km/s) = 2.82655 3.60236 3.23778
# Velocity P-wave (km/s) = 4.14881 5.44195 4.83877
#
# Compressibility (1/GPa) = 0.06740598
#
# Stress axis : x y z
#
# Youngs Moduli (GPa) = 114.63998 58.50272 19.41290
#
# Poissons Ratio (x) = -0.11271 0.06331
# Poissons Ratio (y) = -0.22086 0.07040
# Poissons Ratio (z) = 0.37385 0.21217
#
# Static dielectric constant tensor:
#      x y z
#    x 1.909500 0.000000 0.036160 
#    y 0.000000 1.939760 0.000000 
#    z 0.036160 0.000000 1.853710 
# 
# From -- ./inp_files/4268.got.cif
#   From: 2010.05.17/outbox.cif.g08.bks.cpg/sg4_3_cif.got.tgz:4268.got - 2010.06.03 18:43:04.
