data_PCOD9115030
_publ_section_title
;
Structure prediction by ZEFSAII (Michael W. Deem and Ramdas Pophale) SiO2 
 PCOD9115030
Probable space group: P 21
;
_chemical_formula_sum "Si O2"
_cell_formula_units_Z 14
_cell_length_a 5.137006
_cell_length_b 14.958358
_cell_length_c 8.605244
_cell_angle_alpha 90.000000
_cell_angle_beta 60.529239
_cell_angle_gamma 90.000000
_cell_volume 575.677529
_symmetry_space_group_name_H-M "P 21"
_symmetry_group_IT_number 4
_symmetry_cell_setting 'monoclinic'
loop_
_space_group_symop_operation_xyz
x,y,z
-x,1/2+y,-z
loop_
_atom_site_type_symbol
_atom_site_label
_atom_site_fract_x
_atom_site_fract_y
_atom_site_fract_z
Si Si1 0.115022 0.549120 0.931306
Si Si2 0.895664 0.379879 0.585868
Si Si3 0.276671 0.354139 0.893594
Si Si4 0.207870 0.081814 0.264241
Si Si5 0.904067 0.727367 0.273712
Si Si6 0.323686 0.622216 0.355383
Si Si7 0.813505 0.953960 0.784943
O O1 0.152365 0.446836 0.861142
O O2 0.438833 0.595354 0.816740
O O3 0.871095 0.593470 0.893940
O O4 0.051208 0.523219 0.128382
O O5 0.579605 0.335653 0.714252
O O6 0.851318 0.478422 0.671016
O O7 0.126543 0.311765 0.598709
O O8 0.964294 0.398078 0.386749
O O9 0.065386 0.273045 0.905806
O O10 0.340554 0.382368 0.053349
O O11 0.960021 0.129796 0.442885
O O12 0.617996 0.662253 0.348242
O O13 0.198942 0.676290 0.243789
O O14 0.358478 0.519204 0.285034
#
# Coordination Sequence:
#
# PCOD9115030 Si02
#       7
#     2   2   2   2   2   2   2
#     4   9  19  37  66  90 119 161 221 266 302 373
#     4  10  19  41  70  91 127 176 221 263 321 401
#     4   9  20  41  70  93 131 173 221 271 324 390
#     4  10  19  39  64  89 124 171 211 260 314 391
#     4  12  22  43  65  95 140 173 209 282 343 374
#     4  11  25  40  66  99 134 173 217 276 335 392
#     4   9  22  43  69 103 121 177 234 262 321 407
#
# _framework density 24.319168999999999
#
# number of rings (size 3 to 8) (size 9 to 14) (size 15 to 20)
#    0.857    1.143    2.857    0.857    0.000    1.143 
#    5.143    4.286    3.143    0.000    0.000    0.000 
#    0.000    0.000    0.000    0.000    0.000    0.000 
#
# Total GULP energy -77967.268838 kJ/mol
# GULP energy per Si atom -5569.090631 kJ/mol
# Density = 2.426382 g / cm^3
# Si number density = 24.319169 Si / 1000 Ang^3
#
#
#
# Elastic Constant Matrix: (Units=GPa)
#
#
# Indices 1 2 3 4 5 6 
#
# 1 81.9822 15.3743 32.7855 0.0000 -3.3570 0.0000
# 2 15.3743 43.2499 8.2355 0.0000 -8.6321 0.0000
# 3 32.7855 8.2355 91.6559 0.0000 -6.5800 0.0000
# 4 0.0000 0.0000 0.0000 10.5624 0.0000 4.2727
# 5 -3.3570 -8.6321 -6.5800 0.0000 19.5380 0.0000
# 6 0.0000 0.0000 0.0000 4.2727 0.0000 21.6350
#
#
#
# Elastic Compliance Matrix: (Units=1/GPa)
#
#
# Indices 1 2 3 4 5 6 
#
# 1 0.015034 -0.004614 -0.005046 0.000000 -0.001155 0.000000
# 2 -0.004614 0.026979 0.000026 0.000000 0.011136 0.000000
# 3 -0.005046 0.000026 0.012965 0.000000 0.003511 0.000000
# 4 0.000000 0.000000 0.000000 0.102896 0.000000 -0.020321
# 5 -0.001155 0.011136 0.003511 0.000000 0.057086 0.000000
# 6 0.000000 0.000000 0.000000 -0.020321 0.000000 0.050234
#
#
# Mechanical properties :
#
#
# Convention : Reuss Voigt Hill
#
# Bulk Modulus (GPa) = 28.00352 36.63094 32.31723
# Shear Modulus (GPa) = 16.87108 21.04662 18.95885
#
# Velocity S-wave (km/s) = 2.63674 2.94502 2.79513
# Velocity P-wave (km/s) = 4.56179 5.16328 4.87182
#
# Compressibility (1/GPa) = 0.03570980
#
# Stress axis : x y z
#
# Youngs Moduli (GPa) = 66.51766 37.06571 77.13062
#
# Poissons Ratio (x) = 0.17101 0.38919
# Poissons Ratio (y) = 0.30689 -0.00198
# Poissons Ratio (z) = 0.33564 -0.00095
#
# Static dielectric constant tensor:
#      x y z
#    x 1.985690 0.000000 0.010400 
#    y 0.000000 2.061320 0.000000 
#    z 0.010400 0.000000 2.004900 
# 
# From -- ./inp_files/4880.got.cif
#   From: 2010.05.17/outbox.cif.g08.bks.cpg/sg4_3_cif.got.tgz:4880.got - 2010.06.03 18:43:04.
