data_PCOD9115548
_publ_section_title
;
Structure prediction by ZEFSAII (Michael W. Deem and Ramdas Pophale) SiO2 
 PCOD9115548
Probable space group: P 21
;
_chemical_formula_sum "Si O2"
_cell_formula_units_Z 16
_cell_length_a 8.384578
_cell_length_b 11.542931
_cell_length_c 10.110713
_cell_angle_alpha 90.000000
_cell_angle_beta 41.972102
_cell_angle_gamma 90.000000
_cell_volume 654.417671
_symmetry_space_group_name_H-M "P 21"
_symmetry_group_IT_number 4
_symmetry_cell_setting 'monoclinic'
loop_
_space_group_symop_operation_xyz
x,y,z
-x,1/2+y,-z
loop_
_atom_site_type_symbol
_atom_site_label
_atom_site_fract_x
_atom_site_fract_y
_atom_site_fract_z
Si Si1 0.965938 0.962220 0.595728
Si Si2 0.060503 0.641359 0.605576
Si Si3 0.061912 0.358906 0.940848
Si Si4 0.444001 0.236944 0.382086
Si Si5 0.396819 0.855890 0.454582
Si Si6 0.067045 0.796721 0.278506
Si Si7 0.104077 0.603344 0.869510
Si Si8 0.405472 0.292387 0.109900
O O1 0.202631 0.952306 0.537999
O O2 0.015582 0.879415 0.435895
O O3 0.745675 0.910716 0.816699
O O4 0.907455 0.077671 0.552464
O O5 0.256184 0.741004 0.496289
O O6 0.091630 0.571825 0.722074
O O7 0.794196 0.693295 0.779893
O O8 0.348652 0.365266 0.770613
O O9 0.995798 0.493957 0.015970
O O10 0.965297 0.343082 0.851218
O O11 0.000364 0.234434 0.046892
O O12 0.536800 0.328705 0.434066
O O13 0.617406 0.127096 0.274404
O O14 0.469973 0.294621 0.224376
O O15 0.165176 0.213199 0.577021
O O16 0.348073 0.769213 0.115585
#
# Coordination Sequence:
#
# PCOD9115548 Si02
#       8
#     2   2   2   2   2   2   2   2
#     4  10  21  40  65  91 138 179 224 288 357 436
#     4  10  22  42  65  96 139 186 230 302 367 430
#     4  11  23  41  69 102 139 189 241 300 352 432
#     4   9  20  41  64  93 136 172 227 294 342 420
#     4   9  22  40  64  97 131 183 229 289 354 417
#     4  10  20  40  64  99 128 183 227 285 356 417
#     4  11  23  43  68 100 146 187 243 300 363 426
#     4  10  21  39  67  94 133 177 233 284 353 424
#
# _framework density 24.449221000000001
#
# number of rings (size 3 to 8) (size 9 to 14) (size 15 to 20)
#    0.000    2.000    2.500    0.000    3.500    1.000 
#    0.000    3.750    5.500    0.000    0.000    0.000 
#    0.000    0.000    0.000    0.000    0.000    0.000 
#
# Total GULP energy -89188.281462 kJ/mol
# GULP energy per Si atom -5574.267591 kJ/mol
# Density = 2.439357 g / cm^3
# Si number density = 24.449221 Si / 1000 Ang^3
#
#
#
# Elastic Constant Matrix: (Units=GPa)
#
#
# Indices 1 2 3 4 5 6 
#
# 1 86.1754 -10.9948 20.9263 0.0000 -25.2498 0.0000
# 2 -10.9948 74.2184 34.0528 0.0000 -26.1233 0.0000
# 3 20.9263 34.0528 116.1571 0.0000 -42.0339 0.0000
# 4 0.0000 0.0000 0.0000 23.9405 0.0000 6.0056
# 5 -25.2498 -26.1233 -42.0339 0.0000 44.8017 0.0000
# 6 0.0000 0.0000 0.0000 6.0056 0.0000 17.0738
#
#
#
# Elastic Compliance Matrix: (Units=1/GPa)
#
#
# Indices 1 2 3 4 5 6 
#
# 1 0.016473 0.007232 -0.000306 0.000000 0.013213 0.000000
# 2 0.007232 0.020476 -0.002287 0.000000 0.013870 0.000000
# 3 -0.000306 -0.002287 0.013308 0.000000 0.010980 0.000000
# 4 0.000000 0.000000 0.000000 0.045813 0.000000 -0.016114
# 5 0.013213 0.013870 0.010980 0.000000 0.048156 0.000000
# 6 0.000000 0.000000 0.000000 -0.016114 0.000000 0.064237
#
#
# Mechanical properties :
#
#
# Convention : Reuss Voigt Hill
#
# Bulk Modulus (GPa) = 16.79704 40.50218 28.64961
# Shear Modulus (GPa) = 22.82792 32.66762 27.74777
#
# Velocity S-wave (km/s) = 3.05894 3.65929 3.37250
# Velocity P-wave (km/s) = 4.40014 5.86990 5.18734
#
# Compressibility (1/GPa) = 0.05953431
#
# Stress axis : x y z
#
# Youngs Moduli (GPa) = 60.70617 48.83768 75.14386
#
# Poissons Ratio (x) = -0.35317 0.02301
# Poissons Ratio (y) = -0.43900 0.17182
# Poissons Ratio (z) = 0.01859 0.11167
#
# Static dielectric constant tensor:
#      x y z
#    x 1.956570 0.000000 -0.000750 
#    y 0.000000 2.181680 0.000000 
#    z -0.000750 0.000000 1.959170 
# 
# From -- ./inp_files/11202.got.cif
#   From: 2010.05.17/outbox.cif.g08.bks.cpg/sg4_6_cif.got.tgz:11202.got - 2010.06.03 18:43:04.
