data_PCOD9115044
_publ_section_title
;
Structure prediction by ZEFSAII (Michael W. Deem and Ramdas Pophale) SiO2 
 PCOD9115044
Probable space group: P 21
;
_chemical_formula_sum "Si O2"
_cell_formula_units_Z 12
_cell_length_a 11.247281
_cell_length_b 8.800171
_cell_length_c 8.407351
_cell_angle_alpha 90.000000
_cell_angle_beta 140.879006
_cell_angle_gamma 90.000000
_cell_volume 525.048892
_symmetry_space_group_name_H-M "P 21"
_symmetry_group_IT_number 4
_symmetry_cell_setting 'monoclinic'
loop_
_space_group_symop_operation_xyz
x,y,z
-x,1/2+y,-z
loop_
_atom_site_type_symbol
_atom_site_label
_atom_site_fract_x
_atom_site_fract_y
_atom_site_fract_z
Si Si1 0.672983 0.630480 0.893143
Si Si2 0.682883 0.491686 0.576998
Si Si3 0.001591 0.446256 0.136163
Si Si4 0.060844 0.354693 0.689827
Si Si5 0.884158 0.670780 0.561110
Si Si6 0.297577 0.685915 0.550829
O O1 0.601241 0.578908 0.643273
O O2 0.493456 0.621506 0.821558
O O3 0.840130 0.506812 0.091865
O O4 0.790709 0.786701 0.028475
O O5 0.695654 0.592111 0.432935
O O6 0.619731 0.322438 0.473637
O O7 0.900367 0.465431 0.862143
O O8 0.042646 0.273632 0.217797
O O9 0.180794 0.553610 0.343572
O O10 0.139357 0.289312 0.605775
O O11 0.022989 0.533689 0.655680
O O12 0.858130 0.272348 0.505784
#
# Coordination Sequence:
#
# PCOD9115044 Si02
#       6
#     2   2   2   2   2   2
#     4   9  21  39  61  93 124 159 210 254 304 367
#     4   9  21  38  62  93 117 166 201 260 300 362
#     4   9  20  38  61  90 118 162 202 253 305 353
#     4  10  22  40  63  89 124 167 203 255 306 369
#     4  11  21  41  66  89 126 166 206 252 312 362
#     4  10  19  40  61  88 127 156 210 250 307 365
#
# _framework density 22.855015000000002
#
# number of rings (size 3 to 8) (size 9 to 14) (size 15 to 20)
#    1.000    1.333    0.000    3.000    2.333    1.333 
#    3.000   11.667    0.000    0.000    0.000    0.000 
#    0.000    0.000    0.000    0.000    0.000    0.000 
#
# Total GULP energy -66807.935803 kJ/mol
# GULP energy per Si atom -5567.327984 kJ/mol
# Density = 2.280300 g / cm^3
# Si number density = 22.855015 Si / 1000 Ang^3
#
#
#
# Elastic Constant Matrix: (Units=GPa)
#
#
# Indices 1 2 3 4 5 6 
#
# 1 64.9929 23.8092 28.0796 0.0000 10.2056 0.0000
# 2 23.8092 113.9728 3.4215 0.0000 -8.5050 0.0000
# 3 28.0796 3.4215 33.0497 0.0000 15.4995 0.0000
# 4 0.0000 0.0000 0.0000 20.2512 0.0000 -8.2904
# 5 10.2056 -8.5050 15.4995 0.0000 41.0841 0.0000
# 6 0.0000 0.0000 0.0000 -8.2904 0.0000 35.0959
#
#
#
# Elastic Compliance Matrix: (Units=1/GPa)
#
#
# Indices 1 2 3 4 5 6 
#
# 1 0.026843 -0.004858 -0.022725 0.000000 0.000900 0.000000
# 2 -0.004858 0.009921 0.001909 0.000000 0.002540 0.000000
# 3 -0.022725 0.001909 0.056538 0.000000 -0.015289 0.000000
# 4 0.000000 0.000000 0.000000 0.054666 0.000000 0.012913
# 5 0.000900 0.002540 -0.015289 0.000000 0.030411 0.000000
# 6 0.000000 0.000000 0.000000 0.012913 0.000000 0.031544
#
#
# Mechanical properties :
#
#
# Convention : Reuss Voigt Hill
#
# Bulk Modulus (GPa) = 23.83601 35.84846 29.84223
# Shear Modulus (GPa) = 18.16494 29.73326 23.94910
#
# Velocity S-wave (km/s) = 2.82226 3.61078 3.24059
# Velocity P-wave (km/s) = 4.59043 5.75351 5.20456
#
# Compressibility (1/GPa) = 0.04195334
#
# Stress axis : x y z
#
# Youngs Moduli (GPa) = 37.25361 100.79451 17.68731
#
# Poissons Ratio (x) = 0.48968 0.40195
# Poissons Ratio (y) = 0.18099 -0.03377
# Poissons Ratio (z) = 0.84660 -0.19243
#
# Static dielectric constant tensor:
#      x y z
#    x 1.916510 0.000000 -0.035380 
#    y 0.000000 1.858920 0.000000 
#    z -0.035380 0.000000 1.868190 
# 
# From -- ./inp_files/8072.got.cif
#   From: 2010.05.17/outbox.cif.g08.bks.cpg/sg4_5_cif.got.tgz:8072.got - 2010.06.03 18:43:04.
