data_PCOD9115087
_publ_section_title
;
Structure prediction by ZEFSAII (Michael W. Deem and Ramdas Pophale) SiO2 
 PCOD9115087
Probable space group: P 21
;
_chemical_formula_sum "Si O2"
_cell_formula_units_Z 12
_cell_length_a 6.451098
_cell_length_b 12.199204
_cell_length_c 7.134167
_cell_angle_alpha 90.000000
_cell_angle_beta 118.817252
_cell_angle_gamma 90.000000
_cell_volume 491.917883
_symmetry_space_group_name_H-M "P 21"
_symmetry_group_IT_number 4
_symmetry_cell_setting 'monoclinic'
loop_
_space_group_symop_operation_xyz
x,y,z
-x,1/2+y,-z
loop_
_atom_site_type_symbol
_atom_site_label
_atom_site_fract_x
_atom_site_fract_y
_atom_site_fract_z
Si Si1 0.406944 0.345830 0.790048
Si Si2 0.918396 0.980250 0.776141
Si Si3 0.240673 0.790118 0.752234
Si Si4 0.757382 0.053645 0.096923
Si Si5 0.372003 0.923453 0.461178
Si Si6 0.746891 0.610085 0.329561
O O1 0.254046 0.452488 0.765523
O O2 0.621594 0.381378 0.747845
O O3 0.279216 0.239524 0.650477
O O4 0.507814 0.310431 0.035322
O O5 0.067088 0.874422 0.779628
O O6 0.649441 0.948412 0.615219
O O7 0.032288 0.077295 0.702573
O O8 0.917095 0.020176 0.990153
O O9 0.179503 0.665651 0.771156
O O10 0.275101 0.828425 0.554675
O O11 0.491493 0.072853 0.891413
O O12 0.255819 0.035801 0.484659
#
# Coordination Sequence:
#
# PCOD9115087 Si02
#       6
#     2   2   2   2   2   2
#     4  11  21  41  64  86 118 162 198 238 305 354
#     4  10  19  42  59  85 125 152 194 260 290 342
#     4  10  22  42  61  86 120 160 199 247 297 349
#     4  10  21  37  64  88 116 161 201 239 300 356
#     4  10  22  41  59  88 123 151 200 253 291 353
#     4   9  21  41  61  87 122 156 196 251 295 350
#
# _framework density 24.394311999999999
#
# number of rings (size 3 to 8) (size 9 to 14) (size 15 to 20)
#    0.000    2.000    5.000    0.000    4.667    0.000 
#    9.000    0.000    0.000    0.000    0.000    0.000 
#    0.000    0.000    0.000    0.000    0.000    0.000 
#
# Total GULP energy -67174.338027 kJ/mol
# GULP energy per Si atom -5597.861502 kJ/mol
# Density = 2.433879 g / cm^3
# Si number density = 24.394312 Si / 1000 Ang^3
#
#
#
# Elastic Constant Matrix: (Units=GPa)
#
#
# Indices 1 2 3 4 5 6 
#
# 1 116.7748 53.7708 31.4988 0.0000 -27.1281 0.0000
# 2 53.7708 207.5153 43.0990 0.0000 -30.5659 0.0000
# 3 31.4988 43.0990 95.9263 0.0000 -33.0760 0.0000
# 4 0.0000 0.0000 0.0000 22.6946 0.0000 6.3619
# 5 -27.1281 -30.5659 -33.0760 0.0000 55.3293 0.0000
# 6 0.0000 0.0000 0.0000 6.3619 0.0000 30.3108
#
#
#
# Elastic Compliance Matrix: (Units=1/GPa)
#
#
# Indices 1 2 3 4 5 6 
#
# 1 0.010622 -0.001967 -0.001490 0.000000 0.003230 0.000000
# 2 -0.001967 0.005843 -0.001510 0.000000 0.001361 0.000000
# 3 -0.001490 -0.001510 0.013923 0.000000 0.006758 0.000000
# 4 0.000000 0.000000 0.000000 0.046818 0.000000 -0.009827
# 5 0.003230 0.001361 0.006758 0.000000 0.024449 0.000000
# 6 0.000000 0.000000 0.000000 -0.009827 0.000000 0.035054
#
#
# Mechanical properties :
#
#
# Convention : Reuss Voigt Hill
#
# Bulk Modulus (GPa) = 48.89350 75.21706 62.05528
# Shear Modulus (GPa) = 32.58179 41.12346 36.85262
#
# Velocity S-wave (km/s) = 3.65859 4.11028 3.89100
# Velocity P-wave (km/s) = 6.15902 7.30935 6.75871
#
# Compressibility (1/GPa) = 0.02045262
#
# Stress axis : x y z
#
# Youngs Moduli (GPa) = 94.14774 171.15623 71.82514
#
# Poissons Ratio (x) = 0.33665 0.10703
# Poissons Ratio (y) = 0.18518 0.10846
# Poissons Ratio (z) = 0.14030 0.25845
#
# Static dielectric constant tensor:
#      x y z
#    x 1.950420 0.000000 0.099990 
#    y 0.000000 1.899040 0.000000 
#    z 0.099990 0.000000 1.997070 
# 
# From -- ./inp_files/1096.got.cif
#   From: 2010.05.17/outbox.cif.g08.bks.cpg/sg4_1_cif.got.tgz:1096.got - 2010.06.03 18:43:04.
