data_PCOD9115375
_publ_section_title
;
Structure prediction by ZEFSAII (Michael W. Deem and Ramdas Pophale) SiO2 
 PCOD9115375
Probable space group: P 21
;
_chemical_formula_sum "Si O2"
_cell_formula_units_Z 16
_cell_length_a 7.648278
_cell_length_b 9.227329
_cell_length_c 18.282165
_cell_angle_alpha 90.000000
_cell_angle_beta 148.866627
_cell_angle_gamma 90.000000
_cell_volume 667.090429
_symmetry_space_group_name_H-M "P 21"
_symmetry_group_IT_number 4
_symmetry_cell_setting 'monoclinic'
loop_
_space_group_symop_operation_xyz
x,y,z
-x,1/2+y,-z
loop_
_atom_site_type_symbol
_atom_site_label
_atom_site_fract_x
_atom_site_fract_y
_atom_site_fract_z
Si Si1 0.506529 0.479120 0.492287
Si Si2 0.232980 0.919378 0.191805
Si Si3 0.795506 0.721475 0.663709
Si Si4 0.145931 0.601758 0.222716
Si Si5 0.558758 0.096260 0.944142
Si Si6 0.939812 0.361208 0.034122
Si Si7 0.173447 0.916620 0.698218
Si Si8 0.483586 0.704540 0.708914
O O1 0.809049 0.559948 0.639076
O O2 0.510223 0.306044 0.488247
O O3 0.411833 0.540768 0.378322
O O4 0.178489 0.503899 0.426598
O O5 0.247440 0.763901 0.235347
O O6 0.204158 0.899805 0.095074
O O7 0.545913 0.032708 0.310600
O O8 0.881907 0.003287 0.087912
O O9 0.682814 0.741905 0.705786
O O10 0.115534 0.807917 0.747495
O O11 0.778652 0.594194 0.129099
O O12 0.092507 0.493742 0.135035
O O13 0.667273 0.263407 0.978251
O O14 0.456779 0.026918 0.828610
O O15 0.243208 0.244644 0.130451
O O16 0.201776 0.816463 0.636113
#
# Coordination Sequence:
#
# PCOD9115375 Si02
#       8
#     2   2   2   2   2   2   2   2
#     4   9  22  42  68  89 126 166 214 286 327 381
#     4  11  24  34  62  95 133 167 215 257 324 397
#     4  10  22  44  68  90 125 169 218 282 338 372
#     4  11  21  40  60  92 129 173 212 269 323 388
#     4  10  20  38  61  92 124 178 215 250 320 393
#     4  11  21  38  59  93 134 172 202 262 325 383
#     4   9  21  42  66  92 130 162 216 271 324 395
#     4  11  21  42  64  91 129 171 210 269 329 387
#
# _framework density 23.984753999999999
#
# number of rings (size 3 to 8) (size 9 to 14) (size 15 to 20)
#    0.750    1.000    2.500    2.250    1.750    1.000 
#    4.500    0.000    0.000    0.000    0.000    0.000 
#    0.000    0.000    0.000    0.000    0.000    0.000 
#
# Total GULP energy -89106.764358 kJ/mol
# GULP energy per Si atom -5569.172772 kJ/mol
# Density = 2.393016 g / cm^3
# Si number density = 23.984754 Si / 1000 Ang^3
#
#
#
# Elastic Constant Matrix: (Units=GPa)
#
#
# Indices 1 2 3 4 5 6 
#
# 1 107.7399 40.7618 10.5262 0.0000 -20.3453 0.0000
# 2 40.7618 120.3617 14.1723 0.0000 -7.1048 0.0000
# 3 10.5262 14.1723 29.5248 0.0000 -16.3178 0.0000
# 4 0.0000 0.0000 0.0000 34.3537 0.0000 -2.1868
# 5 -20.3453 -7.1048 -16.3178 0.0000 24.9122 0.0000
# 6 0.0000 0.0000 0.0000 -2.1868 0.0000 40.7228
#
#
#
# Elastic Compliance Matrix: (Units=1/GPa)
#
#
# Indices 1 2 3 4 5 6 
#
# 1 0.012650 -0.004053 0.003929 0.000000 0.011748 0.000000
# 2 -0.004053 0.010107 -0.005710 0.000000 -0.004168 0.000000
# 3 0.003929 -0.005710 0.056558 0.000000 0.038626 0.000000
# 4 0.000000 0.000000 0.000000 0.029209 0.000000 0.001569
# 5 0.011748 -0.004168 0.038626 0.000000 0.073847 0.000000
# 6 0.000000 0.000000 0.000000 0.001569 0.000000 0.024640
#
#
# Mechanical properties :
#
#
# Convention : Reuss Voigt Hill
#
# Bulk Modulus (GPa) = 14.78283 43.17188 28.97735
# Shear Modulus (GPa) = 20.72720 32.80881 26.76800
#
# Velocity S-wave (km/s) = 2.94289 3.70253 3.34435
# Velocity P-wave (km/s) = 4.21002 6.02637 5.19814
#
# Compressibility (1/GPa) = 0.06764605
#
# Stress axis : x y z
#
# Youngs Moduli (GPa) = 79.05331 98.93906 17.68097
#
# Poissons Ratio (x) = 0.40101 -0.06946
# Poissons Ratio (y) = 0.32041 0.10096
# Poissons Ratio (z) = -0.31057 0.56494
#
# Static dielectric constant tensor:
#      x y z
#    x 2.014080 0.000000 0.017770 
#    y 0.000000 1.996380 0.000000 
#    z 0.017770 0.000000 1.940500 
# 
# From -- ./inp_files/15626.got.cif
#   From: 2010.05.17/outbox.cif.g08.bks.cpg/sg4_8_cif.got.tgz:15626.got - 2010.06.03 18:43:04.
