data_PCOD9115002
_publ_section_title
;
Structure prediction by ZEFSAII (Michael W. Deem and Ramdas Pophale) SiO2 
 PCOD9115002
Probable space group: P 21
;
_chemical_formula_sum "Si O2"
_cell_formula_units_Z 16
_cell_length_a 9.600762
_cell_length_b 5.675296
_cell_length_c 26.099833
_cell_angle_alpha 90.000000
_cell_angle_beta 28.945708
_cell_angle_gamma 90.000000
_cell_volume 688.271736
_symmetry_space_group_name_H-M "P 21"
_symmetry_group_IT_number 4
_symmetry_cell_setting 'monoclinic'
loop_
_space_group_symop_operation_xyz
x,y,z
-x,1/2+y,-z
loop_
_atom_site_type_symbol
_atom_site_label
_atom_site_fract_x
_atom_site_fract_y
_atom_site_fract_z
Si Si1 0.846907 0.247020 0.669454
Si Si2 0.223529 0.315183 0.041488
Si Si3 0.869728 0.874129 0.522746
Si Si4 0.295773 0.046621 0.186370
Si Si5 0.867759 0.773790 0.267718
Si Si6 0.375796 0.055935 0.744722
Si Si7 0.640804 0.537282 0.440150
Si Si8 0.417674 0.443272 0.088786
O O1 0.737855 0.420274 0.749105
O O2 0.051342 0.380474 0.562578
O O3 0.055024 0.055674 0.628261
O O4 0.581854 0.136314 0.723943
O O5 0.363461 0.303827 0.053628
O O6 0.912597 0.427748 0.144135
O O7 0.431749 0.450436 0.934559
O O8 0.261935 0.044962 0.012788
O O9 0.552644 0.886797 0.649089
O O10 0.993023 0.618098 0.499829
O O11 0.990997 0.007113 0.254548
O O12 0.354551 0.320207 0.162706
O O13 0.709348 0.776030 0.264754
O O14 0.688387 0.624286 0.366637
O O15 0.166535 0.635337 0.164291
O O16 0.531039 0.268978 0.482058
#
# Coordination Sequence:
#
# PCOD9115002 Si02
#       8
#     2   2   2   2   2   2   2   2
#     4  10  24  46  73 105 147 191 235 305 378 436
#     4  10  20  39  69 104 137 183 241 299 360 429
#     4  10  23  48  69  99 141 196 240 291 365 450
#     4  10  21  42  70  99 141 184 236 301 356 431
#     4   9  22  39  64 102 131 187 237 292 358 428
#     4  10  22  45  71 104 142 185 243 296 368 443
#     4  11  25  43  71 103 142 188 247 301 361 436
#     4  10  19  38  67 100 139 180 245 293 356 431
#
# _framework density 23.246632000000002
#
# number of rings (size 3 to 8) (size 9 to 14) (size 15 to 20)
#    0.000    2.000    1.250    0.750    3.500    6.000 
#   22.500    1.250    0.000    0.000    0.000    0.000 
#    0.000    0.000    0.000    0.000    0.000    0.000 
#
# Total GULP energy -89222.730748 kJ/mol
# GULP energy per Si atom -5576.420672 kJ/mol
# Density = 2.319372 g / cm^3
# Si number density = 23.246632 Si / 1000 Ang^3
#
#
#
# Elastic Constant Matrix: (Units=GPa)
#
#
# Indices 1 2 3 4 5 6 
#
# 1 130.4991 29.3045 62.4637 0.0000 -8.8335 0.0000
# 2 29.3045 66.6451 41.0081 0.0000 -1.4420 0.0000
# 3 62.4637 41.0081 142.5190 0.0000 13.1233 0.0000
# 4 0.0000 0.0000 0.0000 44.2610 0.0000 13.0716
# 5 -8.8335 -1.4420 13.1233 0.0000 35.9048 0.0000
# 6 0.0000 0.0000 0.0000 13.0716 0.0000 13.8513
#
#
#
# Elastic Compliance Matrix: (Units=1/GPa)
#
#
# Indices 1 2 3 4 5 6 
#
# 1 0.010477 -0.001771 -0.004463 0.000000 0.004138 0.000000
# 2 -0.001771 0.018797 -0.004824 0.000000 0.002082 0.000000
# 3 -0.004463 -0.004824 0.010845 0.000000 -0.005256 0.000000
# 4 0.000000 0.000000 0.000000 0.031323 0.000000 -0.029560
# 5 0.004138 0.002082 -0.005256 0.000000 0.030874 0.000000
# 6 0.000000 0.000000 0.000000 -0.029560 0.000000 0.100092
#
#
# Mechanical properties :
#
#
# Convention : Reuss Voigt Hill
#
# Bulk Modulus (GPa) = 55.54950 67.24621 61.39786
# Shear Modulus (GPa) = 21.68952 32.59587 27.14270
#
# Velocity S-wave (km/s) = 3.05785 3.74863 3.42072
# Velocity P-wave (km/s) = 6.03447 6.90843 6.48619
#
# Compressibility (1/GPa) = 0.01800196
#
# Stress axis : x y z
#
# Youngs Moduli (GPa) = 95.44662 53.19980 92.20936
#
# Poissons Ratio (x) = 0.09421 0.41156
# Poissons Ratio (y) = 0.16903 0.44484
# Poissons Ratio (z) = 0.42601 0.25665
#
# Static dielectric constant tensor:
#      x y z
#    x 1.932540 0.000000 0.050790 
#    y 0.000000 2.149390 0.000000 
#    z 0.050790 0.000000 1.936880 
# 
# From -- ./inp_files/16323.got.cif
#   From: 2010.05.17/outbox.cif.g08.bks.cpg/sg4_9_cif.got.tgz:16323.got - 2010.06.03 18:43:04.
