data_PCOD9115283
_publ_section_title
;
Structure prediction by ZEFSAII (Michael W. Deem and Ramdas Pophale) SiO2 
 PCOD9115283
Probable space group: P 21
;
_chemical_formula_sum "Si O2"
_cell_formula_units_Z 16
_cell_length_a 5.719107
_cell_length_b 17.937958
_cell_length_c 7.550791
_cell_angle_alpha 90.000000
_cell_angle_beta 59.152417
_cell_angle_gamma 90.000000
_cell_volume 665.045494
_symmetry_space_group_name_H-M "P 21"
_symmetry_group_IT_number 4
_symmetry_cell_setting 'monoclinic'
loop_
_space_group_symop_operation_xyz
x,y,z
-x,1/2+y,-z
loop_
_atom_site_type_symbol
_atom_site_label
_atom_site_fract_x
_atom_site_fract_y
_atom_site_fract_z
Si Si1 0.220585 0.117680 0.183570
Si Si2 0.146348 0.172506 0.817962
Si Si3 0.260462 0.562899 0.993164
Si Si4 0.999687 0.336423 0.928482
Si Si5 0.898963 0.436316 0.291060
Si Si6 0.748150 0.904286 0.499544
Si Si7 0.668622 0.132722 0.404938
Si Si8 0.495949 0.760730 0.755860
O O1 0.351280 0.190482 0.221621
O O2 0.940918 0.107282 0.398566
O O3 0.153451 0.141556 0.012311
O O4 0.429277 0.050348 0.069992
O O5 0.389525 0.135976 0.615977
O O6 0.852499 0.140003 0.874139
O O7 0.167293 0.260983 0.826019
O O8 0.035949 0.504593 0.133475
O O9 0.326111 0.575681 0.760715
O O10 0.096842 0.396784 0.748075
O O11 0.001953 0.367096 0.128208
O O12 0.688946 0.306602 0.034926
O O13 0.564635 0.435937 0.409214
O O14 0.048359 0.435292 0.425634
O O15 0.689857 0.819839 0.588969
O O16 0.690271 0.217399 0.318223
#
# Coordination Sequence:
#
# PCOD9115283 Si02
#       8
#     2   2   2   2   2   2   2   2
#     4  10  20  36  66  96 133 177 221 297 356 411
#     4  11  21  39  67 103 133 171 240 293 357 423
#     4  10  24  45  63  93 141 184 229 296 355 422
#     4  11  22  45  69 105 139 186 236 297 361 423
#     4  11  28  48  70 100 146 192 244 290 357 437
#     4  11  26  43  73 100 141 187 235 294 356 427
#     4  10  21  37  65 100 130 171 224 288 355 414
#     4  10  20  39  61  99 135 168 225 289 351 415
#
# _framework density 24.058503000000002
#
# number of rings (size 3 to 8) (size 9 to 14) (size 15 to 20)
#    0.000    1.500    5.000    0.750    5.250    7.000 
#    0.000    0.000    0.000    0.000    0.000    0.000 
#    0.000    0.000    0.000    0.000    0.000    0.000 
#
# Total GULP energy -89120.894011 kJ/mol
# GULP energy per Si atom -5570.055876 kJ/mol
# Density = 2.400375 g / cm^3
# Si number density = 24.058503 Si / 1000 Ang^3
#
#
#
# Elastic Constant Matrix: (Units=GPa)
#
#
# Indices 1 2 3 4 5 6 
#
# 1 90.9978 0.0912 40.0546 0.0000 -10.6222 0.0000
# 2 0.0912 50.9687 8.3024 0.0000 9.4745 0.0000
# 3 40.0546 8.3024 127.5998 0.0000 -14.6299 0.0000
# 4 0.0000 0.0000 0.0000 40.5296 0.0000 -0.5182
# 5 -10.6222 9.4745 -14.6299 0.0000 25.3045 0.0000
# 6 0.0000 0.0000 0.0000 -0.5182 0.0000 13.7895
#
#
#
# Elastic Compliance Matrix: (Units=1/GPa)
#
#
# Indices 1 2 3 4 5 6 
#
# 1 0.013006 -0.000041 -0.003697 0.000000 0.003338 0.000000
# 2 -0.000041 0.021821 -0.002512 0.000000 -0.009640 0.000000
# 3 -0.003697 -0.002512 0.009736 0.000000 0.005018 0.000000
# 4 0.000000 0.000000 0.000000 0.024685 0.000000 0.000928
# 5 0.003338 -0.009640 0.005018 0.000000 0.047430 0.000000
# 6 0.000000 0.000000 0.000000 0.000928 0.000000 0.072554
#
#
# Mechanical properties :
#
#
# Convention : Reuss Voigt Hill
#
# Bulk Modulus (GPa) = 31.18952 40.71809 35.95380
# Shear Modulus (GPa) = 23.53804 30.66592 27.10198
#
# Velocity S-wave (km/s) = 3.13128 3.57408 3.35998
# Velocity P-wave (km/s) = 5.10543 5.83039 5.47991
#
# Compressibility (1/GPa) = 0.03206205
#
# Stress axis : x y z
#
# Youngs Moduli (GPa) = 76.88503 45.82718 102.70729
#
# Poissons Ratio (x) = 0.00190 0.37976
# Poissons Ratio (y) = 0.00318 0.25801
# Poissons Ratio (z) = 0.28428 0.11512
#
# Static dielectric constant tensor:
#      x y z
#    x 2.389510 0.000000 -0.040780 
#    y 0.000000 1.977480 0.000000 
#    z -0.040780 0.000000 1.919980 
# 
# From -- ./inp_files/2144.got.cif
#   From: 2010.05.17/outbox.cif.g08.bks.cpg/sg4_2_cif.got.tgz:2144.got - 2010.06.03 18:43:04.
