data_PCOD9115781
_publ_section_title
;
Structure prediction by ZEFSAII (Michael W. Deem and Ramdas Pophale) SiO2 
 PCOD9115781
Probable space group: P 21
;
_chemical_formula_sum "Si O2"
_cell_formula_units_Z 16
_cell_length_a 9.070070
_cell_length_b 4.896156
_cell_length_c 14.120173
_cell_angle_alpha 90.000000
_cell_angle_beta 106.256867
_cell_angle_gamma 90.000000
_cell_volume 601.983399
_symmetry_space_group_name_H-M "P 21"
_symmetry_group_IT_number 4
_symmetry_cell_setting 'monoclinic'
loop_
_space_group_symop_operation_xyz
x,y,z
-x,1/2+y,-z
loop_
_atom_site_type_symbol
_atom_site_label
_atom_site_fract_x
_atom_site_fract_y
_atom_site_fract_z
Si Si1 0.021363 0.555190 0.072436
Si Si2 0.407022 0.830969 0.090353
Si Si3 0.054509 0.149248 0.354116
Si Si4 0.603378 0.337417 0.127337
Si Si5 0.306797 0.368980 0.525156
Si Si6 0.462150 0.876662 0.614583
Si Si7 0.265348 0.175178 0.219318
Si Si8 0.116844 0.160131 0.753665
O O1 0.161092 0.406411 0.152960
O O2 0.925853 0.692357 0.142405
O O3 0.958155 0.291045 0.002478
O O4 0.561570 0.019555 0.129662
O O5 0.296700 0.940322 0.150313
O O6 0.449292 0.516189 0.104584
O O7 0.349432 0.879896 0.973803
O O8 0.149706 0.217688 0.466696
O O9 0.178406 0.059568 0.296453
O O10 0.000347 0.445931 0.312765
O O11 0.915444 0.934588 0.312929
O O12 0.726115 0.485411 0.215316
O O13 0.320385 0.675592 0.565287
O O14 0.417106 0.374140 0.451776
O O15 0.397405 0.177641 0.613983
O O16 0.568420 0.777616 0.717490
#
# Coordination Sequence:
#
# PCOD9115781 Si02
#       8
#     2   2   2   2   2   2   2   2
#     4  11  23  35  52  80 116 150 175 222 281 328
#     4  10  22  37  55  75 106 142 183 232 261 306
#     4  10  21  34  57  85 113 139 171 223 276 335
#     4  10  22  38  54  75 102 146 190 222 264 302
#     4   9  17  32  49  78 110 139 167 203 275 333
#     4   9  18  30  51  75 110 141 167 213 261 334
#     4  10  22  36  55  85 112 141 183 222 276 324
#     4  11  21  36  55  79 107 142 188 223 260 328
#
# _framework density 26.578807000000001
#
# number of rings (size 3 to 8) (size 9 to 14) (size 15 to 20)
#    0.000    2.000    0.000    3.750    0.000   14.000 
#    0.000    0.000    0.000    0.000    0.000   17.500 
#    0.000    0.000    0.000    0.000    0.000    0.000 
#
# Total GULP energy -89504.942728 kJ/mol
# GULP energy per Si atom -5594.058921 kJ/mol
# Density = 2.651831 g / cm^3
# Si number density = 26.578807 Si / 1000 Ang^3
#
#
#
# Elastic Constant Matrix: (Units=GPa)
#
#
# Indices 1 2 3 4 5 6 
#
# 1 38.5172 -15.5610 6.6150 0.0000 6.5155 0.0000
# 2 -15.5610 111.4120 8.7773 0.0000 6.2431 0.0000
# 3 6.6150 8.7773 90.4938 0.0000 16.8914 0.0000
# 4 0.0000 0.0000 0.0000 36.9159 0.0000 7.1119
# 5 6.5155 6.2431 16.8914 0.0000 44.7113 0.0000
# 6 0.0000 0.0000 0.0000 7.1119 0.0000 31.6373
#
#
#
# Elastic Compliance Matrix: (Units=1/GPa)
#
#
# Indices 1 2 3 4 5 6 
#
# 1 0.028734 0.004383 -0.001753 0.000000 -0.004137 0.000000
# 2 0.004383 0.009755 -0.000961 0.000000 -0.001638 0.000000
# 3 -0.001753 -0.000961 0.012049 0.000000 -0.004162 0.000000
# 4 0.000000 0.000000 0.000000 0.028315 0.000000 -0.006365
# 5 -0.004137 -0.001638 -0.004162 0.000000 0.024770 0.000000
# 6 0.000000 0.000000 0.000000 -0.006365 0.000000 0.033039
#
#
# Mechanical properties :
#
#
# Convention : Reuss Voigt Hill
#
# Bulk Modulus (GPa) = 18.56102 26.67618 22.61860
# Shear Modulus (GPa) = 33.05069 38.69234 35.87151
#
# Velocity S-wave (km/s) = 3.53015 3.81958 3.67771
# Velocity P-wave (km/s) = 4.85948 5.43237 5.15389
#
# Compressibility (1/GPa) = 0.05387634
#
# Stress axis : x y z
#
# Youngs Moduli (GPa) = 34.80171 102.50735 82.99605
#
# Poissons Ratio (x) = -0.44932 0.14553
# Poissons Ratio (y) = -0.15255 0.07975
# Poissons Ratio (z) = 0.06102 0.09850
#
# Static dielectric constant tensor:
#      x y z
#    x 2.200860 0.000000 -0.027700 
#    y 0.000000 1.967880 0.000000 
#    z -0.027700 0.000000 2.054190 
# 
# From -- ./inp_files/13601.got.cif
#   From: 2010.05.17/outbox.cif.g08.bks.cpg/sg4_7_cif.got.tgz:13601.got - 2010.06.03 18:43:04.
