data_PCOD9115615
_publ_section_title
;
Structure prediction by ZEFSAII (Michael W. Deem and Ramdas Pophale) SiO2 
 PCOD9115615
Probable space group: P 21
;
_chemical_formula_sum "Si O2"
_cell_formula_units_Z 16
_cell_length_a 11.232527
_cell_length_b 4.953726
_cell_length_c 19.107779
_cell_angle_alpha 90.000000
_cell_angle_beta 32.693749
_cell_angle_gamma 90.000000
_cell_volume 574.292101
_symmetry_space_group_name_H-M "P 21"
_symmetry_group_IT_number 4
_symmetry_cell_setting 'monoclinic'
loop_
_space_group_symop_operation_xyz
x,y,z
-x,1/2+y,-z
loop_
_atom_site_type_symbol
_atom_site_label
_atom_site_fract_x
_atom_site_fract_y
_atom_site_fract_z
Si Si1 0.088799 0.149250 0.455040
Si Si2 0.873664 0.027929 0.308192
Si Si3 0.084788 0.620470 0.115453
Si Si4 0.558207 0.690081 0.548529
Si Si5 0.629755 0.002646 0.908990
Si Si6 0.133462 0.088973 0.912165
Si Si7 0.215050 0.667061 0.502047
Si Si8 0.489065 0.824904 0.831322
O O1 0.067180 0.425116 0.516750
O O2 0.326989 0.164349 0.302526
O O3 0.920182 0.374774 0.488900
O O4 0.740969 0.755126 0.398931
O O5 0.676081 0.192051 0.371972
O O6 0.942422 0.130304 0.350841
O O7 0.033283 0.919709 0.169412
O O8 0.150975 0.459946 0.152732
O O9 0.898060 0.528234 0.154313
O O10 0.306955 0.640078 0.958816
O O11 0.597470 0.931440 0.582922
O O12 0.616699 0.415552 0.558014
O O13 0.618372 0.971514 0.831111
O O14 0.545907 0.298723 0.970317
O O15 0.355698 0.021293 0.844657
O O16 0.053247 0.396237 0.960252
#
# Coordination Sequence:
#
# PCOD9115615 Si02
#       8
#     2   2   2   2   2   2   2   2
#     4  12  29  49  74  99 136 196 255 297 365 432
#     4  10  21  40  71 105 144 184 227 290 376 426
#     4  10  23  43  74 113 143 192 236 297 370 441
#     4  10  20  41  65 101 145 183 222 288 358 422
#     4  10  22  42  68 109 145 189 232 292 367 433
#     4  10  22  46  70 102 145 194 233 294 358 432
#     4  10  22  43  68  97 142 183 237 303 349 423
#     4  10  25  48  74 102 152 185 244 307 355 435
#
# _framework density 27.860385000000001
#
# number of rings (size 3 to 8) (size 9 to 14) (size 15 to 20)
#    0.750    1.000    1.250    1.500    1.750    9.000 
#    4.500    7.500    0.000    0.000    0.000    0.000 
#    0.000    0.000    0.000    0.000    0.000    0.000 
#
# Total GULP energy -89412.055325 kJ/mol
# GULP energy per Si atom -5588.253458 kJ/mol
# Density = 2.779697 g / cm^3
# Si number density = 27.860385 Si / 1000 Ang^3
#
#
#
# Elastic Constant Matrix: (Units=GPa)
#
#
# Indices 1 2 3 4 5 6 
#
# 1 313.3332 59.6387 52.7900 0.0000 -24.1004 0.0000
# 2 59.6387 173.4688 33.7048 0.0000 5.2492 0.0000
# 3 52.7900 33.7048 127.9799 0.0000 16.5133 0.0000
# 4 0.0000 0.0000 0.0000 28.8173 0.0000 -2.5095
# 5 -24.1004 5.2492 16.5133 0.0000 39.9298 0.0000
# 6 0.0000 0.0000 0.0000 -2.5095 0.0000 59.1917
#
#
#
# Elastic Compliance Matrix: (Units=1/GPa)
#
#
# Indices 1 2 3 4 5 6 
#
# 1 0.003950 -0.001115 -0.001756 0.000000 0.003257 0.000000
# 2 -0.001115 0.006391 -0.001086 0.000000 -0.001064 0.000000
# 3 -0.001756 -0.001086 0.009446 0.000000 -0.004824 0.000000
# 4 0.000000 0.000000 0.000000 0.034830 0.000000 0.001477
# 5 0.003257 -0.001064 -0.004824 0.000000 0.029145 0.000000
# 6 0.000000 0.000000 0.000000 0.001477 0.000000 0.016957
#
#
# Mechanical properties :
#
#
# Convention : Reuss Voigt Hill
#
# Bulk Modulus (GPa) = 84.21989 100.78321 92.50155
# Shear Modulus (GPa) = 44.40842 56.83100 50.61971
#
# Velocity S-wave (km/s) = 3.99678 4.52137 4.26714
# Velocity P-wave (km/s) = 7.18289 7.96931 7.58630
#
# Compressibility (1/GPa) = 0.01187368
#
# Stress axis : x y z
#
# Youngs Moduli (GPa) = 253.15552 156.46024 105.86113
#
# Poissons Ratio (x) = 0.17452 0.18588
# Poissons Ratio (y) = 0.28238 0.11494
# Poissons Ratio (z) = 0.44451 0.16988
#
# Static dielectric constant tensor:
#      x y z
#    x 2.308390 0.000000 -0.020490 
#    y 0.000000 2.231200 0.000000 
#    z -0.020490 0.000000 2.078310 
# 
# From -- ./inp_files/16118.got.cif
#   From: 2010.05.17/outbox.cif.g08.bks.cpg/sg4_9_cif.got.tgz:16118.got - 2010.06.03 18:43:04.
