data_PCOD9115724
_publ_section_title
;
Structure prediction by ZEFSAII (Michael W. Deem and Ramdas Pophale) SiO2 
 PCOD9115724
Probable space group: P 21
;
_chemical_formula_sum "Si O2"
_cell_formula_units_Z 16
_cell_length_a 9.115080
_cell_length_b 12.661194
_cell_length_c 8.043292
_cell_angle_alpha 90.000000
_cell_angle_beta 48.503763
_cell_angle_gamma 90.000000
_cell_volume 695.264987
_symmetry_space_group_name_H-M "P 21"
_symmetry_group_IT_number 4
_symmetry_cell_setting 'monoclinic'
loop_
_space_group_symop_operation_xyz
x,y,z
-x,1/2+y,-z
loop_
_atom_site_type_symbol
_atom_site_label
_atom_site_fract_x
_atom_site_fract_y
_atom_site_fract_z
Si Si1 0.401503 0.949540 0.320863
Si Si2 0.122295 0.085370 0.695121
Si Si3 0.492236 0.867203 0.891056
Si Si4 0.215490 0.226678 0.158218
Si Si5 0.179392 0.424694 0.933060
Si Si6 0.438498 0.075169 0.753066
Si Si7 0.090679 0.787392 0.058448
Si Si8 0.212901 0.732406 0.593797
O O1 0.604593 0.967029 0.267661
O O2 0.291427 0.847371 0.478927
O O3 0.250207 0.045048 0.446042
O O4 0.466703 0.924905 0.086478
O O5 0.271705 0.073365 0.737661
O O6 0.043148 0.202594 0.750445
O O7 0.940150 0.007768 0.866668
O O8 0.666857 0.784014 0.782901
O O9 0.513450 0.958463 0.739541
O O10 0.286791 0.811081 0.009642
O O11 0.986356 0.204189 0.354594
O O12 0.210871 0.316292 0.013542
O O13 0.335109 0.129844 0.990627
O O14 0.039475 0.390341 0.886751
O O15 0.616431 0.149996 0.567808
O O16 0.159032 0.739289 0.829098
#
# Coordination Sequence:
#
# PCOD9115724 Si02
#       8
#     2   2   2   2   2   2   2   2
#     4  11  23  44  71  98 140 188 232 290 372 420
#     4  12  23  43  75 108 134 195 244 288 353 429
#     4  11  25  47  71 107 151 182 234 309 362 423
#     4  10  22  46  69  95 147 182 223 303 357 418
#     4  10  20  43  71  94 142 180 231 300 338 424
#     4  12  23  45  74 105 138 191 246 288 357 429
#     4  11  23  45  74 105 144 181 246 302 344 425
#     4  11  21  47  73  94 136 195 236 288 357 426
#
# _framework density 23.012806000000001
#
# number of rings (size 3 to 8) (size 9 to 14) (size 15 to 20)
#    0.000    1.000    8.750    0.000    1.750    2.000 
#    4.500    1.250    0.000    0.000    0.000    0.000 
#    0.000    0.000    0.000    0.000    0.000    0.000 
#
# Total GULP energy -89559.651844 kJ/mol
# GULP energy per Si atom -5597.478240 kJ/mol
# Density = 2.296043 g / cm^3
# Si number density = 23.012806 Si / 1000 Ang^3
#
#
#
# Elastic Constant Matrix: (Units=GPa)
#
#
# Indices 1 2 3 4 5 6 
#
# 1 106.4903 7.9301 19.8125 0.0000 -23.5549 0.0000
# 2 7.9301 22.8875 15.8859 0.0000 -5.1040 0.0000
# 3 19.8125 15.8859 93.3221 0.0000 -24.6200 0.0000
# 4 0.0000 0.0000 0.0000 30.5909 0.0000 -3.0157
# 5 -23.5549 -5.1040 -24.6200 0.0000 37.7124 0.0000
# 6 0.0000 0.0000 0.0000 -3.0157 0.0000 26.4141
#
#
#
# Elastic Compliance Matrix: (Units=1/GPa)
#
#
# Indices 1 2 3 4 5 6 
#
# 1 0.011023 -0.002199 -0.000275 0.000000 0.006407 0.000000
# 2 -0.002199 0.050050 -0.008007 0.000000 0.000173 0.000000
# 3 -0.000275 -0.008007 0.014262 0.000000 0.008055 0.000000
# 4 0.000000 0.000000 0.000000 0.033062 0.000000 0.003775
# 5 0.006407 0.000173 0.008055 0.000000 0.035801 0.000000
# 6 0.000000 0.000000 0.000000 0.003775 0.000000 0.038289
#
#
# Mechanical properties :
#
#
# Convention : Reuss Voigt Hill
#
# Bulk Modulus (GPa) = 18.39209 34.43966 26.41588
# Shear Modulus (GPa) = 22.56574 30.88157 26.72365
#
# Velocity S-wave (km/s) = 3.13481 3.66721 3.41141
# Velocity P-wave (km/s) = 4.59480 5.73839 5.19814
#
# Compressibility (1/GPa) = 0.05437119
#
# Stress axis : x y z
#
# Youngs Moduli (GPa) = 90.72108 19.97989 70.11527
#
# Poissons Ratio (x) = 0.04394 0.01931
# Poissons Ratio (y) = 0.19951 0.56145
# Poissons Ratio (z) = 0.02499 0.15999
#
# Static dielectric constant tensor:
#      x y z
#    x 1.886550 0.000000 0.028750 
#    y 0.000000 1.852440 0.000000 
#    z 0.028750 0.000000 1.855610 
# 
# From -- ./inp_files/6401.got.cif
#   From: 2010.05.17/outbox.cif.g08.bks.cpg/sg4_4_cif.got.tgz:6401.got - 2010.06.03 18:43:04.
