data_PCOD9115600
_publ_section_title
;
Structure prediction by ZEFSAII (Michael W. Deem and Ramdas Pophale) SiO2 
 PCOD9115600
Probable space group: P 21
;
_chemical_formula_sum "Si O2"
_cell_formula_units_Z 16
_cell_length_a 12.137128
_cell_length_b 8.512683
_cell_length_c 7.005661
_cell_angle_alpha 90.000000
_cell_angle_beta 56.389929
_cell_angle_gamma 90.000000
_cell_volume 602.815931
_symmetry_space_group_name_H-M "P 21"
_symmetry_group_IT_number 4
_symmetry_cell_setting 'monoclinic'
loop_
_space_group_symop_operation_xyz
x,y,z
-x,1/2+y,-z
loop_
_atom_site_type_symbol
_atom_site_label
_atom_site_fract_x
_atom_site_fract_y
_atom_site_fract_z
Si Si1 0.628185 0.222870 0.535542
Si Si2 0.357042 0.348650 0.885355
Si Si3 0.866812 0.413263 0.177947
Si Si4 0.170052 0.771055 0.206901
Si Si5 0.099778 0.215784 0.068345
Si Si6 0.297447 0.371373 0.487533
Si Si7 0.558225 0.199209 0.151154
Si Si8 0.942497 0.981539 0.482560
O O1 0.488527 0.247596 0.770794
O O2 0.745702 0.350769 0.423713
O O3 0.588753 0.218157 0.348813
O O4 0.679035 0.057606 0.561155
O O5 0.223497 0.264500 0.081397
O O6 0.315681 0.360235 0.699163
O O7 0.406092 0.516654 0.913722
O O8 0.852586 0.597080 0.144561
O O9 0.852950 0.316505 0.991921
O O10 0.014977 0.367268 0.094719
O O11 0.125975 0.593543 0.296206
O O12 0.074054 0.887314 0.414012
O O13 0.327895 0.790606 0.074864
O O14 0.995714 0.105390 0.276355
O O15 0.410238 0.266283 0.278664
O O16 0.153328 0.358889 0.533243
#
# Coordination Sequence:
#
# PCOD9115600 Si02
#       8
#     2   2   2   2   2   2   2   2
#     4   9  19  35  59  94 124 159 199 256 320 374
#     4  10  21  35  63  97 125 163 204 258 325 378
#     4  10  22  39  60  97 129 165 213 269 316 374
#     4  10  24  42  62  89 123 171 211 260 320 374
#     4  11  23  37  64  96 129 167 216 266 315 378
#     4  10  20  41  61  91 129 161 206 266 312 378
#     4   9  21  38  63  87 126 161 208 260 311 376
#     4  11  24  43  62  91 127 173 211 265 315 380
#
# _framework density 26.542100000000001
#
# number of rings (size 3 to 8) (size 9 to 14) (size 15 to 20)
#    0.000    2.000    1.250    1.500   15.750    0.000 
#    0.000    2.500    0.000    0.000    0.000    0.000 
#    0.000    0.000    0.000    0.000    0.000    0.000 
#
# Total GULP energy -89511.189297 kJ/mol
# GULP energy per Si atom -5594.449331 kJ/mol
# Density = 2.648169 g / cm^3
# Si number density = 26.542100 Si / 1000 Ang^3
#
#
#
# Elastic Constant Matrix: (Units=GPa)
#
#
# Indices 1 2 3 4 5 6 
#
# 1 121.1160 29.1060 26.2342 0.0000 -26.1814 0.0000
# 2 29.1060 98.5954 15.5728 0.0000 -16.4349 0.0000
# 3 26.2342 15.5728 94.3625 0.0000 -9.9907 0.0000
# 4 0.0000 0.0000 0.0000 34.2832 0.0000 -14.0465
# 5 -26.1814 -16.4349 -9.9907 0.0000 48.6842 0.0000
# 6 0.0000 0.0000 0.0000 -14.0465 0.0000 45.2490
#
#
#
# Elastic Compliance Matrix: (Units=1/GPa)
#
#
# Indices 1 2 3 4 5 6 
#
# 1 0.010104 -0.001935 -0.002028 0.000000 0.004365 0.000000
# 2 -0.001935 0.011307 -0.001057 0.000000 0.002560 0.000000
# 3 -0.002028 -0.001057 0.011431 0.000000 0.000898 0.000000
# 4 0.000000 0.000000 0.000000 0.033419 0.000000 0.010374
# 5 0.004365 0.002560 0.000898 0.000000 0.023936 0.000000
# 6 0.000000 0.000000 0.000000 0.010374 0.000000 0.025320
#
#
# Mechanical properties :
#
#
# Convention : Reuss Voigt Hill
#
# Bulk Modulus (GPa) = 43.85458 50.65553 47.25506
# Shear Modulus (GPa) = 37.54918 41.85402 39.70160
#
# Velocity S-wave (km/s) = 3.76533 3.97532 3.87175
# Velocity P-wave (km/s) = 5.95501 6.34013 6.15059
#
# Compressibility (1/GPa) = 0.02280264
#
# Stress axis : x y z
#
# Youngs Moduli (GPa) = 98.96832 88.43824 87.48340
#
# Poissons Ratio (x) = 0.17113 0.17739
# Poissons Ratio (y) = 0.19151 0.09248
# Poissons Ratio (z) = 0.20068 0.09349
#
# Static dielectric constant tensor:
#      x y z
#    x 2.050260 0.000000 0.040310 
#    y 0.000000 2.020620 0.000000 
#    z 0.040310 0.000000 2.222080 
# 
# From -- ./inp_files/7827.got.cif
#   From: 2010.05.17/outbox.cif.g08.bks.cpg/sg4_4_cif.got.tgz:7827.got - 2010.06.03 18:43:04.
