data_PCOD9115367
_publ_section_title
;
Structure prediction by ZEFSAII (Michael W. Deem and Ramdas Pophale) SiO2 
 PCOD9115367
Probable space group: P 21
;
_chemical_formula_sum "Si O2"
_cell_formula_units_Z 16
_cell_length_a 19.137560
_cell_length_b 7.884505
_cell_length_c 8.480147
_cell_angle_alpha 90.000000
_cell_angle_beta 153.022884
_cell_angle_gamma 90.000000
_cell_volume 580.457659
_symmetry_space_group_name_H-M "P 21"
_symmetry_group_IT_number 4
_symmetry_cell_setting 'monoclinic'
loop_
_space_group_symop_operation_xyz
x,y,z
-x,1/2+y,-z
loop_
_atom_site_type_symbol
_atom_site_label
_atom_site_fract_x
_atom_site_fract_y
_atom_site_fract_z
Si Si1 0.967631 0.441280 0.351634
Si Si2 0.655550 0.440600 0.218962
Si Si3 0.547528 0.754322 0.598395
Si Si4 0.819110 0.736162 0.401642
Si Si5 0.123642 0.752327 0.525816
Si Si6 0.631854 0.068200 0.544564
Si Si7 0.663745 0.550052 0.561970
Si Si8 0.829723 0.858943 0.748080
O O1 0.031194 0.271372 0.399163
O O2 0.100154 0.579735 0.578669
O O3 0.917168 0.395696 0.425635
O O4 0.822453 0.511018 0.967304
O O5 0.797789 0.567400 0.462790
O O6 0.711306 0.282292 0.225503
O O7 0.635143 0.416565 0.364129
O O8 0.504992 0.538617 0.856680
O O9 0.594089 0.916922 0.591870
O O10 0.394600 0.733071 0.398334
O O11 0.550901 0.603902 0.474608
O O12 0.682627 0.733679 0.999385
O O13 0.818317 0.878663 0.538029
O O14 0.990993 0.776262 0.126125
O O15 0.786833 0.025444 0.762635
O O16 0.696893 0.724995 0.532299
#
# Coordination Sequence:
#
# PCOD9115367 Si02
#       8
#     2   2   2   2   2   2   2   2
#     4  11  20  35  60  85 116 158 199 242 294 351
#     4  10  21  38  59  86 118 151 194 248 300 352
#     4  10  21  39  60  86 118 155 198 247 295 349
#     4  10  20  38  61  84 117 158 193 243 302 350
#     4  11  22  37  58  89 120 154 200 246 292 348
#     4  10  21  38  60  84 115 159 199 238 296 354
#     4   9  19  37  59  83 116 155 193 239 296 352
#     4   9  20  38  59  83 116 154 194 241 297 352
#
# _framework density 27.56446
#
# number of rings (size 3 to 8) (size 9 to 14) (size 15 to 20)
#    0.000    2.000    0.000    5.250    0.000    3.000 
#    0.000    7.500    0.000    0.000    0.000    0.000 
#    0.000    0.000    0.000    0.000    0.000    0.000 
#
# Total GULP energy -89515.964377 kJ/mol
# GULP energy per Si atom -5594.747774 kJ/mol
# Density = 2.750172 g / cm^3
# Si number density = 27.564460 Si / 1000 Ang^3
#
#
#
# Elastic Constant Matrix: (Units=GPa)
#
#
# Indices 1 2 3 4 5 6 
#
# 1 181.5449 16.9222 45.2638 0.0000 -37.9328 0.0000
# 2 16.9222 72.8395 9.5776 0.0000 -6.9928 0.0000
# 3 45.2638 9.5776 65.4225 0.0000 -14.1797 0.0000
# 4 0.0000 0.0000 0.0000 34.9500 0.0000 11.7507
# 5 -37.9328 -6.9928 -14.1797 0.0000 44.1857 0.0000
# 6 0.0000 0.0000 0.0000 11.7507 0.0000 45.4385
#
#
#
# Elastic Compliance Matrix: (Units=1/GPa)
#
#
# Indices 1 2 3 4 5 6 
#
# 1 0.007674 -0.000751 -0.004081 0.000000 0.005159 0.000000
# 2 -0.000751 0.014188 -0.001301 0.000000 0.001183 0.000000
# 3 -0.004081 -0.001301 0.018803 0.000000 0.002325 0.000000
# 4 0.000000 0.000000 0.000000 0.031337 0.000000 -0.008104
# 5 0.005159 0.001183 0.002325 0.000000 0.027994 0.000000
# 6 0.000000 0.000000 0.000000 -0.008104 0.000000 0.024104
#
#
# Mechanical properties :
#
#
# Convention : Reuss Voigt Hill
#
# Bulk Modulus (GPa) = 35.21281 51.48157 43.34719
# Shear Modulus (GPa) = 34.28600 41.45106 37.86853
#
# Velocity S-wave (km/s) = 3.53065 3.88208 3.71053
# Velocity P-wave (km/s) = 5.42431 6.22988 5.84099
#
# Compressibility (1/GPa) = 0.02839876
#
# Stress axis : x y z
#
# Youngs Moduli (GPa) = 130.31333 70.48243 53.18247
#
# Poissons Ratio (x) = 0.05292 0.21704
# Poissons Ratio (y) = 0.09785 0.06920
# Poissons Ratio (z) = 0.53182 0.09171
#
# Static dielectric constant tensor:
#      x y z
#    x 2.115010 0.000000 -0.012020 
#    y 0.000000 2.378880 0.000000 
#    z -0.012020 0.000000 2.051870 
# 
# From -- ./inp_files/9941.got.cif
#   From: 2010.05.17/outbox.cif.g08.bks.cpg/sg4_5_cif.got.tgz:9941.got - 2010.06.03 18:43:04.
