data_PCOD9115302
_publ_section_title
;
Structure prediction by ZEFSAII (Michael W. Deem and Ramdas Pophale) SiO2 
 PCOD9115302
Probable space group: P 21
;
_chemical_formula_sum "Si O2"
_cell_formula_units_Z 16
_cell_length_a 6.011255
_cell_length_b 14.647103
_cell_length_c 11.377185
_cell_angle_alpha 90.000000
_cell_angle_beta 46.774770
_cell_angle_gamma 90.000000
_cell_volume 729.929438
_symmetry_space_group_name_H-M "P 21"
_symmetry_group_IT_number 4
_symmetry_cell_setting 'monoclinic'
loop_
_space_group_symop_operation_xyz
x,y,z
-x,1/2+y,-z
loop_
_atom_site_type_symbol
_atom_site_label
_atom_site_fract_x
_atom_site_fract_y
_atom_site_fract_z
Si Si1 0.013650 0.171930 0.739726
Si Si2 0.713955 0.769180 0.749245
Si Si3 0.935503 0.106047 0.286727
Si Si4 0.325059 0.336521 0.500502
Si Si5 0.583559 0.803798 0.046760
Si Si6 0.735930 0.455394 0.715268
Si Si7 0.683403 0.500168 0.461187
Si Si8 0.080677 0.670859 0.958097
O O1 0.267141 0.242339 0.593724
O O2 0.049076 0.072101 0.667881
O O3 0.043976 0.150951 0.867420
O O4 0.692957 0.228379 0.841316
O O5 0.002622 0.706940 0.683039
O O6 0.727033 0.816377 0.618603
O O7 0.626252 0.828905 0.894528
O O8 0.426897 0.702031 0.841119
O O9 0.621663 0.061899 0.444524
O O10 0.217704 0.047042 0.230344
O O11 0.938594 0.102256 0.144234
O O12 0.615205 0.402925 0.420866
O O13 0.035827 0.397658 0.640212
O O14 0.532082 0.892020 0.143497
O O15 0.884413 0.755412 0.982882
O O16 0.718772 0.474999 0.584485
#
# Coordination Sequence:
#
# PCOD9115302 Si02
#       8
#     2   2   2   2   2   2   2   2
#     4  10  21  38  58  86 121 153 195 246 294 352
#     4  10  21  40  60  86 117 153 199 241 292 355
#     4  10  21  37  59  84 113 155 197 241 297 351
#     4  10  22  38  60  89 120 155 197 245 298 351
#     4   9  21  38  59  83 116 158 195 242 296 345
#     4  10  21  38  56  83 120 152 195 248 295 350
#     4  11  23  38  62  91 118 157 198 241 300 355
#     4  10  20  37  60  82 111 157 200 236 292 351
#
# _framework density 21.919927000000001
#
# number of rings (size 3 to 8) (size 9 to 14) (size 15 to 20)
#    0.000    2.000    0.000    3.000    0.000    9.000 
#    0.000    7.500    0.000    0.000    0.000    0.000 
#    0.000    0.000    0.000    0.000    0.000    0.000 
#
# Total GULP energy -89218.203623 kJ/mol
# GULP energy per Si atom -5576.137726 kJ/mol
# Density = 2.187004 g / cm^3
# Si number density = 21.919927 Si / 1000 Ang^3
#
#
#
# Elastic Constant Matrix: (Units=GPa)
#
#
# Indices 1 2 3 4 5 6 
#
# 1 58.7440 9.1860 7.3799 0.0000 12.6981 0.0000
# 2 9.1860 76.8173 18.3170 0.0000 4.3573 0.0000
# 3 7.3799 18.3170 49.1619 0.0000 12.6929 0.0000
# 4 0.0000 0.0000 0.0000 32.9121 0.0000 8.7793
# 5 12.6981 4.3573 12.6929 0.0000 40.0922 0.0000
# 6 0.0000 0.0000 0.0000 8.7793 0.0000 36.8815
#
#
#
# Elastic Compliance Matrix: (Units=1/GPa)
#
#
# Indices 1 2 3 4 5 6 
#
# 1 0.018567 -0.001736 -0.000730 0.000000 -0.005461 0.000000
# 2 -0.001736 0.014450 -0.005292 0.000000 0.000655 0.000000
# 3 -0.000730 -0.005292 0.024192 0.000000 -0.006852 0.000000
# 4 0.000000 0.000000 0.000000 0.032444 0.000000 -0.007723
# 5 -0.005461 0.000655 -0.006852 0.000000 0.028770 0.000000
# 6 0.000000 0.000000 0.000000 -0.007723 0.000000 0.028952
#
#
# Mechanical properties :
#
#
# Convention : Reuss Voigt Hill
#
# Bulk Modulus (GPa) = 23.98636 28.27656 26.13146
# Shear Modulus (GPa) = 28.28207 31.96650 30.12428
#
# Velocity S-wave (km/s) = 3.59589 3.82295 3.71116
# Velocity P-wave (km/s) = 5.31103 5.69338 5.50553
#
# Compressibility (1/GPa) = 0.04169036
#
# Stress axis : x y z
#
# Youngs Moduli (GPa) = 53.86004 69.20239 41.33653
#
# Poissons Ratio (x) = 0.12016 0.03019
# Poissons Ratio (y) = 0.09352 0.21877
# Poissons Ratio (z) = 0.03934 0.36625
#
# Static dielectric constant tensor:
#      x y z
#    x 1.797420 0.000000 -0.015980 
#    y 0.000000 1.860970 0.000000 
#    z -0.015980 0.000000 1.836060 
# 
# From -- ./inp_files/1596.got.cif
#   From: 2010.05.17/outbox.cif.g08.bks.cpg/sg4_1_cif.got.tgz:1596.got - 2010.06.03 18:43:04.
