data_PCOD9115460
_publ_section_title
;
Structure prediction by ZEFSAII (Michael W. Deem and Ramdas Pophale) SiO2 
 PCOD9115460
Probable space group: P 21
;
_chemical_formula_sum "Si O2"
_cell_formula_units_Z 16
_cell_length_a 8.475033
_cell_length_b 8.706276
_cell_length_c 11.529412
_cell_angle_alpha 90.000000
_cell_angle_beta 69.173547
_cell_angle_gamma 90.000000
_cell_volume 795.124985
_symmetry_space_group_name_H-M "P 21"
_symmetry_group_IT_number 4
_symmetry_cell_setting 'monoclinic'
loop_
_space_group_symop_operation_xyz
x,y,z
-x,1/2+y,-z
loop_
_atom_site_type_symbol
_atom_site_label
_atom_site_fract_x
_atom_site_fract_y
_atom_site_fract_z
Si Si1 0.003030 0.353850 0.907668
Si Si2 0.756720 0.127023 0.072238
Si Si3 0.244132 0.931900 0.224663
Si Si4 0.503799 0.457756 0.415159
Si Si5 0.601601 0.282114 0.610321
Si Si6 0.415244 0.230010 0.255185
Si Si7 0.689836 0.640822 0.186077
Si Si8 0.487536 0.480441 0.041416
O O1 0.920644 0.403962 0.808109
O O2 0.113218 0.494577 0.925953
O O3 0.125297 0.207080 0.865820
O O4 0.852738 0.288514 0.027923
O O5 0.599979 0.150291 0.200307
O O6 0.666000 0.072221 0.976812
O O7 0.275077 0.102530 0.266967
O O8 0.259910 0.819038 0.329740
O O9 0.399852 0.914375 0.092767
O O10 0.579251 0.406322 0.516542
O O11 0.391446 0.612151 0.446985
O O12 0.402830 0.321221 0.378535
O O13 0.653062 0.503853 0.286154
O O14 0.428283 0.274195 0.729569
O O15 0.420340 0.352321 0.147845
O O16 0.611341 0.589562 0.084250
#
# Coordination Sequence:
#
# PCOD9115460 Si02
#       8
#     2   2   2   2   2   2   2   2
#     4  12  24  38  55  96 132 170 194 257 330 374
#     4  11  25  34  62  85 139 163 208 246 314 383
#     4  11  22  35  61  90 130 161 207 247 315 377
#     4   9  21  38  71  89 116 153 229 261 305 354
#     4  10  20  39  65  91 114 166 214 270 295 363
#     4  10  21  38  62  91 119 165 214 255 298 366
#     4   9  21  37  63  86 125 153 205 260 315 366
#     4  10  20  39  61  94 117 169 209 252 296 377
#
# _framework density 20.122622
#
# number of rings (size 3 to 8) (size 9 to 14) (size 15 to 20)
#    0.750    1.000    1.250    3.750    8.750    0.000 
#    0.000    0.000    5.500    0.000    0.000    0.000 
#    0.000    0.000    0.000    0.000    0.000    0.000 
#
# Total GULP energy -89259.637476 kJ/mol
# GULP energy per Si atom -5578.727342 kJ/mol
# Density = 2.007682 g / cm^3
# Si number density = 20.122622 Si / 1000 Ang^3
#
#
#
# Elastic Constant Matrix: (Units=GPa)
#
#
# Indices 1 2 3 4 5 6 
#
# 1 95.6268 48.7053 36.7555 0.0000 36.3734 0.0000
# 2 48.7053 97.7813 32.3640 0.0000 23.0117 0.0000
# 3 36.7555 32.3640 85.4101 0.0000 38.5447 0.0000
# 4 0.0000 0.0000 0.0000 37.5465 0.0000 9.0658
# 5 36.3734 23.0117 38.5447 0.0000 26.4527 0.0000
# 6 0.0000 0.0000 0.0000 9.0658 0.0000 44.9099
#
#
#
# Elastic Compliance Matrix: (Units=1/GPa)
#
#
# Indices 1 2 3 4 5 6 
#
# 1 0.030192 -0.006377 0.016516 0.000000 -0.060033 0.000000
# 2 -0.006377 0.014214 -0.002975 0.000000 0.000738 0.000000
# 3 0.016516 -0.002975 0.043248 0.000000 -0.083140 0.000000
# 4 0.000000 0.000000 0.000000 0.027998 0.000000 -0.005652
# 5 -0.060033 0.000738 -0.083140 0.000000 0.240854 0.000000
# 6 0.000000 0.000000 0.000000 -0.005652 0.000000 0.023408
#
#
# Mechanical properties :
#
#
# Convention : Reuss Voigt Hill
#
# Bulk Modulus (GPa) = 9.80565 57.16309 33.48437
# Shear Modulus (GPa) = 12.51312 32.51469 22.51391
#
# Velocity S-wave (km/s) = 2.49638 4.02410 3.34853
# Velocity P-wave (km/s) = 3.63219 7.07532 5.62374
#
# Compressibility (1/GPa) = 0.10198203
#
# Stress axis : x y z
#
# Youngs Moduli (GPa) = 33.12152 70.35181 23.12231
#
# Poissons Ratio (x) = 0.44864 -0.38189
# Poissons Ratio (y) = 0.21122 0.06879
# Poissons Ratio (z) = -0.54703 0.20930
#
# Static dielectric constant tensor:
#      x y z
#    x 1.706030 0.000000 -0.011370 
#    y 0.000000 1.789390 0.000000 
#    z -0.011370 0.000000 1.715250 
# 
# From -- ./inp_files/10872.got.cif
#   From: 2010.05.17/outbox.cif.g08.bks.cpg/sg4_6_cif.got.tgz:10872.got - 2010.06.03 18:43:04.
