data_PCOD9115877
_publ_section_title
;
Structure prediction by ZEFSAII (Michael W. Deem and Ramdas Pophale) SiO2 
 PCOD9115877
Probable space group: P 21
;
_chemical_formula_sum "Si O2"
_cell_formula_units_Z 14
_cell_length_a 15.140701
_cell_length_b 5.628152
_cell_length_c 21.380233
_cell_angle_alpha 90.000000
_cell_angle_beta 19.463270
_cell_angle_gamma 90.000000
_cell_volume 607.061217
_symmetry_space_group_name_H-M "P 21"
_symmetry_group_IT_number 4
_symmetry_cell_setting 'monoclinic'
loop_
_space_group_symop_operation_xyz
x,y,z
-x,1/2+y,-z
loop_
_atom_site_type_symbol
_atom_site_label
_atom_site_fract_x
_atom_site_fract_y
_atom_site_fract_z
Si Si1 0.625312 0.720940 0.937404
Si Si2 0.331934 0.056076 0.960108
Si Si3 0.022383 0.436517 0.099302
Si Si4 0.111282 0.221274 0.694459
Si Si5 0.464606 0.005910 0.657035
Si Si6 0.437478 0.221235 0.281386
Si Si7 0.163757 0.886280 0.544407
O O1 0.923250 0.701204 0.709621
O O2 0.485137 0.470920 0.014870
O O3 0.607305 0.740893 0.025296
O O4 0.573875 0.922318 0.764637
O O5 0.136225 0.176766 0.039795
O O6 0.151703 0.867142 0.116370
O O7 0.860364 0.541072 0.266726
O O8 0.834540 0.470938 0.165444
O O9 0.288212 0.587901 0.914835
O O10 0.351725 0.401410 0.521215
O O11 0.079122 0.075206 0.652888
O O12 0.567660 0.265888 0.608079
O O13 0.524752 0.854912 0.678448
O O14 0.219567 0.019941 0.442046
#
# Coordination Sequence:
#
# PCOD9115877 Si02
#       7
#     2   2   2   2   2   2   2
#     4  12  27  47  88 112 140 188 259 327 394 450
#     4  11  23  47  69 105 143 189 240 311 371 446
#     4  11  24  38  67 100 146 195 242 292 363 445
#     4  10  21  37  66  98 140 180 235 293 362 424
#     4  11  24  38  67 100 146 195 242 292 363 445
#     4  10  26  40  72  96 154 192 238 292 380 440
#     4  11  23  47  69 105 143 189 240 311 371 446
#
# _framework density 23.061923
#
# number of rings (size 3 to 8) (size 9 to 14) (size 15 to 20)
#    0.000    1.143    2.857    1.714   12.000    2.286 
#    0.000    0.000    6.286    0.000    0.000    0.000 
#    0.000    0.000    0.000    0.000    0.000    0.000 
#
# Total GULP energy -78183.875800 kJ/mol
# GULP energy per Si atom -5584.562557 kJ/mol
# Density = 2.300943 g / cm^3
# Si number density = 23.061923 Si / 1000 Ang^3
#
#
#
# Elastic Constant Matrix: (Units=GPa)
#
#
# Indices 1 2 3 4 5 6 
#
# 1 48.5735 20.6714 36.3670 0.0000 0.0807 0.0000
# 2 20.6714 88.2436 24.1305 0.0000 4.4316 0.0000
# 3 36.3670 24.1305 67.5435 0.0000 24.1198 0.0000
# 4 0.0000 0.0000 0.0000 40.6746 0.0000 27.2270
# 5 0.0807 4.4316 24.1198 0.0000 36.3994 0.0000
# 6 0.0000 0.0000 0.0000 27.2270 0.0000 19.5033
#
#
#
# Elastic Compliance Matrix: (Units=1/GPa)
#
#
# Indices 1 2 3 4 5 6 
#
# 1 0.044284 -0.003215 -0.029867 0.000000 0.020084 0.000000
# 2 -0.003215 0.012893 -0.003035 0.000000 0.000449 0.000000
# 3 -0.029867 -0.003035 0.041677 0.000000 -0.027181 0.000000
# 4 0.000000 0.000000 0.000000 0.375203 0.000000 -0.523791
# 5 0.020084 0.000449 -0.027181 0.000000 0.045385 0.000000
# 6 0.000000 0.000000 0.000000 -0.523791 0.000000 0.782496
#
#
# Mechanical properties :
#
#
# Convention : Reuss Voigt Hill
#
# Bulk Modulus (GPa) = 37.56683 40.74428 39.15555
# Shear Modulus (GPa) = 3.61521 27.52822 15.57172
#
# Velocity S-wave (km/s) = 1.25340 3.45869 2.60131
# Velocity P-wave (km/s) = 4.29181 5.80136 5.10271
#
# Compressibility (1/GPa) = 0.02661923
#
# Stress axis : x y z
#
# Youngs Moduli (GPa) = 22.58175 77.56222 23.99395
#
# Poissons Ratio (x) = 0.24937 0.71662
# Poissons Ratio (y) = 0.07260 0.07283
# Poissons Ratio (z) = 0.67445 0.23542
#
# Static dielectric constant tensor:
#      x y z
#    x 1.886010 0.000000 0.017730 
#    y 0.000000 2.038450 0.000000 
#    z 0.017730 0.000000 1.900850 
# 
# From -- ./inp_files/7176.got.cif
#   From: 2010.05.17/outbox.cif.g08.bks.cpg/sg4_4_cif.got.tgz:7176.got - 2010.06.03 18:43:04.
