data_PCOD9115172
_publ_section_title
;
Structure prediction by ZEFSAII (Michael W. Deem and Ramdas Pophale) SiO2 
 PCOD9115172
Probable space group: P 21
;
_chemical_formula_sum "Si O2"
_cell_formula_units_Z 16
_cell_length_a 22.279075
_cell_length_b 4.967373
_cell_length_c 15.185684
_cell_angle_alpha 90.000000
_cell_angle_beta 21.061093
_cell_angle_gamma 90.000000
_cell_volume 603.937346
_symmetry_space_group_name_H-M "P 21"
_symmetry_group_IT_number 4
_symmetry_cell_setting 'monoclinic'
loop_
_space_group_symop_operation_xyz
x,y,z
-x,1/2+y,-z
loop_
_atom_site_type_symbol
_atom_site_label
_atom_site_fract_x
_atom_site_fract_y
_atom_site_fract_z
Si Si1 0.917055 0.128470 0.333653
Si Si2 0.405844 0.403367 0.468347
Si Si3 0.227015 0.883480 0.003423
Si Si4 0.962165 0.909873 0.998785
Si Si5 0.187992 0.281144 0.219742
Si Si6 0.421692 0.544794 0.155647
Si Si7 0.534878 0.415676 0.728367
Si Si8 0.932716 0.522149 0.461382
O O1 0.765736 0.927328 0.561965
O O2 0.864224 0.343627 0.479397
O O3 0.924260 0.277838 0.231470
O O4 0.104193 0.032703 0.101907
O O5 0.578582 0.336772 0.283299
O O6 0.232938 0.388380 0.757695
O O7 0.421806 0.704458 0.408703
O O8 0.386917 0.194735 0.412167
O O9 0.107463 0.632149 0.185427
O O10 0.230213 0.054031 0.089728
O O11 0.995618 0.717726 0.037228
O O12 0.998306 0.349221 0.454442
O O13 0.187021 0.222814 0.324814
O O14 0.337870 0.487016 0.000656
O O15 0.445419 0.732884 0.211103
O O16 0.527478 0.270357 0.989589
#
# Coordination Sequence:
#
# PCOD9115172 Si02
#       8
#     2   2   2   2   2   2   2   2
#     4  11  28  45  69 107 142 191 244 309 365 430
#     4  11  23  47  73 105 132 187 243 298 366 424
#     4  10  23  41  66 101 148 181 232 297 355 438
#     4  12  28  53  81 104 138 195 250 311 369 431
#     4  10  20  34  64  97 137 194 230 273 352 433
#     4  12  27  44  66 102 144 194 238 294 361 429
#     4  11  23  42  69  99 140 181 243 295 344 434
#     4  11  20  38  62  97 143 187 232 283 356 429
#
# _framework density 26.492813000000002
#
# number of rings (size 3 to 8) (size 9 to 14) (size 15 to 20)
#    0.000    1.000    2.500    3.750    5.250    1.000 
#    2.250    0.000    0.000    0.000    0.000    0.000 
#    0.000    0.000    0.000    0.000    0.000    0.000 
#
# Total GULP energy -89299.686007 kJ/mol
# GULP energy per Si atom -5581.230375 kJ/mol
# Density = 2.643251 g / cm^3
# Si number density = 26.492813 Si / 1000 Ang^3
#
#
#
# Elastic Constant Matrix: (Units=GPa)
#
#
# Indices 1 2 3 4 5 6 
#
# 1 33.9005 -13.1428 -10.1308 0.0000 -1.5556 0.0000
# 2 -13.1428 80.7988 -13.5756 0.0000 -0.7497 0.0000
# 3 -10.1308 -13.5756 140.9907 0.0000 -31.3078 0.0000
# 4 0.0000 0.0000 0.0000 26.1803 0.0000 -0.9903
# 5 -1.5556 -0.7497 -31.3078 0.0000 35.9274 0.0000
# 6 0.0000 0.0000 0.0000 -0.9903 0.0000 19.6384
#
#
#
# Elastic Compliance Matrix: (Units=1/GPa)
#
#
# Indices 1 2 3 4 5 6 
#
# 1 0.033367 0.006172 0.004143 0.000000 0.005184 0.000000
# 2 0.006172 0.013799 0.002350 0.000000 0.002603 0.000000
# 3 0.004143 0.002350 0.009507 0.000000 0.008513 0.000000
# 4 0.000000 0.000000 0.000000 0.038270 0.000000 0.001930
# 5 0.005184 0.002603 0.008513 0.000000 0.035531 0.000000
# 6 0.000000 0.000000 0.000000 0.001930 0.000000 0.051018
#
#
# Mechanical properties :
#
#
# Convention : Reuss Voigt Hill
#
# Bulk Modulus (GPa) = 12.19478 20.22130 16.20804
# Shear Modulus (GPa) = 27.24849 35.85184 31.55017
#
# Velocity S-wave (km/s) = 3.21054 3.68267 3.45468
# Velocity P-wave (km/s) = 4.28444 5.07268 4.69513
#
# Compressibility (1/GPa) = 0.08200233
#
# Stress axis : x y z
#
# Youngs Moduli (GPa) = 29.97001 72.46731 105.18573
#
# Poissons Ratio (x) = -0.44724 -0.43577
# Poissons Ratio (y) = -0.18496 -0.24721
# Poissons Ratio (z) = -0.12416 -0.17031
#
# Static dielectric constant tensor:
#      x y z
#    x 2.224020 0.000000 -0.076110 
#    y 0.000000 2.156640 0.000000 
#    z -0.076110 0.000000 2.084950 
# 
# From -- ./inp_files/14515.got.cif
#   From: 2010.05.17/outbox.cif.g08.bks.cpg/sg4_8_cif.got.tgz:14515.got - 2010.06.03 18:43:04.
