data_PCOD9115452
_publ_section_title
;
Structure prediction by ZEFSAII (Michael W. Deem and Ramdas Pophale) SiO2 
 PCOD9115452
Probable space group: P 21
;
_chemical_formula_sum "Si O2"
_cell_formula_units_Z 14
_cell_length_a 11.466406
_cell_length_b 7.306124
_cell_length_c 13.851097
_cell_angle_alpha 90.000000
_cell_angle_beta 34.244462
_cell_angle_gamma 90.000000
_cell_volume 652.972299
_symmetry_space_group_name_H-M "P 21"
_symmetry_group_IT_number 4
_symmetry_cell_setting 'monoclinic'
loop_
_space_group_symop_operation_xyz
x,y,z
-x,1/2+y,-z
loop_
_atom_site_type_symbol
_atom_site_label
_atom_site_fract_x
_atom_site_fract_y
_atom_site_fract_z
Si Si1 0.116311 0.378400 0.788437
Si Si2 0.551947 0.988130 0.296254
Si Si3 0.738962 0.393322 0.170616
Si Si4 0.972895 0.800838 0.637907
Si Si5 0.281099 0.484439 0.473624
Si Si6 0.123449 0.978904 0.713087
Si Si7 0.243547 0.114934 0.372795
O O1 0.282122 0.360885 0.762373
O O2 0.218704 0.484646 0.629473
O O3 0.060029 0.185549 0.778540
O O4 0.907495 0.453271 0.977521
O O5 0.669439 0.182208 0.212507
O O6 0.346521 0.982536 0.505190
O O7 0.444513 0.993253 0.263894
O O8 0.527494 0.504994 0.302723
O O9 0.838267 0.401570 0.207919
O O10 0.781600 0.704009 0.715326
O O11 0.154168 0.648503 0.514020
O O12 0.964388 0.871830 0.753618
O O13 0.052654 0.978584 0.524935
O O14 0.235195 0.290560 0.451534
#
# Coordination Sequence:
#
# PCOD9115452 Si02
#       7
#     2   2   2   2   2   2   2
#     4  12  22  39  64  95 143 170 215 272 342 411
#     4  10  20  39  58  92 134 164 215 269 328 394
#     4  11  23  38  62  98 134 177 213 269 349 406
#     4  11  21  38  69  98 126 178 234 269 331 392
#     4  11  22  40  67  95 139 165 222 281 329 402
#     4  11  21  36  63  96 134 174 216 277 333 394
#     4  10  21  38  65 102 120 178 231 269 326 393
#
# _framework density 21.440418999999999
#
# number of rings (size 3 to 8) (size 9 to 14) (size 15 to 20)
#    0.000    1.143    7.143    1.714    4.000    0.000 
#    0.000    0.000    0.000   13.714    0.000    0.000 
#    0.000    0.000    0.000    0.000    0.000    0.000 
#
# Total GULP energy -78047.885983 kJ/mol
# GULP energy per Si atom -5574.848999 kJ/mol
# Density = 2.139162 g / cm^3
# Si number density = 21.440419 Si / 1000 Ang^3
#
#
#
# Elastic Constant Matrix: (Units=GPa)
#
#
# Indices 1 2 3 4 5 6 
#
# 1 154.4119 29.9995 37.3313 0.0000 -3.1052 0.0000
# 2 29.9995 61.6169 4.1653 0.0000 -5.1134 0.0000
# 3 37.3313 4.1653 110.3606 0.0000 -4.1642 0.0000
# 4 0.0000 0.0000 0.0000 8.1071 0.0000 -9.6738
# 5 -3.1052 -5.1134 -4.1642 0.0000 -8.7583 0.0000
# 6 0.0000 0.0000 0.0000 -9.6738 0.0000 49.6944
#
#
#
# Elastic Compliance Matrix: (Units=1/GPa)
#
#
# Indices 1 2 3 4 5 6 
#
# 1 0.007781 -0.003578 -0.002478 0.000000 0.000509 0.000000
# 2 -0.003578 0.017219 0.000225 0.000000 -0.008891 0.000000
# 3 -0.002478 0.000225 0.009744 0.000000 -0.003886 0.000000
# 4 0.000000 0.000000 0.000000 0.160670 0.000000 0.031277
# 5 0.000509 -0.008891 -0.003886 0.000000 -0.107319 0.000000
# 6 0.000000 0.000000 0.000000 0.031277 0.000000 0.026211
#
#
# Mechanical properties :
#
#
# Convention : Reuss Voigt Hill
#
# Bulk Modulus (GPa) = 43.32512 52.15353 47.73933
# Shear Modulus (GPa) = 37.40792 26.80153 32.10473
#
# Velocity S-wave (km/s) = 4.18154 3.53944 3.87381
# Velocity P-wave (km/s) = 6.60036 6.40946 6.50561
#
# Compressibility (1/GPa) = 0.02308130
#
# Stress axis : x y z
#
# Youngs Moduli (GPa) = 128.52371 58.07702 102.62519
#
# Poissons Ratio (x) = 0.20783 0.25427
# Poissons Ratio (y) = 0.45992 -0.02310
# Poissons Ratio (z) = 0.31844 -0.01307
#
# Static dielectric constant tensor:
#      x y z
#    x 1.836050 0.000000 -0.000090 
#    y 0.000000 1.874420 0.000000 
#    z -0.000090 0.000000 1.756580 
# 
# From -- ./inp_files/13883.got.cif
#   From: 2010.05.17/outbox.cif.g08.bks.cpg/sg4_7_cif.got.tgz:13883.got - 2010.06.03 18:43:04.
