data_PCOD9115726
_publ_section_title
;
Structure prediction by ZEFSAII (Michael W. Deem and Ramdas Pophale) SiO2 
 PCOD9115726
Probable space group: P 21
;
_chemical_formula_sum "Si O2"
_cell_formula_units_Z 16
_cell_length_a 12.277000
_cell_length_b 9.033490
_cell_length_c 6.550692
_cell_angle_alpha 90.000000
_cell_angle_beta 81.032311
_cell_angle_gamma 90.000000
_cell_volume 717.618541
_symmetry_space_group_name_H-M "P 21"
_symmetry_group_IT_number 4
_symmetry_cell_setting 'monoclinic'
loop_
_space_group_symop_operation_xyz
x,y,z
-x,1/2+y,-z
loop_
_atom_site_type_symbol
_atom_site_label
_atom_site_fract_x
_atom_site_fract_y
_atom_site_fract_z
Si Si1 0.637880 0.008770 0.038778
Si Si2 0.317373 0.729090 0.607493
Si Si3 0.084042 0.162197 0.078422
Si Si4 0.266071 0.913729 0.991371
Si Si5 0.545083 0.282967 0.815433
Si Si6 0.874142 0.230926 0.674475
Si Si7 0.161090 0.418546 0.318563
Si Si8 0.066806 0.409509 0.737378
O O1 0.674374 0.093998 0.234597
O O2 0.570800 0.862062 0.118503
O O3 0.565734 0.133844 0.940523
O O4 0.734014 0.959750 0.852617
O O5 0.307707 0.871451 0.756439
O O6 0.421235 0.743697 0.425413
O O7 0.212725 0.727630 0.485527
O O8 0.073530 0.282192 0.903259
O O9 0.187556 0.054458 0.012581
O O10 0.113304 0.263981 0.261242
O O11 0.976199 0.062217 0.153020
O O12 0.367129 0.903910 0.119980
O O13 0.189307 0.781460 0.102652
O O14 0.966468 0.353682 0.622844
O O15 0.915832 0.063962 0.687700
O O16 0.172027 0.411853 0.559906
#
# Coordination Sequence:
#
# PCOD9115726 Si02
#       8
#     2   2   2   2   2   2   2   2
#     4  11  25  45  71 101 137 178 226 286 338 411
#     4  10  20  43  72  97 128 183 225 279 340 403
#     4  11  26  43  66 101 139 176 235 276 336 411
#     4   9  21  43  67  96 132 175 220 289 331 399
#     4  10  23  45  69  99 136 177 227 279 349 403
#     4  10  21  42  70  92 134 177 228 272 340 393
#     4  12  24  43  66  99 134 182 222 283 340 400
#     4  11  26  44  69 101 136 188 223 284 336 410
#
# _framework density 22.295968999999999
#
# number of rings (size 3 to 8) (size 9 to 14) (size 15 to 20)
#    0.000    1.500    3.750    1.500    3.500   10.000 
#    0.000    0.000    0.000    0.000    0.000    0.000 
#    0.000    0.000    0.000    0.000    0.000    0.000 
#
# Total GULP energy -89326.417568 kJ/mol
# GULP energy per Si atom -5582.901098 kJ/mol
# Density = 2.224522 g / cm^3
# Si number density = 22.295969 Si / 1000 Ang^3
#
#
#
# Elastic Constant Matrix: (Units=GPa)
#
#
# Indices 1 2 3 4 5 6 
#
# 1 36.2905 22.1394 45.0805 0.0000 -8.8834 0.0000
# 2 22.1394 120.5328 71.1528 0.0000 1.9252 0.0000
# 3 45.0805 71.1528 180.1122 0.0000 -19.1213 0.0000
# 4 0.0000 0.0000 0.0000 29.3614 0.0000 2.8480
# 5 -8.8834 1.9252 -19.1213 0.0000 19.3353 0.0000
# 6 0.0000 0.0000 0.0000 2.8480 0.0000 47.4179
#
#
#
# Elastic Compliance Matrix: (Units=1/GPa)
#
#
# Indices 1 2 3 4 5 6 
#
# 1 0.042478 -0.003202 -0.008113 0.000000 0.011812 0.000000
# 2 -0.003202 0.011705 -0.004584 0.000000 -0.007169 0.000000
# 3 -0.008113 -0.004584 0.010107 0.000000 0.006724 0.000000
# 4 0.000000 0.000000 0.000000 0.034258 0.000000 -0.002058
# 5 0.011812 -0.007169 0.006724 0.000000 0.064509 0.000000
# 6 0.000000 0.000000 0.000000 -0.002058 0.000000 0.021213
#
#
# Mechanical properties :
#
#
# Convention : Reuss Voigt Hill
#
# Bulk Modulus (GPa) = 30.77552 68.18677 49.48114
# Shear Modulus (GPa) = 22.03622 32.46043 27.24833
#
# Velocity S-wave (km/s) = 3.14721 3.81975 3.49967
# Velocity P-wave (km/s) = 5.19998 7.07834 6.21058
#
# Compressibility (1/GPa) = 0.03249336
#
# Stress axis : x y z
#
# Youngs Moduli (GPa) = 23.54149 85.43354 98.93688
#
# Poissons Ratio (x) = 0.27353 0.80269
# Poissons Ratio (y) = 0.07537 0.45351
# Poissons Ratio (z) = 0.19100 0.39161
#
# Static dielectric constant tensor:
#      x y z
#    x 1.908730 0.000000 -0.012270 
#    y 0.000000 1.825090 0.000000 
#    z -0.012270 0.000000 1.870310 
# 
# From -- ./inp_files/3700.got.cif
#   From: 2010.05.17/outbox.cif.g08.bks.cpg/sg4_2_cif.got.tgz:3700.got - 2010.06.03 18:43:04.
