data_PCOD9115170
_publ_section_title
;
Structure prediction by ZEFSAII (Michael W. Deem and Ramdas Pophale) SiO2 
 PCOD9115170
Probable space group: P 21
;
_chemical_formula_sum "Si O2"
_cell_formula_units_Z 14
_cell_length_a 11.034339
_cell_length_b 7.421467
_cell_length_c 9.474534
_cell_angle_alpha 90.000000
_cell_angle_beta 40.378649
_cell_angle_gamma 90.000000
_cell_volume 502.642340
_symmetry_space_group_name_H-M "P 21"
_symmetry_group_IT_number 4
_symmetry_cell_setting 'monoclinic'
loop_
_space_group_symop_operation_xyz
x,y,z
-x,1/2+y,-z
loop_
_atom_site_type_symbol
_atom_site_label
_atom_site_fract_x
_atom_site_fract_y
_atom_site_fract_z
Si Si1 0.392869 0.125000 0.195959
Si Si2 0.992613 0.945203 0.275712
Si Si3 0.203081 0.812139 0.844837
Si Si4 0.002805 0.787408 0.546510
Si Si5 0.886782 0.938361 0.918209
Si Si6 0.496674 0.742671 0.199211
Si Si7 0.583371 0.886998 0.577766
O O1 0.200157 0.219799 0.325613
O O2 0.475280 0.253928 0.243009
O O3 0.380293 0.924620 0.270479
O O4 0.501658 0.134342 0.951813
O O5 0.089499 0.840912 0.320380
O O6 0.807316 0.858891 0.365885
O O7 0.144595 0.955090 0.018664
O O8 0.928708 0.124477 0.415824
O O9 0.165267 0.618885 0.951039
O O10 0.418994 0.846757 0.612476
O O11 0.054612 0.844192 0.854020
O O12 0.963069 0.951575 0.690007
O O13 0.698496 0.822786 0.065084
O O14 0.436607 0.594124 0.363528
#
# Coordination Sequence:
#
# PCOD9115170 Si02
#       7
#     2   2   2   2   2   2   2
#     4  10  20  34  63  99 132 178 229 280 343 409
#     4  11  25  43  70 103 142 181 232 294 349 412
#     4  12  24  48  72  97 146 185 235 294 341 431
#     4  10  23  41  65 106 137 180 234 285 353 411
#     4  11  24  44  74 102 136 193 235 284 361 411
#     4  11  20  37  65 101 133 181 230 285 343 413
#     4  11  24  41  67 100 136 182 237 280 348 415
#
# _framework density 27.852806999999999
#
# number of rings (size 3 to 8) (size 9 to 14) (size 15 to 20)
#    0.000    1.143    2.857    4.286    2.000    0.000 
#    0.000    5.714    0.000    0.000    0.000    0.000 
#    0.000    0.000    0.000    0.000    0.000    0.000 
#
# Total GULP energy -78417.642727 kJ/mol
# GULP energy per Si atom -5601.260195 kJ/mol
# Density = 2.778941 g / cm^3
# Si number density = 27.852807 Si / 1000 Ang^3
#
#
#
# Elastic Constant Matrix: (Units=GPa)
#
#
# Indices 1 2 3 4 5 6 
#
# 1 161.3508 32.6493 39.3061 0.0000 -27.6269 0.0000
# 2 32.6493 146.1660 2.6468 0.0000 14.5093 0.0000
# 3 39.3061 2.6468 57.1078 0.0000 -0.8885 0.0000
# 4 0.0000 0.0000 0.0000 30.9463 0.0000 -0.4327
# 5 -27.6269 14.5093 -0.8885 0.0000 49.3606 0.0000
# 6 0.0000 0.0000 0.0000 -0.4327 0.0000 43.5100
#
#
#
# Elastic Compliance Matrix: (Units=1/GPa)
#
#
# Indices 1 2 3 4 5 6 
#
# 1 0.009184 -0.002513 -0.006115 0.000000 0.005769 0.000000
# 2 -0.002513 0.007742 0.001314 0.000000 -0.003659 0.000000
# 3 -0.006115 0.001314 0.021605 0.000000 -0.003420 0.000000
# 4 0.000000 0.000000 0.000000 0.032319 0.000000 0.000321
# 5 0.005769 -0.003659 -0.003420 0.000000 0.024502 0.000000
# 6 0.000000 0.000000 0.000000 0.000321 0.000000 0.022986
#
#
# Mechanical properties :
#
#
# Convention : Reuss Voigt Hill
#
# Bulk Modulus (GPa) = 41.83498 57.09213 49.46356
# Shear Modulus (GPa) = 35.47784 44.09820 39.78802
#
# Velocity S-wave (km/s) = 3.57285 3.98333 3.78366
# Velocity P-wave (km/s) = 5.66330 6.45742 6.07335
#
# Compressibility (1/GPa) = 0.02390344
#
# Stress axis : x y z
#
# Youngs Moduli (GPa) = 108.89088 129.16023 46.28523
#
# Poissons Ratio (x) = 0.32461 0.28301
# Poissons Ratio (y) = 0.27367 -0.06082
# Poissons Ratio (z) = 0.66582 -0.16972
#
# Static dielectric constant tensor:
#      x y z
#    x 2.163480 0.000000 -0.027090 
#    y 0.000000 2.223250 0.000000 
#    z -0.027090 0.000000 2.175360 
# 
# From -- ./inp_files/11991.got.cif
#   From: 2010.05.17/outbox.cif.g08.bks.cpg/sg4_6_cif.got.tgz:11991.got - 2010.06.03 18:43:04.
