data_PCOD9115888
_publ_section_title
;
Structure prediction by ZEFSAII (Michael W. Deem and Ramdas Pophale) SiO2 
 PCOD9115888
Probable space group: P 21
;
_chemical_formula_sum "Si O2"
_cell_formula_units_Z 16
_cell_length_a 27.556432
_cell_length_b 5.158677
_cell_length_c 29.652116
_cell_angle_alpha 90.000000
_cell_angle_beta 171.114027
_cell_angle_gamma 90.000000
_cell_volume 651.113911
_symmetry_space_group_name_H-M "P 21"
_symmetry_group_IT_number 4
_symmetry_cell_setting 'monoclinic'
loop_
_space_group_symop_operation_xyz
x,y,z
-x,1/2+y,-z
loop_
_atom_site_type_symbol
_atom_site_label
_atom_site_fract_x
_atom_site_fract_y
_atom_site_fract_z
Si Si1 0.823395 0.980240 0.657627
Si Si2 0.328435 0.692277 0.720427
Si Si3 0.835242 0.291750 0.779401
Si Si4 0.674916 0.825123 0.838971
Si Si5 0.607926 0.696245 0.073424
Si Si6 0.660563 0.474463 0.718181
Si Si7 0.532534 0.189821 0.856960
Si Si8 0.754384 0.683421 0.500645
O O1 0.823361 0.848281 0.609221
O O2 0.624093 0.239080 0.464288
O O3 0.603609 0.841606 0.493222
O O4 0.149433 0.077122 0.977490
O O5 0.510211 0.440816 0.868411
O O6 0.968863 0.617849 0.398753
O O7 0.343245 0.940788 0.701145
O O8 0.474774 0.771399 0.902455
O O9 0.759399 0.368381 0.760603
O O10 0.515817 0.237741 0.459956
O O11 0.072000 0.442327 0.963671
O O12 0.036916 0.029563 0.973790
O O13 0.527492 0.994677 0.742709
O O14 0.425918 0.447191 0.925870
O O15 0.382968 0.288889 0.672367
O O16 0.892217 0.087693 0.184639
#
# Coordination Sequence:
#
# PCOD9115888 Si02
#       8
#     2   2   2   2   2   2   2   2
#     4  10  23  42  63  92 129 164 231 297 357 446
#     4  12  26  49  70 114 154 195 250 298 352 426
#     4  10  21  38  59  87 119 159 201 273 358 442
#     4  10  23  42  63  92 129 164 231 297 357 446
#     4  12  24  45  80 114 154 199 240 296 356 420
#     4  10  21  38  59  87 119 159 201 273 358 442
#     4  12  28  45  74 102 150 201 248 306 360 422
#     4  12  26  43  70  98 124 199 236 304 364 424
#
# _framework density 24.573274000000001
#
# number of rings (size 3 to 8) (size 9 to 14) (size 15 to 20)
#    0.000    1.000    0.000    6.000    7.000    0.000 
#    2.250    0.000    0.000    0.000    0.000    0.000 
#    0.000    0.000    0.000    0.000    0.000    0.000 
#
# Total GULP energy -89435.892265 kJ/mol
# GULP energy per Si atom -5589.743267 kJ/mol
# Density = 2.451734 g / cm^3
# Si number density = 24.573274 Si / 1000 Ang^3
#
#
#
# Elastic Constant Matrix: (Units=GPa)
#
#
# Indices 1 2 3 4 5 6 
#
# 1 125.7832 23.3173 23.4119 0.0000 2.8477 0.0000
# 2 23.3173 79.6693 -0.6312 0.0000 16.9628 0.0000
# 3 23.4119 -0.6312 91.5170 0.0000 8.0837 0.0000
# 4 0.0000 0.0000 0.0000 29.4168 0.0000 -13.8582
# 5 2.8477 16.9628 8.0837 0.0000 48.0586 0.0000
# 6 0.0000 0.0000 0.0000 -13.8582 0.0000 12.0423
#
#
#
# Elastic Compliance Matrix: (Units=1/GPa)
#
#
# Indices 1 2 3 4 5 6 
#
# 1 0.008892 -0.002805 -0.002370 0.000000 0.000862 0.000000
# 2 -0.002805 0.014481 0.001273 0.000000 -0.005159 0.000000
# 3 -0.002370 0.001273 0.011744 0.000000 -0.002284 0.000000
# 4 0.000000 0.000000 0.000000 0.074245 0.000000 0.085441
# 5 0.000862 -0.005159 -0.002284 0.000000 0.022962 0.000000
# 6 0.000000 0.000000 0.000000 0.085441 0.000000 0.181366
#
#
# Mechanical properties :
#
#
# Convention : Reuss Voigt Hill
#
# Bulk Modulus (GPa) = 36.61198 43.24060 39.92629
# Shear Modulus (GPa) = 15.12412 34.62831 24.87621
#
# Velocity S-wave (km/s) = 2.48356 3.75798 3.18516
# Velocity P-wave (km/s) = 4.81202 6.03860 5.45987
#
# Compressibility (1/GPa) = 0.02731347
#
# Stress axis : x y z
#
# Youngs Moduli (GPa) = 112.46381 69.05448 85.15123
#
# Poissons Ratio (x) = 0.19367 0.20182
# Poissons Ratio (y) = 0.31542 -0.10841
# Poissons Ratio (z) = 0.26656 -0.08791
#
# Static dielectric constant tensor:
#      x y z
#    x 1.955980 0.000000 0.046320 
#    y 0.000000 1.990870 0.000000 
#    z 0.046320 0.000000 1.921700 
# 
# From -- ./inp_files/16233.got.cif
#   From: 2010.05.17/outbox.cif.g08.bks.cpg/sg4_9_cif.got.tgz:16233.got - 2010.06.03 18:43:04.
