data_PCOD9115555
_publ_section_title
;
Structure prediction by ZEFSAII (Michael W. Deem and Ramdas Pophale) SiO2 
 PCOD9115555
Probable space group: P 21
;
_chemical_formula_sum "Si O2"
_cell_formula_units_Z 14
_cell_length_a 4.984565
_cell_length_b 12.758235
_cell_length_c 10.028415
_cell_angle_alpha 90.000000
_cell_angle_beta 67.068958
_cell_angle_gamma 90.000000
_cell_volume 587.351038
_symmetry_space_group_name_H-M "P 21"
_symmetry_group_IT_number 4
_symmetry_cell_setting 'monoclinic'
loop_
_space_group_symop_operation_xyz
x,y,z
-x,1/2+y,-z
loop_
_atom_site_type_symbol
_atom_site_label
_atom_site_fract_x
_atom_site_fract_y
_atom_site_fract_z
Si Si1 0.685573 0.290240 0.862747
Si Si2 0.191635 0.152996 0.846291
Si Si3 0.641801 0.441676 0.120997
Si Si4 0.225756 0.171813 0.373703
Si Si5 0.055820 0.950018 0.391307
Si Si6 0.025858 0.382521 0.296532
Si Si7 0.386602 0.612426 0.476639
O O1 0.378543 0.249795 0.866530
O O2 0.873821 0.191031 0.871744
O O3 0.868640 0.355489 0.718696
O O4 0.651480 0.365340 0.994811
O O5 0.366356 0.113981 0.681229
O O6 0.204142 0.052265 0.938198
O O7 0.806027 0.391343 0.216712
O O8 0.301344 0.458236 0.218814
O O9 0.490994 0.180299 0.423957
O O10 0.173668 0.267659 0.285695
O O11 0.241149 0.053505 0.314156
O O12 0.103045 0.915650 0.535279
O O13 0.727619 0.998411 0.453025
O O14 0.917012 0.162760 0.513227
#
# Coordination Sequence:
#
# PCOD9115555 Si02
#       7
#     2   2   2   2   2   2   2
#     4  12  29  44  74 104 141 186 235 293 355 415
#     4  12  24  48  71  99 145 187 232 286 361 421
#     4  12  27  48  69 102 140 188 235 283 356 426
#     4  10  22  38  65 105 140 168 233 294 341 400
#     4  10  25  40  72 107 135 182 236 294 339 420
#     4  12  23  44  73  99 137 191 235 280 358 427
#     4  10  20  40  66 104 136 182 214 304 336 405
#
# _framework density 23.835833000000001
#
# number of rings (size 3 to 8) (size 9 to 14) (size 15 to 20)
#    0.857    0.000    1.429    6.000    2.000    2.286 
#    0.000    0.000    0.000    0.000    0.000    0.000 
#    0.000    0.000    0.000    0.000    0.000    0.000 
#
# Total GULP energy -78284.633587 kJ/mol
# GULP energy per Si atom -5591.759542 kJ/mol
# Density = 2.378158 g / cm^3
# Si number density = 23.835833 Si / 1000 Ang^3
#
#
#
# Elastic Constant Matrix: (Units=GPa)
#
#
# Indices 1 2 3 4 5 6 
#
# 1 98.7412 -0.4928 20.2924 0.0000 21.4339 0.0000
# 2 -0.4928 116.9750 22.7246 0.0000 18.0192 0.0000
# 3 20.2924 22.7246 74.9826 0.0000 15.9034 0.0000
# 4 0.0000 0.0000 0.0000 34.8780 0.0000 0.1618
# 5 21.4339 18.0192 15.9034 0.0000 22.7595 0.0000
# 6 0.0000 0.0000 0.0000 0.1618 0.0000 38.8315
#
#
#
# Elastic Compliance Matrix: (Units=1/GPa)
#
#
# Indices 1 2 3 4 5 6 
#
# 1 0.013369 0.002421 -0.001497 0.000000 -0.013461 0.000000
# 2 0.002421 0.010329 -0.001840 0.000000 -0.009172 0.000000
# 3 -0.001497 -0.001840 0.016073 0.000000 -0.008365 0.000000
# 4 0.000000 0.000000 0.000000 0.028672 0.000000 -0.000119
# 5 -0.013461 -0.009172 -0.008365 0.000000 0.069722 0.000000
# 6 0.000000 0.000000 0.000000 -0.000119 0.000000 0.025753
#
#
# Mechanical properties :
#
#
# Convention : Reuss Voigt Hill
#
# Bulk Modulus (GPa) = 26.35779 41.74968 34.05374
# Shear Modulus (GPa) = 28.02735 35.83878 31.93306
#
# Velocity S-wave (km/s) = 3.43279 3.88179 3.66417
# Velocity P-wave (km/s) = 5.17630 6.13552 5.67621
#
# Compressibility (1/GPa) = 0.03793944
#
# Stress axis : x y z
#
# Youngs Moduli (GPa) = 74.79876 96.81108 62.21476
#
# Poissons Ratio (x) = -0.23435 0.09311
# Poissons Ratio (y) = -0.18106 0.11449
# Poissons Ratio (z) = 0.11195 0.17816
#
# Static dielectric constant tensor:
#      x y z
#    x 1.868640 0.000000 -0.010170 
#    y 0.000000 1.989180 0.000000 
#    z -0.010170 0.000000 1.893500 
# 
# From -- ./inp_files/10360.got.cif
#   From: 2010.05.17/outbox.cif.g08.bks.cpg/sg4_6_cif.got.tgz:10360.got - 2010.06.03 18:43:04.
