data_PCOD9115547
_publ_section_title
;
Structure prediction by ZEFSAII (Michael W. Deem and Ramdas Pophale) SiO2 
 PCOD9115547
Probable space group: P 21
;
_chemical_formula_sum "Si O2"
_cell_formula_units_Z 16
_cell_length_a 13.983301
_cell_length_b 12.096784
_cell_length_c 5.104277
_cell_angle_alpha 90.000000
_cell_angle_beta 132.083321
_cell_angle_gamma 90.000000
_cell_volume 640.793107
_symmetry_space_group_name_H-M "P 21"
_symmetry_group_IT_number 4
_symmetry_cell_setting 'monoclinic'
loop_
_space_group_symop_operation_xyz
x,y,z
-x,1/2+y,-z
loop_
_atom_site_type_symbol
_atom_site_label
_atom_site_fract_x
_atom_site_fract_y
_atom_site_fract_z
Si Si1 0.307082 0.792650 0.739520
Si Si2 0.973378 0.904078 0.884840
Si Si3 0.533591 0.901521 0.451237
Si Si4 0.044525 0.779372 0.531481
Si Si5 0.368300 0.992666 0.515796
Si Si6 0.129392 0.104098 0.985579
Si Si7 0.490167 0.145351 0.130032
Si Si8 0.726159 0.786976 0.414707
O O1 0.180893 0.750136 0.651490
O O2 0.291614 0.912379 0.572926
O O3 0.415747 0.822662 0.150854
O O4 0.375396 0.706707 0.669632
O O5 0.829635 0.878241 0.513335
O O6 0.058723 0.828094 0.845940
O O7 0.024927 0.025686 0.929476
O O8 0.987625 0.867151 0.213137
O O9 0.495792 0.922379 0.681445
O O10 0.651268 0.848827 0.514488
O O11 0.510690 0.030011 0.317574
O O12 0.946154 0.677593 0.360499
O O13 0.432214 0.101853 0.748983
O O14 0.252965 0.033318 0.114208
O O15 0.186990 0.189338 0.302968
O O16 0.372804 0.231051 0.976359
#
# Coordination Sequence:
#
# PCOD9115547 Si02
#       8
#     2   2   2   2   2   2   2   2
#     4  10  21  39  60  92 131 163 223 269 334 403
#     4  11  24  45  68  98 134 179 226 278 332 404
#     4  10  21  39  66  91 129 174 219 278 331 399
#     4  11  25  43  68 101 131 176 230 276 331 410
#     4  10  20  40  64  90 127 171 220 269 341 398
#     4  10  22  42  68  93 136 178 222 277 344 390
#     4   9  21  38  61  94 128 169 213 278 341 388
#     4   9  22  42  61  99 134 170 235 269 340 404
#
# _framework density 24.969056999999999
#
# number of rings (size 3 to 8) (size 9 to 14) (size 15 to 20)
#    0.000    2.000    1.250    0.750    3.500    5.000 
#   11.250    0.000    0.000    0.000    0.000    0.000 
#    0.000    0.000    0.000    0.000    0.000    0.000 
#
# Total GULP energy -89248.834452 kJ/mol
# GULP energy per Si atom -5578.052153 kJ/mol
# Density = 2.491223 g / cm^3
# Si number density = 24.969057 Si / 1000 Ang^3
#
#
#
# Elastic Constant Matrix: (Units=GPa)
#
#
# Indices 1 2 3 4 5 6 
#
# 1 112.0157 37.2688 20.4112 0.0000 18.6632 0.0000
# 2 37.2688 103.2869 17.9082 0.0000 16.9700 0.0000
# 3 20.4112 17.9082 30.7176 0.0000 11.6170 0.0000
# 4 0.0000 0.0000 0.0000 35.1131 0.0000 17.7482
# 5 18.6632 16.9700 11.6170 0.0000 34.0291 0.0000
# 6 0.0000 0.0000 0.0000 17.7482 0.0000 44.5809
#
#
#
# Elastic Compliance Matrix: (Units=1/GPa)
#
#
# Indices 1 2 3 4 5 6 
#
# 1 0.011212 -0.002711 -0.004657 0.000000 -0.003208 0.000000
# 2 -0.002711 0.011849 -0.003943 0.000000 -0.003076 0.000000
# 3 -0.004657 -0.003943 0.041610 0.000000 -0.009685 0.000000
# 4 0.000000 0.000000 0.000000 0.035654 0.000000 -0.014194
# 5 -0.003208 -0.003076 -0.009685 0.000000 0.035986 0.000000
# 6 0.000000 0.000000 0.000000 -0.014194 0.000000 0.028082
#
#
# Mechanical properties :
#
#
# Convention : Reuss Voigt Hill
#
# Bulk Modulus (GPa) = 23.78135 44.13295 33.95715
# Shear Modulus (GPa) = 24.87157 34.10675 29.48916
#
# Velocity S-wave (km/s) = 3.15952 3.69990 3.44034
# Velocity P-wave (km/s) = 4.78070 5.99715 5.42314
#
# Compressibility (1/GPa) = 0.04204975
#
# Stress axis : x y z
#
# Youngs Moduli (GPa) = 89.18743 84.39441 24.03247
#
# Poissons Ratio (x) = 0.22882 0.11191
# Poissons Ratio (y) = 0.24182 0.09476
# Poissons Ratio (z) = 0.41531 0.33278
#
# Static dielectric constant tensor:
#      x y z
#    x 2.068670 0.000000 -0.029340 
#    y 0.000000 2.055560 0.000000 
#    z -0.029340 0.000000 2.058960 
# 
# From -- ./inp_files/2758.got.cif
#   From: 2010.05.17/outbox.cif.g08.bks.cpg/sg4_2_cif.got.tgz:2758.got - 2010.06.03 18:43:04.
