data_PCOD9115124
_publ_section_title
;
Structure prediction by ZEFSAII (Michael W. Deem and Ramdas Pophale) SiO2 
 PCOD9115124
Probable space group: P 21
;
_chemical_formula_sum "Si O2"
_cell_formula_units_Z 16
_cell_length_a 22.797517
_cell_length_b 5.575047
_cell_length_c 13.570298
_cell_angle_alpha 90.000000
_cell_angle_beta 20.086241
_cell_angle_gamma 90.000000
_cell_volume 592.337148
_symmetry_space_group_name_H-M "P 21"
_symmetry_group_IT_number 4
_symmetry_cell_setting 'monoclinic'
loop_
_space_group_symop_operation_xyz
x,y,z
-x,1/2+y,-z
loop_
_atom_site_type_symbol
_atom_site_label
_atom_site_fract_x
_atom_site_fract_y
_atom_site_fract_z
Si Si1 0.293266 0.174440 0.908977
Si Si2 0.028365 0.408706 0.090100
Si Si3 0.354822 0.673818 0.734048
Si Si4 0.155311 0.903698 0.831840
Si Si5 0.241139 0.662915 0.371539
Si Si6 0.473800 0.151141 0.333987
Si Si7 0.256707 0.345726 0.178814
Si Si8 0.532882 0.981277 0.821193
O O1 0.253079 0.426095 0.915861
O O2 0.504620 0.178843 0.575804
O O3 0.216783 0.192277 0.141842
O O4 0.255924 0.919403 0.916347
O O5 0.123223 0.663872 0.944806
O O6 0.882411 0.377900 0.402159
O O7 0.948460 0.408935 0.105728
O O8 0.122039 0.151627 0.942592
O O9 0.498731 0.677028 0.595117
O O10 0.350517 0.939198 0.494999
O O11 0.299435 0.533176 0.380037
O O12 0.158176 0.479990 0.423542
O O13 0.420953 0.773005 0.050339
O O14 0.661183 0.079021 0.002441
O O15 0.412230 0.378396 0.370670
O O16 0.397075 0.191514 0.017152
#
# Coordination Sequence:
#
# PCOD9115124 Si02
#       8
#     2   2   2   2   2   2   2   2
#     4   9  17  31  48  76 112 144 177 207 279 339
#     4  10  24  39  52  73 106 150 192 231 271 321
#     4   9  17  30  51  75 110 146 168 222 273 338
#     4  10  23  37  56  74 102 151 190 235 274 315
#     4  11  23  33  51  77 111 154 191 229 274 331
#     4  10  21  33  54  80 109 144 185 231 281 330
#     4  10  20  33  50  78 112 150 181 226 274 335
#     4  11  21  32  52  79 110 149 188 229 276 335
#
# _framework density 27.011644
#
# number of rings (size 3 to 8) (size 9 to 14) (size 15 to 20)
#    0.000    2.000    2.500    0.750   10.500    0.000 
#    0.000    0.000    0.000    0.000    0.000    0.000 
#    3.750    0.000    0.000    0.000    0.000    0.000 
#
# Total GULP energy -89317.269300 kJ/mol
# GULP energy per Si atom -5582.329331 kJ/mol
# Density = 2.695016 g / cm^3
# Si number density = 27.011644 Si / 1000 Ang^3
#
#
#
# Elastic Constant Matrix: (Units=GPa)
#
#
# Indices 1 2 3 4 5 6 
#
# 1 66.4343 35.9086 5.4011 0.0000 14.6403 0.0000
# 2 35.9086 188.5964 32.8901 0.0000 12.4484 0.0000
# 3 5.4011 32.8901 55.2447 0.0000 7.5686 0.0000
# 4 0.0000 0.0000 0.0000 39.7394 0.0000 4.7918
# 5 14.6403 12.4484 7.5686 0.0000 23.6822 0.0000
# 6 0.0000 0.0000 0.0000 4.7918 0.0000 47.5888
#
#
#
# Elastic Compliance Matrix: (Units=1/GPa)
#
#
# Indices 1 2 3 4 5 6 
#
# 1 0.018969 -0.003174 0.001478 0.000000 -0.010530 0.000000
# 2 -0.003174 0.006547 -0.003540 0.000000 -0.000348 0.000000
# 3 0.001478 -0.003540 0.020847 0.000000 -0.005716 0.000000
# 4 0.000000 0.000000 0.000000 0.025473 0.000000 -0.002565
# 5 -0.010530 -0.000348 -0.005716 0.000000 0.050745 0.000000
# 6 0.000000 0.000000 0.000000 -0.002565 0.000000 0.021272
#
#
# Mechanical properties :
#
#
# Convention : Reuss Voigt Hill
#
# Bulk Modulus (GPa) = 27.86243 50.96388 39.41316
# Shear Modulus (GPa) = 30.06824 37.94044 34.00434
#
# Velocity S-wave (km/s) = 3.34002 3.75186 3.55192
# Velocity P-wave (km/s) = 5.02113 6.13815 5.60752
#
# Compressibility (1/GPa) = 0.03589063
#
# Stress axis : x y z
#
# Youngs Moduli (GPa) = 52.71863 152.74199 47.96795
#
# Poissons Ratio (x) = 0.48485 -0.07090
# Poissons Ratio (y) = 0.16735 0.16980
# Poissons Ratio (z) = -0.07792 0.54067
#
# Static dielectric constant tensor:
#      x y z
#    x 2.197040 0.000000 0.097010 
#    y 0.000000 2.185380 0.000000 
#    z 0.097010 0.000000 2.220370 
# 
# From -- ./inp_files/13524.got.cif
#   From: 2010.05.17/outbox.cif.g08.bks.cpg/sg4_7_cif.got.tgz:13524.got - 2010.06.03 18:43:04.
