data_PCOD9115468
_publ_section_title
;
Structure prediction by ZEFSAII (Michael W. Deem and Ramdas Pophale) SiO2 
 PCOD9115468
Probable space group: P 21
;
_chemical_formula_sum "Si O2"
_cell_formula_units_Z 10
_cell_length_a 7.578129
_cell_length_b 10.742240
_cell_length_c 6.635079
_cell_angle_alpha 90.000000
_cell_angle_beta 51.940134
_cell_angle_gamma 90.000000
_cell_volume 425.285109
_symmetry_space_group_name_H-M "P 21"
_symmetry_group_IT_number 4
_symmetry_cell_setting 'monoclinic'
loop_
_space_group_symop_operation_xyz
x,y,z
-x,1/2+y,-z
loop_
_atom_site_type_symbol
_atom_site_label
_atom_site_fract_x
_atom_site_fract_y
_atom_site_fract_z
Si Si1 0.623245 0.410490 0.783937
Si Si2 0.988278 0.200411 0.513822
Si Si3 0.202696 0.067648 0.986526
Si Si4 0.392081 0.150855 0.459853
Si Si5 0.799258 0.033305 0.987303
O O1 0.791802 0.299675 0.630684
O O2 0.685729 0.518228 0.580256
O O3 0.356328 0.412569 0.936355
O O4 0.666046 0.465461 0.976342
O O5 0.085640 0.154641 0.234393
O O6 0.207293 0.242374 0.492855
O O7 0.873174 0.089802 0.723162
O O8 0.004527 0.011046 0.990617
O O9 0.363573 0.140108 0.717816
O O10 0.644407 0.144164 0.198518
#
# Coordination Sequence:
#
# PCOD9115468 Si02
#       5
#     2   2   2   2   2
#     4   9  21  40  58  85 120 148 194 237 283 340
#     4  10  20  40  60  85 117 153 192 237 284 341
#     4  10  20  39  63  77 121 153 184 247 286 328
#     4   8  20  39  56  87 116 146 194 234 281 342
#     4   9  21  40  57  88 116 150 196 229 288 347
#
# _framework density 23.513639999999999
#
# number of rings (size 3 to 8) (size 9 to 14) (size 15 to 20)
#    1.200    1.600    0.000    0.000    2.800    3.200 
#   14.400    0.000    0.000    0.000    0.000    0.000 
#    0.000    0.000    0.000    0.000    0.000    0.000 
#
# Total GULP energy -55729.467709 kJ/mol
# GULP energy per Si atom -5572.946771 kJ/mol
# Density = 2.346012 g / cm^3
# Si number density = 23.513640 Si / 1000 Ang^3
#
#
#
# Elastic Constant Matrix: (Units=GPa)
#
#
# Indices 1 2 3 4 5 6 
#
# 1 84.3512 5.9752 14.0884 0.0000 5.7756 0.0000
# 2 5.9752 25.7638 7.5977 0.0000 8.1277 0.0000
# 3 14.0884 7.5977 142.1367 0.0000 12.3581 0.0000
# 4 0.0000 0.0000 0.0000 14.6296 0.0000 -9.7573
# 5 5.7756 8.1277 12.3581 0.0000 37.0852 0.0000
# 6 0.0000 0.0000 0.0000 -9.7573 0.0000 21.5802
#
#
#
# Elastic Compliance Matrix: (Units=1/GPa)
#
#
# Indices 1 2 3 4 5 6 
#
# 1 0.012253 -0.002202 -0.001002 0.000000 -0.001092 0.000000
# 2 -0.002202 0.042396 -0.001308 0.000000 -0.008513 0.000000
# 3 -0.001002 -0.001308 0.007380 0.000000 -0.002017 0.000000
# 4 0.000000 0.000000 0.000000 0.097867 0.000000 0.044250
# 5 -0.001092 -0.008513 -0.002017 0.000000 0.029673 0.000000
# 6 0.000000 0.000000 0.000000 0.044250 0.000000 0.066346
#
#
# Mechanical properties :
#
#
# Convention : Reuss Voigt Hill
#
# Bulk Modulus (GPa) = 18.86574 34.17491 26.52033
# Shear Modulus (GPa) = 17.69240 29.63170 23.66205
#
# Velocity S-wave (km/s) = 2.74602 3.55377 3.17568
# Velocity P-wave (km/s) = 4.25381 5.60399 4.97492
#
# Compressibility (1/GPa) = 0.05300612
#
# Stress axis : x y z
#
# Youngs Moduli (GPa) = 81.61088 23.58712 135.50077
#
# Poissons Ratio (x) = 0.05194 0.13576
# Poissons Ratio (y) = 0.17970 0.17721
# Poissons Ratio (z) = 0.08177 0.03085
#
# Static dielectric constant tensor:
#      x y z
#    x 1.953460 0.000000 -0.049800 
#    y 0.000000 1.935100 0.000000 
#    z -0.049800 0.000000 1.901750 
# 
# From -- ./inp_files/199.got.cif
#   From: 2010.05.17/outbox.cif.g08.bks.cpg/sg4_1_cif.got.tgz:199.got - 2010.06.03 18:43:04.
