data_PCOD9115779
_publ_section_title
;
Structure prediction by ZEFSAII (Michael W. Deem and Ramdas Pophale) SiO2 
 PCOD9115779
Probable space group: P 21
;
_chemical_formula_sum "Si O2"
_cell_formula_units_Z 16
_cell_length_a 31.788587
_cell_length_b 4.956812
_cell_length_c 10.371494
_cell_angle_alpha 90.000000
_cell_angle_beta 152.929881
_cell_angle_gamma 90.000000
_cell_volume 743.709441
_symmetry_space_group_name_H-M "P 21"
_symmetry_group_IT_number 4
_symmetry_cell_setting 'monoclinic'
loop_
_space_group_symop_operation_xyz
x,y,z
-x,1/2+y,-z
loop_
_atom_site_type_symbol
_atom_site_label
_atom_site_fract_x
_atom_site_fract_y
_atom_site_fract_z
Si Si1 0.264737 0.794060 0.896111
Si Si2 0.563038 0.400702 0.002965
Si Si3 0.795184 0.797148 0.710702
Si Si4 0.061791 0.229714 0.684574
Si Si5 0.365746 0.186654 0.548413
Si Si6 0.247516 0.767815 0.560022
Si Si7 0.450879 0.096095 0.313913
Si Si8 0.227570 0.263949 0.953354
O O1 0.229485 0.715262 0.659096
O O2 0.267429 0.532470 0.994854
O O3 0.202489 0.030292 0.785124
O O4 0.360758 0.951748 0.127754
O O5 0.459533 0.304444 0.746609
O O6 0.555264 0.603334 0.858753
O O7 0.599084 0.486406 0.243279
O O8 0.643663 0.203541 0.170957
O O9 0.708944 0.855655 0.572230
O O10 0.765347 0.573259 0.524588
O O11 0.815040 0.075688 0.695955
O O12 0.879905 0.692582 0.025796
O O13 0.137679 0.335437 0.790166
O O14 0.982429 0.450856 0.480507
O O15 0.302630 0.117667 0.252940
O O16 0.531204 0.888071 0.576938
#
# Coordination Sequence:
#
# PCOD9115779 Si02
#       8
#     2   2   2   2   2   2   2   2
#     4  11  22  39  61  86 121 164 204 245 293 356
#     4  10  21  34  55  83 120 161 203 246 288 339
#     4  10  21  38  61  88 117 154 197 243 300 355
#     4  11  23  42  69  95 120 150 190 248 312 375
#     4  10  21  35  55  85 120 156 200 250 295 343
#     4  10  21  37  59  86 120 163 201 236 284 343
#     4  11  23  38  56  82 118 165 215 255 292 336
#     4  11  24  41  64  91 120 155 198 249 308 361
#
# _framework density 21.513776
#
# number of rings (size 3 to 8) (size 9 to 14) (size 15 to 20)
#    0.000    1.500    0.000    5.250    0.000   13.000 
#    0.000    0.000    0.000   15.000    0.000    0.000 
#    0.000    0.000    0.000    0.000    0.000    0.000 
#
# Total GULP energy -89269.315184 kJ/mol
# GULP energy per Si atom -5579.332199 kJ/mol
# Density = 2.146481 g / cm^3
# Si number density = 21.513776 Si / 1000 Ang^3
#
#
#
# Elastic Constant Matrix: (Units=GPa)
#
#
# Indices 1 2 3 4 5 6 
#
# 1 91.9728 15.4994 22.8879 0.0000 -17.1816 0.0000
# 2 15.4994 69.4134 2.5217 0.0000 -5.3137 0.0000
# 3 22.8879 2.5217 65.5756 0.0000 -2.3142 0.0000
# 4 0.0000 0.0000 0.0000 31.5316 0.0000 -3.2651
# 5 -17.1816 -5.3137 -2.3142 0.0000 21.8368 0.0000
# 6 0.0000 0.0000 0.0000 -3.2651 0.0000 25.0423
#
#
#
# Elastic Compliance Matrix: (Units=1/GPa)
#
#
# Indices 1 2 3 4 5 6 
#
# 1 0.014289 -0.002244 -0.004541 0.000000 0.010216 0.000000
# 2 -0.002244 0.015045 0.000272 0.000000 0.001924 0.000000
# 3 -0.004541 0.000272 0.016763 0.000000 -0.001730 0.000000
# 4 0.000000 0.000000 0.000000 0.032148 0.000000 0.004192
# 5 0.010216 0.001924 -0.001730 0.000000 0.054117 0.000000
# 6 0.000000 0.000000 0.000000 0.004192 0.000000 0.040479
#
#
# Mechanical properties :
#
#
# Convention : Reuss Voigt Hill
#
# Bulk Modulus (GPa) = 30.23575 34.30885 32.27230
# Shear Modulus (GPa) = 25.39499 28.08569 26.74034
#
# Velocity S-wave (km/s) = 3.43943 3.61706 3.52936
# Velocity P-wave (km/s) = 5.46421 5.78153 5.62511
#
# Compressibility (1/GPa) = 0.03307343
#
# Stress axis : x y z
#
# Youngs Moduli (GPa) = 69.98258 66.46796 59.65574
#
# Poissons Ratio (x) = 0.14913 0.27087
# Poissons Ratio (y) = 0.15702 -0.01626
# Poissons Ratio (z) = 0.31776 -0.01811
#
# Static dielectric constant tensor:
#      x y z
#    x 1.801750 0.000000 -0.008270 
#    y 0.000000 1.788750 0.000000 
#    z -0.008270 0.000000 1.778090 
# 
# From -- ./inp_files/8642.got.cif
#   From: 2010.05.17/outbox.cif.g08.bks.cpg/sg4_5_cif.got.tgz:8642.got - 2010.06.03 18:43:04.
