data_PCOD9115237
_publ_section_title
;
Structure prediction by ZEFSAII (Michael W. Deem and Ramdas Pophale) SiO2 
 PCOD9115237
Probable space group: P 21
;
_chemical_formula_sum "Si O2"
_cell_formula_units_Z 14
_cell_length_a 9.082555
_cell_length_b 7.736786
_cell_length_c 9.852970
_cell_angle_alpha 90.000000
_cell_angle_beta 70.996027
_cell_angle_gamma 90.000000
_cell_volume 654.629355
_symmetry_space_group_name_H-M "P 21"
_symmetry_group_IT_number 4
_symmetry_cell_setting 'monoclinic'
loop_
_space_group_symop_operation_xyz
x,y,z
-x,1/2+y,-z
loop_
_atom_site_type_symbol
_atom_site_label
_atom_site_fract_x
_atom_site_fract_y
_atom_site_fract_z
Si Si1 0.494408 0.100250 0.466684
Si Si2 0.122650 0.876793 0.862687
Si Si3 0.474615 0.802781 0.813974
Si Si4 0.027877 0.734927 0.176220
Si Si5 0.563242 0.809186 0.276687
Si Si6 0.382331 0.624116 0.100333
Si Si7 0.823077 0.024680 0.302112
O O1 0.482742 0.239178 0.348802
O O2 0.404849 0.154711 0.626629
O O3 0.446561 0.925347 0.404188
O O4 0.678752 0.069249 0.445572
O O5 0.303600 0.887885 0.852475
O O6 0.110968 0.705342 0.771732
O O7 0.033101 0.831152 0.028451
O O8 0.061123 0.053165 0.815902
O O9 0.594252 0.935136 0.844523
O O10 0.449633 0.647581 0.928637
O O11 0.205135 0.687231 0.158304
O O12 0.947832 0.877195 0.298834
O O13 0.487202 0.744954 0.164605
O O14 0.716690 0.926522 0.219178
#
# Coordination Sequence:
#
# PCOD9115237 Si02
#       7
#     2   2   2   2   2   2   2
#     4   9  20  38  68  84 113 167 214 243 297 379
#     4  10  20  36  59  88 121 172 205 244 306 388
#     4  10  21  37  57  92 124 155 205 258 306 363
#     4  11  21  36  60  90 129 164 203 254 316 374
#     4  10  20  39  65  86 121 156 218 252 299 369
#     4  11  23  35  60  96 126 152 201 269 324 347
#     4   9  21  39  63  86 120 160 218 242 304 376
#
# _framework density 21.386149
#
# number of rings (size 3 to 8) (size 9 to 14) (size 15 to 20)
#    0.857    1.143    1.429    2.571    2.000    2.286 
#    2.571    0.000    9.429    0.000    0.000    0.000 
#    0.000    0.000    0.000    0.000    0.000    0.000 
#
# Total GULP energy -78027.448883 kJ/mol
# GULP energy per Si atom -5573.389206 kJ/mol
# Density = 2.133747 g / cm^3
# Si number density = 21.386149 Si / 1000 Ang^3
#
#
#
# Elastic Constant Matrix: (Units=GPa)
#
#
# Indices 1 2 3 4 5 6 
#
# 1 58.8033 32.4749 19.3675 0.0000 1.5034 0.0000
# 2 32.4749 108.7545 28.9025 0.0000 -13.0352 0.0000
# 3 19.3675 28.9025 69.7684 0.0000 0.9339 0.0000
# 4 0.0000 0.0000 0.0000 36.4989 0.0000 0.2050
# 5 1.5034 -13.0352 0.9339 0.0000 15.2570 0.0000
# 6 0.0000 0.0000 0.0000 0.2050 0.0000 41.0190
#
#
#
# Elastic Compliance Matrix: (Units=1/GPa)
#
#
# Indices 1 2 3 4 5 6 
#
# 1 0.021909 -0.006588 -0.003251 0.000000 -0.007588 0.000000
# 2 -0.006588 0.013750 -0.004037 0.000000 0.012644 0.000000
# 3 -0.003251 -0.004037 0.016964 0.000000 -0.004167 0.000000
# 4 0.000000 0.000000 0.000000 0.027399 0.000000 -0.000137
# 5 -0.007588 0.012644 -0.004167 0.000000 0.077349 0.000000
# 6 0.000000 0.000000 0.000000 -0.000137 0.000000 0.024380
#
#
# Mechanical properties :
#
#
# Convention : Reuss Voigt Hill
#
# Bulk Modulus (GPa) = 40.20644 44.31287 42.25965
# Shear Modulus (GPa) = 22.95762 28.99373 25.97567
#
# Velocity S-wave (km/s) = 3.27996 3.68601 3.48890
# Velocity P-wave (km/s) = 5.76066 6.23546 6.00275
#
# Compressibility (1/GPa) = 0.02487164
#
# Stress axis : x y z
#
# Youngs Moduli (GPa) = 45.64390 72.72484 58.94914
#
# Poissons Ratio (x) = 0.47908 0.19166
# Poissons Ratio (y) = 0.30068 0.23797
# Poissons Ratio (z) = 0.14840 0.29358
#
# Static dielectric constant tensor:
#      x y z
#    x 1.780530 0.000000 -0.034580 
#    y 0.000000 1.905150 0.000000 
#    z -0.034580 0.000000 1.768040 
# 
# From -- ./inp_files/5640.got.cif
#   From: 2010.05.17/outbox.cif.g08.bks.cpg/sg4_3_cif.got.tgz:5640.got - 2010.06.03 18:43:04.
