data_PCOD9115011
_publ_section_title
;
Structure prediction by ZEFSAII (Michael W. Deem and Ramdas Pophale) SiO2 
 PCOD9115011
Probable space group: P 21
;
_chemical_formula_sum "Si O2"
_cell_formula_units_Z 16
_cell_length_a 9.309036
_cell_length_b 12.062207
_cell_length_c 6.360224
_cell_angle_alpha 90.000000
_cell_angle_beta 60.871405
_cell_angle_gamma 90.000000
_cell_volume 623.851786
_symmetry_space_group_name_H-M "P 21"
_symmetry_group_IT_number 4
_symmetry_cell_setting 'monoclinic'
loop_
_space_group_symop_operation_xyz
x,y,z
-x,1/2+y,-z
loop_
_atom_site_type_symbol
_atom_site_label
_atom_site_fract_x
_atom_site_fract_y
_atom_site_fract_z
Si Si1 0.294206 0.046190 0.316651
Si Si2 0.674670 0.379848 0.090591
Si Si3 0.372504 0.623054 0.941922
Si Si4 0.476194 0.583030 0.357100
Si Si5 0.014374 0.631830 0.297250
Si Si6 0.878921 0.098202 0.307009
Si Si7 0.783277 0.704039 0.998321
Si Si8 0.953976 0.859730 0.123005
O O1 0.265638 0.157753 0.194598
O O2 0.138486 0.047808 0.579789
O O3 0.291519 0.944760 0.154337
O O4 0.475586 0.060613 0.282291
O O5 0.614887 0.256160 0.088283
O O6 0.853783 0.372022 0.071505
O O7 0.548865 0.457609 0.306829
O O8 0.414866 0.590728 0.154546
O O9 0.178675 0.594420 0.055178
O O10 0.312801 0.625686 0.593133
O O11 0.632411 0.665644 0.250896
O O12 0.081813 0.640977 0.486998
O O13 0.954002 0.753903 0.276955
O O14 0.890928 0.966144 0.288914
O O15 0.044642 0.140794 0.073657
O O16 0.836058 0.828549 0.011454
#
# Coordination Sequence:
#
# PCOD9115011 Si02
#       8
#     2   2   2   2   2   2   2   2
#     4   9  17  35  54  71 111 140 165 226 269 304
#     4   9  16  32  56  76 107 140 173 216 277 312
#     4   8  16  28  52  79 101 134 176 212 263 323
#     4   9  18  35  56  74 110 144 175 227 265 314
#     4   9  18  32  54  85 101 133 181 221 261 319
#     4  10  19  39  58  76 112 145 177 223 273 316
#     4   9  19  37  54  76 111 146 180 218 269 323
#     4  11  19  34  62  79 107 148 177 221 277 323
#
# _framework density 25.647114999999999
#
# number of rings (size 3 to 8) (size 9 to 14) (size 15 to 20)
#    0.000    3.000    3.750    0.000    1.750    0.000 
#    2.250    2.500   22.000    0.000    0.000    0.000 
#    0.000    0.000    0.000    0.000    0.000    0.000 
#
# Total GULP energy -89349.321255 kJ/mol
# GULP energy per Si atom -5584.332578 kJ/mol
# Density = 2.558874 g / cm^3
# Si number density = 25.647115 Si / 1000 Ang^3
#
#
#
# Elastic Constant Matrix: (Units=GPa)
#
#
# Indices 1 2 3 4 5 6 
#
# 1 123.0467 5.8585 15.2396 0.0000 -42.9843 0.0000
# 2 5.8585 113.1654 37.0993 0.0000 11.3526 0.0000
# 3 15.2396 37.0993 155.7023 0.0000 -51.5111 0.0000
# 4 0.0000 0.0000 0.0000 18.5374 0.0000 -0.1974
# 5 -42.9843 11.3526 -51.5111 0.0000 53.0424 0.0000
# 6 0.0000 0.0000 0.0000 -0.1974 0.0000 45.2570
#
#
#
# Elastic Compliance Matrix: (Units=1/GPa)
#
#
# Indices 1 2 3 4 5 6 
#
# 1 0.013646 -0.004168 0.005320 0.000000 0.017117 0.000000
# 2 -0.004168 0.012532 -0.006752 0.000000 -0.012617 0.000000
# 3 0.005320 -0.006752 0.013872 0.000000 0.019228 0.000000
# 4 0.000000 0.000000 0.000000 0.053947 0.000000 0.000235
# 5 0.017117 -0.012617 0.019228 0.000000 0.054098 0.000000
# 6 0.000000 0.000000 0.000000 0.000235 0.000000 0.022097
#
#
# Mechanical properties :
#
#
# Convention : Reuss Voigt Hill
#
# Bulk Modulus (GPa) = 34.66124 56.47879 45.57001
# Shear Modulus (GPa) = 26.17699 45.61516 35.89607
#
# Velocity S-wave (km/s) = 3.19824 4.22188 3.74520
# Velocity P-wave (km/s) = 5.21367 6.77016 6.04224
#
# Compressibility (1/GPa) = 0.02885067
#
# Stress axis : x y z
#
# Youngs Moduli (GPa) = 73.28064 79.79820 72.08882
#
# Poissons Ratio (x) = 0.33259 -0.38354
# Poissons Ratio (y) = 0.30542 0.48674
# Poissons Ratio (z) = -0.38988 0.53880
#
# Static dielectric constant tensor:
#      x y z
#    x 2.135690 0.000000 0.103820 
#    y 0.000000 1.938530 0.000000 
#    z 0.103820 0.000000 2.245190 
# 
# From -- ./inp_files/6217.got.cif
#   From: 2010.05.17/outbox.cif.g08.bks.cpg/sg4_4_cif.got.tgz:6217.got - 2010.06.03 18:43:04.
