data_PCOD9115589
_publ_section_title
;
Structure prediction by ZEFSAII (Michael W. Deem and Ramdas Pophale) SiO2 
 PCOD9115589
Probable space group: P 21
;
_chemical_formula_sum "Si O2"
_cell_formula_units_Z 12
_cell_length_a 6.710344
_cell_length_b 9.422152
_cell_length_c 12.110851
_cell_angle_alpha 90.000000
_cell_angle_beta 51.847029
_cell_angle_gamma 90.000000
_cell_volume 602.134205
_symmetry_space_group_name_H-M "P 21"
_symmetry_group_IT_number 4
_symmetry_cell_setting 'monoclinic'
loop_
_space_group_symop_operation_xyz
x,y,z
-x,1/2+y,-z
loop_
_atom_site_type_symbol
_atom_site_label
_atom_site_fract_x
_atom_site_fract_y
_atom_site_fract_z
Si Si1 0.879594 0.910390 0.574222
Si Si2 0.158408 0.112375 0.330261
Si Si3 0.649337 0.134022 0.814346
Si Si4 0.821153 0.807091 0.115105
Si Si5 0.105170 0.362191 0.666761
Si Si6 0.708710 0.103082 0.048518
O O1 0.959056 0.765538 0.605808
O O2 0.751422 0.867939 0.500066
O O3 0.708984 0.005396 0.711568
O O4 0.108960 0.010313 0.452876
O O5 0.449924 0.132650 0.201996
O O6 0.021726 0.019006 0.282493
O O7 0.394172 0.213309 0.868107
O O8 0.877693 0.249003 0.728607
O O9 0.642091 0.082257 0.942617
O O10 0.758851 0.824530 0.266753
O O11 0.825633 0.959892 0.057220
O O12 0.090194 0.729541 0.013516
#
# Coordination Sequence:
#
# PCOD9115589 Si02
#       6
#     2   2   2   2   2   2
#     4  10  20  40  71  94 125 180 222 261 339 385
#     4  10  21  41  69  94 130 177 217 267 331 386
#     4  11  23  43  67  93 134 173 215 280 321 392
#     4  11  25  43  63 101 133 170 225 273 320 399
#     4   9  20  43  62  93 131 166 214 277 322 375
#     4  11  27  40  70  95 137 176 217 272 331 385
#
# _framework density 19.929113000000001
#
# number of rings (size 3 to 8) (size 9 to 14) (size 15 to 20)
#    1.000    0.667    3.333    0.000    7.000    0.000 
#    3.000    1.667    0.000    0.000    0.000    0.000 
#    0.000    0.000    0.000    0.000    0.000    0.000 
#
# Total GULP energy -66919.391036 kJ/mol
# GULP energy per Si atom -5576.615920 kJ/mol
# Density = 1.988375 g / cm^3
# Si number density = 19.929113 Si / 1000 Ang^3
#
#
#
# Elastic Constant Matrix: (Units=GPa)
#
#
# Indices 1 2 3 4 5 6 
#
# 1 51.4199 0.3050 22.3359 0.0000 16.7269 0.0000
# 2 0.3050 82.5280 33.0074 0.0000 5.0151 0.0000
# 3 22.3359 33.0074 88.6319 0.0000 -0.6690 0.0000
# 4 0.0000 0.0000 0.0000 33.0317 0.0000 1.9079
# 5 16.7269 5.0151 -0.6690 0.0000 18.0301 0.0000
# 6 0.0000 0.0000 0.0000 1.9079 0.0000 27.4743
#
#
#
# Elastic Compliance Matrix: (Units=1/GPa)
#
#
# Indices 1 2 3 4 5 6 
#
# 1 0.036345 0.006850 -0.011982 0.000000 -0.036067 0.000000
# 2 0.006850 0.015847 -0.007711 0.000000 -0.011049 0.000000
# 3 -0.011982 -0.007711 0.017279 0.000000 0.013902 0.000000
# 4 0.000000 0.000000 0.000000 0.030396 0.000000 -0.002111
# 5 -0.036067 -0.011049 0.013902 0.000000 0.092512 0.000000
# 6 0.000000 0.000000 0.000000 -0.002111 0.000000 0.036544
#
#
# Mechanical properties :
#
#
# Convention : Reuss Voigt Hill
#
# Bulk Modulus (GPa) = 22.83973 37.09740 29.96856
# Shear Modulus (GPa) = 18.57318 26.83597 22.70457
#
# Velocity S-wave (km/s) = 3.05612 3.67355 3.37896
# Velocity P-wave (km/s) = 4.89270 6.05379 5.50395
#
# Compressibility (1/GPa) = 0.04378336
#
# Stress axis : x y z
#
# Youngs Moduli (GPa) = 27.51434 63.10196 57.87391
#
# Poissons Ratio (x) = -0.43223 0.69346
# Poissons Ratio (y) = -0.18847 0.44628
# Poissons Ratio (z) = 0.32968 0.48660
#
# Static dielectric constant tensor:
#      x y z
#    x 1.680540 0.000000 0.018790 
#    y 0.000000 1.698330 0.000000 
#    z 0.018790 0.000000 1.711710 
# 
# From -- ./inp_files/10234.got.cif
#   From: 2010.05.17/outbox.cif.g08.bks.cpg/sg4_6_cif.got.tgz:10234.got - 2010.06.03 18:43:04.
