data_PCOD9115330
_publ_section_title
;
Structure prediction by ZEFSAII (Michael W. Deem and Ramdas Pophale) SiO2 
 PCOD9115330
Probable space group: P 21
;
_chemical_formula_sum "Si O2"
_cell_formula_units_Z 16
_cell_length_a 6.822564
_cell_length_b 13.090642
_cell_length_c 9.685677
_cell_angle_alpha 90.000000
_cell_angle_beta 134.359542
_cell_angle_gamma 90.000000
_cell_volume 618.478021
_symmetry_space_group_name_H-M "P 21"
_symmetry_group_IT_number 4
_symmetry_cell_setting 'monoclinic'
loop_
_space_group_symop_operation_xyz
x,y,z
-x,1/2+y,-z
loop_
_atom_site_type_symbol
_atom_site_label
_atom_site_fract_x
_atom_site_fract_y
_atom_site_fract_z
Si Si1 0.583999 0.854600 0.383678
Si Si2 0.959741 0.611324 0.252460
Si Si3 0.508538 0.504086 0.444085
Si Si4 0.186752 0.193731 0.333427
Si Si5 0.586691 0.011751 0.128226
Si Si6 0.104105 0.737578 0.057649
Si Si7 0.663290 0.895898 0.902856
Si Si8 0.690680 0.210876 0.358738
O O1 0.831572 0.794485 0.581136
O O2 0.587246 0.935291 0.261372
O O3 0.413391 0.759320 0.243165
O O4 0.417065 0.905775 0.428661
O O5 0.227535 0.538921 0.381206
O O6 0.031274 0.689392 0.414151
O O7 0.975833 0.676052 0.119937
O O8 0.692457 0.542458 0.094112
O O9 0.740999 0.588480 0.559070
O O10 0.428818 0.480680 0.250245
O O11 0.447400 0.204262 0.355601
O O12 0.934554 0.184002 0.106412
O O13 0.676523 0.117818 0.243573
O O14 0.734071 0.944180 0.084129
O O15 0.933368 0.842710 0.971533
O O16 0.415811 0.812402 0.773701
#
# Coordination Sequence:
#
# PCOD9115330 Si02
#       8
#     2   2   2   2   2   2   2   2
#     4  12  21  39  68  94 122 169 217 261 306 380
#     4  11  20  42  69  89 124 175 213 261 321 376
#     4  11  20  41  67  92 123 163 223 259 305 379
#     4  10  20  37  63  94 123 158 217 268 300 368
#     4  12  25  40  66  95 132 169 208 264 329 383
#     4  11  20  41  68  91 126 171 212 262 323 370
#     4  11  24  42  64  97 133 166 211 263 325 385
#     4  10  20  44  61  88 133 167 205 264 327 367
#
# _framework density 25.869958
#
# number of rings (size 3 to 8) (size 9 to 14) (size 15 to 20)
#    0.000    1.000   10.000    0.750    0.000    1.000 
#    4.500    1.250    0.000    0.000    0.000    0.000 
#    0.000    0.000    0.000    0.000    0.000    0.000 
#
# Total GULP energy -89402.519815 kJ/mol
# GULP energy per Si atom -5587.657488 kJ/mol
# Density = 2.581108 g / cm^3
# Si number density = 25.869958 Si / 1000 Ang^3
#
#
#
# Elastic Constant Matrix: (Units=GPa)
#
#
# Indices 1 2 3 4 5 6 
#
# 1 51.6182 -5.3102 22.2248 0.0000 -10.1682 0.0000
# 2 -5.3102 70.7537 20.5152 0.0000 -11.0008 0.0000
# 3 22.2248 20.5152 136.8384 0.0000 -12.7543 0.0000
# 4 0.0000 0.0000 0.0000 72.0435 0.0000 -7.5587
# 5 -10.1682 -11.0008 -12.7543 0.0000 44.4568 0.0000
# 6 0.0000 0.0000 0.0000 -7.5587 0.0000 9.2550
#
#
#
# Elastic Compliance Matrix: (Units=1/GPa)
#
#
# Indices 1 2 3 4 5 6 
#
# 1 0.022288 0.003505 -0.003688 0.000000 0.004907 0.000000
# 2 0.003505 0.015756 -0.002562 0.000000 0.003965 0.000000
# 3 -0.003688 -0.002562 0.008377 0.000000 0.000926 0.000000
# 4 0.000000 0.000000 0.000000 0.015181 0.000000 0.012399
# 5 0.004907 0.003965 0.000926 0.000000 0.024863 0.000000
# 6 0.000000 0.000000 0.000000 0.012399 0.000000 0.118176
#
#
# Mechanical properties :
#
#
# Convention : Reuss Voigt Hill
#
# Bulk Modulus (GPa) = 24.43094 37.11886 30.77490
# Shear Modulus (GPa) = 22.34381 39.93641 31.14011
#
# Velocity S-wave (km/s) = 2.94206 3.93330 3.47323
# Velocity P-wave (km/s) = 4.58314 5.91669 5.29209
#
# Compressibility (1/GPa) = 0.04093170
#
# Stress axis : x y z
#
# Youngs Moduli (GPa) = 44.86685 63.46801 119.37055
#
# Poissons Ratio (x) = -0.22246 0.44025
# Poissons Ratio (y) = -0.15726 0.30581
# Poissons Ratio (z) = 0.16547 0.16260
#
# Static dielectric constant tensor:
#      x y z
#    x 2.096930 0.000000 0.046860 
#    y 0.000000 2.118550 0.000000 
#    z 0.046860 0.000000 2.044370 
# 
# From -- ./inp_files/6470.got.cif
#   From: 2010.05.17/outbox.cif.g08.bks.cpg/sg4_4_cif.got.tgz:6470.got - 2010.06.03 18:43:04.
