data_PCOD9115433
_publ_section_title
;
Structure prediction by ZEFSAII (Michael W. Deem and Ramdas Pophale) SiO2 
 PCOD9115433
Probable space group: P 21
;
_chemical_formula_sum "Si O2"
_cell_formula_units_Z 14
_cell_length_a 14.749389
_cell_length_b 5.291899
_cell_length_c 16.842954
_cell_angle_alpha 90.000000
_cell_angle_beta 24.295078
_cell_angle_gamma 90.000000
_cell_volume 540.886566
_symmetry_space_group_name_H-M "P 21"
_symmetry_group_IT_number 4
_symmetry_cell_setting 'monoclinic'
loop_
_space_group_symop_operation_xyz
x,y,z
-x,1/2+y,-z
loop_
_atom_site_type_symbol
_atom_site_label
_atom_site_fract_x
_atom_site_fract_y
_atom_site_fract_z
Si Si1 0.405623 0.197530 0.935664
Si Si2 0.798897 0.512821 0.596729
Si Si3 0.219412 0.511891 0.658466
Si Si4 0.623925 0.911161 0.630737
Si Si5 0.140709 0.430510 0.891191
Si Si6 0.078503 0.516328 0.112204
Si Si7 0.908443 0.653293 0.684036
O O1 0.653598 0.285544 0.749102
O O2 0.428470 0.035660 0.837412
O O3 0.247703 0.432990 0.043905
O O4 0.295644 0.072732 0.099735
O O5 0.647159 0.637793 0.651039
O O6 0.861504 0.646932 0.627688
O O7 0.014123 0.443423 0.375553
O O8 0.104378 0.787479 0.743015
O O9 0.392256 0.466431 0.449572
O O10 0.290053 0.470701 0.693970
O O11 0.042534 0.284484 0.785257
O O12 0.868988 0.019292 0.460775
O O13 0.211693 0.502895 0.922603
O O14 0.946183 0.642177 0.035896
#
# Coordination Sequence:
#
# PCOD9115433 Si02
#       7
#     2   2   2   2   2   2   2
#     4  11  26  38  62  94 124 162 212 264 322 378
#     4  11  25  40  62  87 123 162 215 261 316 387
#     4  10  20  38  67  92 127 170 213 258 313 380
#     4  11  24  41  63  89 123 163 213 258 319 382
#     4   8  16  32  61  94 119 163 215 250 306 382
#     4  10  20  39  65  94 128 168 210 261 319 375
#     4  11  23  44  60  88 122 166 206 264 321 372
#
# _framework density 25.883431000000002
#
# number of rings (size 3 to 8) (size 9 to 14) (size 15 to 20)
#    0.000    1.714    2.857    0.857    6.000    1.143 
#    0.000    0.000    3.143    0.000    0.000    0.000 
#    0.000    0.000    0.000    0.000    0.000    0.000 
#
# Total GULP energy -78094.786925 kJ/mol
# GULP energy per Si atom -5578.199066 kJ/mol
# Density = 2.582452 g / cm^3
# Si number density = 25.883431 Si / 1000 Ang^3
#
#
#
# Elastic Constant Matrix: (Units=GPa)
#
#
# Indices 1 2 3 4 5 6 
#
# 1 63.8242 5.3904 40.5361 0.0000 21.7120 0.0000
# 2 5.3904 77.0319 33.7322 0.0000 6.1595 0.0000
# 3 40.5361 33.7322 167.2237 0.0000 52.0755 0.0000
# 4 0.0000 0.0000 0.0000 22.6745 0.0000 1.1323
# 5 21.7120 6.1595 52.0755 0.0000 36.0285 0.0000
# 6 0.0000 0.0000 0.0000 1.1323 0.0000 31.2281
#
#
#
# Elastic Compliance Matrix: (Units=1/GPa)
#
#
# Indices 1 2 3 4 5 6 
#
# 1 0.020072 0.000230 -0.002060 0.000000 -0.009158 0.000000
# 2 0.000230 0.014438 -0.003921 0.000000 0.003061 0.000000
# 3 -0.002060 -0.003921 0.012139 0.000000 -0.015634 0.000000
# 4 0.000000 0.000000 0.000000 0.044182 0.000000 -0.001602
# 5 -0.009158 0.003061 -0.015634 0.000000 0.055348 0.000000
# 6 0.000000 0.000000 0.000000 -0.001602 0.000000 0.032081
#
#
# Mechanical properties :
#
#
# Convention : Reuss Voigt Hill
#
# Bulk Modulus (GPa) = 28.45287 51.93302 40.19294
# Shear Modulus (GPa) = 24.81646 33.21430 29.01538
#
# Velocity S-wave (km/s) = 3.09977 3.58610 3.35177
# Velocity P-wave (km/s) = 4.88140 6.10365 5.52642
#
# Compressibility (1/GPa) = 0.03514584
#
# Stress axis : x y z
#
# Youngs Moduli (GPa) = 49.81954 69.26185 82.37938
#
# Poissons Ratio (x) = -0.01592 0.16972
# Poissons Ratio (y) = -0.01145 0.32304
# Poissons Ratio (z) = 0.10264 0.27160
#
# Static dielectric constant tensor:
#      x y z
#    x 2.039200 0.000000 0.022030 
#    y 0.000000 2.189610 0.000000 
#    z 0.022030 0.000000 2.007710 
# 
# From -- ./inp_files/15301.got.cif
#   From: 2010.05.17/outbox.cif.g08.bks.cpg/sg4_8_cif.got.tgz:15301.got - 2010.06.03 18:43:04.
