data_PCOD9115662
_publ_section_title
;
Structure prediction by ZEFSAII (Michael W. Deem and Ramdas Pophale) SiO2 
 PCOD9115662
Probable space group: P 21
;
_chemical_formula_sum "Si O2"
_cell_formula_units_Z 16
_cell_length_a 16.709655
_cell_length_b 8.346619
_cell_length_c 5.587248
_cell_angle_alpha 90.000000
_cell_angle_beta 62.212897
_cell_angle_gamma 90.000000
_cell_volume 689.390261
_symmetry_space_group_name_H-M "P 21"
_symmetry_group_IT_number 4
_symmetry_cell_setting 'monoclinic'
loop_
_space_group_symop_operation_xyz
x,y,z
-x,1/2+y,-z
loop_
_atom_site_type_symbol
_atom_site_label
_atom_site_fract_x
_atom_site_fract_y
_atom_site_fract_z
Si Si1 0.922590 0.848360 0.477720
Si Si2 0.495241 0.527812 0.129575
Si Si3 0.112855 0.012673 0.204904
Si Si4 0.371528 0.268434 0.207763
Si Si5 0.398638 0.847503 0.362275
Si Si6 0.296080 0.837055 0.993642
Si Si7 0.753647 0.977034 0.936831
Si Si8 0.203826 0.222779 0.727646
O O1 0.910760 0.676069 0.621579
O O2 0.871727 0.828329 0.298335
O O3 0.024844 0.903745 0.321100
O O4 0.857748 0.973726 0.703500
O O5 0.449687 0.355213 0.259724
O O6 0.427173 0.660579 0.328072
O O7 0.584116 0.642442 0.036492
O O8 0.519295 0.472331 0.817320
O O9 0.148481 0.071915 0.898425
O O10 0.202001 0.926512 0.175258
O O11 0.290098 0.177226 0.451203
O O12 0.316623 0.414371 0.164087
O O13 0.351536 0.892716 0.678901
O O14 0.348749 0.844676 0.171588
O O15 0.272726 0.654155 0.959296
O O16 0.753372 0.836909 0.131938
#
# Coordination Sequence:
#
# PCOD9115662 Si02
#       8
#     2   2   2   2   2   2   2   2
#     4  10  24  45  68 100 137 175 235 282 351 416
#     4  10  22  43  66  99 137 185 236 297 342 424
#     4  11  25  43  69 102 134 181 227 288 346 424
#     4  10  20  42  63  95 138 177 235 285 355 406
#     4  11  26  45  68 104 140 186 238 289 358 414
#     4  12  26  44  71 103 143 186 234 287 356 421
#     4  10  22  42  66  96 137 185 226 289 348 416
#     4  10  23  42  69  95 134 183 225 287 354 417
#
# _framework density 23.208915000000001
#
# number of rings (size 3 to 8) (size 9 to 14) (size 15 to 20)
#    0.000    1.500    1.250    2.250    8.750    4.000 
#    9.000    0.000    0.000    0.000    0.000    0.000 
#    0.000    0.000    0.000    0.000    0.000    0.000 
#
# Total GULP energy -89082.720796 kJ/mol
# GULP energy per Si atom -5567.670050 kJ/mol
# Density = 2.315609 g / cm^3
# Si number density = 23.208915 Si / 1000 Ang^3
#
#
#
# Elastic Constant Matrix: (Units=GPa)
#
#
# Indices 1 2 3 4 5 6 
#
# 1 58.5946 14.7928 58.8315 0.0000 -22.5352 0.0000
# 2 14.7928 99.8584 42.0160 0.0000 -23.1315 0.0000
# 3 58.8315 42.0160 114.0606 0.0000 -31.6031 0.0000
# 4 0.0000 0.0000 0.0000 36.5338 0.0000 -13.3139
# 5 -22.5352 -23.1315 -31.6031 0.0000 33.3298 0.0000
# 6 0.0000 0.0000 0.0000 -13.3139 0.0000 32.6039
#
#
#
# Elastic Compliance Matrix: (Units=1/GPa)
#
#
# Indices 1 2 3 4 5 6 
#
# 1 0.039287 0.004870 -0.018665 0.000000 0.012245 0.000000
# 2 0.004870 0.013261 -0.005336 0.000000 0.007436 0.000000
# 3 -0.018665 -0.005336 0.021481 0.000000 0.004045 0.000000
# 4 0.000000 0.000000 0.000000 0.032157 0.000000 0.013132
# 5 0.012245 0.007436 0.004045 0.000000 0.047278 0.000000
# 6 0.000000 0.000000 0.000000 0.013132 0.000000 0.036033
#
#
# Mechanical properties :
#
#
# Convention : Reuss Voigt Hill
#
# Bulk Modulus (GPa) = 27.96005 55.97714 41.96860
# Shear Modulus (GPa) = 20.86104 30.95173 25.90638
#
# Velocity S-wave (km/s) = 3.00131 3.65583 3.34462
# Velocity P-wave (km/s) = 4.90752 6.48007 5.74783
#
# Compressibility (1/GPa) = 0.03576532
#
# Stress axis : x y z
#
# Youngs Moduli (GPa) = 25.45394 75.41191 46.55302
#
# Poissons Ratio (x) = -0.36725 0.86891
# Poissons Ratio (y) = -0.12396 0.24842
# Poissons Ratio (z) = 0.47510 0.40242
#
# Static dielectric constant tensor:
#      x y z
#    x 1.962610 0.000000 0.014040 
#    y 0.000000 1.929740 0.000000 
#    z 0.014040 0.000000 1.921270 
# 
# From -- ./inp_files/3454.got.cif
#   From: 2010.05.17/outbox.cif.g08.bks.cpg/sg4_2_cif.got.tgz:3454.got - 2010.06.03 18:43:04.
