data_PCOD9115894
_publ_section_title
;
Structure prediction by ZEFSAII (Michael W. Deem and Ramdas Pophale) SiO2 
 PCOD9115894
Probable space group: P 21
;
_chemical_formula_sum "Si O2"
_cell_formula_units_Z 16
_cell_length_a 7.255063
_cell_length_b 8.469604
_cell_length_c 11.787292
_cell_angle_alpha 90.000000
_cell_angle_beta 124.688132
_cell_angle_gamma 90.000000
_cell_volume 595.564119
_symmetry_space_group_name_H-M "P 21"
_symmetry_group_IT_number 4
_symmetry_cell_setting 'monoclinic'
loop_
_space_group_symop_operation_xyz
x,y,z
-x,1/2+y,-z
loop_
_atom_site_type_symbol
_atom_site_label
_atom_site_fract_x
_atom_site_fract_y
_atom_site_fract_z
Si Si1 0.663659 0.492690 0.707454
Si Si2 0.375131 0.296816 0.466660
Si Si3 0.768366 0.064699 0.310794
Si Si4 0.220152 0.492024 0.211847
Si Si5 0.031771 0.262671 0.554045
Si Si6 0.375885 0.073943 0.803407
Si Si7 0.434884 0.756285 0.939682
Si Si8 0.892902 0.686917 0.960674
O O1 0.612707 0.344833 0.607159
O O2 0.627950 0.646190 0.615458
O O3 0.458134 0.485371 0.725049
O O4 0.866247 0.541282 0.861456
O O5 0.275891 0.443324 0.359294
O O6 0.203210 0.267526 0.508154
O O7 0.961352 0.934895 0.388714
O O8 0.741722 0.136831 0.178149
O O9 0.810047 0.204116 0.415673
O O10 0.464852 0.511263 0.240034
O O11 0.088698 0.341645 0.111445
O O12 0.078039 0.641455 0.118390
O O13 0.140329 0.137777 0.677761
O O14 0.356813 0.932326 0.886560
O O15 0.508933 0.213261 0.913296
O O16 0.663793 0.722934 0.949566
#
# Coordination Sequence:
#
# PCOD9115894 Si02
#       8
#     2   2   2   2   2   2   2   2
#     4   9  20  38  57  83 118 155 199 248 295 351
#     4  10  21  38  60  87 117 158 201 245 299 351
#     4  10  22  39  58  87 122 159 202 249 299 359
#     4  10  22  39  59  87 120 156 199 247 297 355
#     4  11  23  39  61  89 121 160 203 251 303 358
#     4  11  23  41  63  90 122 159 202 251 303 359
#     4  10  22  40  61  87 121 159 201 250 301 358
#     4   9  21  38  57  84 119 154 197 245 295 353
#
# _framework density 26.865289000000001
#
# number of rings (size 3 to 8) (size 9 to 14) (size 15 to 20)
#    0.000    2.000    0.000    3.000    0.000   11.000 
#    0.000    1.250    0.000    0.000    0.000    0.000 
#    0.000    0.000    0.000    0.000    0.000    0.000 
#
# Total GULP energy -89630.272642 kJ/mol
# GULP energy per Si atom -5601.892040 kJ/mol
# Density = 2.680414 g / cm^3
# Si number density = 26.865289 Si / 1000 Ang^3
#
#
#
# Elastic Constant Matrix: (Units=GPa)
#
#
# Indices 1 2 3 4 5 6 
#
# 1 47.3958 24.9989 15.3224 0.0000 -5.9002 0.0000
# 2 24.9989 65.4755 30.3883 0.0000 -9.3661 0.0000
# 3 15.3224 30.3883 141.9255 0.0000 -0.5403 0.0000
# 4 0.0000 0.0000 0.0000 78.5923 0.0000 -8.3065
# 5 -5.9002 -9.3661 -0.5403 0.0000 21.4705 0.0000
# 6 0.0000 0.0000 0.0000 -8.3065 0.0000 38.1945
#
#
#
# Elastic Compliance Matrix: (Units=1/GPa)
#
#
# Indices 1 2 3 4 5 6 
#
# 1 0.026705 -0.009326 -0.000874 0.000000 0.003248 0.000000
# 2 -0.009326 0.021444 -0.003559 0.000000 0.006702 0.000000
# 3 -0.000874 -0.003559 0.007896 0.000000 -0.001594 0.000000
# 4 0.000000 0.000000 0.000000 0.013023 0.000000 0.002832
# 5 0.003248 0.006702 -0.001594 0.000000 0.050352 0.000000
# 6 0.000000 0.000000 0.000000 0.002832 0.000000 0.026798
#
#
# Mechanical properties :
#
#
# Convention : Reuss Voigt Hill
#
# Bulk Modulus (GPa) = 35.05394 44.02400 39.53897
# Shear Modulus (GPa) = 27.28594 39.92395 33.60495
#
# Velocity S-wave (km/s) = 3.19040 3.85915 3.54060
# Velocity P-wave (km/s) = 5.16216 6.02328 5.60927
#
# Compressibility (1/GPa) = 0.02852746
#
# Stress axis : x y z
#
# Youngs Moduli (GPa) = 37.44668 46.63286 126.64155
#
# Poissons Ratio (x) = 0.43488 0.11067
# Poissons Ratio (y) = 0.34922 0.45074
# Poissons Ratio (z) = 0.03273 0.16597
#
# Static dielectric constant tensor:
#      x y z
#    x 2.068430 0.000000 0.032820 
#    y 0.000000 2.137940 0.000000 
#    z 0.032820 0.000000 2.065470 
# 
# From -- ./inp_files/5677.got.cif
#   From: 2010.05.17/outbox.cif.g08.bks.cpg/sg4_3_cif.got.tgz:5677.got - 2010.06.03 18:43:04.
