data_PCOD9115602
_publ_section_title
;
Structure prediction by ZEFSAII (Michael W. Deem and Ramdas Pophale) SiO2 
 PCOD9115602
Probable space group: P 21
;
_chemical_formula_sum "Si O2"
_cell_formula_units_Z 14
_cell_length_a 12.127862
_cell_length_b 5.219544
_cell_length_c 23.681093
_cell_angle_alpha 90.000000
_cell_angle_beta 157.015060
_cell_angle_gamma 90.000000
_cell_volume 585.366061
_symmetry_space_group_name_H-M "P 21"
_symmetry_group_IT_number 4
_symmetry_cell_setting 'monoclinic'
loop_
_space_group_symop_operation_xyz
x,y,z
-x,1/2+y,-z
loop_
_atom_site_type_symbol
_atom_site_label
_atom_site_fract_x
_atom_site_fract_y
_atom_site_fract_z
Si Si1 0.600807 0.529890 0.640482
Si Si2 0.986786 0.437328 0.126669
Si Si3 0.687513 0.693820 0.409392
Si Si4 0.062239 0.676409 0.431075
Si Si5 0.136190 0.315605 0.841757
Si Si6 0.877828 0.221119 0.914407
Si Si7 0.453837 0.136820 0.885647
O O1 0.502224 0.265424 0.623876
O O2 0.293543 0.655087 0.488404
O O3 0.759280 0.733061 0.756554
O O4 0.842516 0.472098 0.709002
O O5 0.942388 0.538877 0.169286
O O6 0.008894 0.675213 0.095463
O O7 0.703248 0.295892 0.975575
O O8 0.885891 0.455689 0.518124
O O9 0.458044 0.669628 0.251391
O O10 0.847955 0.964036 0.480560
O O11 0.770170 0.578974 0.268038
O O12 0.273841 0.301553 0.845878
O O13 0.378534 0.428983 0.997663
O O14 0.969479 0.497915 0.978528
#
# Coordination Sequence:
#
# PCOD9115602 Si02
#       7
#     2   2   2   2   2   2   2
#     4   9  19  38  63  85 129 172 208 268 315 369
#     4  11  21  41  63  94 134 164 215 277 325 378
#     4  10  20  41  62  93 131 162 207 279 322 375
#     4  10  21  40  63  93 128 182 206 260 329 391
#     4  11  21  40  60  91 135 174 222 270 306 380
#     4  12  23  39  71 104 120 162 223 280 331 383
#     4  11  25  37  64  94 131 186 217 258 326 402
#
# _framework density 23.91666
#
# number of rings (size 3 to 8) (size 9 to 14) (size 15 to 20)
#    0.857    0.571    4.286    1.714    4.000    0.000 
#    5.143    0.000    0.000    3.429    0.000    0.000 
#    0.000    0.000    0.000    0.000    0.000    0.000 
#
# Total GULP energy -78044.249527 kJ/mol
# GULP energy per Si atom -5574.589252 kJ/mol
# Density = 2.386222 g / cm^3
# Si number density = 23.916660 Si / 1000 Ang^3
#
#
#
# Elastic Constant Matrix: (Units=GPa)
#
#
# Indices 1 2 3 4 5 6 
#
# 1 48.1874 -5.2089 -6.5416 0.0000 7.3886 0.0000
# 2 -5.2089 97.0809 3.3919 0.0000 -3.0918 0.0000
# 3 -6.5416 3.3919 90.1743 0.0000 8.8879 0.0000
# 4 0.0000 0.0000 0.0000 25.9300 0.0000 -11.2274
# 5 7.3886 -3.0918 8.8879 0.0000 21.2270 0.0000
# 6 0.0000 0.0000 0.0000 -11.2274 0.0000 25.3498
#
#
#
# Elastic Compliance Matrix: (Units=1/GPa)
#
#
# Indices 1 2 3 4 5 6 
#
# 1 0.022519 0.000844 0.002464 0.000000 -0.008747 0.000000
# 2 0.000844 0.010408 -0.000470 0.000000 0.001419 0.000000
# 3 0.002464 -0.000470 0.011867 0.000000 -0.005895 0.000000
# 4 0.000000 0.000000 0.000000 0.047716 0.000000 0.021133
# 5 -0.008747 0.001419 -0.005895 0.000000 0.052829 0.000000
# 6 0.000000 0.000000 0.000000 0.021133 0.000000 0.048808
#
#
# Mechanical properties :
#
#
# Convention : Reuss Voigt Hill
#
# Bulk Modulus (GPa) = 19.81420 24.30286 22.05853
# Shear Modulus (GPa) = 24.35517 30.75477 27.55497
#
# Velocity S-wave (km/s) = 3.19460 3.58985 3.39798
# Velocity P-wave (km/s) = 4.68081 5.23128 4.96368
#
# Compressibility (1/GPa) = 0.05046885
#
# Stress axis : x y z
#
# Youngs Moduli (GPa) = 44.40655 96.08389 84.26657
#
# Poissons Ratio (x) = -0.08106 -0.20764
# Poissons Ratio (y) = -0.03746 0.03962
# Poissons Ratio (z) = -0.10942 0.04517
#
# Static dielectric constant tensor:
#      x y z
#    x 1.981380 0.000000 0.036650 
#    y 0.000000 1.931050 0.000000 
#    z 0.036650 0.000000 1.923510 
# 
# From -- ./inp_files/9008.got.cif
#   From: 2010.05.17/outbox.cif.g08.bks.cpg/sg4_5_cif.got.tgz:9008.got - 2010.06.03 18:43:04.
