data_PCOD9115966
_publ_section_title
;
Structure prediction by ZEFSAII (Michael W. Deem and Ramdas Pophale) SiO2 
 PCOD9115966
Probable space group: P 21
;
_chemical_formula_sum "Si O2"
_cell_formula_units_Z 16
_cell_length_a 18.622155
_cell_length_b 5.279671
_cell_length_c 8.614630
_cell_angle_alpha 90.000000
_cell_angle_beta 55.897454
_cell_angle_gamma 90.000000
_cell_volume 701.329880
_symmetry_space_group_name_H-M "P 21"
_symmetry_group_IT_number 4
_symmetry_cell_setting 'monoclinic'
loop_
_space_group_symop_operation_xyz
x,y,z
-x,1/2+y,-z
loop_
_atom_site_type_symbol
_atom_site_label
_atom_site_fract_x
_atom_site_fract_y
_atom_site_fract_z
Si Si1 0.674040 0.940910 0.666381
Si Si2 0.228885 0.188607 0.186603
Si Si3 0.099377 0.884389 0.559038
Si Si4 0.910774 0.062962 0.730941
Si Si5 0.246608 0.937849 0.582247
Si Si6 0.494811 0.452162 0.293717
Si Si7 0.751134 0.283699 0.071167
Si Si8 0.594199 0.953513 0.261809
O O1 0.710124 0.882940 0.794249
O O2 0.717196 0.714094 0.510854
O O3 0.703879 0.215447 0.570906
O O4 0.571054 0.937366 0.769794
O O5 0.149054 0.316209 0.193375
O O6 0.175343 0.040211 0.383350
O O7 0.277265 0.981295 0.026188
O O8 0.086742 0.651091 0.453754
O O9 0.145151 0.867278 0.670270
O O10 0.007417 0.022030 0.671462
O O11 0.852335 0.246270 0.906502
O O12 0.263670 0.900757 0.743100
O O13 0.549668 0.197675 0.238853
O O14 0.434757 0.453438 0.522350
O O15 0.552995 0.703315 0.236928
O O16 0.696076 0.023184 0.132147
#
# Coordination Sequence:
#
# PCOD9115966 Si02
#       8
#     2   2   2   2   2   2   2   2
#     4  11  22  43  71 102 132 181 241 279 345 428
#     4  10  23  40  69  96 133 184 231 285 348 417
#     4  10  21  42  66  96 127 183 240 281 335 422
#     4  11  21  41  67  92 133 180 235 285 344 418
#     4  11  24  41  69 102 142 177 230 298 345 418
#     4  10  21  38  68 100 127 176 225 285 336 422
#     4  11  26  41  65 105 139 184 224 303 368 412
#     4  10  22  38  65 101 135 169 224 282 355 411
#
# _framework density 22.813800000000001
#
# number of rings (size 3 to 8) (size 9 to 14) (size 15 to 20)
#    0.000    1.500    3.750    0.750    7.000    0.000 
#    2.250    0.000    2.750    0.000    0.000    0.000 
#    0.000    0.000    0.000    0.000    0.000    0.000 
#
# Total GULP energy -89365.581662 kJ/mol
# GULP energy per Si atom -5585.348854 kJ/mol
# Density = 2.276187 g / cm^3
# Si number density = 22.813800 Si / 1000 Ang^3
#
#
#
# Elastic Constant Matrix: (Units=GPa)
#
#
# Indices 1 2 3 4 5 6 
#
# 1 111.4601 13.7460 25.6683 0.0000 -24.3405 0.0000
# 2 13.7460 93.9890 14.4294 0.0000 -13.8674 0.0000
# 3 25.6683 14.4294 69.0112 0.0000 -10.6571 0.0000
# 4 0.0000 0.0000 0.0000 29.8952 0.0000 -0.1777
# 5 -24.3405 -13.8674 -10.6571 0.0000 29.5416 0.0000
# 6 0.0000 0.0000 0.0000 -0.1777 0.0000 34.7172
#
#
#
# Elastic Compliance Matrix: (Units=1/GPa)
#
#
# Indices 1 2 3 4 5 6 
#
# 1 0.011490 0.000016 -0.002980 0.000000 0.008400 0.000000
# 2 0.000016 0.011612 -0.001684 0.000000 0.004857 0.000000
# 3 -0.002980 -0.001684 0.016361 0.000000 0.002656 0.000000
# 4 0.000000 0.000000 0.000000 0.033451 0.000000 0.000171
# 5 0.008400 0.004857 0.002656 0.000000 0.044010 0.000000
# 6 0.000000 0.000000 0.000000 0.000171 0.000000 0.028805
#
#
# Mechanical properties :
#
#
# Convention : Reuss Voigt Hill
#
# Bulk Modulus (GPa) = 33.14711 42.46084 37.80397
# Shear Modulus (GPa) = 30.28803 33.53858 31.91330
#
# Velocity S-wave (km/s) = 3.64760 3.83835 3.74419
# Velocity P-wave (km/s) = 5.68339 6.18839 5.94126
#
# Compressibility (1/GPa) = 0.03016855
#
# Stress axis : x y z
#
# Youngs Moduli (GPa) = 87.02853 86.11556 61.12044
#
# Poissons Ratio (x) = -0.00141 0.18214
# Poissons Ratio (y) = -0.00143 0.10293
# Poissons Ratio (z) = 0.25935 0.14502
#
# Static dielectric constant tensor:
#      x y z
#    x 1.871050 0.000000 0.023240 
#    y 0.000000 1.896060 0.000000 
#    z 0.023240 0.000000 1.871480 
# 
# From -- ./inp_files/9382.got.cif
#   From: 2010.05.17/outbox.cif.g08.bks.cpg/sg4_5_cif.got.tgz:9382.got - 2010.06.03 18:43:04.
