data_PCOD9115676
_publ_section_title
;
Structure prediction by ZEFSAII (Michael W. Deem and Ramdas Pophale) SiO2 
 PCOD9115676
Probable space group: P 21
;
_chemical_formula_sum "Si O2"
_cell_formula_units_Z 16
_cell_length_a 17.024593
_cell_length_b 9.178749
_cell_length_c 5.241758
_cell_angle_alpha 90.000000
_cell_angle_beta 113.724522
_cell_angle_gamma 90.000000
_cell_volume 749.878723
_symmetry_space_group_name_H-M "P 21"
_symmetry_group_IT_number 4
_symmetry_cell_setting 'monoclinic'
loop_
_space_group_symop_operation_xyz
x,y,z
-x,1/2+y,-z
loop_
_atom_site_type_symbol
_atom_site_label
_atom_site_fract_x
_atom_site_fract_y
_atom_site_fract_z
Si Si1 0.230313 0.782330 0.053804
Si Si2 0.941678 0.524384 0.682617
Si Si3 0.625595 0.104435 0.987889
Si Si4 0.377355 0.274106 0.858016
Si Si5 0.372895 0.845722 0.609672
Si Si6 0.485998 0.227874 0.490134
Si Si7 0.033447 0.833110 0.791824
Si Si8 0.252988 0.048943 0.711303
O O1 0.284199 0.782035 0.382759
O O2 0.278966 0.657293 0.960208
O O3 0.129638 0.767258 0.940211
O O4 0.246827 0.941237 0.945736
O O5 0.969065 0.431217 0.468149
O O6 0.837335 0.527524 0.548091
O O7 0.972694 0.691767 0.709195
O O8 0.976016 0.440189 0.977380
O O9 0.595516 0.233313 0.137144
O O10 0.559446 0.111891 0.665871
O O11 0.622700 0.947056 0.100597
O O12 0.429737 0.204381 0.164621
O O13 0.423221 0.252926 0.644928
O O14 0.279867 0.215830 0.770449
O O15 0.446412 0.857648 0.496102
O O16 0.339334 0.993561 0.683542
#
# Coordination Sequence:
#
# PCOD9115676 Si02
#       8
#     2   2   2   2   2   2   2   2
#     4   9  21  41  69  91 131 178 219 255 342 403
#     4  11  24  45  72 107 143 179 237 273 359 407
#     4  10  24  42  63  94 128 165 230 273 328 398
#     4  12  28  40  64  95 131 168 223 286 333 376
#     4  10  20  42  66  90 126 176 218 264 322 413
#     4  11  26  40  61  90 129 171 219 272 335 388
#     4  11  23  45  73 106 140 184 226 290 333 433
#     4  10  24  43  66  97 134 177 218 275 334 406
#
# _framework density 21.336781999999999
#
# number of rings (size 3 to 8) (size 9 to 14) (size 15 to 20)
#    0.000    1.500    2.500    0.750    7.000    3.000 
#    2.250    0.000    0.000    0.000    0.000    0.000 
#    0.000    0.000    0.000    0.000    0.000    0.000 
#
# Total GULP energy -89235.834064 kJ/mol
# GULP energy per Si atom -5577.239629 kJ/mol
# Density = 2.128822 g / cm^3
# Si number density = 21.336782 Si / 1000 Ang^3
#
#
#
# Elastic Constant Matrix: (Units=GPa)
#
#
# Indices 1 2 3 4 5 6 
#
# 1 77.7840 47.6928 36.0499 0.0000 -5.1246 0.0000
# 2 47.6928 89.6350 29.2277 0.0000 -0.5990 0.0000
# 3 36.0499 29.2277 106.3809 0.0000 -13.4283 0.0000
# 4 0.0000 0.0000 0.0000 24.2284 0.0000 15.4542
# 5 -5.1246 -0.5990 -13.4283 0.0000 25.9545 0.0000
# 6 0.0000 0.0000 0.0000 15.4542 0.0000 20.1025
#
#
#
# Elastic Compliance Matrix: (Units=1/GPa)
#
#
# Indices 1 2 3 4 5 6 
#
# 1 0.020876 -0.009732 -0.004181 0.000000 0.001734 0.000000
# 2 -0.009732 0.016851 -0.001632 0.000000 -0.002377 0.000000
# 3 -0.004181 -0.001632 0.011936 0.000000 0.005312 0.000000
# 4 0.000000 0.000000 0.000000 0.080987 0.000000 -0.062260
# 5 0.001734 -0.002377 0.005312 0.000000 0.041565 0.000000
# 6 0.000000 0.000000 0.000000 -0.062260 0.000000 0.097609
#
#
# Mechanical properties :
#
#
# Convention : Reuss Voigt Hill
#
# Bulk Modulus (GPa) = 53.84595 55.52674 54.68635
# Shear Modulus (GPa) = 16.28109 24.77906 20.53007
#
# Velocity S-wave (km/s) = 2.76534 3.41153 3.10529
# Velocity P-wave (km/s) = 5.95711 6.44969 6.20828
#
# Compressibility (1/GPa) = 0.01857150
#
# Stress axis : x y z
#
# Youngs Moduli (GPa) = 47.90268 59.34392 83.78003
#
# Poissons Ratio (x) = 0.57756 0.35032
# Poissons Ratio (y) = 0.46621 0.13670
# Poissons Ratio (z) = 0.20030 0.09683
#
# Static dielectric constant tensor:
#      x y z
#    x 1.781680 0.000000 -0.038600 
#    y 0.000000 1.839730 0.000000 
#    z -0.038600 0.000000 1.799230 
# 
# From -- ./inp_files/3721.got.cif
#   From: 2010.05.17/outbox.cif.g08.bks.cpg/sg4_2_cif.got.tgz:3721.got - 2010.06.03 18:43:04.
