data_PCOD9115759
_publ_section_title
;
Structure prediction by ZEFSAII (Michael W. Deem and Ramdas Pophale) SiO2 
 PCOD9115759
Probable space group: P 21
;
_chemical_formula_sum "Si O2"
_cell_formula_units_Z 16
_cell_length_a 5.083609
_cell_length_b 21.964857
_cell_length_c 4.982193
_cell_angle_alpha 90.000000
_cell_angle_beta 95.986255
_cell_angle_gamma 90.000000
_cell_volume 553.281761
_symmetry_space_group_name_H-M "P 21"
_symmetry_group_IT_number 4
_symmetry_cell_setting 'monoclinic'
loop_
_space_group_symop_operation_xyz
x,y,z
-x,1/2+y,-z
loop_
_atom_site_type_symbol
_atom_site_label
_atom_site_fract_x
_atom_site_fract_y
_atom_site_fract_z
Si Si1 0.101479 0.875000 0.886717
Si Si2 0.856943 0.176213 0.072251
Si Si3 0.725020 0.608564 0.616918
Si Si4 0.882035 0.501424 0.351109
Si Si5 0.252199 0.443991 0.796442
Si Si6 0.361750 0.232838 0.300707
Si Si7 0.381715 0.566956 0.109929
Si Si8 0.587055 0.347872 0.575074
O O1 0.282422 0.841308 0.121054
O O2 0.824480 0.890126 0.002347
O O3 0.190404 0.944871 0.838014
O O4 0.169119 0.847427 0.607121
O O5 0.972079 0.116249 0.253437
O O6 0.110689 0.221039 0.078261
O O7 0.635781 0.216481 0.188747
O O8 0.735130 0.136953 0.822921
O O9 0.657992 0.555818 0.381257
O O10 0.687436 0.676155 0.505020
O O11 0.572546 0.597581 0.876486
O O12 0.982725 0.470867 0.635515
O O13 0.132236 0.535804 0.263766
O O14 0.386254 0.501957 0.936074
O O15 0.424803 0.411206 0.584812
O O16 0.391952 0.295524 0.456213
#
# Coordination Sequence:
#
# PCOD9115759 Si02
#       8
#     2   2   2   2   2   2   2   2
#     4  12  28  48  79 121 164 212 283 345 424 505
#     4  10  22  46  73 115 156 213 275 350 414 505
#     4   8  21  42  70 115 152 213 267 348 417 504
#     4  10  22  45  74 124 157 209 272 348 428 512
#     4  12  25  48  82 119 173 214 277 353 436 511
#     4  10  25  48  75 111 166 222 284 350 411 505
#     4  10  20  45  80 121 160 216 269 351 438 510
#     4  12  29  52  79 120 166 229 291 347 416 512
#
# _framework density 28.918354000000001
#
# number of rings (size 3 to 8) (size 9 to 14) (size 15 to 20)
#    1.500    0.000    3.750    0.000    3.500    5.000 
#    2.250    0.000    0.000    0.000    0.000    0.000 
#    0.000    0.000    0.000    0.000    0.000    0.000 
#
# Total GULP energy -89171.116692 kJ/mol
# GULP energy per Si atom -5573.194793 kJ/mol
# Density = 2.885253 g / cm^3
# Si number density = 28.918354 Si / 1000 Ang^3
#
#
#
# Elastic Constant Matrix: (Units=GPa)
#
#
# Indices 1 2 3 4 5 6 
#
# 1 139.3404 32.9216 -1.1907 0.0000 -17.1875 0.0000
# 2 32.9216 89.2715 26.2246 0.0000 1.4701 0.0000
# 3 -1.1907 26.2246 102.7366 0.0000 -18.1251 0.0000
# 4 0.0000 0.0000 0.0000 40.2160 0.0000 0.3742
# 5 -17.1875 1.4701 -18.1251 0.0000 40.8330 0.0000
# 6 0.0000 0.0000 0.0000 0.3742 0.0000 45.3685
#
#
#
# Elastic Compliance Matrix: (Units=1/GPa)
#
#
# Indices 1 2 3 4 5 6 
#
# 1 0.008668 -0.003829 0.001894 0.000000 0.004627 0.000000
# 2 -0.003829 0.013948 -0.004316 0.000000 -0.004030 0.000000
# 3 0.001894 -0.004316 0.011962 0.000000 0.006263 0.000000
# 4 0.000000 0.000000 0.000000 0.024868 0.000000 -0.000205
# 5 0.004627 -0.004030 0.006263 0.000000 0.029363 0.000000
# 6 0.000000 0.000000 0.000000 -0.000205 0.000000 0.022043
#
#
# Mechanical properties :
#
#
# Convention : Reuss Voigt Hill
#
# Bulk Modulus (GPa) = 45.29597 49.69551 47.49574
# Shear Modulus (GPa) = 38.25172 43.50969 40.88071
#
# Velocity S-wave (km/s) = 3.64091 3.88309 3.76395
# Velocity P-wave (km/s) = 5.77688 6.10955 5.94554
#
# Compressibility (1/GPa) = 0.02207702
#
# Stress axis : x y z
#
# Youngs Moduli (GPa) = 115.36130 71.69404 83.59760
#
# Poissons Ratio (x) = 0.27455 -0.15836
# Poissons Ratio (y) = 0.44177 0.36078
# Poissons Ratio (z) = -0.21854 0.30941
#
# Static dielectric constant tensor:
#      x y z
#    x 2.536150 0.000000 0.238850 
#    y 0.000000 2.282950 0.000000 
#    z 0.238850 0.000000 2.381830 
# 
# From -- ./inp_files/794.got.cif
#   From: 2010.05.17/outbox.cif.g08.bks.cpg/sg4_1_cif.got.tgz:794.got - 2010.06.03 18:43:04.
