data_PCOD9115517
_publ_section_title
;
Structure prediction by ZEFSAII (Michael W. Deem and Ramdas Pophale) SiO2 
 PCOD9115517
Probable space group: P 21
;
_chemical_formula_sum "Si O2"
_cell_formula_units_Z 16
_cell_length_a 18.866688
_cell_length_b 7.766428
_cell_length_c 6.836476
_cell_angle_alpha 90.000000
_cell_angle_beta 142.419712
_cell_angle_gamma 90.000000
_cell_volume 610.925661
_symmetry_space_group_name_H-M "P 21"
_symmetry_group_IT_number 4
_symmetry_cell_setting 'monoclinic'
loop_
_space_group_symop_operation_xyz
x,y,z
-x,1/2+y,-z
loop_
_atom_site_type_symbol
_atom_site_label
_atom_site_fract_x
_atom_site_fract_y
_atom_site_fract_z
Si Si1 0.894477 0.145610 0.970984
Si Si2 0.700414 0.584592 0.548961
Si Si3 0.138639 0.273378 0.621712
Si Si4 0.179978 0.649410 0.729502
Si Si5 0.354501 0.735499 0.617445
Si Si6 0.674754 0.485115 0.037605
Si Si7 0.453123 0.384492 0.667392
Si Si8 0.932825 0.760245 0.092066
O O1 0.852223 0.156485 0.108343
O O2 0.023537 0.228902 0.241342
O O3 0.907706 0.945313 0.945796
O O4 0.780640 0.220344 0.615762
O O5 0.654580 0.405926 0.536725
O O6 0.666551 0.565146 0.244577
O O7 0.646820 0.741453 0.554253
O O8 0.837539 0.616304 0.838675
O O9 0.207259 0.451257 0.733750
O O10 0.082908 0.296667 0.711985
O O11 0.227264 0.114441 0.827440
O O12 0.272433 0.796173 0.885609
O O13 0.061973 0.693743 0.356308
O O14 0.390172 0.552845 0.612033
O O15 0.454383 0.784052 0.990872
O O16 0.538066 0.461489 0.686787
#
# Coordination Sequence:
#
# PCOD9115517 Si02
#       8
#     2   2   2   2   2   2   2   2
#     4  10  20  39  73  97 126 175 216 264 335 401
#     4  11  24  41  67  93 126 179 216 268 319 392
#     4  10  22  41  68  99 134 170 210 273 335 389
#     4  10  22  41  65 100 137 165 210 275 328 395
#     4  11  21  39  67  90 120 174 221 261 322 395
#     4  11  24  41  63  97 131 168 221 275 319 387
#     4  11  23  42  63  89 126 173 221 269 324 381
#     4  10  20  42  70  97 132 176 215 259 334 404
#
# _framework density 26.189765000000001
#
# number of rings (size 3 to 8) (size 9 to 14) (size 15 to 20)
#    0.000    1.500    5.000    0.750    3.500    3.000 
#    6.750    1.250    0.000    0.000    0.000    0.000 
#    0.000    0.000    0.000    0.000    0.000    0.000 
#
# Total GULP energy -89356.231006 kJ/mol
# GULP energy per Si atom -5584.764438 kJ/mol
# Density = 2.613016 g / cm^3
# Si number density = 26.189765 Si / 1000 Ang^3
#
#
#
# Elastic Constant Matrix: (Units=GPa)
#
#
# Indices 1 2 3 4 5 6 
#
# 1 89.8711 34.7799 30.8743 0.0000 20.0372 0.0000
# 2 34.7799 170.1978 30.0602 0.0000 19.3854 0.0000
# 3 30.8743 30.0602 99.0513 0.0000 33.1626 0.0000
# 4 0.0000 0.0000 0.0000 38.2108 0.0000 9.0665
# 5 20.0372 19.3854 33.1626 0.0000 41.6477 0.0000
# 6 0.0000 0.0000 0.0000 9.0665 0.0000 26.5212
#
#
#
# Elastic Compliance Matrix: (Units=1/GPa)
#
#
# Indices 1 2 3 4 5 6 
#
# 1 0.013517 -0.001918 -0.002390 0.000000 -0.003707 0.000000
# 2 -0.001918 0.006592 -0.000933 0.000000 -0.001403 0.000000
# 3 -0.002390 -0.000933 0.014444 0.000000 -0.009917 0.000000
# 4 0.000000 0.000000 0.000000 0.028481 0.000000 -0.009736
# 5 -0.003707 -0.001403 -0.009917 0.000000 0.034344 0.000000
# 6 0.000000 0.000000 0.000000 -0.009736 0.000000 0.041034
#
#
# Mechanical properties :
#
#
# Convention : Reuss Voigt Hill
#
# Bulk Modulus (GPa) = 41.54330 61.17211 51.35770
# Shear Modulus (GPa) = 31.86381 38.83633 35.35007
#
# Velocity S-wave (km/s) = 3.49184 3.85500 3.67790
# Velocity P-wave (km/s) = 5.67046 6.57439 6.13909
#
# Compressibility (1/GPa) = 0.02407127
#
# Stress axis : x y z
#
# Youngs Moduli (GPa) = 73.98173 151.69931 69.23175
#
# Poissons Ratio (x) = 0.29093 0.16546
# Poissons Ratio (y) = 0.14188 0.06461
# Poissons Ratio (z) = 0.17681 0.14156
#
# Static dielectric constant tensor:
#      x y z
#    x 2.200530 0.000000 -0.083560 
#    y 0.000000 2.050440 0.000000 
#    z -0.083560 0.000000 2.092210 
# 
# From -- ./inp_files/9930.got.cif
#   From: 2010.05.17/outbox.cif.g08.bks.cpg/sg4_5_cif.got.tgz:9930.got - 2010.06.03 18:43:04.
