data_PCOD9115428
_publ_section_title
;
Structure prediction by ZEFSAII (Michael W. Deem and Ramdas Pophale) SiO2 
 PCOD9115428
Probable space group: P 21
;
_chemical_formula_sum "Si O2"
_cell_formula_units_Z 14
_cell_length_a 13.827654
_cell_length_b 5.047603
_cell_length_c 22.824635
_cell_angle_alpha 90.000000
_cell_angle_beta 21.053988
_cell_angle_gamma 90.000000
_cell_volume 572.309899
_symmetry_space_group_name_H-M "P 21"
_symmetry_group_IT_number 4
_symmetry_cell_setting 'monoclinic'
loop_
_space_group_symop_operation_xyz
x,y,z
-x,1/2+y,-z
loop_
_atom_site_type_symbol
_atom_site_label
_atom_site_fract_x
_atom_site_fract_y
_atom_site_fract_z
Si Si1 0.855918 0.742590 0.604412
Si Si2 0.628873 0.923790 0.175737
Si Si3 0.399310 0.163132 0.132659
Si Si4 0.738964 0.662793 0.926043
Si Si5 0.429232 0.158348 0.672823
Si Si6 0.337922 0.789713 0.574201
Si Si7 0.900205 0.138866 0.129138
O O1 0.580381 0.621971 0.734088
O O2 0.818958 0.728886 0.694856
O O3 0.077076 0.536419 0.454913
O O4 0.502359 0.746989 0.299751
O O5 0.849941 0.091524 0.087587
O O6 0.798238 0.742124 0.035875
O O7 0.289662 0.179124 0.128617
O O8 0.642665 0.373703 0.999308
O O9 0.524316 0.874059 0.070966
O O10 0.045624 0.737126 0.766370
O O11 0.659397 0.216861 0.496128
O O12 0.186674 0.362458 0.793645
O O13 0.317053 0.863551 0.732229
O O14 0.559358 0.587210 0.474931
#
# Coordination Sequence:
#
# PCOD9115428 Si02
#       7
#     2   2   2   2   2   2   2
#     4  12  29  43  67 105 138 173 221 282 340 397
#     4  10  23  41  66  95 133 172 226 255 346 400
#     4  10  23  47  73  95 128 181 233 279 321 397
#     4  10  23  46  72  95 130 184 231 269 336 390
#     4  10  22  39  63  95 130 174 204 275 336 392
#     4  12  26  42  63 104 135 167 224 278 342 389
#     4  10  20  38  66  95 122 177 215 256 325 409
#
# _framework density 24.462273
#
# number of rings (size 3 to 8) (size 9 to 14) (size 15 to 20)
#    0.857    0.571    1.429    2.571    4.000    3.429 
#    0.000    0.000    0.000    0.000    0.000    0.000 
#    0.000    0.000    0.000    0.000    0.000    0.000 
#
# Total GULP energy -78376.791309 kJ/mol
# GULP energy per Si atom -5598.342236 kJ/mol
# Density = 2.440660 g / cm^3
# Si number density = 24.462273 Si / 1000 Ang^3
#
#
#
# Elastic Constant Matrix: (Units=GPa)
#
#
# Indices 1 2 3 4 5 6 
#
# 1 66.0116 5.0616 2.1630 0.0000 6.7893 0.0000
# 2 5.0616 78.2389 -17.8711 0.0000 2.7588 0.0000
# 3 2.1630 -17.8711 65.4070 0.0000 12.6238 0.0000
# 4 0.0000 0.0000 0.0000 38.4746 0.0000 3.2909
# 5 6.7893 2.7588 12.6238 0.0000 49.2326 0.0000
# 6 0.0000 0.0000 0.0000 3.2909 0.0000 30.4624
#
#
#
# Elastic Compliance Matrix: (Units=1/GPa)
#
#
# Indices 1 2 3 4 5 6 
#
# 1 0.015443 -0.001024 -0.000411 0.000000 -0.001967 0.000000
# 2 -0.001024 0.013855 0.004147 0.000000 -0.001699 0.000000
# 3 -0.000411 0.004147 0.017327 0.000000 -0.004619 0.000000
# 4 0.000000 0.000000 0.000000 0.026234 0.000000 -0.002834
# 5 -0.001967 -0.001699 -0.004619 0.000000 0.021862 0.000000
# 6 0.000000 0.000000 0.000000 -0.002834 0.000000 0.033134
#
#
# Mechanical properties :
#
#
# Convention : Reuss Voigt Hill
#
# Bulk Modulus (GPa) = 19.21199 20.92938 20.07069
# Shear Modulus (GPa) = 35.77080 38.32084 37.04582
#
# Velocity S-wave (km/s) = 3.82813 3.96223 3.89576
# Velocity P-wave (km/s) = 5.23548 5.43201 5.33465
#
# Compressibility (1/GPa) = 0.05205082
#
# Stress axis : x y z
#
# Youngs Moduli (GPa) = 64.75384 72.17724 57.71335
#
# Poissons Ratio (x) = 0.07388 0.02370
# Poissons Ratio (y) = 0.06628 -0.23935
# Poissons Ratio (z) = 0.02660 -0.29934
#
# Static dielectric constant tensor:
#      x y z
#    x 2.010620 0.000000 0.023860 
#    y 0.000000 1.862350 0.000000 
#    z 0.023860 0.000000 1.951980 
# 
# From -- ./inp_files/16125.got.cif
#   From: 2010.05.17/outbox.cif.g08.bks.cpg/sg4_9_cif.got.tgz:16125.got - 2010.06.03 18:43:04.
