data_PCOD9115988
_publ_section_title
;
Structure prediction by ZEFSAII (Michael W. Deem and Ramdas Pophale) SiO2 
 PCOD9115988
Probable space group: P 21
;
_chemical_formula_sum "Si O2"
_cell_formula_units_Z 14
_cell_length_a 11.057951
_cell_length_b 9.434574
_cell_length_c 6.394441
_cell_angle_alpha 90.000000
_cell_angle_beta 68.853377
_cell_angle_gamma 90.000000
_cell_volume 622.189999
_symmetry_space_group_name_H-M "P 21"
_symmetry_group_IT_number 4
_symmetry_cell_setting 'monoclinic'
loop_
_space_group_symop_operation_xyz
x,y,z
-x,1/2+y,-z
loop_
_atom_site_type_symbol
_atom_site_label
_atom_site_fract_x
_atom_site_fract_y
_atom_site_fract_z
Si Si1 0.469510 0.654930 0.396460
Si Si2 0.660574 0.899333 0.287185
Si Si3 0.979419 0.833358 0.803961
Si Si4 0.098434 0.058609 0.995774
Si Si5 0.699338 0.093934 0.878194
Si Si6 0.104002 0.461746 0.546895
Si Si7 0.258185 0.812902 0.783602
O O1 0.601179 0.742977 0.329651
O O2 0.442980 0.514402 0.550723
O O3 0.426142 0.616324 0.188752
O O4 0.366410 0.768820 0.553694
O O5 0.785726 0.918059 0.356894
O O6 0.687016 0.957081 0.036707
O O7 0.891572 0.725989 0.991145
O O8 0.936806 0.840748 0.592636
O O9 0.121744 0.769657 0.762683
O O10 0.001501 0.992377 0.880484
O O11 0.026392 0.008919 0.253601
O O12 0.230588 0.974345 0.867663
O O13 0.820002 0.073006 0.647602
O O14 0.719127 0.223906 0.021700
#
# Coordination Sequence:
#
# PCOD9115988 Si02
#       7
#     2   2   2   2   2   2   2
#     4  10  22  45  69  88 126 166 212 268 323 367
#     4  10  23  44  66  95 121 166 216 265 313 388
#     4  10  21  39  60  95 129 169 209 256 312 373
#     4  10  23  37  63  93 132 163 217 256 303 385
#     4  10  21  41  67  91 127 170 212 256 326 374
#     4  11  22  38  67  90 131 172 204 255 328 369
#     4   9  22  38  64  94 126 166 214 256 309 380
#
# _framework density 22.501166000000001
#
# number of rings (size 3 to 8) (size 9 to 14) (size 15 to 20)
#    0.857    1.143    0.000    4.286    4.000    4.571 
#    7.714    0.000    0.000    0.000    0.000    0.000 
#    0.000    0.000    0.000    0.000    0.000    0.000 
#
# Total GULP energy -78104.229706 kJ/mol
# GULP energy per Si atom -5578.873550 kJ/mol
# Density = 2.244995 g / cm^3
# Si number density = 22.501166 Si / 1000 Ang^3
#
#
#
# Elastic Constant Matrix: (Units=GPa)
#
#
# Indices 1 2 3 4 5 6 
#
# 1 42.5901 25.4499 29.0654 0.0000 12.1905 0.0000
# 2 25.4499 103.6097 33.9741 0.0000 7.9469 0.0000
# 3 29.0654 33.9741 105.5241 0.0000 22.7036 0.0000
# 4 0.0000 0.0000 0.0000 34.7566 0.0000 -7.6110
# 5 12.1905 7.9469 22.7036 0.0000 23.1749 0.0000
# 6 0.0000 0.0000 0.0000 -7.6110 0.0000 33.2612
#
#
#
# Elastic Compliance Matrix: (Units=1/GPa)
#
#
# Indices 1 2 3 4 5 6 
#
# 1 0.033407 -0.005728 -0.005067 0.000000 -0.010644 0.000000
# 2 -0.005728 0.011775 -0.002525 0.000000 0.001449 0.000000
# 3 -0.005067 -0.002525 0.013843 0.000000 -0.010030 0.000000
# 4 0.000000 0.000000 0.000000 0.030289 0.000000 0.006931
# 5 -0.010644 0.001449 -0.010030 0.000000 0.058079 0.000000
# 6 0.000000 0.000000 0.000000 0.006931 0.000000 0.031651
#
#
# Mechanical properties :
#
#
# Convention : Reuss Voigt Hill
#
# Bulk Modulus (GPa) = 30.87839 47.63364 39.25602
# Shear Modulus (GPa) = 23.09669 29.12084 26.10877
#
# Velocity S-wave (km/s) = 3.20733 3.60139 3.41006
# Velocity P-wave (km/s) = 5.24106 6.20554 5.74358
#
# Compressibility (1/GPa) = 0.03238510
#
# Stress axis : x y z
#
# Youngs Moduli (GPa) = 29.93356 84.92236 72.23701
#
# Poissons Ratio (x) = 0.48643 0.36605
# Poissons Ratio (y) = 0.17146 0.18242
# Poissons Ratio (z) = 0.15168 0.21445
#
# Static dielectric constant tensor:
#      x y z
#    x 1.865190 0.000000 -0.053830 
#    y 0.000000 1.909340 0.000000 
#    z -0.053830 0.000000 1.828880 
# 
# From -- ./inp_files/2700.got.cif
#   From: 2010.05.17/outbox.cif.g08.bks.cpg/sg4_2_cif.got.tgz:2700.got - 2010.06.03 18:43:04.
