data_PCOD9115505
_publ_section_title
;
Structure prediction by ZEFSAII (Michael W. Deem and Ramdas Pophale) SiO2 
 PCOD9115505
Probable space group: P 21
;
_chemical_formula_sum "Si O2"
_cell_formula_units_Z 16
_cell_length_a 17.417716
_cell_length_b 8.349936
_cell_length_c 14.004802
_cell_angle_alpha 90.000000
_cell_angle_beta 20.408348
_cell_angle_gamma 90.000000
_cell_volume 710.254494
_symmetry_space_group_name_H-M "P 21"
_symmetry_group_IT_number 4
_symmetry_cell_setting 'monoclinic'
loop_
_space_group_symop_operation_xyz
x,y,z
-x,1/2+y,-z
loop_
_atom_site_type_symbol
_atom_site_label
_atom_site_fract_x
_atom_site_fract_y
_atom_site_fract_z
Si Si1 0.438439 0.898200 0.712563
Si Si2 0.578937 0.457113 0.787352
Si Si3 0.256113 0.187422 0.249357
Si Si4 0.586009 0.868758 0.206597
Si Si5 0.031056 0.708772 0.685771
Si Si6 0.802184 0.111450 0.316009
Si Si7 0.910488 0.438775 0.711761
Si Si8 0.636383 0.085140 0.322543
O O1 0.421122 0.737233 0.673004
O O2 0.674643 0.943847 0.483713
O O3 0.444941 0.031741 0.619653
O O4 0.256571 0.907561 0.005908
O O5 0.625807 0.610158 0.796600
O O6 0.483940 0.494495 0.792918
O O7 0.805440 0.357137 0.513817
O O8 0.410909 0.326440 0.026553
O O9 0.206466 0.037856 0.236701
O O10 0.028259 0.277603 0.540310
O O11 0.377536 0.753588 0.462631
O O12 0.661947 0.945442 0.216639
O O13 0.791699 0.765476 0.932248
O O14 0.029904 0.646674 0.796083
O O15 0.091031 0.560963 0.547149
O O16 0.843163 0.108226 0.154197
#
# Coordination Sequence:
#
# PCOD9115505 Si02
#       8
#     2   2   2   2   2   2   2   2
#     4  10  21  40  69  99 139 184 238 284 361 421
#     4  11  26  45  70 102 139 187 244 303 360 435
#     4  12  27  47  71 108 141 191 251 302 370 429
#     4  11  21  42  69  96 140 183 226 294 357 424
#     4  11  21  43  70  95 143 182 237 294 361 418
#     4   9  19  40  62  98 131 184 223 282 344 426
#     4  12  25  44  73 104 144 190 240 307 360 429
#     4  10  20  39  68 100 139 187 227 284 361 432
#
# _framework density 22.527135999999999
#
# number of rings (size 3 to 8) (size 9 to 14) (size 15 to 20)
#    0.750    0.500    3.750    2.250    1.750    2.000 
#    2.250    1.250    0.000    0.000    0.000    0.000 
#    0.000    0.000    0.000    0.000    0.000    0.000 
#
# Total GULP energy -89261.943208 kJ/mol
# GULP energy per Si atom -5578.871451 kJ/mol
# Density = 2.247586 g / cm^3
# Si number density = 22.527136 Si / 1000 Ang^3
#
#
#
# Elastic Constant Matrix: (Units=GPa)
#
#
# Indices 1 2 3 4 5 6 
#
# 1 110.8451 13.7663 17.0520 0.0000 3.1006 0.0000
# 2 13.7663 49.4549 15.9032 0.0000 9.1085 0.0000
# 3 17.0520 15.9032 44.1220 0.0000 16.5325 0.0000
# 4 0.0000 0.0000 0.0000 24.2148 0.0000 1.0893
# 5 3.1006 9.1085 16.5325 0.0000 27.9890 0.0000
# 6 0.0000 0.0000 0.0000 1.0893 0.0000 49.9051
#
#
#
# Elastic Compliance Matrix: (Units=1/GPa)
#
#
# Indices 1 2 3 4 5 6 
#
# 1 0.009781 -0.001830 -0.003772 0.000000 0.001740 0.000000
# 2 -0.001830 0.023454 -0.006373 0.000000 -0.003666 0.000000
# 3 -0.003772 -0.006373 0.032730 0.000000 -0.016841 0.000000
# 4 0.000000 0.000000 0.000000 0.041338 0.000000 -0.000902
# 5 0.001740 -0.003666 -0.016841 0.000000 0.046676 0.000000
# 6 0.000000 0.000000 0.000000 -0.000902 0.000000 0.020058
#
#
# Mechanical properties :
#
#
# Convention : Reuss Voigt Hill
#
# Bulk Modulus (GPa) = 23.80179 33.09612 28.44895
# Shear Modulus (GPa) = 23.58584 30.93513 27.26048
#
# Velocity S-wave (km/s) = 3.23924 3.70974 3.48245
# Velocity P-wave (km/s) = 4.95772 5.75093 5.36899
#
# Compressibility (1/GPa) = 0.04201365
#
# Stress axis : x y z
#
# Youngs Moduli (GPa) = 102.24410 42.63603 30.55324
#
# Poissons Ratio (x) = 0.07802 0.11526
# Poissons Ratio (y) = 0.18710 0.19472
# Poissons Ratio (z) = 0.38571 0.27172
#
# Static dielectric constant tensor:
#      x y z
#    x 1.873360 0.000000 -0.001390 
#    y 0.000000 1.861800 0.000000 
#    z -0.001390 0.000000 1.844700 
# 
# From -- ./inp_files/14302.got.cif
#   From: 2010.05.17/outbox.cif.g08.bks.cpg/sg4_8_cif.got.tgz:14302.got - 2010.06.03 18:43:04.
