data_PCOD9115254
_publ_section_title
;
Structure prediction by ZEFSAII (Michael W. Deem and Ramdas Pophale) SiO2 
 PCOD9115254
Probable space group: P 21
;
_chemical_formula_sum "Si O2"
_cell_formula_units_Z 10
_cell_length_a 12.968450
_cell_length_b 6.588268
_cell_length_c 5.179897
_cell_angle_alpha 90.000000
_cell_angle_beta 106.366605
_cell_angle_gamma 90.000000
_cell_volume 424.634860
_symmetry_space_group_name_H-M "P 21"
_symmetry_group_IT_number 4
_symmetry_cell_setting 'monoclinic'
loop_
_space_group_symop_operation_xyz
x,y,z
-x,1/2+y,-z
loop_
_atom_site_type_symbol
_atom_site_label
_atom_site_fract_x
_atom_site_fract_y
_atom_site_fract_z
Si Si1 0.378791 0.062110 0.678074
Si Si2 0.076303 0.685453 0.328203
Si Si3 0.150918 0.062421 0.642255
Si Si4 0.404583 0.791603 0.202043
Si Si5 0.192300 0.642364 0.911068
O O1 0.262717 0.164536 0.643974
O O2 0.476537 0.206121 0.673870
O O3 0.366802 0.899905 0.438121
O O4 0.409310 0.945045 0.963340
O O5 0.952099 0.670300 0.313814
O O6 0.145654 0.576813 0.603544
O O7 0.109649 0.921367 0.377133
O O8 0.113257 0.589111 0.087427
O O9 0.183675 0.887616 0.870443
O O10 0.317118 0.616582 0.067862
#
# Coordination Sequence:
#
# PCOD9115254 Si02
#       5
#     2   2   2   2   2
#     4  11  23  41  64  89 125 160 203 253 301 362
#     4  10  20  36  61  82 116 156 187 241 292 353
#     4   9  22  38  60  83 122 149 196 240 299 344
#     4  11  21  43  63  87 124 163 200 255 304 352
#     4   9  20  36  58  79 119 152 188 237 296 339
#
# _framework density 23.549645999999999
#
# number of rings (size 3 to 8) (size 9 to 14) (size 15 to 20)
#    1.200    0.800    2.000    1.200    2.800    0.000 
#    7.200    0.000    0.000    0.000    0.000    0.000 
#    0.000    0.000    0.000    0.000    0.000    0.000 
#
# Total GULP energy -55777.984540 kJ/mol
# GULP energy per Si atom -5577.798454 kJ/mol
# Density = 2.349605 g / cm^3
# Si number density = 23.549646 Si / 1000 Ang^3
#
#
#
# Elastic Constant Matrix: (Units=GPa)
#
#
# Indices 1 2 3 4 5 6 
#
# 1 198.0885 22.0359 10.3120 0.0000 4.5104 0.0000
# 2 22.0359 21.9920 -7.1969 0.0000 4.2173 0.0000
# 3 10.3120 -7.1969 88.1713 0.0000 -8.9271 0.0000
# 4 0.0000 0.0000 0.0000 11.6298 0.0000 -1.5883
# 5 4.5104 4.2173 -8.9271 0.0000 32.0517 0.0000
# 6 0.0000 0.0000 0.0000 -1.5883 0.0000 39.0673
#
#
#
# Elastic Compliance Matrix: (Units=1/GPa)
#
#
# Indices 1 2 3 4 5 6 
#
# 1 0.005803 -0.006146 -0.001215 0.000000 -0.000346 0.000000
# 2 -0.006146 0.054097 0.004632 0.000000 -0.004963 0.000000
# 3 -0.001215 0.004632 0.012160 0.000000 0.002949 0.000000
# 4 0.000000 0.000000 0.000000 0.086466 0.000000 0.003515
# 5 -0.000346 -0.004963 0.002949 0.000000 0.032723 0.000000
# 6 0.000000 0.000000 0.000000 0.003515 0.000000 0.025740
#
#
# Mechanical properties :
#
#
# Convention : Reuss Voigt Hill
#
# Bulk Modulus (GPa) = 15.01472 39.83932 27.42702
# Shear Modulus (GPa) = 20.43748 35.42314 27.93031
#
# Velocity S-wave (km/s) = 2.94912 3.88260 3.44760
# Velocity P-wave (km/s) = 4.24099 6.08714 5.24592
#
# Compressibility (1/GPa) = 0.06660129
#
# Stress axis : x y z
#
# Youngs Moduli (GPa) = 172.32139 18.48533 82.23470
#
# Poissons Ratio (x) = 0.11361 0.09995
# Poissons Ratio (y) = 1.05909 -0.38090
# Poissons Ratio (z) = 0.20945 -0.08562
#
# Static dielectric constant tensor:
#      x y z
#    x 1.913080 0.000000 0.037700 
#    y 0.000000 1.957460 0.000000 
#    z 0.037700 0.000000 1.869030 
# 
# From -- ./inp_files/2535.got.cif
#   From: 2010.05.17/outbox.cif.g08.bks.cpg/sg4_2_cif.got.tgz:2535.got - 2010.06.03 18:43:04.
