data_PCOD9115074
_publ_section_title
;
Structure prediction by ZEFSAII (Michael W. Deem and Ramdas Pophale) SiO2 
 PCOD9115074
Probable space group: P 21
;
_chemical_formula_sum "Si O2"
_cell_formula_units_Z 14
_cell_length_a 7.272460
_cell_length_b 11.576079
_cell_length_c 7.060804
_cell_angle_alpha 90.000000
_cell_angle_beta 100.236617
_cell_angle_gamma 90.000000
_cell_volume 584.962965
_symmetry_space_group_name_H-M "P 21"
_symmetry_group_IT_number 4
_symmetry_cell_setting 'monoclinic'
loop_
_space_group_symop_operation_xyz
x,y,z
-x,1/2+y,-z
loop_
_atom_site_type_symbol
_atom_site_label
_atom_site_fract_x
_atom_site_fract_y
_atom_site_fract_z
Si Si1 0.148060 0.319410 0.210164
Si Si2 0.264595 0.720072 0.435877
Si Si3 0.009461 0.518544 0.462545
Si Si4 0.366045 0.112893 0.442572
Si Si5 0.271820 0.930529 0.154317
Si Si6 0.852144 0.997267 0.086749
Si Si7 0.258453 0.737500 0.882971
O O1 0.067068 0.413453 0.341753
O O2 0.282058 0.230618 0.340121
O O3 0.964034 0.249433 0.119813
O O4 0.224290 0.387621 0.042276
O O5 0.090546 0.635332 0.387694
O O6 0.449220 0.648708 0.414442
O O7 0.764639 0.334441 0.689318
O O8 0.289343 0.744083 0.664514
O O9 0.116314 0.496063 0.681179
O O10 0.794176 0.547749 0.467237
O O11 0.402790 0.026052 0.273463
O O12 0.074885 0.992740 0.065217
O O13 0.344287 0.848887 0.000310
O O14 0.719952 0.108519 0.031454
#
# Coordination Sequence:
#
# PCOD9115074 Si02
#       7
#     2   2   2   2   2   2   2
#     4  11  20  40  64  91 123 164 208 258 317 368
#     4  11  23  42  63  90 132 162 208 264 307 374
#     4  10  22  42  63  90 124 165 209 258 317 368
#     4  11  24  41  63  98 125 163 217 257 308 386
#     4  10  21  40  62  93 130 160 209 265 308 373
#     4   9  19  36  65  90 116 164 210 252 313 369
#     4  10  19  41  64  88 126 168 205 264 316 364
#
# _framework density 23.933138
#
# number of rings (size 3 to 8) (size 9 to 14) (size 15 to 20)
#    0.000    1.714    4.286    2.571    2.000    0.000 
#    5.143    5.714    0.000    0.000    0.000    0.000 
#    0.000    0.000    0.000    0.000    0.000    0.000 
#
# Total GULP energy -78191.893107 kJ/mol
# GULP energy per Si atom -5585.135222 kJ/mol
# Density = 2.387867 g / cm^3
# Si number density = 23.933138 Si / 1000 Ang^3
#
#
#
# Elastic Constant Matrix: (Units=GPa)
#
#
# Indices 1 2 3 4 5 6 
#
# 1 79.4809 20.9494 10.6382 0.0000 -5.3518 0.0000
# 2 20.9494 113.8117 39.0840 0.0000 -13.9662 0.0000
# 3 10.6382 39.0840 84.2950 0.0000 -7.1558 0.0000
# 4 0.0000 0.0000 0.0000 33.0846 0.0000 -1.7941
# 5 -5.3518 -13.9662 -7.1558 0.0000 12.9627 0.0000
# 6 0.0000 0.0000 0.0000 -1.7941 0.0000 1.8674
#
#
#
# Elastic Compliance Matrix: (Units=1/GPa)
#
#
# Indices 1 2 3 4 5 6 
#
# 1 0.013365 -0.001882 -0.000543 0.000000 0.003190 0.000000
# 2 -0.001882 0.011824 -0.004437 0.000000 0.009513 0.000000
# 3 -0.000543 -0.004437 0.014231 0.000000 0.002851 0.000000
# 4 0.000000 0.000000 0.000000 0.031887 0.000000 0.030636
# 5 0.003190 0.009513 0.002851 0.000000 0.090285 0.000000
# 6 0.000000 0.000000 0.000000 0.030636 0.000000 0.564947
#
#
# Mechanical properties :
#
#
# Convention : Reuss Voigt Hill
#
# Bulk Modulus (GPa) = 38.91783 46.54786 42.73284
# Shear Modulus (GPa) = 6.67709 23.37733 15.02721
#
# Velocity S-wave (km/s) = 1.67211 3.12873 2.50848
# Velocity P-wave (km/s) = 4.47485 5.70467 5.12677
#
# Compressibility (1/GPa) = 0.02569516
#
# Stress axis : x y z
#
# Youngs Moduli (GPa) = 74.82089 84.57355 70.26905
#
# Poissons Ratio (x) = 0.15918 0.03817
# Poissons Ratio (y) = 0.14082 0.31180
# Poissons Ratio (z) = 0.04065 0.37527
#
# Static dielectric constant tensor:
#      x y z
#    x 1.945110 0.000000 0.000820 
#    y 0.000000 1.970110 0.000000 
#    z 0.000820 0.000000 1.984800 
# 
# From -- ./inp_files/6110.got.cif
#   From: 2010.05.17/outbox.cif.g08.bks.cpg/sg4_4_cif.got.tgz:6110.got - 2010.06.03 18:43:04.
