data_PCOD9115498
_publ_section_title
;
Structure prediction by ZEFSAII (Michael W. Deem and Ramdas Pophale) SiO2 
 PCOD9115498
Probable space group: P 21
;
_chemical_formula_sum "Si O2"
_cell_formula_units_Z 16
_cell_length_a 13.562468
_cell_length_b 8.564713
_cell_length_c 8.606491
_cell_angle_alpha 90.000000
_cell_angle_beta 42.022612
_cell_angle_gamma 90.000000
_cell_volume 669.235290
_symmetry_space_group_name_H-M "P 21"
_symmetry_group_IT_number 4
_symmetry_cell_setting 'monoclinic'
loop_
_space_group_symop_operation_xyz
x,y,z
-x,1/2+y,-z
loop_
_atom_site_type_symbol
_atom_site_label
_atom_site_fract_x
_atom_site_fract_y
_atom_site_fract_z
Si Si1 0.765904 0.735280 0.274829
Si Si2 0.237210 0.436856 0.993401
Si Si3 0.808388 0.355896 0.826724
Si Si4 0.451114 0.039781 0.289222
Si Si5 0.254733 0.548911 0.520948
Si Si6 0.059073 0.544919 0.471976
Si Si7 0.890897 0.208389 0.040724
Si Si8 0.548966 0.246698 0.927524
O O1 0.741089 0.776024 0.122687
O O2 0.674781 0.586850 0.442355
O O3 0.939820 0.728501 0.108203
O O4 0.706667 0.891889 0.432441
O O5 0.385494 0.542311 0.825213
O O6 0.162839 0.430517 0.248266
O O7 0.121469 0.539245 0.028958
O O8 0.830256 0.330718 0.984719
O O9 0.649952 0.330421 0.939546
O O10 0.888269 0.506947 0.666540
O O11 0.901085 0.213536 0.640197
O O12 0.467401 0.872523 0.187679
O O13 0.428717 0.162358 0.173614
O O14 0.107827 0.524129 0.592033
O O15 0.369085 0.605066 0.257607
O O16 0.215358 0.686820 0.687278
#
# Coordination Sequence:
#
# PCOD9115498 Si02
#       8
#     2   2   2   2   2   2   2   2
#     4  11  25  41  73 102 138 186 229 294 354 423
#     4  10  24  45  67  96 147 180 232 292 345 415
#     4  10  21  39  65 100 133 170 226 284 349 398
#     4  12  25  47  70 102 142 186 243 277 360 420
#     4  10  21  41  67 100 137 177 229 298 342 407
#     4  10  20  39  66  96 134 171 223 281 347 397
#     4  10  21  41  66 102 137 173 224 291 357 405
#     4  11  25  43  70 100 134 193 232 293 336 429
#
# _framework density 23.907883000000002
#
# number of rings (size 3 to 8) (size 9 to 14) (size 15 to 20)
#    0.000    1.500    5.000    0.750    7.000    3.000 
#    0.000    0.000    0.000    0.000    0.000    0.000 
#    0.000    0.000    0.000    0.000    0.000    0.000 
#
# Total GULP energy -89308.107590 kJ/mol
# GULP energy per Si atom -5581.756724 kJ/mol
# Density = 2.385347 g / cm^3
# Si number density = 23.907883 Si / 1000 Ang^3
#
#
#
# Elastic Constant Matrix: (Units=GPa)
#
#
# Indices 1 2 3 4 5 6 
#
# 1 73.5345 7.9225 17.9896 0.0000 13.5375 0.0000
# 2 7.9225 51.2662 9.0191 0.0000 2.6236 0.0000
# 3 17.9896 9.0191 58.6411 0.0000 14.8129 0.0000
# 4 0.0000 0.0000 0.0000 43.0791 0.0000 3.4950
# 5 13.5375 2.6236 14.8129 0.0000 27.3005 0.0000
# 6 0.0000 0.0000 0.0000 3.4950 0.0000 31.9702
#
#
#
# Elastic Compliance Matrix: (Units=1/GPa)
#
#
# Indices 1 2 3 4 5 6 
#
# 1 0.015606 -0.001572 -0.003047 0.000000 -0.005935 0.000000
# 2 -0.001572 0.020209 -0.002703 0.000000 0.000304 0.000000
# 3 -0.003047 -0.002703 0.020808 0.000000 -0.009520 0.000000
# 4 0.000000 0.000000 0.000000 0.023421 0.000000 -0.002560
# 5 -0.005935 0.000304 -0.009520 0.000000 0.044708 0.000000
# 6 0.000000 0.000000 0.000000 -0.002560 0.000000 0.031559
#
#
# Mechanical properties :
#
#
# Convention : Reuss Voigt Hill
#
# Bulk Modulus (GPa) = 23.82078 28.14491 25.98285
# Shear Modulus (GPa) = 27.03474 30.37069 28.70271
#
# Velocity S-wave (km/s) = 3.36637 3.56802 3.46866
# Velocity P-wave (km/s) = 5.00950 5.36397 5.18976
#
# Compressibility (1/GPa) = 0.04198015
#
# Stress axis : x y z
#
# Youngs Moduli (GPa) = 64.07668 49.48320 48.05872
#
# Poissons Ratio (x) = 0.07779 0.14642
# Poissons Ratio (y) = 0.10073 0.12989
# Poissons Ratio (z) = 0.19523 0.13374
#
# Static dielectric constant tensor:
#      x y z
#    x 1.927220 0.000000 0.021220 
#    y 0.000000 1.993780 0.000000 
#    z 0.021220 0.000000 1.897510 
# 
# From -- ./inp_files/9139.got.cif
#   From: 2010.05.17/outbox.cif.g08.bks.cpg/sg4_5_cif.got.tgz:9139.got - 2010.06.03 18:43:04.
