data_PCOD9115650
_publ_section_title
;
Structure prediction by ZEFSAII (Michael W. Deem and Ramdas Pophale) SiO2 
 PCOD9115650
Probable space group: P 21
;
_chemical_formula_sum "Si O2"
_cell_formula_units_Z 16
_cell_length_a 13.277753
_cell_length_b 5.162011
_cell_length_c 15.596558
_cell_angle_alpha 90.000000
_cell_angle_beta 51.397231
_cell_angle_gamma 90.000000
_cell_volume 835.402708
_symmetry_space_group_name_H-M "P 21"
_symmetry_group_IT_number 4
_symmetry_cell_setting 'monoclinic'
loop_
_space_group_symop_operation_xyz
x,y,z
-x,1/2+y,-z
loop_
_atom_site_type_symbol
_atom_site_label
_atom_site_fract_x
_atom_site_fract_y
_atom_site_fract_z
Si Si1 0.581649 0.540920 0.660663
Si Si2 0.128957 0.427087 0.371578
Si Si3 0.681353 0.875491 0.469296
Si Si4 0.418484 0.192723 0.646256
Si Si5 0.425605 0.100646 0.010164
Si Si6 0.524254 0.544811 0.211300
Si Si7 0.076713 0.616678 0.591360
Si Si8 0.191643 0.932055 0.250285
O O1 0.803505 0.648626 0.676577
O O2 0.688677 0.669411 0.543751
O O3 0.471131 0.474008 0.648104
O O4 0.533951 0.759553 0.751028
O O5 0.103600 0.502535 0.482167
O O6 0.205645 0.646999 0.280349
O O7 0.990931 0.388874 0.396589
O O8 0.677179 0.728976 0.381128
O O9 0.795453 0.080005 0.422238
O O10 0.544933 0.027757 0.550981
O O11 0.378677 0.072335 0.759163
O O12 0.294359 0.011010 0.125263
O O13 0.529612 0.881685 0.981411
O O14 0.419306 0.103181 0.910730
O O15 0.415748 0.762812 0.293911
O O16 0.957135 0.466531 0.698898
#
# Coordination Sequence:
#
# PCOD9115650 Si02
#       8
#     2   2   2   2   2   2   2   2
#     4   9  19  34  55  81 123 155 188 240 297 362
#     4  10  20  42  55  87 124 159 199 248 286 369
#     4  11  19  35  59  94 124 168 198 243 310 357
#     4   9  19  34  54  87 130 148 200 246 292 373
#     4  12  25  40  63  90 115 158 210 259 312 359
#     4   9  20  38  53  82 120 157 188 248 306 343
#     4  10  22  37  61  84 124 168 199 239 304 361
#     4  10  22  40  58  81 122 153 202 253 291 358
#
# _framework density 19.152441
#
# number of rings (size 3 to 8) (size 9 to 14) (size 15 to 20)
#    1.500    0.500    2.500    1.500    0.000    6.000 
#    0.000    0.000    0.000    0.000    3.250    0.000 
#    0.000    0.000    0.000    0.000    0.000    0.000 
#
# Total GULP energy -89107.659202 kJ/mol
# GULP energy per Si atom -5569.228700 kJ/mol
# Density = 1.910885 g / cm^3
# Si number density = 19.152441 Si / 1000 Ang^3
#
#
#
# Elastic Constant Matrix: (Units=GPa)
#
#
# Indices 1 2 3 4 5 6 
#
# 1 69.5268 -2.5697 35.9550 0.0000 10.0413 0.0000
# 2 -2.5697 83.5117 2.8126 0.0000 -0.1850 0.0000
# 3 35.9550 2.8126 99.5511 0.0000 15.2242 0.0000
# 4 0.0000 0.0000 0.0000 26.4300 0.0000 -1.4299
# 5 10.0413 -0.1850 15.2242 0.0000 20.2841 0.0000
# 6 0.0000 0.0000 0.0000 -1.4299 0.0000 19.2626
#
#
#
# Elastic Compliance Matrix: (Units=1/GPa)
#
#
# Indices 1 2 3 4 5 6 
#
# 1 0.018099 0.000744 -0.005862 0.000000 -0.004554 0.000000
# 2 0.000744 0.012019 -0.000643 0.000000 0.000223 0.000000
# 3 -0.005862 -0.000643 0.013259 0.000000 -0.007056 0.000000
# 4 0.000000 0.000000 0.000000 0.037988 0.000000 0.002820
# 5 -0.004554 0.000223 -0.007056 0.000000 0.056852 0.000000
# 6 0.000000 0.000000 0.000000 0.002820 0.000000 0.052123
#
#
# Mechanical properties :
#
#
# Convention : Reuss Voigt Hill
#
# Bulk Modulus (GPa) = 31.38901 36.10950 33.74925
# Shear Modulus (GPa) = 23.53153 27.62146 25.57649
#
# Velocity S-wave (km/s) = 3.50900 3.80174 3.65830
# Velocity P-wave (km/s) = 5.73080 6.17783 5.95851
#
# Compressibility (1/GPa) = 0.03185828
#
# Stress axis : x y z
#
# Youngs Moduli (GPa) = 55.25055 83.19879 75.41847
#
# Poissons Ratio (x) = -0.06192 0.44207
# Poissons Ratio (y) = -0.04112 0.04846
# Poissons Ratio (z) = 0.32386 0.05346
#
# Static dielectric constant tensor:
#      x y z
#    x 1.747330 0.000000 0.004360 
#    y 0.000000 1.745760 0.000000 
#    z 0.004360 0.000000 1.654010 
# 
# From -- ./inp_files/12967.got.cif
#   From: 2010.05.17/outbox.cif.g08.bks.cpg/sg4_7_cif.got.tgz:12967.got - 2010.06.03 18:43:04.
