data_PCOD9115805
_publ_section_title
;
Structure prediction by ZEFSAII (Michael W. Deem and Ramdas Pophale) SiO2 
 PCOD9115805
Probable space group: P 21
;
_chemical_formula_sum "Si O2"
_cell_formula_units_Z 16
_cell_length_a 11.441534
_cell_length_b 5.893478
_cell_length_c 11.833494
_cell_angle_alpha 90.000000
_cell_angle_beta 128.276537
_cell_angle_gamma 90.000000
_cell_volume 626.405022
_symmetry_space_group_name_H-M "P 21"
_symmetry_group_IT_number 4
_symmetry_cell_setting 'monoclinic'
loop_
_space_group_symop_operation_xyz
x,y,z
-x,1/2+y,-z
loop_
_atom_site_type_symbol
_atom_site_label
_atom_site_fract_x
_atom_site_fract_y
_atom_site_fract_z
Si Si1 0.543452 0.618940 0.317474
Si Si2 0.117827 0.193241 0.409640
Si Si3 0.030474 0.393017 0.134034
Si Si4 0.414796 0.984959 0.064353
Si Si5 0.237942 0.092153 0.137027
Si Si6 0.294065 0.717095 0.341708
Si Si7 0.154416 0.689384 0.490396
Si Si8 0.327653 0.785641 0.797127
O O1 0.700217 0.706407 0.466144
O O2 0.462672 0.796727 0.184429
O O3 0.423825 0.582558 0.349494
O O4 0.603284 0.440400 0.260783
O O5 0.053959 0.209212 0.245651
O O6 0.072691 0.448665 0.422826
O O7 0.081898 0.938655 0.430573
O O8 0.127788 0.614138 0.223985
O O9 0.127134 0.293982 0.091468
O O10 0.863761 0.415776 0.993575
O O11 0.353877 0.172253 0.114112
O O12 0.561645 0.087459 0.096741
O O13 0.304532 0.926029 0.896676
O O14 0.298262 0.965044 0.284598
O O15 0.291227 0.705698 0.477193
O O16 0.197729 0.675334 0.647838
#
# Coordination Sequence:
#
# PCOD9115805 Si02
#       8
#     2   2   2   2   2   2   2   2
#     4  10  21  36  58  89 120 159 205 258 319 380
#     4  10  21  36  59  87 120 162 201 257 322 379
#     4  11  21  39  59  86 130 164 204 264 321 378
#     4  11  22  37  59  88 122 165 213 255 315 387
#     4  11  22  37  59  88 122 165 213 255 315 387
#     4  10  21  36  58  89 120 159 205 258 319 380
#     4  10  21  36  59  87 120 162 201 257 322 379
#     4  11  21  39  59  86 130 164 204 264 321 378
#
# _framework density 25.542580000000001
#
# number of rings (size 3 to 8) (size 9 to 14) (size 15 to 20)
#    0.000    1.500    5.000    0.750    0.000    5.000 
#    0.000    0.000    0.000    6.000    0.000    0.000 
#    0.000    0.000    0.000    0.000    0.000    0.000 
#
# Total GULP energy -89076.005264 kJ/mol
# GULP energy per Si atom -5567.250329 kJ/mol
# Density = 2.548444 g / cm^3
# Si number density = 25.542580 Si / 1000 Ang^3
#
#
#
# Elastic Constant Matrix: (Units=GPa)
#
#
# Indices 1 2 3 4 5 6 
#
# 1 61.4578 16.6242 2.0753 0.0000 -19.6447 0.0000
# 2 16.6242 72.1487 6.2882 0.0000 -10.4971 0.0000
# 3 2.0753 6.2882 103.5928 0.0000 -14.8513 0.0000
# 4 0.0000 0.0000 0.0000 30.0881 0.0000 0.4828
# 5 -19.6447 -10.4971 -14.8513 0.0000 35.6696 0.0000
# 6 0.0000 0.0000 0.0000 0.4828 0.0000 23.5141
#
#
#
# Elastic Compliance Matrix: (Units=1/GPa)
#
#
# Indices 1 2 3 4 5 6 
#
# 1 0.020612 -0.003274 0.001356 0.000000 0.010953 0.000000
# 2 -0.003274 0.015008 -0.000501 0.000000 0.002405 0.000000
# 3 0.001356 -0.000501 0.010361 0.000000 0.004913 0.000000
# 4 0.000000 0.000000 0.000000 0.033247 0.000000 -0.000683
# 5 0.010953 0.002405 0.004913 0.000000 0.036821 0.000000
# 6 0.000000 0.000000 0.000000 -0.000683 0.000000 0.042542
#
#
# Mechanical properties :
#
#
# Convention : Reuss Voigt Hill
#
# Bulk Modulus (GPa) = 24.30480 31.90832 28.10656
# Shear Modulus (GPa) = 28.22588 32.00178 30.11383
#
# Velocity S-wave (km/s) = 3.32784 3.54344 3.43733
# Velocity P-wave (km/s) = 4.92971 5.40931 5.17507
#
# Compressibility (1/GPa) = 0.04114414
#
# Stress axis : x y z
#
# Youngs Moduli (GPa) = 48.51487 66.63014 96.51786
#
# Poissons Ratio (x) = 0.21815 -0.13088
# Poissons Ratio (y) = 0.15884 0.04832
# Poissons Ratio (z) = -0.06579 0.03336
#
# Static dielectric constant tensor:
#      x y z
#    x 2.210310 0.000000 0.083500 
#    y 0.000000 2.083020 0.000000 
#    z 0.083500 0.000000 2.121860 
# 
# From -- ./inp_files/11784.got.cif
#   From: 2010.05.17/outbox.cif.g08.bks.cpg/sg4_6_cif.got.tgz:11784.got - 2010.06.03 18:43:04.
