data_PCOD9115384
_publ_section_title
;
Structure prediction by ZEFSAII (Michael W. Deem and Ramdas Pophale) SiO2 
 PCOD9115384
Probable space group: P 21
;
_chemical_formula_sum "Si O2"
_cell_formula_units_Z 12
_cell_length_a 9.743540
_cell_length_b 14.594418
_cell_length_c 8.360774
_cell_angle_alpha 90.000000
_cell_angle_beta 149.104236
_cell_angle_gamma 90.000000
_cell_volume 610.480392
_symmetry_space_group_name_H-M "P 21"
_symmetry_group_IT_number 4
_symmetry_cell_setting 'monoclinic'
loop_
_space_group_symop_operation_xyz
x,y,z
-x,1/2+y,-z
loop_
_atom_site_type_symbol
_atom_site_label
_atom_site_fract_x
_atom_site_fract_y
_atom_site_fract_z
Si Si1 0.665202 0.846310 0.056984
Si Si2 0.834799 0.364974 0.226542
Si Si3 0.989419 0.044455 0.791880
Si Si4 0.226449 0.411509 0.169706
Si Si5 0.489404 0.666832 0.686969
Si Si6 0.726455 0.299788 0.783153
O O1 0.935932 0.831276 0.425205
O O2 0.435922 0.880003 0.946682
O O3 0.718422 0.915439 0.963235
O O4 0.563586 0.752819 0.872568
O O5 0.936411 0.458466 0.245364
O O6 0.781568 0.295852 0.026340
O O7 0.750018 0.105645 0.483362
O O8 0.880634 0.000790 0.848302
O O9 0.250011 0.105643 0.077503
O O10 0.496883 0.376510 0.525266
O O11 0.996890 0.334784 0.968465
O O12 0.380636 0.710500 0.412991
#
# Coordination Sequence:
#
# PCOD9115384 Si02
#       6
#     2   2   2   2   2   2
#     4  11  22  39  63  90 122 160 197 241 302 368
#     4  11  22  39  63  90 122 160 197 241 302 368
#     4  11  22  39  63  90 118 156 204 255 294 340
#     4  10  20  38  62  86 114 158 203 234 284 366
#     4  11  22  39  63  90 118 156 204 255 294 340
#     4  10  20  38  62  86 114 158 203 234 284 366
#
# _framework density 19.656652000000001
#
# number of rings (size 3 to 8) (size 9 to 14) (size 15 to 20)
#    0.000    1.333    0.000   10.000    0.000    0.000 
#    0.000    6.667    0.000    8.000    0.000    0.000 
#    0.000    0.000    0.000    0.000    0.000    0.000 
#
# Total GULP energy -67076.881584 kJ/mol
# GULP energy per Si atom -5589.740132 kJ/mol
# Density = 1.961191 g / cm^3
# Si number density = 19.656652 Si / 1000 Ang^3
#
#
#
# Elastic Constant Matrix: (Units=GPa)
#
#
# Indices 1 2 3 4 5 6 
#
# 1 96.9181 -5.8822 6.6004 0.0000 -1.3220 0.0000
# 2 -5.8822 31.2504 -26.8602 0.0000 -10.8694 0.0000
# 3 6.6004 -26.8602 81.1780 0.0000 -6.8027 0.0000
# 4 0.0000 0.0000 0.0000 40.1426 0.0000 13.9958
# 5 -1.3220 -10.8694 -6.8027 0.0000 41.0181 0.0000
# 6 0.0000 0.0000 0.0000 13.9958 0.0000 13.2112
#
#
#
# Elastic Compliance Matrix: (Units=1/GPa)
#
#
# Indices 1 2 3 4 5 6 
#
# 1 0.010471 0.002283 -0.000017 0.000000 0.000940 0.000000
# 2 0.002283 0.055725 0.019771 0.000000 0.018119 0.000000
# 3 -0.000017 0.019771 0.019573 0.000000 0.008485 0.000000
# 4 0.000000 0.000000 0.000000 0.039501 0.000000 -0.041847
# 5 0.000940 0.018119 0.008485 0.000000 0.030618 0.000000
# 6 0.000000 0.000000 0.000000 -0.041847 0.000000 0.120026
#
#
# Mechanical properties :
#
#
# Convention : Reuss Voigt Hill
#
# Bulk Modulus (GPa) = 7.70170 17.45137 12.57654
# Shear Modulus (GPa) = 18.17380 34.57363 26.37372
#
# Velocity S-wave (km/s) = 3.04396 4.19845 3.66692
# Velocity P-wave (km/s) = 4.03496 5.69210 4.93360
#
# Compressibility (1/GPa) = 0.12984142
#
# Stress axis : x y z
#
# Youngs Moduli (GPa) = 95.50613 17.94529 51.09109
#
# Poissons Ratio (x) = -0.04097 0.00088
# Poissons Ratio (y) = -0.21802 -1.01012
# Poissons Ratio (z) = 0.00165 -0.35480
#
# Static dielectric constant tensor:
#      x y z
#    x 1.682990 0.000000 0.004550 
#    y 0.000000 1.704610 0.000000 
#    z 0.004550 0.000000 1.691690 
# 
# From -- ./inp_files/4776.got.cif
#   From: 2010.05.17/outbox.cif.g08.bks.cpg/sg4_3_cif.got.tgz:4776.got - 2010.06.03 18:43:04.
