data_PCOD9115010
_publ_section_title
;
Structure prediction by ZEFSAII (Michael W. Deem and Ramdas Pophale) SiO2 
 PCOD9115010
Probable space group: P 21
;
_chemical_formula_sum "Si O2"
_cell_formula_units_Z 14
_cell_length_a 14.461835
_cell_length_b 6.668843
_cell_length_c 7.690940
_cell_angle_alpha 90.000000
_cell_angle_beta 52.208354
_cell_angle_gamma 90.000000
_cell_volume 586.158043
_symmetry_space_group_name_H-M "P 21"
_symmetry_group_IT_number 4
_symmetry_cell_setting 'monoclinic'
loop_
_space_group_symop_operation_xyz
x,y,z
-x,1/2+y,-z
loop_
_atom_site_type_symbol
_atom_site_label
_atom_site_fract_x
_atom_site_fract_y
_atom_site_fract_z
Si Si1 0.412431 0.344780 0.746801
Si Si2 0.974102 0.074359 0.267149
Si Si3 0.681955 0.250249 0.015003
Si Si4 0.113199 0.929614 0.433265
Si Si5 0.228514 0.276456 0.490707
Si Si6 0.457411 0.488268 0.297424
Si Si7 0.772774 0.537437 0.173774
O O1 0.369080 0.532264 0.903634
O O2 0.448168 0.413249 0.510392
O O3 0.517469 0.223349 0.715070
O O4 0.302438 0.195190 0.853036
O O5 0.936701 0.303687 0.347092
O O6 0.868698 0.932809 0.326631
O O7 0.014310 0.981688 0.406653
O O8 0.089520 0.060443 0.017407
O O9 0.573061 0.387804 0.086412
O O10 0.729730 0.325582 0.149129
O O11 0.790501 0.284497 0.763933
O O12 0.174418 0.141672 0.402051
O O13 0.343724 0.408027 0.331591
O O14 0.257211 0.104438 0.598955
#
# Coordination Sequence:
#
# PCOD9115010 Si02
#       7
#     2   2   2   2   2   2   2
#     4  10  19  38  71 101 135 169 222 275 344 404
#     4  11  24  44  67  95 135 183 227 279 340 399
#     4  10  22  42  71  98 133 180 218 271 349 410
#     4  11  25  44  69  94 135 190 224 276 345 412
#     4  11  25  44  67 103 137 172 236 281 337 398
#     4  10  21  40  66 103 137 171 219 284 333 400
#     4   9  24  40  67 104 130 173 224 284 334 395
#
# _framework density 23.884343999999999
#
# number of rings (size 3 to 8) (size 9 to 14) (size 15 to 20)
#    0.000    1.714    2.857    0.000    4.000    4.571 
#    5.143    0.000    0.000    0.000    0.000    0.000 
#    0.000    0.000    0.000    0.000    0.000    0.000 
#
# Total GULP energy -78328.163490 kJ/mol
# GULP energy per Si atom -5594.868821 kJ/mol
# Density = 2.382998 g / cm^3
# Si number density = 23.884344 Si / 1000 Ang^3
#
#
#
# Elastic Constant Matrix: (Units=GPa)
#
#
# Indices 1 2 3 4 5 6 
#
# 1 61.0038 29.1691 22.0042 0.0000 -17.8744 0.0000
# 2 29.1691 108.2322 18.5377 0.0000 -9.2782 0.0000
# 3 22.0042 18.5377 58.4659 0.0000 -20.5390 0.0000
# 4 0.0000 0.0000 0.0000 29.0932 0.0000 -9.5329
# 5 -17.8744 -9.2782 -20.5390 0.0000 38.5268 0.0000
# 6 0.0000 0.0000 0.0000 -9.5329 0.0000 35.1663
#
#
#
# Elastic Compliance Matrix: (Units=1/GPa)
#
#
# Indices 1 2 3 4 5 6 
#
# 1 0.022225 -0.004635 -0.004509 0.000000 0.006791 0.000000
# 2 -0.004635 0.010760 -0.001861 0.000000 -0.000551 0.000000
# 3 -0.004509 -0.001861 0.022762 0.000000 0.009594 0.000000
# 4 0.000000 0.000000 0.000000 0.037723 0.000000 0.010226
# 5 0.006791 -0.000551 0.009594 0.000000 0.034089 0.000000
# 6 0.000000 0.000000 0.000000 0.010226 0.000000 0.031208
#
#
# Mechanical properties :
#
#
# Convention : Reuss Voigt Hill
#
# Bulk Modulus (GPa) = 29.64187 40.79154 35.21671
# Shear Modulus (GPa) = 26.03859 31.08999 28.56429
#
# Velocity S-wave (km/s) = 3.30539 3.61181 3.46199
# Velocity P-wave (km/s) = 5.19664 5.87447 5.54592
#
# Compressibility (1/GPa) = 0.03373606
#
# Stress axis : x y z
#
# Youngs Moduli (GPa) = 44.99427 92.93615 43.93379
#
# Poissons Ratio (x) = 0.43078 0.19811
# Poissons Ratio (y) = 0.20856 0.08175
# Poissons Ratio (z) = 0.20289 0.17294
#
# Static dielectric constant tensor:
#      x y z
#    x 1.915430 0.000000 0.032170 
#    y 0.000000 1.918120 0.000000 
#    z 0.032170 0.000000 1.907770 
# 
# From -- ./inp_files/8751.got.cif
#   From: 2010.05.17/outbox.cif.g08.bks.cpg/sg4_5_cif.got.tgz:8751.got - 2010.06.03 18:43:04.
