data_PCOD9115103
_publ_section_title
;
Structure prediction by ZEFSAII (Michael W. Deem and Ramdas Pophale) SiO2 
 PCOD9115103
Probable space group: P 21
;
_chemical_formula_sum "Si O2"
_cell_formula_units_Z 16
_cell_length_a 7.197286
_cell_length_b 5.476354
_cell_length_c 18.476122
_cell_angle_alpha 90.000000
_cell_angle_beta 81.083809
_cell_angle_gamma 90.000000
_cell_volume 719.434337
_symmetry_space_group_name_H-M "P 21"
_symmetry_group_IT_number 4
_symmetry_cell_setting 'monoclinic'
loop_
_space_group_symop_operation_xyz
x,y,z
-x,1/2+y,-z
loop_
_atom_site_type_symbol
_atom_site_label
_atom_site_fract_x
_atom_site_fract_y
_atom_site_fract_z
Si Si1 0.754070 0.690110 0.163625
Si Si2 0.122863 0.190110 0.270524
Si Si3 0.792973 0.938803 0.476021
Si Si4 0.813887 0.190110 0.815347
Si Si5 0.207028 0.941419 0.523979
Si Si6 0.510464 0.690110 0.045162
Si Si7 0.630797 0.690111 0.611450
Si Si8 0.309230 0.690110 0.749638
O O1 0.696995 0.690110 0.083362
O O2 0.676335 0.440374 0.204729
O O3 0.977320 0.690110 0.163150
O O4 0.676335 0.939846 0.204729
O O5 0.900495 0.190110 0.270588
O O6 0.200439 0.440507 0.230280
O O7 0.182249 0.190110 0.350248
O O8 0.200440 0.939712 0.230280
O O9 0.779657 0.690111 0.432095
O O10 0.652499 0.909988 0.552760
O O11 0.000000 0.940111 0.500000
O O12 0.757601 0.190111 0.439773
O O13 0.659525 0.190110 0.887032
O O14 0.347501 0.970233 0.447240
O O15 0.500000 0.440110 0.000000
O O16 0.466588 0.690111 0.678611
#
# Coordination Sequence:
#
# PCOD9115103 Si02
#       8
#     2   2   2   2   2   2   2   2
#     4  10  22  40  55  76 113 140 163 212 264 300
#     4  10  21  35  55  80 104 137 175 210 258 312
#     4   8  16  28  44  72  98 134 173 205 259 313
#     4  10  22  40  55  76 113 140 163 212 264 300
#     4   8  16  28  44  72  98 134 173 205 259 313
#     4  12  24  37  60  87 104 134 182 210 240 308
#     4  10  20  29  58  73 104 134 176 220 258 298
#     4  10  21  35  55  80 104 137 175 210 258 312
#
# _framework density 22.239694
#
# number of rings (size 3 to 8) (size 9 to 14) (size 15 to 20)
#    0.750    1.500    0.000    3.000    3.500    1.000 
#    0.000    0.000    0.000    1.500    0.000    0.000 
#    0.000    0.000    0.000    0.000    0.000    0.000 
#
# Total GULP energy -89339.050648 kJ/mol
# GULP energy per Si atom -5583.690665 kJ/mol
# Density = 2.218908 g / cm^3
# Si number density = 22.239694 Si / 1000 Ang^3
#
#
#
# Elastic Constant Matrix: (Units=GPa)
#
#
# Indices 1 2 3 4 5 6 
#
# 1 70.6851 18.3487 18.9666 0.0000 15.6646 0.0000
# 2 18.3487 236.5906 49.4109 0.0000 15.0794 0.0000
# 3 18.9666 49.4109 88.2638 0.0000 9.1190 0.0000
# 4 0.0000 0.0000 0.0000 19.0283 0.0000 -1.9057
# 5 15.6646 15.0794 9.1190 0.0000 45.4665 0.0000
# 6 0.0000 0.0000 0.0000 -1.9057 0.0000 8.0051
#
#
#
# Elastic Compliance Matrix: (Units=1/GPa)
#
#
# Indices 1 2 3 4 5 6 
#
# 1 0.016055 -0.000362 -0.002745 0.000000 -0.004861 0.000000
# 2 -0.000362 0.004846 -0.002534 0.000000 -0.000974 0.000000
# 3 -0.002745 -0.002534 0.013432 0.000000 -0.000908 0.000000
# 4 0.000000 0.000000 0.000000 0.053837 0.000000 0.012816
# 5 -0.004861 -0.000974 -0.000908 0.000000 0.024174 0.000000
# 6 0.000000 0.000000 0.000000 0.012816 0.000000 0.127971
#
#
# Mechanical properties :
#
#
# Convention : Reuss Voigt Hill
#
# Bulk Modulus (GPa) = 43.38377 63.22131 53.30254
# Shear Modulus (GPa) = 19.28405 35.08756 27.18581
#
# Velocity S-wave (km/s) = 2.94785 3.97634 3.50008
# Velocity P-wave (km/s) = 5.57998 7.04064 6.35243
#
# Compressibility (1/GPa) = 0.02305010
#
# Stress axis : x y z
#
# Youngs Moduli (GPa) = 62.28581 206.34725 74.44811
#
# Poissons Ratio (x) = 0.07470 0.20437
# Poissons Ratio (y) = 0.02255 0.18869
# Poissons Ratio (z) = 0.17098 0.52299
#
# Static dielectric constant tensor:
#      x y z
#    x 1.874340 0.000000 -0.032190 
#    y 0.000000 1.878830 0.000000 
#    z -0.032190 0.000000 1.730960 
# 
# From -- ./inp_files/15556.got.cif
#   From: 2010.05.17/outbox.cif.g08.bks.cpg/sg4_8_cif.got.tgz:15556.got - 2010.06.03 18:43:04.
