data_PCOD9115269
_publ_section_title
;
Structure prediction by ZEFSAII (Michael W. Deem and Ramdas Pophale) SiO2 
 PCOD9115269
Probable space group: P 21
;
_chemical_formula_sum "Si O2"
_cell_formula_units_Z 16
_cell_length_a 5.234151
_cell_length_b 17.302984
_cell_length_c 9.341179
_cell_angle_alpha 90.000000
_cell_angle_beta 76.754989
_cell_angle_gamma 90.000000
_cell_volume 823.493050
_symmetry_space_group_name_H-M "P 21"
_symmetry_group_IT_number 4
_symmetry_cell_setting 'monoclinic'
loop_
_space_group_symop_operation_xyz
x,y,z
-x,1/2+y,-z
loop_
_atom_site_type_symbol
_atom_site_label
_atom_site_fract_x
_atom_site_fract_y
_atom_site_fract_z
Si Si1 0.316485 0.429170 0.462129
Si Si2 0.493977 0.780620 0.386728
Si Si3 0.836252 0.081488 0.348316
Si Si4 0.005884 0.810419 0.637753
Si Si5 0.709214 0.391892 0.164369
Si Si6 0.037672 0.462113 0.890110
Si Si7 0.559188 0.367347 0.877554
Si Si8 0.687750 0.677250 0.585205
O O1 0.399194 0.361891 0.562808
O O2 0.271696 0.509248 0.545825
O O3 0.528331 0.430017 0.307623
O O4 0.060119 0.394170 0.418851
O O5 0.215248 0.772855 0.502674
O O6 0.467492 0.793849 0.221795
O O7 0.668035 0.710569 0.425261
O O8 0.590635 0.137337 0.349242
O O9 0.074789 0.120956 0.403459
O O10 0.943568 0.044290 0.187605
O O11 0.125354 0.825894 0.776893
O O12 0.752021 0.755729 0.665525
O O13 0.897599 0.454038 0.062035
O O14 0.552972 0.356293 0.049363
O O15 0.843090 0.408318 0.818408
O O16 0.324301 0.425465 0.869137
#
# Coordination Sequence:
#
# PCOD9115269 Si02
#       8
#     2   2   2   2   2   2   2   2
#     4  10  21  36  69  95 125 159 221 266 316 363
#     4  10  20  39  64  97 124 163 215 270 309 374
#     4  12  23  40  63 100 128 170 210 268 321 382
#     4  10  20  42  63  98 127 168 214 273 310 383
#     4   9  22  36  66 100 125 158 209 273 320 366
#     4  10  21  37  61 100 124 156 209 269 312 371
#     4  10  20  36  63  99 119 154 207 272 309 361
#     4  11  25  38  61  97 134 168 211 263 329 380
#
# _framework density 19.429428999999999
#
# number of rings (size 3 to 8) (size 9 to 14) (size 15 to 20)
#    0.750    1.000    2.500    2.250    5.250    0.000 
#    0.000    0.000    0.000   10.500    0.000    0.000 
#    0.000    0.000    0.000    0.000    0.000    0.000 
#
# Total GULP energy -89139.239205 kJ/mol
# GULP energy per Si atom -5571.202450 kJ/mol
# Density = 1.938521 g / cm^3
# Si number density = 19.429429 Si / 1000 Ang^3
#
#
#
# Elastic Constant Matrix: (Units=GPa)
#
#
# Indices 1 2 3 4 5 6 
#
# 1 104.9991 17.2060 15.6471 0.0000 12.9159 0.0000
# 2 17.2060 42.0396 18.2114 0.0000 -4.7928 0.0000
# 3 15.6471 18.2114 85.5380 0.0000 -0.9658 0.0000
# 4 0.0000 0.0000 0.0000 10.0411 0.0000 -0.9222
# 5 12.9159 -4.7928 -0.9658 0.0000 20.2895 0.0000
# 6 0.0000 0.0000 0.0000 -0.9222 0.0000 35.6587
#
#
#
# Elastic Compliance Matrix: (Units=1/GPa)
#
#
# Indices 1 2 3 4 5 6 
#
# 1 0.011621 -0.005270 -0.001102 0.000000 -0.008695 0.000000
# 2 -0.005270 0.029326 -0.005166 0.000000 0.010037 0.000000
# 3 -0.001102 -0.005166 0.012993 0.000000 0.000100 0.000000
# 4 0.000000 0.000000 0.000000 0.099827 0.000000 0.002582
# 5 -0.008695 0.010037 0.000100 0.000000 0.057197 0.000000
# 6 0.000000 0.000000 0.000000 0.002582 0.000000 0.028110
#
#
# Mechanical properties :
#
#
# Convention : Reuss Voigt Hill
#
# Bulk Modulus (GPa) = 32.40035 37.18953 34.79494
# Shear Modulus (GPa) = 18.35255 25.29867 21.82561
#
# Velocity S-wave (km/s) = 3.07673 3.61235 3.35524
# Velocity P-wave (km/s) = 5.41607 6.04823 5.74086
#
# Compressibility (1/GPa) = 0.03086387
#
# Stress axis : x y z
#
# Youngs Moduli (GPa) = 86.04841 34.09892 76.96254
#
# Poissons Ratio (x) = 0.17971 0.08481
# Poissons Ratio (y) = 0.45351 0.39761
# Poissons Ratio (z) = 0.09482 0.17617
#
# Static dielectric constant tensor:
#      x y z
#    x 1.749000 0.000000 0.003030 
#    y 0.000000 1.678890 0.000000 
#    z 0.003030 0.000000 1.696640 
# 
# From -- ./inp_files/4861.got.cif
#   From: 2010.05.17/outbox.cif.g08.bks.cpg/sg4_3_cif.got.tgz:4861.got - 2010.06.03 18:43:04.
