data_PCOD9115286
_publ_section_title
;
Structure prediction by ZEFSAII (Michael W. Deem and Ramdas Pophale) SiO2 
 PCOD9115286
Probable space group: P 21
;
_chemical_formula_sum "Si O2"
_cell_formula_units_Z 14
_cell_length_a 17.423303
_cell_length_b 4.983440
_cell_length_c 23.812735
_cell_angle_alpha 90.000000
_cell_angle_beta 16.732817
_cell_angle_gamma 90.000000
_cell_volume 595.284210
_symmetry_space_group_name_H-M "P 21"
_symmetry_group_IT_number 4
_symmetry_cell_setting 'monoclinic'
loop_
_space_group_symop_operation_xyz
x,y,z
-x,1/2+y,-z
loop_
_atom_site_type_symbol
_atom_site_label
_atom_site_fract_x
_atom_site_fract_y
_atom_site_fract_z
Si Si1 0.635773 0.175300 0.694159
Si Si2 0.478173 0.168453 0.974826
Si Si3 0.019038 0.507861 0.754771
Si Si4 0.914023 0.976380 0.898774
Si Si5 0.638196 0.853892 0.584914
Si Si6 0.902205 0.028042 0.036422
Si Si7 0.962265 0.679874 0.457043
O O1 0.755168 0.889703 0.630720
O O2 0.877252 0.381248 0.530572
O O3 0.579001 0.101042 0.668540
O O4 0.373810 0.324895 0.899155
O O5 0.725026 0.234433 0.760186
O O6 0.556880 0.912314 0.957428
O O7 0.215099 0.102036 0.123764
O O8 0.093087 0.758595 0.741806
O O9 0.266757 0.427530 0.542891
O O10 0.917756 0.256200 0.862777
O O11 0.989138 0.017989 0.910701
O O12 0.390550 0.656689 0.758246
O O13 0.885003 0.718163 0.445219
O O14 0.076769 0.239605 0.949480
#
# Coordination Sequence:
#
# PCOD9115286 Si02
#       7
#     2   2   2   2   2   2   2
#     4  10  20  40  69  88 134 194 227 270 332 422
#     4  12  22  40  63 107 146 184 248 276 323 406
#     4  12  26  40  73 108 145 187 214 304 354 392
#     4  12  25  46  67 107 146 173 228 291 377 403
#     4  10  23  43  73 103 133 185 238 266 354 421
#     4  12  26  47  81 102 127 182 243 287 340 447
#     4  10  20  36  70  93 131 183 246 276 298 403
#
# _framework density 23.518180999999998
#
# number of rings (size 3 to 8) (size 9 to 14) (size 15 to 20)
#    0.857    0.000    2.857    6.000    2.000    0.000 
#    0.000    5.714    0.000    1.714    0.000    0.000 
#    0.000    0.000    0.000    0.000    0.000    0.000 
#
# Total GULP energy -78332.085418 kJ/mol
# GULP energy per Si atom -5595.148958 kJ/mol
# Density = 2.346465 g / cm^3
# Si number density = 23.518181 Si / 1000 Ang^3
#
#
#
# Elastic Constant Matrix: (Units=GPa)
#
#
# Indices 1 2 3 4 5 6 
#
# 1 134.9062 42.6137 17.6864 0.0000 13.5691 0.0000
# 2 42.6137 129.6217 1.2348 0.0000 0.1108 0.0000
# 3 17.6864 1.2348 14.5455 0.0000 6.3982 0.0000
# 4 0.0000 0.0000 0.0000 34.3715 0.0000 10.1708
# 5 13.5691 0.1108 6.3982 0.0000 24.8627 0.0000
# 6 0.0000 0.0000 0.0000 10.1708 0.0000 36.1649
#
#
#
# Elastic Compliance Matrix: (Units=1/GPa)
#
#
# Indices 1 2 3 4 5 6 
#
# 1 0.010126 -0.003223 -0.010841 0.000000 -0.002722 0.000000
# 2 -0.003223 0.008748 0.002729 0.000000 0.001018 0.000000
# 3 -0.010841 0.002729 0.089201 0.000000 -0.017050 0.000000
# 4 0.000000 0.000000 0.000000 0.031735 0.000000 -0.008925
# 5 -0.002722 0.001018 -0.017050 0.000000 0.046090 0.000000
# 6 0.000000 0.000000 0.000000 -0.008925 0.000000 0.030161
#
#
# Mechanical properties :
#
#
# Convention : Reuss Voigt Hill
#
# Bulk Modulus (GPa) = 11.70921 44.68257 28.19589
# Shear Modulus (GPa) = 18.71264 33.58237 26.14750
#
# Velocity S-wave (km/s) = 2.82382 3.78290 3.33798
# Velocity P-wave (km/s) = 3.95241 6.17421 5.18374
#
# Compressibility (1/GPa) = 0.08540282
#
# Stress axis : x y z
#
# Youngs Moduli (GPa) = 98.75714 114.31741 11.21065
#
# Poissons Ratio (x) = 0.36848 0.12154
# Poissons Ratio (y) = 0.31833 -0.03059
# Poissons Ratio (z) = 1.07067 -0.31198
#
# Static dielectric constant tensor:
#      x y z
#    x 1.982850 0.000000 0.007380 
#    y 0.000000 1.871940 0.000000 
#    z 0.007380 0.000000 1.892870 
# 
# From -- ./inp_files/7212.got.cif
#   From: 2010.05.17/outbox.cif.g08.bks.cpg/sg4_4_cif.got.tgz:7212.got - 2010.06.03 18:43:04.
