data_PCOD9115026
_publ_section_title
;
Structure prediction by ZEFSAII (Michael W. Deem and Ramdas Pophale) SiO2 
 PCOD9115026
Probable space group: P 21
;
_chemical_formula_sum "Si O2"
_cell_formula_units_Z 16
_cell_length_a 7.974219
_cell_length_b 7.629193
_cell_length_c 14.297910
_cell_angle_alpha 90.000000
_cell_angle_beta 41.381000
_cell_angle_gamma 90.000000
_cell_volume 575.019038
_symmetry_space_group_name_H-M "P 21"
_symmetry_group_IT_number 4
_symmetry_cell_setting 'monoclinic'
loop_
_space_group_symop_operation_xyz
x,y,z
-x,1/2+y,-z
loop_
_atom_site_type_symbol
_atom_site_label
_atom_site_fract_x
_atom_site_fract_y
_atom_site_fract_z
Si Si1 0.068763 0.016430 0.503748
Si Si2 0.515548 0.764295 0.354071
Si Si3 0.569059 0.811402 0.686895
Si Si4 0.182033 0.225561 0.161091
Si Si5 0.844081 0.137902 0.782048
Si Si6 0.669892 0.779634 0.092300
Si Si7 0.296791 0.671431 0.965772
Si Si8 0.644657 0.121344 0.398166
O O1 0.250525 0.141448 0.367791
O O2 0.046020 0.117092 0.613589
O O3 0.235357 0.839135 0.442981
O O4 0.781694 0.963679 0.596674
O O5 0.660714 0.708160 0.200344
O O6 0.512817 0.631842 0.440836
O O7 0.625972 0.939982 0.353557
O O8 0.365108 0.811599 0.856745
O O9 0.435528 0.766784 0.645029
O O10 0.208704 0.432207 0.172828
O O11 0.437357 0.142001 0.090746
O O12 0.930076 0.153946 0.310801
O O13 0.156772 0.197417 0.060428
O O14 0.610720 0.242877 0.833014
O O15 0.883361 0.215499 0.870111
O O16 0.750651 0.983627 0.061758
#
# Coordination Sequence:
#
# PCOD9115026 Si02
#       8
#     2   2   2   2   2   2   2   2
#     4  11  21  39  62  92 117 164 212 257 306 364
#     4  11  23  44  61  89 131 168 209 260 309 377
#     4  11  23  39  64  88 124 160 210 259 309 370
#     4  10  21  41  65  92 128 164 201 264 323 371
#     4  10  20  35  68  90 120 155 212 257 305 366
#     4  10  21  40  66  93 124 161 220 261 298 374
#     4  10  19  39  63  91 121 162 207 262 304 365
#     4  11  24  43  59  91 133 168 205 256 324 375
#
# _framework density 27.825164999999998
#
# number of rings (size 3 to 8) (size 9 to 14) (size 15 to 20)
#    0.000    1.500    5.000    0.750    0.000    3.000 
#    2.250    6.250    0.000    0.000    0.000    0.000 
#    0.000    0.000    0.000    0.000    0.000    0.000 
#
# Total GULP energy -89596.070576 kJ/mol
# GULP energy per Si atom -5599.754411 kJ/mol
# Density = 2.776183 g / cm^3
# Si number density = 27.825165 Si / 1000 Ang^3
#
#
#
# Elastic Constant Matrix: (Units=GPa)
#
#
# Indices 1 2 3 4 5 6 
#
# 1 115.5986 5.5227 27.2092 0.0000 17.3450 0.0000
# 2 5.5227 80.7498 26.7189 0.0000 2.7461 0.0000
# 3 27.2092 26.7189 140.0811 0.0000 59.9546 0.0000
# 4 0.0000 0.0000 0.0000 35.8537 0.0000 -0.4463
# 5 17.3450 2.7461 59.9546 0.0000 52.1131 0.0000
# 6 0.0000 0.0000 0.0000 -0.4463 0.0000 31.1874
#
#
#
# Elastic Compliance Matrix: (Units=1/GPa)
#
#
# Indices 1 2 3 4 5 6 
#
# 1 0.009173 -0.000278 -0.000844 0.000000 -0.002068 0.000000
# 2 -0.000278 0.013745 -0.004526 0.000000 0.004575 0.000000
# 3 -0.000844 -0.004526 0.015649 0.000000 -0.017485 0.000000
# 4 0.000000 0.000000 0.000000 0.027896 0.000000 0.000399
# 5 -0.002068 0.004575 -0.017485 0.000000 0.039752 0.000000
# 6 0.000000 0.000000 0.000000 0.000399 0.000000 0.032070
#
#
# Mechanical properties :
#
#
# Convention : Reuss Voigt Hill
#
# Bulk Modulus (GPa) = 36.66748 50.59234 43.62991
# Shear Modulus (GPa) = 31.51188 42.29610 36.90399
#
# Velocity S-wave (km/s) = 3.36891 3.90303 3.64577
# Velocity P-wave (km/s) = 5.32345 6.20752 5.78240
#
# Compressibility (1/GPa) = 0.02727212
#
# Stress axis : x y z
#
# Youngs Moduli (GPa) = 109.01871 72.75439 63.90054
#
# Poissons Ratio (x) = 0.02021 0.05392
# Poissons Ratio (y) = 0.03029 0.28920
# Poissons Ratio (z) = 0.09199 0.32927
#
# Static dielectric constant tensor:
#      x y z
#    x 2.158410 0.000000 0.030530 
#    y 0.000000 2.162200 0.000000 
#    z 0.030530 0.000000 2.130770 
# 
# From -- ./inp_files/13652.got.cif
#   From: 2010.05.17/outbox.cif.g08.bks.cpg/sg4_7_cif.got.tgz:13652.got - 2010.06.03 18:43:04.
