data_PCOD9115096
_publ_section_title
;
Structure prediction by ZEFSAII (Michael W. Deem and Ramdas Pophale) SiO2 
 PCOD9115096
Probable space group: P 21
;
_chemical_formula_sum "Si O2"
_cell_formula_units_Z 10
_cell_length_a 7.032779
_cell_length_b 6.971100
_cell_length_c 10.457321
_cell_angle_alpha 90.000000
_cell_angle_beta 137.891246
_cell_angle_gamma 90.000000
_cell_volume 343.774292
_symmetry_space_group_name_H-M "P 21"
_symmetry_group_IT_number 4
_symmetry_cell_setting 'monoclinic'
loop_
_space_group_symop_operation_xyz
x,y,z
-x,1/2+y,-z
loop_
_atom_site_type_symbol
_atom_site_label
_atom_site_fract_x
_atom_site_fract_y
_atom_site_fract_z
Si Si1 0.227109 0.934510 0.336688
Si Si2 0.718071 0.260589 0.381057
Si Si3 0.115854 0.372914 0.356611
Si Si4 0.588117 0.430372 0.936606
Si Si5 0.289455 0.497944 0.057447
O O1 0.166205 0.776822 0.416881
O O2 0.558505 0.932688 0.472416
O O3 0.137523 0.144510 0.340936
O O4 0.034251 0.931155 0.113985
O O5 0.443223 0.397330 0.250815
O O6 0.944797 0.372060 0.405417
O O7 0.582012 0.082361 0.235037
O O8 0.908353 0.468872 0.148015
O O9 0.615698 0.217697 0.893758
O O10 0.415486 0.420183 0.984997
#
# Coordination Sequence:
#
# PCOD9115096 Si02
#       5
#     2   2   2   2   2
#     4  11  25  47  69 112 145 187 247 306 366 436
#     4  11  24  48  75 102 142 203 244 294 374 441
#     4  10  25  46  71 111 151 189 244 314 365 437
#     4  10  19  44  71 101 142 194 236 299 363 432
#     4  10  21  43  72 102 148 187 243 303 364 430
#
# _framework density 29.088857000000001
#
# number of rings (size 3 to 8) (size 9 to 14) (size 15 to 20)
#    0.000    1.600    6.000    0.000    2.800    3.200 
#   10.800    2.000    0.000    0.000    0.000    0.000 
#    0.000    0.000    0.000    0.000    0.000    0.000 
#
# Total GULP energy -56055.420100 kJ/mol
# GULP energy per Si atom -5605.542010 kJ/mol
# Density = 2.902265 g / cm^3
# Si number density = 29.088857 Si / 1000 Ang^3
#
#
#
# Elastic Constant Matrix: (Units=GPa)
#
#
# Indices 1 2 3 4 5 6 
#
# 1 116.4858 12.6424 66.0828 0.0000 -1.0347 0.0000
# 2 12.6424 117.2249 68.0043 0.0000 -19.6297 0.0000
# 3 66.0828 68.0043 232.1858 0.0000 14.1876 0.0000
# 4 0.0000 0.0000 0.0000 65.5971 0.0000 7.2869
# 5 -1.0347 -19.6297 14.1876 0.0000 58.3864 0.0000
# 6 0.0000 0.0000 0.0000 7.2869 0.0000 28.1296
#
#
#
# Elastic Compliance Matrix: (Units=1/GPa)
#
#
# Indices 1 2 3 4 5 6 
#
# 1 0.010380 0.001045 -0.003343 0.000000 0.001348 0.000000
# 2 0.001045 0.011538 -0.003974 0.000000 0.004863 0.000000
# 3 -0.003343 -0.003974 0.006606 0.000000 -0.003000 0.000000
# 4 0.000000 0.000000 0.000000 0.015696 0.000000 -0.004066
# 5 0.001348 0.004863 -0.003000 0.000000 0.019515 0.000000
# 6 0.000000 0.000000 0.000000 -0.004066 0.000000 0.036603
#
#
# Mechanical properties :
#
#
# Convention : Reuss Voigt Hill
#
# Bulk Modulus (GPa) = 62.57717 84.37285 73.47501
# Shear Modulus (GPa) = 42.29897 51.70042 46.99969
#
# Velocity S-wave (km/s) = 3.81744 4.22041 4.02397
# Velocity P-wave (km/s) = 6.40231 7.26755 6.84861
#
# Compressibility (1/GPa) = 0.01598027
#
# Stress axis : x y z
#
# Youngs Moduli (GPa) = 96.34320 86.67355 151.38892
#
# Poissons Ratio (x) = -0.09061 0.50604
# Poissons Ratio (y) = -0.10072 0.60160
# Poissons Ratio (z) = 0.32204 0.34443
#
# Static dielectric constant tensor:
#      x y z
#    x 2.239230 0.000000 -0.014820 
#    y 0.000000 2.312660 0.000000 
#    z -0.014820 0.000000 2.310620 
# 
# From -- ./inp_files/13703.got.cif
#   From: 2010.05.17/outbox.cif.g08.bks.cpg/sg4_7_cif.got.tgz:13703.got - 2010.06.03 18:43:04.
