data_PCOD9115444
_publ_section_title
;
Structure prediction by ZEFSAII (Michael W. Deem and Ramdas Pophale) SiO2 
 PCOD9115444
Probable space group: P 21
;
_chemical_formula_sum "Si O2"
_cell_formula_units_Z 12
_cell_length_a 14.860138
_cell_length_b 6.784271
_cell_length_c 9.752680
_cell_angle_alpha 90.000000
_cell_angle_beta 151.831384
_cell_angle_gamma 90.000000
_cell_volume 464.145909
_symmetry_space_group_name_H-M "P 21"
_symmetry_group_IT_number 4
_symmetry_cell_setting 'monoclinic'
loop_
_space_group_symop_operation_xyz
x,y,z
-x,1/2+y,-z
loop_
_atom_site_type_symbol
_atom_site_label
_atom_site_fract_x
_atom_site_fract_y
_atom_site_fract_z
Si Si1 0.247452 0.983090 0.878444
Si Si2 0.287965 0.101556 0.353579
Si Si3 0.957995 0.013365 0.690596
Si Si4 0.342753 0.569670 0.499786
Si Si5 0.120981 0.044306 0.418643
Si Si6 0.285064 0.607811 0.125440
O O1 0.241255 0.968634 0.707636
O O2 0.269943 0.777724 0.990554
O O3 0.046163 0.068766 0.662020
O O4 0.434938 0.102702 0.173802
O O5 0.309155 0.337987 0.411924
O O6 0.212864 0.012119 0.394695
O O7 0.500281 0.030685 0.599965
O O8 0.131501 0.059267 0.027971
O O9 0.776933 0.105097 0.523240
O O10 0.902297 0.782583 0.603241
O O11 0.272005 0.676404 0.267229
O O12 0.902010 0.973388 0.139228
#
# Coordination Sequence:
#
# PCOD9115444 Si02
#       6
#     2   2   2   2   2   2
#     4  10  22  40  63  95 137 167 216 273 329 388
#     4  10  20  38  70  96 126 170 224 269 321 392
#     4  10  20  40  67  93 126 176 217 266 326 385
#     4  10  20  38  70  96 126 170 224 269 321 392
#     4  10  22  40  63  95 137 167 216 273 329 388
#     4  10  20  40  67  93 126 176 217 266 326 385
#
# _framework density 25.853940000000001
#
# number of rings (size 3 to 8) (size 9 to 14) (size 15 to 20)
#    0.000    2.000    3.333    0.000    0.000    1.333 
#    6.000    0.000   22.000    0.000    0.000    0.000 
#    0.000    0.000    0.000    0.000    0.000    0.000 
#
# Total GULP energy -67137.465330 kJ/mol
# GULP energy per Si atom -5594.788778 kJ/mol
# Density = 2.579510 g / cm^3
# Si number density = 25.853940 Si / 1000 Ang^3
#
#
#
# Elastic Constant Matrix: (Units=GPa)
#
#
# Indices 1 2 3 4 5 6 
#
# 1 156.9661 11.4543 43.8478 0.0000 -3.1119 0.0000
# 2 11.4543 100.8546 -0.6143 0.0000 -7.5253 0.0000
# 3 43.8478 -0.6143 93.4856 0.0000 -16.2001 0.0000
# 4 0.0000 0.0000 0.0000 29.5077 0.0000 -8.4706
# 5 -3.1119 -7.5253 -16.2001 0.0000 61.3874 0.0000
# 6 0.0000 0.0000 0.0000 -8.4706 0.0000 12.3328
#
#
#
# Elastic Compliance Matrix: (Units=1/GPa)
#
#
# Indices 1 2 3 4 5 6 
#
# 1 0.007433 -0.000918 -0.003612 0.000000 -0.000689 0.000000
# 2 -0.000918 0.010128 0.000738 0.000000 0.001390 0.000000
# 3 -0.003612 0.000738 0.012973 0.000000 0.003331 0.000000
# 4 0.000000 0.000000 0.000000 0.042212 0.000000 0.028993
# 5 -0.000689 0.001390 0.003331 0.000000 0.017304 0.000000
# 6 0.000000 0.000000 0.000000 0.028993 0.000000 0.100998
#
#
# Mechanical properties :
#
#
# Convention : Reuss Voigt Hill
#
# Bulk Modulus (GPa) = 43.57209 51.18688 47.37948
# Shear Modulus (GPa) = 24.23875 40.42014 32.32944
#
# Velocity S-wave (km/s) = 3.06523 3.95828 3.54003
# Velocity P-wave (km/s) = 5.42377 6.38217 5.92239
#
# Compressibility (1/GPa) = 0.02295047
#
# Stress axis : x y z
#
# Youngs Moduli (GPa) = 134.53473 98.73947 77.08373
#
# Poissons Ratio (x) = 0.09060 0.27841
# Poissons Ratio (y) = 0.12345 -0.05687
# Poissons Ratio (z) = 0.48590 -0.07285
#
# Static dielectric constant tensor:
#      x y z
#    x 1.987450 0.000000 0.044340 
#    y 0.000000 2.218440 0.000000 
#    z 0.044340 0.000000 1.943870 
# 
# From -- ./inp_files/5224.got.cif
#   From: 2010.05.17/outbox.cif.g08.bks.cpg/sg4_3_cif.got.tgz:5224.got - 2010.06.03 18:43:04.
