data_PCOD9115666
_publ_section_title
;
Structure prediction by ZEFSAII (Michael W. Deem and Ramdas Pophale) SiO2 
 PCOD9115666
Probable space group: P 21
;
_chemical_formula_sum "Si O2"
_cell_formula_units_Z 16
_cell_length_a 8.256825
_cell_length_b 8.483602
_cell_length_c 18.188716
_cell_angle_alpha 90.000000
_cell_angle_beta 30.815001
_cell_angle_gamma 90.000000
_cell_volume 652.668139
_symmetry_space_group_name_H-M "P 21"
_symmetry_group_IT_number 4
_symmetry_cell_setting 'monoclinic'
loop_
_space_group_symop_operation_xyz
x,y,z
-x,1/2+y,-z
loop_
_atom_site_type_symbol
_atom_site_label
_atom_site_fract_x
_atom_site_fract_y
_atom_site_fract_z
Si Si1 0.282572 0.926380 0.312756
Si Si2 0.898392 0.340593 0.321559
Si Si3 0.837123 0.164007 0.985822
Si Si4 0.151696 0.009228 0.215180
Si Si5 0.684581 0.458359 0.263278
Si Si6 0.891355 0.797967 0.593417
Si Si7 0.419551 0.962594 0.964219
Si Si8 0.179488 0.249041 0.981646
O O1 0.609639 0.850287 0.156711
O O2 0.155758 0.819896 0.428002
O O3 0.080871 0.912937 0.315676
O O4 0.241964 0.116039 0.347803
O O5 0.913865 0.153985 0.300025
O O6 0.952076 0.348754 0.389223
O O7 0.221514 0.416416 0.164872
O O8 0.644363 0.417893 0.365410
O O9 0.970941 0.131430 0.014254
O O10 0.509818 0.080875 0.088984
O O11 0.720026 0.342739 0.040181
O O12 0.135087 0.124239 0.817902
O O13 0.201692 0.926021 0.119142
O O14 0.379312 0.416428 0.332873
O O15 0.952086 0.346149 0.122826
O O16 0.395266 0.141433 0.949299
#
# Coordination Sequence:
#
# PCOD9115666 Si02
#       8
#     2   2   2   2   2   2   2   2
#     4  11  26  47  72  96 143 190 233 283 364 420
#     4  10  21  41  67  94 141 177 226 284 350 411
#     4  11  23  37  64 112 137 165 232 298 345 421
#     4  10  20  42  65 101 136 174 223 297 349 413
#     4  12  23  43  72 102 137 177 233 301 349 406
#     4  11  28  49  68  99 144 191 236 289 347 431
#     4  11  22  37  68 105 138 172 229 291 356 411
#     4  12  23  40  72 101 134 184 230 293 358 409
#
# _framework density 24.514752999999999
#
# number of rings (size 3 to 8) (size 9 to 14) (size 15 to 20)
#    0.000    1.000    3.750    3.750    7.000    0.000 
#    0.000    3.750    0.000    0.000    0.000    0.000 
#    0.000    0.000    0.000    0.000    0.000    0.000 
#
# Total GULP energy -89240.107803 kJ/mol
# GULP energy per Si atom -5577.506738 kJ/mol
# Density = 2.445896 g / cm^3
# Si number density = 24.514753 Si / 1000 Ang^3
#
#
#
# Elastic Constant Matrix: (Units=GPa)
#
#
# Indices 1 2 3 4 5 6 
#
# 1 108.4540 17.5368 31.3898 0.0000 27.7026 0.0000
# 2 17.5368 60.5012 22.5022 0.0000 2.0265 0.0000
# 3 31.3898 22.5022 96.7585 0.0000 14.4809 0.0000
# 4 0.0000 0.0000 0.0000 25.8121 0.0000 5.4300
# 5 27.7026 2.0265 14.4809 0.0000 35.2418 0.0000
# 6 0.0000 0.0000 0.0000 5.4300 0.0000 32.4934
#
#
#
# Elastic Compliance Matrix: (Units=1/GPa)
#
#
# Indices 1 2 3 4 5 6 
#
# 1 0.012498 -0.002528 -0.002150 0.000000 -0.008796 0.000000
# 2 -0.002528 0.018623 -0.003887 0.000000 0.002514 0.000000
# 3 -0.002150 -0.003887 0.012413 0.000000 -0.003187 0.000000
# 4 0.000000 0.000000 0.000000 0.040153 0.000000 -0.006710
# 5 -0.008796 0.002514 -0.003187 0.000000 0.036454 0.000000
# 6 0.000000 0.000000 0.000000 -0.006710 0.000000 0.031897
#
#
# Mechanical properties :
#
#
# Convention : Reuss Voigt Hill
#
# Bulk Modulus (GPa) = 37.87359 45.39680 41.63520
# Shear Modulus (GPa) = 28.09437 31.66179 29.87808
#
# Velocity S-wave (km/s) = 3.38896 3.59770 3.49489
# Velocity P-wave (km/s) = 5.54944 5.98467 5.77116
#
# Compressibility (1/GPa) = 0.02640362
#
# Stress axis : x y z
#
# Youngs Moduli (GPa) = 80.01032 53.69724 80.55750
#
# Poissons Ratio (x) = 0.13577 0.17322
# Poissons Ratio (y) = 0.20230 0.31312
# Poissons Ratio (z) = 0.17204 0.20872
#
# Static dielectric constant tensor:
#      x y z
#    x 2.009430 0.000000 0.001170 
#    y 0.000000 2.028580 0.000000 
#    z 0.001170 0.000000 1.955840 
# 
# From -- ./inp_files/13653.got.cif
#   From: 2010.05.17/outbox.cif.g08.bks.cpg/sg4_7_cif.got.tgz:13653.got - 2010.06.03 18:43:04.
