data_PCOD9115445
_publ_section_title
;
Structure prediction by ZEFSAII (Michael W. Deem and Ramdas Pophale) SiO2 
 PCOD9115445
Probable space group: P 21
;
_chemical_formula_sum "Si O2"
_cell_formula_units_Z 14
_cell_length_a 9.504573
_cell_length_b 5.355991
_cell_length_c 23.398746
_cell_angle_alpha 90.000000
_cell_angle_beta 29.495485
_cell_angle_gamma 90.000000
_cell_volume 586.466705
_symmetry_space_group_name_H-M "P 21"
_symmetry_group_IT_number 4
_symmetry_cell_setting 'monoclinic'
loop_
_space_group_symop_operation_xyz
x,y,z
-x,1/2+y,-z
loop_
_atom_site_type_symbol
_atom_site_label
_atom_site_fract_x
_atom_site_fract_y
_atom_site_fract_z
Si Si1 0.633250 0.199280 0.163280
Si Si2 0.797145 0.486165 0.756566
Si Si3 0.744471 0.507371 0.223720
Si Si4 0.871565 0.602623 0.849607
Si Si5 0.834167 0.490920 0.387087
Si Si6 0.839722 0.410177 0.979812
Si Si7 0.566240 0.785770 0.384405
O O1 0.428736 0.982398 0.215006
O O2 0.559479 0.336153 0.247221
O O3 0.950919 0.114589 0.066460
O O4 0.633248 0.356546 0.104994
O O5 0.674798 0.550180 0.863767
O O6 0.951871 0.221842 0.695447
O O7 0.010047 0.724342 0.674315
O O8 0.964803 0.356254 0.188171
O O9 0.949705 0.682440 0.112453
O O10 0.517291 0.657460 0.341552
O O11 0.724252 0.507447 0.959943
O O12 0.140537 0.431099 0.734988
O O13 0.614550 0.565940 0.414121
O O14 0.659316 0.470397 0.507636
#
# Coordination Sequence:
#
# PCOD9115445 Si02
#       7
#     2   2   2   2   2   2   2
#     4  11  23  41  68  92 135 185 226 279 339 413
#     4  11  25  42  65 103 144 169 216 294 349 385
#     4  10  20  39  68  93 129 173 233 275 318 414
#     4   9  20  39  61  99 130 165 223 286 330 391
#     4  11  23  39  69 102 133 175 226 276 347 400
#     4  10  21  40  65  91 123 185 238 260 331 420
#     4  10  20  38  70  96 128 172 228 274 326 411
#
# _framework density 23.871772
#
# number of rings (size 3 to 8) (size 9 to 14) (size 15 to 20)
#    0.000    1.714    2.857    1.714    4.000    0.000 
#    2.571    0.000    9.429    0.000    0.000    0.000 
#    0.000    0.000    0.000    0.000    0.000    0.000 
#
# Total GULP energy -78076.105928 kJ/mol
# GULP energy per Si atom -5576.864709 kJ/mol
# Density = 2.381744 g / cm^3
# Si number density = 23.871772 Si / 1000 Ang^3
#
#
#
# Elastic Constant Matrix: (Units=GPa)
#
#
# Indices 1 2 3 4 5 6 
#
# 1 102.8856 8.6587 12.9585 0.0000 24.5887 0.0000
# 2 8.6587 80.3918 22.5908 0.0000 15.7252 0.0000
# 3 12.9585 22.5908 56.5838 0.0000 22.9970 0.0000
# 4 0.0000 0.0000 0.0000 35.0852 0.0000 8.6433
# 5 24.5887 15.7252 22.9970 0.0000 19.5438 0.0000
# 6 0.0000 0.0000 0.0000 8.6433 0.0000 34.9656
#
#
#
# Elastic Compliance Matrix: (Units=1/GPa)
#
#
# Indices 1 2 3 4 5 6 
#
# 1 0.016097 0.002136 0.008414 0.000000 -0.031872 0.000000
# 2 0.002136 0.015170 -0.000944 0.000000 -0.013783 0.000000
# 3 0.008414 -0.000944 0.038555 0.000000 -0.055194 0.000000
# 4 0.000000 0.000000 0.000000 0.030350 0.000000 -0.007502
# 5 -0.031872 -0.013783 -0.055194 0.000000 0.167302 0.000000
# 6 0.000000 0.000000 0.000000 -0.007502 0.000000 0.030454
#
#
# Mechanical properties :
#
#
# Convention : Reuss Voigt Hill
#
# Bulk Modulus (GPa) = 11.23161 36.47523 23.85342
# Shear Modulus (GPa) = 16.21301 30.96249 23.58775
#
# Velocity S-wave (km/s) = 2.60892 3.60534 3.14682
# Velocity P-wave (km/s) = 3.71355 5.71351 4.81843
#
# Compressibility (1/GPa) = 0.08903443
#
# Stress axis : x y z
#
# Youngs Moduli (GPa) = 62.12310 65.91808 25.93705
#
# Poissons Ratio (x) = -0.14081 -0.21824
# Poissons Ratio (y) = -0.13270 0.02449
# Poissons Ratio (z) = -0.52272 0.06225
#
# Static dielectric constant tensor:
#      x y z
#    x 2.015540 0.000000 -0.012940 
#    y 0.000000 2.042220 0.000000 
#    z -0.012940 0.000000 1.940980 
# 
# From -- ./inp_files/8709.got.cif
#   From: 2010.05.17/outbox.cif.g08.bks.cpg/sg4_5_cif.got.tgz:8709.got - 2010.06.03 18:43:04.
