data_PCOD9115891
_publ_section_title
;
Structure prediction by ZEFSAII (Michael W. Deem and Ramdas Pophale) SiO2 
 PCOD9115891
Probable space group: P 21
;
_chemical_formula_sum "Si O2"
_cell_formula_units_Z 12
_cell_length_a 9.260765
_cell_length_b 10.387419
_cell_length_c 9.354349
_cell_angle_alpha 90.000000
_cell_angle_beta 148.568263
_cell_angle_gamma 90.000000
_cell_volume 469.253687
_symmetry_space_group_name_H-M "P 21"
_symmetry_group_IT_number 4
_symmetry_cell_setting 'monoclinic'
loop_
_space_group_symop_operation_xyz
x,y,z
-x,1/2+y,-z
loop_
_atom_site_type_symbol
_atom_site_label
_atom_site_fract_x
_atom_site_fract_y
_atom_site_fract_z
Si Si1 0.672769 0.377560 0.373780
Si Si2 0.898892 0.623774 0.738479
Si Si3 0.570399 0.310448 0.575306
Si Si4 0.629214 0.073307 0.041957
Si Si5 0.036069 0.469382 0.118758
Si Si6 0.947772 0.503370 0.375921
O O1 0.811502 0.494013 0.581258
O O2 0.635340 0.271615 0.464599
O O3 0.859867 0.372920 0.389371
O O4 0.394661 0.439806 0.071894
O O5 0.630830 0.712795 0.513448
O O6 0.977675 0.589363 0.967012
O O7 0.173183 0.664313 0.883236
O O8 0.838859 0.358403 0.885976
O O9 0.356138 0.430322 0.377947
O O10 0.771570 0.048654 0.313670
O O11 0.693161 0.599869 0.201028
O O12 0.965277 0.488850 0.223294
#
# Coordination Sequence:
#
# PCOD9115891 Si02
#       6
#     2   2   2   2   2   2
#     4   8  19  38  56  82 115 150 188 228 290 333
#     4  10  21  38  60  82 118 152 193 237 281 342
#     4  11  23  35  61  85 113 154 193 234 288 336
#     4   9  17  35  58  77 108 155 176 225 292 329
#     4  11  22  38  58  90 112 146 197 242 276 341
#     4   9  18  34  61  76 114 147 181 232 293 323
#
# _framework density 25.572524000000001
#
# number of rings (size 3 to 8) (size 9 to 14) (size 15 to 20)
#    1.000    1.333    1.667    1.000    2.333    0.000 
#    0.000    5.000    0.000    0.000    0.000    0.000 
#    0.000    0.000    0.000    0.000    0.000    0.000 
#
# Total GULP energy -66988.192134 kJ/mol
# GULP energy per Si atom -5582.349344 kJ/mol
# Density = 2.551432 g / cm^3
# Si number density = 25.572524 Si / 1000 Ang^3
#
#
#
# Elastic Constant Matrix: (Units=GPa)
#
#
# Indices 1 2 3 4 5 6 
#
# 1 134.2121 7.5925 59.2687 0.0000 -44.8601 0.0000
# 2 7.5925 40.0341 18.6415 0.0000 -5.5285 0.0000
# 3 59.2687 18.6415 153.3543 0.0000 -16.4107 0.0000
# 4 0.0000 0.0000 0.0000 20.5689 0.0000 -1.0646
# 5 -44.8601 -5.5285 -16.4107 0.0000 59.2906 0.0000
# 6 0.0000 0.0000 0.0000 -1.0646 0.0000 23.6865
#
#
#
# Elastic Compliance Matrix: (Units=1/GPa)
#
#
# Indices 1 2 3 4 5 6 
#
# 1 0.011708 0.000617 -0.003757 0.000000 0.007876 0.000000
# 2 0.000617 0.026663 -0.003260 0.000000 0.002050 0.000000
# 3 -0.003757 -0.003260 0.008278 0.000000 -0.000855 0.000000
# 4 0.000000 0.000000 0.000000 0.048731 0.000000 0.002190
# 5 0.007876 0.002050 -0.000855 0.000000 0.022779 0.000000
# 6 0.000000 0.000000 0.000000 0.002190 0.000000 0.042317
#
#
# Mechanical properties :
#
#
# Convention : Reuss Voigt Hill
#
# Bulk Modulus (GPa) = 29.54433 55.40066 42.47249
# Shear Modulus (GPa) = 27.09181 36.84903 31.97042
#
# Velocity S-wave (km/s) = 3.25839 3.80012 3.53963
# Velocity P-wave (km/s) = 5.07291 6.40045 5.77495
#
# Compressibility (1/GPa) = 0.03384745
#
# Stress axis : x y z
#
# Youngs Moduli (GPa) = 85.41510 37.50528 120.80833
#
# Poissons Ratio (x) = -0.02313 0.45387
# Poissons Ratio (y) = -0.05267 0.39384
# Poissons Ratio (z) = 0.32090 0.12227
#
# Static dielectric constant tensor:
#      x y z
#    x 2.092920 0.000000 -0.013240 
#    y 0.000000 2.187400 0.000000 
#    z -0.013240 0.000000 1.955470 
# 
# From -- ./inp_files/1149.got.cif
#   From: 2010.05.17/outbox.cif.g08.bks.cpg/sg4_1_cif.got.tgz:1149.got - 2010.06.03 18:43:04.
