data_PCOD9115741
_publ_section_title
;
Structure prediction by ZEFSAII (Michael W. Deem and Ramdas Pophale) SiO2 
 PCOD9115741
Probable space group: P 21
;
_chemical_formula_sum "Si O2"
_cell_formula_units_Z 14
_cell_length_a 6.893491
_cell_length_b 11.545316
_cell_length_c 8.532965
_cell_angle_alpha 90.000000
_cell_angle_beta 102.088331
_cell_angle_gamma 90.000000
_cell_volume 664.058808
_symmetry_space_group_name_H-M "P 21"
_symmetry_group_IT_number 4
_symmetry_cell_setting 'monoclinic'
loop_
_space_group_symop_operation_xyz
x,y,z
-x,1/2+y,-z
loop_
_atom_site_type_symbol
_atom_site_label
_atom_site_fract_x
_atom_site_fract_y
_atom_site_fract_z
Si Si1 0.797623 0.305200 0.888065
Si Si2 0.513087 0.649820 0.335452
Si Si3 0.290960 0.073723 0.119072
Si Si4 0.903900 0.657506 0.234179
Si Si5 0.238134 0.468258 0.374460
Si Si6 0.988007 0.740132 0.750871
Si Si7 0.662252 0.130722 0.365520
O O1 0.614374 0.223252 0.809531
O O2 0.729082 0.436685 0.870750
O O3 0.972315 0.270773 0.794773
O O4 0.888125 0.279063 0.074155
O O5 0.743718 0.666089 0.344060
O O6 0.434251 0.515809 0.316650
O O7 0.445177 0.684498 0.499457
O O8 0.509343 0.117648 0.198993
O O9 0.141658 0.131056 0.218265
O O10 0.221002 0.116654 0.938024
O O11 0.065616 0.558737 0.296228
O O12 0.281263 0.502026 0.561825
O O13 0.158190 0.343021 0.323779
O O14 0.146474 0.703207 0.648049
#
# Coordination Sequence:
#
# PCOD9115741 Si02
#       7
#     2   2   2   2   2   2   2
#     4  10  22  42  66  98 130 173 224 273 325 399
#     4   9  22  42  65  95 132 169 219 267 342 386
#     4  11  24  40  65 101 128 173 227 272 325 403
#     4  10  20  44  69  88 131 181 214 272 332 395
#     4   9  22  43  66  93 130 174 211 274 329 391
#     4  11  23  44  69  95 135 175 224 269 335 396
#     4  10  25  41  64 100 130 171 221 275 332 390
#
# _framework density 21.082471000000002
#
# number of rings (size 3 to 8) (size 9 to 14) (size 15 to 20)
#    0.857    1.143    1.429    0.857    2.000    4.571 
#    5.143    0.000    0.000    0.000    0.000    0.000 
#    0.000    0.000    0.000    0.000    0.000    0.000 
#
# Total GULP energy -78155.283456 kJ/mol
# GULP energy per Si atom -5582.520247 kJ/mol
# Density = 2.103449 g / cm^3
# Si number density = 21.082471 Si / 1000 Ang^3
#
#
#
# Elastic Constant Matrix: (Units=GPa)
#
#
# Indices 1 2 3 4 5 6 
#
# 1 66.0430 1.5809 9.8497 0.0000 -5.7080 0.0000
# 2 1.5809 49.9654 -4.8881 0.0000 -9.5104 0.0000
# 3 9.8497 -4.8881 46.6130 0.0000 2.5687 0.0000
# 4 0.0000 0.0000 0.0000 18.2814 0.0000 7.8753
# 5 -5.7080 -9.5104 2.5687 0.0000 49.1887 0.0000
# 6 0.0000 0.0000 0.0000 7.8753 0.0000 25.0745
#
#
#
# Elastic Compliance Matrix: (Units=1/GPa)
#
#
# Indices 1 2 3 4 5 6 
#
# 1 0.015842 -0.000477 -0.003504 0.000000 0.001929 0.000000
# 2 -0.000477 0.020974 0.002086 0.000000 0.003891 0.000000
# 3 -0.003504 0.002086 0.022477 0.000000 -0.001177 0.000000
# 4 0.000000 0.000000 0.000000 0.063259 0.000000 -0.019868
# 5 0.001929 0.003891 -0.001177 0.000000 0.021367 0.000000
# 6 0.000000 0.000000 0.000000 -0.019868 0.000000 0.046121
#
#
# Mechanical properties :
#
#
# Convention : Reuss Voigt Hill
#
# Bulk Modulus (GPa) = 18.01699 19.52293 18.76996
# Shear Modulus (GPa) = 23.54796 28.91417 26.23106
#
# Velocity S-wave (km/s) = 3.34570 3.70737 3.53117
# Velocity P-wave (km/s) = 4.84659 5.25418 5.05450
#
# Compressibility (1/GPa) = 0.05550317
#
# Stress axis : x y z
#
# Youngs Moduli (GPa) = 63.12182 47.67902 44.48950
#
# Poissons Ratio (x) = 0.02274 0.15589
# Poissons Ratio (y) = 0.03010 -0.09279
# Poissons Ratio (z) = 0.22117 -0.09945
#
# Static dielectric constant tensor:
#      x y z
#    x 1.762090 0.000000 0.003270 
#    y 0.000000 1.736020 0.000000 
#    z 0.003270 0.000000 1.783910 
# 
# From -- ./inp_files/2797.got.cif
#   From: 2010.05.17/outbox.cif.g08.bks.cpg/sg4_2_cif.got.tgz:2797.got - 2010.06.03 18:43:04.
