data_PCOD9115947
_publ_section_title
;
Structure prediction by ZEFSAII (Michael W. Deem and Ramdas Pophale) SiO2 
 PCOD9115947
Probable space group: P 21
;
_chemical_formula_sum "Si O2"
_cell_formula_units_Z 16
_cell_length_a 6.706525
_cell_length_b 15.833766
_cell_length_c 9.257471
_cell_angle_alpha 90.000000
_cell_angle_beta 49.691500
_cell_angle_gamma 90.000000
_cell_volume 749.644217
_symmetry_space_group_name_H-M "P 21"
_symmetry_group_IT_number 4
_symmetry_cell_setting 'monoclinic'
loop_
_space_group_symop_operation_xyz
x,y,z
-x,1/2+y,-z
loop_
_atom_site_type_symbol
_atom_site_label
_atom_site_fract_x
_atom_site_fract_y
_atom_site_fract_z
Si Si1 0.298659 0.817070 0.070679
Si Si2 0.434809 0.105767 0.239316
Si Si3 0.511950 0.074280 0.543869
Si Si4 0.109829 0.258995 0.965901
Si Si5 0.024078 0.064762 0.956986
Si Si6 0.661419 0.242466 0.654133
Si Si7 0.180869 0.283599 0.260187
Si Si8 0.034775 0.984129 0.264190
O O1 0.327057 0.741755 0.176043
O O2 0.149253 0.891320 0.222082
O O3 0.122829 0.788011 0.022812
O O4 0.575193 0.846841 0.873923
O O5 0.463865 0.102550 0.400314
O O6 0.333741 0.198057 0.237806
O O7 0.219126 0.043547 0.274455
O O8 0.722708 0.076150 0.050794
O O9 0.237047 0.042567 0.736748
O O10 0.625499 0.154426 0.583550
O O11 0.735527 0.003242 0.444998
O O12 0.112912 0.158001 0.964421
O O13 0.383146 0.290021 0.768117
O O14 0.075878 0.282642 0.146452
O O15 0.047588 0.007545 0.087662
O O16 0.923178 0.287316 0.476881
#
# Coordination Sequence:
#
# PCOD9115947 Si02
#       8
#     2   2   2   2   2   2   2   2
#     4  11  26  41  64  93 137 167 207 275 329 364
#     4  11  21  38  67  91 125 162 214 266 315 377
#     4  10  23  38  66  96 125 164 219 264 314 384
#     4  10  21  39  61  91 123 162 212 265 311 381
#     4  10  21  38  65  93 120 169 215 257 311 386
#     4  10  23  38  62  97 122 163 220 261 311 391
#     4  11  21  38  64  96 119 166 217 257 313 390
#     4  11  24  44  61  95 135 167 212 271 324 375
#
# _framework density 21.343457999999998
#
# number of rings (size 3 to 8) (size 9 to 14) (size 15 to 20)
#    0.000    1.500    3.750    0.750    3.500    6.000 
#    0.000    2.500    0.000    0.000    0.000    0.000 
#    0.000    0.000    0.000    0.000    0.000    0.000 
#
# Total GULP energy -89215.737923 kJ/mol
# GULP energy per Si atom -5575.983620 kJ/mol
# Density = 2.129488 g / cm^3
# Si number density = 21.343458 Si / 1000 Ang^3
#
#
#
# Elastic Constant Matrix: (Units=GPa)
#
#
# Indices 1 2 3 4 5 6 
#
# 1 126.7195 3.9126 41.1378 0.0000 -23.6475 0.0000
# 2 3.9126 22.2964 -9.4362 0.0000 -0.2638 0.0000
# 3 41.1378 -9.4362 142.1268 0.0000 -37.2684 0.0000
# 4 0.0000 0.0000 0.0000 14.9181 0.0000 15.7309
# 5 -23.6475 -0.2638 -37.2684 0.0000 40.3054 0.0000
# 6 0.0000 0.0000 0.0000 15.7309 0.0000 -26.8059
#
#
#
# Elastic Compliance Matrix: (Units=1/GPa)
#
#
# Indices 1 2 3 4 5 6 
#
# 1 0.009260 -0.002373 -0.001871 0.000000 0.003688 0.000000
# 2 -0.002373 0.047284 0.004676 0.000000 0.003241 0.000000
# 3 -0.001871 0.004676 0.010043 0.000000 0.008219 0.000000
# 4 0.000000 0.000000 0.000000 0.041408 0.000000 0.024300
# 5 0.003688 0.003241 0.008219 0.000000 0.034595 0.000000
# 6 0.000000 0.000000 0.000000 0.024300 0.000000 -0.023045
#
#
# Mechanical properties :
#
#
# Convention : Reuss Voigt Hill
#
# Bulk Modulus (GPa) = 14.82549 40.26345 27.54447
# Shear Modulus (GPa) = 35.41910 22.71874 29.06892
#
# Velocity S-wave (km/s) = 4.07809 3.26611 3.69448
# Velocity P-wave (km/s) = 5.39775 5.75576 5.57963
#
# Compressibility (1/GPa) = 0.06745141
#
# Stress axis : x y z
#
# Youngs Moduli (GPa) = 107.98854 21.14874 99.56946
#
# Poissons Ratio (x) = 0.05019 0.18629
# Poissons Ratio (y) = 0.25628 -0.46559
# Poissons Ratio (z) = 0.20204 -0.09889
#
# Static dielectric constant tensor:
#      x y z
#    x 1.756730 0.000000 -0.028170 
#    y 0.000000 1.785630 0.000000 
#    z -0.028170 0.000000 1.816100 
# 
# From -- ./inp_files/2129.got.cif
#   From: 2010.05.17/outbox.cif.g08.bks.cpg/sg4_2_cif.got.tgz:2129.got - 2010.06.03 18:43:04.
