data_PCOD9115581
_publ_section_title
;
Structure prediction by ZEFSAII (Michael W. Deem and Ramdas Pophale) SiO2 
 PCOD9115581
Probable space group: P 21
;
_chemical_formula_sum "Si O2"
_cell_formula_units_Z 16
_cell_length_a 5.707144
_cell_length_b 11.846682
_cell_length_c 10.486840
_cell_angle_alpha 90.000000
_cell_angle_beta 86.265917
_cell_angle_gamma 90.000000
_cell_volume 707.517587
_symmetry_space_group_name_H-M "P 21"
_symmetry_group_IT_number 4
_symmetry_cell_setting 'monoclinic'
loop_
_space_group_symop_operation_xyz
x,y,z
-x,1/2+y,-z
loop_
_atom_site_type_symbol
_atom_site_label
_atom_site_fract_x
_atom_site_fract_y
_atom_site_fract_z
Si Si1 0.169650 0.823380 0.579770
Si Si2 0.330554 0.051344 0.176818
Si Si3 0.667677 0.688108 0.565304
Si Si4 0.031586 0.865748 0.319744
Si Si5 0.665745 0.863767 0.156032
Si Si6 0.094276 0.167229 0.950580
Si Si7 0.707299 0.165411 0.802167
Si Si8 0.676436 0.544054 0.302307
O O1 0.420114 0.757600 0.557210
O O2 0.121704 0.895259 0.454098
O O3 0.920857 0.751784 0.589583
O O4 0.223271 0.918515 0.683740
O O5 0.381678 0.115709 0.305787
O O6 0.144999 0.954310 0.219878
O O7 0.553642 0.980174 0.120618
O O8 0.214667 0.128251 0.074259
O O9 0.698358 0.616220 0.432989
O O10 0.113215 0.737398 0.291620
O O11 0.757880 0.873589 0.298390
O O12 0.868319 0.802151 0.068384
O O13 0.478330 0.764009 0.164280
O O14 0.201162 0.098510 0.826208
O O15 0.823469 0.141261 0.933969
O O16 0.596601 0.061067 0.730689
#
# Coordination Sequence:
#
# PCOD9115581 Si02
#       8
#     2   2   2   2   2   2   2   2
#     4  12  27  44  72 110 147 183 243 309 365 428
#     4  11  25  44  70 104 142 192 237 304 367 429
#     4  12  28  47  73 109 144 185 248 305 361 436
#     4  10  20  40  69  99 134 186 238 289 360 444
#     4   9  21  41  69  96 131 189 242 286 355 438
#     4  10  23  43  69 101 141 188 244 296 358 447
#     4   9  18  40  66  94 128 181 239 283 350 434
#     4  11  24  43  72  97 141 192 233 300 370 430
#
# _framework density 22.614279
#
# number of rings (size 3 to 8) (size 9 to 14) (size 15 to 20)
#    0.000    1.500    2.500    2.250    5.250    3.000 
#    6.750    0.000    0.000    0.000    0.000    0.000 
#    0.000    0.000    0.000    0.000    0.000    0.000 
#
# Total GULP energy -89068.594699 kJ/mol
# GULP energy per Si atom -5566.787169 kJ/mol
# Density = 2.256281 g / cm^3
# Si number density = 22.614279 Si / 1000 Ang^3
#
#
#
# Elastic Constant Matrix: (Units=GPa)
#
#
# Indices 1 2 3 4 5 6 
#
# 1 102.8238 43.8088 26.0006 0.0000 30.7662 0.0000
# 2 43.8088 63.5674 28.9827 0.0000 8.6196 0.0000
# 3 26.0006 28.9827 92.1729 0.0000 24.5220 0.0000
# 4 0.0000 0.0000 0.0000 36.5819 0.0000 4.3484
# 5 30.7662 8.6196 24.5220 0.0000 38.8184 0.0000
# 6 0.0000 0.0000 0.0000 4.3484 0.0000 14.3216
#
#
#
# Elastic Compliance Matrix: (Units=1/GPa)
#
#
# Indices 1 2 3 4 5 6 
#
# 1 0.018044 -0.011591 0.002013 0.000000 -0.012999 0.000000
# 2 -0.011591 0.025818 -0.006932 0.000000 0.007833 0.000000
# 3 0.002013 -0.006932 0.014996 0.000000 -0.009529 0.000000
# 4 0.000000 0.000000 0.000000 0.028359 0.000000 -0.008611
# 5 -0.012999 0.007833 -0.009529 0.000000 0.040344 0.000000
# 6 0.000000 0.000000 0.000000 -0.008611 0.000000 0.072439
#
#
# Mechanical properties :
#
#
# Convention : Reuss Voigt Hill
#
# Bulk Modulus (GPa) = 38.70255 50.68314 44.69285
# Shear Modulus (GPa) = 20.69245 28.59586 24.64415
#
# Velocity S-wave (km/s) = 3.02821 3.55984 3.30473
# Velocity P-wave (km/s) = 5.42015 6.27354 5.86240
#
# Compressibility (1/GPa) = 0.02583809
#
# Stress axis : x y z
#
# Youngs Moduli (GPa) = 55.41966 38.73283 66.68246
#
# Poissons Ratio (x) = 0.44894 -0.13422
# Poissons Ratio (y) = 0.64235 0.46227
# Poissons Ratio (z) = -0.11155 0.26851
#
# Static dielectric constant tensor:
#      x y z
#    x 2.184920 0.000000 -0.011060 
#    y 0.000000 1.848440 0.000000 
#    z -0.011060 0.000000 1.846390 
# 
# From -- ./inp_files/10535.got.cif
#   From: 2010.05.17/outbox.cif.g08.bks.cpg/sg4_6_cif.got.tgz:10535.got - 2010.06.03 18:43:04.
