data_PCOD9115362
_publ_section_title
;
Structure prediction by ZEFSAII (Michael W. Deem and Ramdas Pophale) SiO2 
 PCOD9115362
Probable space group: P 21
;
_chemical_formula_sum "Si O2"
_cell_formula_units_Z 14
_cell_length_a 14.298879
_cell_length_b 7.220182
_cell_length_c 13.112972
_cell_angle_alpha 90.000000
_cell_angle_beta 152.628730
_cell_angle_gamma 90.000000
_cell_volume 622.411063
_symmetry_space_group_name_H-M "P 21"
_symmetry_group_IT_number 4
_symmetry_cell_setting 'monoclinic'
loop_
_space_group_symop_operation_xyz
x,y,z
-x,1/2+y,-z
loop_
_atom_site_type_symbol
_atom_site_label
_atom_site_fract_x
_atom_site_fract_y
_atom_site_fract_z
Si Si1 0.020536 0.166370 0.675375
Si Si2 0.723987 0.549265 0.680429
Si Si3 0.985598 0.201022 0.864485
Si Si4 0.388172 0.419671 0.509443
Si Si5 0.563874 0.053385 0.229118
Si Si6 0.563988 0.694326 0.089301
Si Si7 0.839259 0.360241 0.327616
O O1 0.090473 0.218118 0.855372
O O2 0.022795 0.296754 0.577204
O O3 0.773645 0.159817 0.448658
O O4 0.080688 0.961647 0.695616
O O5 0.859480 0.385744 0.766315
O O6 0.529821 0.464430 0.550295
O O7 0.656506 0.701629 0.533147
O O8 0.855224 0.657805 0.892625
O O9 0.822758 0.032306 0.703878
O O10 0.498629 0.484197 0.720294
O O11 0.604787 0.871701 0.198470
O O12 0.417077 0.181699 0.017328
O O13 0.696423 0.514804 0.245866
O O14 0.314962 0.695706 0.853247
#
# Coordination Sequence:
#
# PCOD9115362 Si02
#       7
#     2   2   2   2   2   2   2
#     4  10  22  39  63  92 133 166 211 266 334 383
#     4  12  24  45  71  97 134 179 230 283 340 394
#     4  11  25  44  67 105 134 174 228 291 330 404
#     4  11  24  43  71  99 135 181 224 281 343 399
#     4   9  20  38  61  93 131 167 210 269 323 392
#     4   9  19  35  59  88 127 159 211 251 308 396
#     4  10  20  38  60  88 126 168 202 263 312 390
#
# _framework density 22.493174
#
# number of rings (size 3 to 8) (size 9 to 14) (size 15 to 20)
#    0.000    1.714    2.857    0.857    6.000    0.000 
#    0.000    0.000   12.571    0.000    0.000    0.000 
#    0.000    0.000    0.000    0.000    0.000    0.000 
#
# Total GULP energy -78049.600103 kJ/mol
# GULP energy per Si atom -5574.971436 kJ/mol
# Density = 2.244198 g / cm^3
# Si number density = 22.493174 Si / 1000 Ang^3
#
#
#
# Elastic Constant Matrix: (Units=GPa)
#
#
# Indices 1 2 3 4 5 6 
#
# 1 81.0152 14.3941 -1.0155 0.0000 -16.4846 0.0000
# 2 14.3941 79.2803 -3.1985 0.0000 -1.1418 0.0000
# 3 -1.0155 -3.1985 44.9058 0.0000 -12.0736 0.0000
# 4 0.0000 0.0000 0.0000 51.3315 0.0000 11.2325
# 5 -16.4846 -1.1418 -12.0736 0.0000 31.5922 0.0000
# 6 0.0000 0.0000 0.0000 11.2325 0.0000 38.5786
#
#
#
# Elastic Compliance Matrix: (Units=1/GPa)
#
#
# Indices 1 2 3 4 5 6 
#
# 1 0.014514 -0.002417 0.002417 0.000000 0.008410 0.000000
# 2 -0.002417 0.013075 0.000741 0.000000 -0.000505 0.000000
# 3 0.002417 0.000741 0.025325 0.000000 0.010966 0.000000
# 4 0.000000 0.000000 0.000000 0.020807 0.000000 -0.006058
# 5 0.008410 -0.000505 0.010966 0.000000 0.040214 0.000000
# 6 0.000000 0.000000 0.000000 -0.006058 0.000000 0.027685
#
#
# Mechanical properties :
#
#
# Convention : Reuss Voigt Hill
#
# Bulk Modulus (GPa) = 18.38348 25.06240 21.72294
# Shear Modulus (GPa) = 31.59172 37.30188 34.44680
#
# Velocity S-wave (km/s) = 3.75173 4.07672 3.91760
# Velocity P-wave (km/s) = 5.19211 5.77286 5.49017
#
# Compressibility (1/GPa) = 0.05439666
#
# Stress axis : x y z
#
# Youngs Moduli (GPa) = 68.89802 76.48283 39.48703
#
# Poissons Ratio (x) = 0.18482 -0.09545
# Poissons Ratio (y) = 0.16650 -0.02925
# Poissons Ratio (z) = -0.16654 -0.05666
#
# Static dielectric constant tensor:
#      x y z
#    x 1.913550 0.000000 0.046430 
#    y 0.000000 1.831010 0.000000 
#    z 0.046430 0.000000 1.933630 
# 
# From -- ./inp_files/12579.got.cif
#   From: 2010.05.17/outbox.cif.g08.bks.cpg/sg4_7_cif.got.tgz:12579.got - 2010.06.03 18:43:04.
