data_PCOD9115986
_publ_section_title
;
Structure prediction by ZEFSAII (Michael W. Deem and Ramdas Pophale) SiO2 
 PCOD9115986
Probable space group: P 21
;
_chemical_formula_sum "Si O2"
_cell_formula_units_Z 16
_cell_length_a 9.023823
_cell_length_b 7.656693
_cell_length_c 19.468371
_cell_angle_alpha 90.000000
_cell_angle_beta 149.542608
_cell_angle_gamma 90.000000
_cell_volume 681.838534
_symmetry_space_group_name_H-M "P 21"
_symmetry_group_IT_number 4
_symmetry_cell_setting 'monoclinic'
loop_
_space_group_symop_operation_xyz
x,y,z
-x,1/2+y,-z
loop_
_atom_site_type_symbol
_atom_site_label
_atom_site_fract_x
_atom_site_fract_y
_atom_site_fract_z
Si Si1 0.727383 0.361460 0.946446
Si Si2 0.166670 0.743613 0.402854
Si Si3 0.752140 0.833046 0.583261
Si Si4 0.395285 0.834766 0.861981
Si Si5 0.682851 0.716452 0.104906
Si Si6 0.645376 0.004149 0.827251
Si Si7 0.717889 0.693271 0.428332
Si Si8 0.755938 0.974444 0.336770
O O1 0.574572 0.316706 0.957061
O O2 0.710402 0.186099 0.893108
O O3 0.519978 0.497139 0.822880
O O4 0.055733 0.424248 0.080771
O O5 0.491863 0.821154 0.533567
O O6 0.189265 0.532864 0.417112
O O7 0.987673 0.779435 0.260218
O O8 0.967454 0.836510 0.380775
O O9 0.629495 0.719082 0.471265
O O10 0.067857 0.755829 0.730435
O O11 0.353002 0.018982 0.884410
O O12 0.500472 0.885219 0.828100
O O13 0.630770 0.736142 0.003300
O O14 0.438259 0.049306 0.680619
O O15 0.664999 0.875120 0.369048
O O16 0.057747 0.641784 0.569225
#
# Coordination Sequence:
#
# PCOD9115986 Si02
#       8
#     2   2   2   2   2   2   2   2
#     4   9  21  39  58  85 119 156 197 246 296 354
#     4  10  22  41  60  89 125 159 202 252 299 361
#     4  11  23  40  62  88 121 159 201 250 304 360
#     4  10  22  41  61  88 121 156 198 246 297 358
#     4   9  21  39  60  84 119 156 196 244 297 353
#     4  10  22  40  59  86 121 155 199 249 296 353
#     4  11  22  39  62  88 119 163 203 250 305 355
#     4  10  21  39  60  86 123 160 204 253 300 356
#
# _framework density 23.465965000000001
#
# number of rings (size 3 to 8) (size 9 to 14) (size 15 to 20)
#    0.000    2.000    0.000    4.500    0.000   11.000 
#    0.000    5.000    0.000    0.000    0.000    0.000 
#    0.000    0.000    0.000    0.000    0.000    0.000 
#
# Total GULP energy -89493.338922 kJ/mol
# GULP energy per Si atom -5593.333683 kJ/mol
# Density = 2.341256 g / cm^3
# Si number density = 23.465965 Si / 1000 Ang^3
#
#
#
# Elastic Constant Matrix: (Units=GPa)
#
#
# Indices 1 2 3 4 5 6 
#
# 1 47.5761 2.4903 58.6924 0.0000 6.0093 0.0000
# 2 2.4903 60.5527 16.3603 0.0000 -10.8251 0.0000
# 3 58.6924 16.3603 129.1254 0.0000 -6.1271 0.0000
# 4 0.0000 0.0000 0.0000 38.6953 0.0000 0.8584
# 5 6.0093 -10.8251 -6.1271 0.0000 39.9226 0.0000
# 6 0.0000 0.0000 0.0000 0.8584 0.0000 29.3678
#
#
#
# Elastic Compliance Matrix: (Units=1/GPa)
#
#
# Indices 1 2 3 4 5 6 
#
# 1 0.053150 0.002581 -0.025014 0.000000 -0.011139 0.000000
# 2 0.002581 0.018004 -0.003265 0.000000 0.003992 0.000000
# 3 -0.025014 -0.003265 0.019809 0.000000 0.005920 0.000000
# 4 0.000000 0.000000 0.000000 0.025860 0.000000 -0.000756
# 5 -0.011139 0.003992 0.005920 0.000000 0.028716 0.000000
# 6 0.000000 0.000000 0.000000 -0.000756 0.000000 0.034073
#
#
# Mechanical properties :
#
#
# Convention : Reuss Voigt Hill
#
# Bulk Modulus (GPa) = 25.27366 43.59335 34.43351
# Shear Modulus (GPa) = 20.47529 32.24457 26.35993
#
# Velocity S-wave (km/s) = 2.95710 3.71091 3.35524
# Velocity P-wave (km/s) = 4.73846 6.08101 5.45123
#
# Compressibility (1/GPa) = 0.03956689
#
# Stress axis : x y z
#
# Youngs Moduli (GPa) = 18.81475 55.54253 50.48236
#
# Poissons Ratio (x) = -0.14336 1.26278
# Poissons Ratio (y) = -0.04856 0.16482
# Poissons Ratio (z) = 0.47064 0.18134
#
# Static dielectric constant tensor:
#      x y z
#    x 1.852110 0.000000 -0.008600 
#    y 0.000000 1.934160 0.000000 
#    z -0.008600 0.000000 1.874900 
# 
# From -- ./inp_files/5579.got.cif
#   From: 2010.05.17/outbox.cif.g08.bks.cpg/sg4_3_cif.got.tgz:5579.got - 2010.06.03 18:43:04.
