data_PCOD9115487
_publ_section_title
;
Structure prediction by ZEFSAII (Michael W. Deem and Ramdas Pophale) SiO2 
 PCOD9115487
Probable space group: P 21
;
_chemical_formula_sum "Si O2"
_cell_formula_units_Z 16
_cell_length_a 10.036509
_cell_length_b 8.914773
_cell_length_c 12.734108
_cell_angle_alpha 90.000000
_cell_angle_beta 144.885635
_cell_angle_gamma 90.000000
_cell_volume 655.372470
_symmetry_space_group_name_H-M "P 21"
_symmetry_group_IT_number 4
_symmetry_cell_setting 'monoclinic'
loop_
_space_group_symop_operation_xyz
x,y,z
-x,1/2+y,-z
loop_
_atom_site_type_symbol
_atom_site_label
_atom_site_fract_x
_atom_site_fract_y
_atom_site_fract_z
Si Si1 0.640029 0.659360 0.861553
Si Si2 0.096473 0.875838 0.921819
Si Si3 0.743561 0.920548 0.363432
Si Si4 0.505198 0.756174 0.042654
Si Si5 0.074528 0.443458 0.966062
Si Si6 0.281580 0.157040 0.338147
Si Si7 0.285355 0.955376 0.738726
Si Si8 0.499559 0.128851 0.690161
O O1 0.394894 0.575497 0.717121
O O2 0.753101 0.818097 0.963561
O O3 0.653595 0.661452 0.742213
O O4 0.818048 0.545106 0.034037
O O5 0.073536 0.872080 0.034168
O O6 0.852364 0.812942 0.725639
O O7 0.288223 0.781065 0.982233
O O8 0.706417 0.862317 0.219966
O O9 0.610480 0.788981 0.343823
O O10 0.009385 0.938151 0.566109
O O11 0.605565 0.590317 0.121084
O O12 0.399747 0.808608 0.864832
O O13 0.240010 0.574156 0.118400
O O14 0.905019 0.522156 0.775551
O O15 0.470163 0.126371 0.546646
O O16 0.350147 0.007296 0.662079
#
# Coordination Sequence:
#
# PCOD9115487 Si02
#       8
#     2   2   2   2   2   2   2   2
#     4   9  20  38  64  97 128 163 214 262 314 386
#     4   9  19  41  66  91 125 169 211 257 320 379
#     4  10  23  44  65  91 130 171 215 262 314 380
#     4  10  23  43  67  91 124 169 215 268 321 371
#     4  10  21  39  65  98 132 162 208 267 320 382
#     4  10  20  39  65  91 128 171 205 261 329 376
#     4  11  25  43  67  93 125 171 219 265 314 375
#     4  11  25  41  63  94 126 166 215 260 316 391
#
# _framework density 24.413598
#
# number of rings (size 3 to 8) (size 9 to 14) (size 15 to 20)
#    0.000    2.000    0.000    3.000    0.000   12.000 
#    0.000    6.250    0.000    0.000    0.000    0.000 
#    0.000    0.000    0.000    0.000    0.000    0.000 
#
# Total GULP energy -89266.281296 kJ/mol
# GULP energy per Si atom -5579.142581 kJ/mol
# Density = 2.435803 g / cm^3
# Si number density = 24.413598 Si / 1000 Ang^3
#
#
#
# Elastic Constant Matrix: (Units=GPa)
#
#
# Indices 1 2 3 4 5 6 
#
# 1 58.2708 -2.5407 -22.6788 0.0000 6.1020 0.0000
# 2 -2.5407 77.5405 26.3343 0.0000 7.5820 0.0000
# 3 -22.6788 26.3343 48.4714 0.0000 -3.3115 0.0000
# 4 0.0000 0.0000 0.0000 15.7785 0.0000 4.9008
# 5 6.1020 7.5820 -3.3115 0.0000 34.9206 0.0000
# 6 0.0000 0.0000 0.0000 4.9008 0.0000 30.3093
#
#
#
# Elastic Compliance Matrix: (Units=1/GPa)
#
#
# Indices 1 2 3 4 5 6 
#
# 1 0.021806 -0.003072 0.011733 0.000000 -0.002031 0.000000
# 2 -0.003072 0.016908 -0.010908 0.000000 -0.004169 0.000000
# 3 0.011733 -0.010908 0.032277 0.000000 0.003379 0.000000
# 4 0.000000 0.000000 0.000000 0.066728 0.000000 -0.010789
# 5 -0.002031 -0.004169 0.003379 0.000000 0.030217 0.000000
# 6 0.000000 0.000000 0.000000 -0.010789 0.000000 0.034738
#
#
# Mechanical properties :
#
#
# Convention : Reuss Voigt Hill
#
# Bulk Modulus (GPa) = 15.03801 20.72360 17.88081
# Shear Modulus (GPa) = 21.80223 28.41289 25.10756
#
# Velocity S-wave (km/s) = 2.99161 3.41517 3.21039
# Velocity P-wave (km/s) = 4.25512 4.90491 4.59153
#
# Compressibility (1/GPa) = 0.06649816
#
# Stress axis : x y z
#
# Youngs Moduli (GPa) = 45.85815 59.14343 30.98144
#
# Poissons Ratio (x) = 0.18167 -0.36350
# Poissons Ratio (y) = 0.14086 0.33795
# Poissons Ratio (z) = -0.53804 0.64514
#
# Static dielectric constant tensor:
#      x y z
#    x 2.079080 0.000000 -0.020890 
#    y 0.000000 2.019970 0.000000 
#    z -0.020890 0.000000 1.903910 
# 
# From -- ./inp_files/13976.got.cif
#   From: 2010.05.17/outbox.cif.g08.bks.cpg/sg4_7_cif.got.tgz:13976.got - 2010.06.03 18:43:04.
