data_PCOD9115243
_publ_section_title
;
Structure prediction by ZEFSAII (Michael W. Deem and Ramdas Pophale) SiO2 
 PCOD9115243
Probable space group: P 21
;
_chemical_formula_sum "Si O2"
_cell_formula_units_Z 16
_cell_length_a 7.938588
_cell_length_b 7.823903
_cell_length_c 13.484965
_cell_angle_alpha 90.000000
_cell_angle_beta 123.853525
_cell_angle_gamma 90.000000
_cell_volume 695.564768
_symmetry_space_group_name_H-M "P 21"
_symmetry_group_IT_number 4
_symmetry_cell_setting 'monoclinic'
loop_
_space_group_symop_operation_xyz
x,y,z
-x,1/2+y,-z
loop_
_atom_site_type_symbol
_atom_site_label
_atom_site_fract_x
_atom_site_fract_y
_atom_site_fract_z
Si Si1 0.046452 0.352570 0.851913
Si Si2 0.099165 0.062178 0.364289
Si Si3 0.680970 0.226930 0.276709
Si Si4 0.706830 0.778979 0.743655
Si Si5 0.532742 0.053028 0.045647
Si Si6 0.602215 0.558903 0.354658
Si Si7 0.028150 0.125092 0.011616
Si Si8 0.569297 0.240286 0.870512
O O1 0.259171 0.447703 0.903507
O O2 0.936212 0.465074 0.902390
O O3 0.928352 0.387950 0.709894
O O4 0.076812 0.167840 0.912406
O O5 0.168514 0.201185 0.305413
O O6 0.883872 0.115863 0.341415
O O7 0.267411 0.067923 0.504151
O O8 0.498705 0.174965 0.292385
O O9 0.716369 0.421394 0.321184
O O10 0.590924 0.210991 0.136500
O O11 0.612294 0.964922 0.693286
O O12 0.849027 0.770943 0.886480
O O13 0.407833 0.925938 0.074038
O O14 0.459482 0.124032 0.917767
O O15 0.550422 0.723864 0.271633
O O16 0.788317 0.156116 0.935412
#
# Coordination Sequence:
#
# PCOD9115243 Si02
#       8
#     2   2   2   2   2   2   2   2
#     4   9  21  36  57  86 120 159 204 259 311 381
#     4  10  21  42  64  91 124 173 210 255 322 385
#     4   9  22  43  65  88 128 167 206 272 320 369
#     4   9  21  41  64  86 127 169 196 272 320 365
#     4  10  21  38  58  91 125 159 211 261 327 377
#     4  10  23  43  61  95 128 163 223 263 309 392
#     4  10  20  36  60  87 121 156 206 255 321 367
#     4  11  23  35  63  94 125 166 210 267 320 388
#
# _framework density 23.002889
#
# number of rings (size 3 to 8) (size 9 to 14) (size 15 to 20)
#    0.750    1.500    0.000    3.000    5.250    3.000 
#    2.250    1.250    0.000    0.000    0.000    0.000 
#    0.000    0.000    0.000    0.000    0.000    0.000 
#
# Total GULP energy -89169.234105 kJ/mol
# GULP energy per Si atom -5573.077132 kJ/mol
# Density = 2.295053 g / cm^3
# Si number density = 23.002889 Si / 1000 Ang^3
#
#
#
# Elastic Constant Matrix: (Units=GPa)
#
#
# Indices 1 2 3 4 5 6 
#
# 1 85.8761 -3.9652 4.1514 0.0000 -13.7785 0.0000
# 2 -3.9652 54.4470 19.7496 0.0000 -4.8402 0.0000
# 3 4.1514 19.7496 149.6513 0.0000 15.8344 0.0000
# 4 0.0000 0.0000 0.0000 28.9963 0.0000 -7.6057
# 5 -13.7785 -4.8402 15.8344 0.0000 20.2534 0.0000
# 6 0.0000 0.0000 0.0000 -7.6057 0.0000 24.8463
#
#
#
# Elastic Compliance Matrix: (Units=1/GPa)
#
#
# Indices 1 2 3 4 5 6 
#
# 1 0.013713 0.002733 -0.001959 0.000000 0.011514 0.000000
# 2 0.002733 0.020847 -0.003871 0.000000 0.009868 0.000000
# 3 -0.001959 -0.003871 0.008162 0.000000 -0.008639 0.000000
# 4 0.000000 0.000000 0.000000 0.037498 0.000000 0.011479
# 5 0.011514 0.009868 -0.008639 0.000000 0.066320 0.000000
# 6 0.000000 0.000000 0.000000 0.011479 0.000000 0.043761
#
#
# Mechanical properties :
#
#
# Convention : Reuss Voigt Hill
#
# Bulk Modulus (GPa) = 27.37745 36.64954 32.01350
# Shear Modulus (GPa) = 23.96117 32.82177 28.39147
#
# Velocity S-wave (km/s) = 3.23098 3.78147 3.51701
# Velocity P-wave (km/s) = 5.08395 5.91888 5.51723
#
# Compressibility (1/GPa) = 0.03652641
#
# Stress axis : x y z
#
# Youngs Moduli (GPa) = 72.92356 47.96872 122.52642
#
# Poissons Ratio (x) = -0.13110 0.24007
# Poissons Ratio (y) = -0.19930 0.47431
# Poissons Ratio (z) = 0.14288 0.18569
#
# Static dielectric constant tensor:
#      x y z
#    x 1.925340 0.000000 -0.015680 
#    y 0.000000 1.973860 0.000000 
#    z -0.015680 0.000000 1.838320 
# 
# From -- ./inp_files/11057.got.cif
#   From: 2010.05.17/outbox.cif.g08.bks.cpg/sg4_6_cif.got.tgz:11057.got - 2010.06.03 18:43:04.
