data_PCOD9115372
_publ_section_title
;
Structure prediction by ZEFSAII (Michael W. Deem and Ramdas Pophale) SiO2 
 PCOD9115372
Probable space group: P 21
;
_chemical_formula_sum "Si O2"
_cell_formula_units_Z 16
_cell_length_a 9.590903
_cell_length_b 5.243258
_cell_length_c 17.506883
_cell_angle_alpha 90.000000
_cell_angle_beta 133.399745
_cell_angle_gamma 90.000000
_cell_volume 639.663600
_symmetry_space_group_name_H-M "P 21"
_symmetry_group_IT_number 4
_symmetry_cell_setting 'monoclinic'
loop_
_space_group_symop_operation_xyz
x,y,z
-x,1/2+y,-z
loop_
_atom_site_type_symbol
_atom_site_label
_atom_site_fract_x
_atom_site_fract_y
_atom_site_fract_z
Si Si1 0.068175 0.612310 0.413748
Si Si2 0.760517 0.759223 0.395225
Si Si3 0.530821 0.363563 0.461764
Si Si4 0.883413 0.333497 0.211616
Si Si5 0.069933 0.334602 0.863920
Si Si6 0.466029 0.385384 0.263263
Si Si7 0.659965 0.386358 0.786160
Si Si8 0.523087 0.947733 0.958759
O O1 0.109283 0.404049 0.495209
O O2 0.249276 0.792805 0.472093
O O3 0.884400 0.786652 0.365218
O O4 0.034182 0.440902 0.327681
O O5 0.687859 0.466137 0.354295
O O6 0.549256 0.873628 0.336432
O O7 0.529494 0.634301 0.504389
O O8 0.415302 0.369300 0.336506
O O9 0.913229 0.042520 0.198325
O O10 0.908672 0.539019 0.152154
O O11 0.666286 0.380121 0.160848
O O12 0.258351 0.404481 0.983640
O O13 0.861392 0.385065 0.820589
O O14 0.385163 0.144389 0.189360
O O15 0.362966 0.619383 0.182540
O O16 0.501114 0.236846 0.981477
#
# Coordination Sequence:
#
# PCOD9115372 Si02
#       8
#     2   2   2   2   2   2   2   2
#     4  12  25  41  62  83 116 169 197 246 285 339
#     4  10  25  42  57  78 114 159 214 231 281 330
#     4  12  25  38  54  81 116 150 187 243 296 337
#     4  10  23  35  59  95 118 150 197 236 295 358
#     4  10  20  38  61  90 123 149 184 237 317 352
#     4  10  21  41  53  78 111 154 196 241 273 342
#     4  10  21  38  61  82 112 153 201 241 277 355
#     4   8  16  35  57  85 122 150 178 233 294 369
#
# _framework density 25.013148000000001
#
# number of rings (size 3 to 8) (size 9 to 14) (size 15 to 20)
#    0.750    1.000    1.250    3.000    5.250    2.000 
#    0.000    0.000    0.000    0.000    3.250    0.000 
#    0.000    0.000    0.000    0.000    0.000    0.000 
#
# Total GULP energy -89070.714234 kJ/mol
# GULP energy per Si atom -5566.919640 kJ/mol
# Density = 2.495622 g / cm^3
# Si number density = 25.013148 Si / 1000 Ang^3
#
#
#
# Elastic Constant Matrix: (Units=GPa)
#
#
# Indices 1 2 3 4 5 6 
#
# 1 95.2418 22.2383 42.0611 0.0000 44.4823 0.0000
# 2 22.2383 140.3595 6.9136 0.0000 6.5555 0.0000
# 3 42.0611 6.9136 58.6363 0.0000 18.5696 0.0000
# 4 0.0000 0.0000 0.0000 21.2288 0.0000 5.7073
# 5 44.4823 6.5555 18.5696 0.0000 50.7265 0.0000
# 6 0.0000 0.0000 0.0000 5.7073 0.0000 23.0869
#
#
#
# Elastic Compliance Matrix: (Units=1/GPa)
#
#
# Indices 1 2 3 4 5 6 
#
# 1 0.023833 -0.002440 -0.011639 0.000000 -0.016323 0.000000
# 2 -0.002440 0.007438 0.000566 0.000000 0.000972 0.000000
# 3 -0.011639 0.000566 0.025029 0.000000 0.000971 0.000000
# 4 0.000000 0.000000 0.000000 0.050459 0.000000 -0.012474
# 5 -0.016323 0.000972 0.000971 0.000000 0.033547 0.000000
# 6 0.000000 0.000000 0.000000 -0.012474 0.000000 0.046398
#
#
# Mechanical properties :
#
#
# Convention : Reuss Voigt Hill
#
# Bulk Modulus (GPa) = 34.16079 48.51817 41.33948
# Shear Modulus (GPa) = 22.37245 33.87676 28.12460
#
# Velocity S-wave (km/s) = 2.99394 3.68415 3.35683
# Velocity P-wave (km/s) = 5.06343 6.12670 5.62027
#
# Compressibility (1/GPa) = 0.02927333
#
# Stress axis : x y z
#
# Youngs Moduli (GPa) = 41.95826 134.44541 39.95368
#
# Poissons Ratio (x) = 0.32810 0.46502
# Poissons Ratio (y) = 0.10240 -0.02261
# Poissons Ratio (z) = 0.48835 -0.07608
#
# Static dielectric constant tensor:
#      x y z
#    x 2.030230 0.000000 0.037370 
#    y 0.000000 2.189930 0.000000 
#    z 0.037370 0.000000 2.004550 
# 
# From -- ./inp_files/15595.got.cif
#   From: 2010.05.17/outbox.cif.g08.bks.cpg/sg4_8_cif.got.tgz:15595.got - 2010.06.03 18:43:04.
