data_PCOD9115192
_publ_section_title
;
Structure prediction by ZEFSAII (Michael W. Deem and Ramdas Pophale) SiO2 
 PCOD9115192
Probable space group: P 21
;
_chemical_formula_sum "Si O2"
_cell_formula_units_Z 14
_cell_length_a 14.154580
_cell_length_b 5.058993
_cell_length_c 22.119168
_cell_angle_alpha 90.000000
_cell_angle_beta 27.780450
_cell_angle_gamma 90.000000
_cell_volume 738.235249
_symmetry_space_group_name_H-M "P 21"
_symmetry_group_IT_number 4
_symmetry_cell_setting 'monoclinic'
loop_
_space_group_symop_operation_xyz
x,y,z
-x,1/2+y,-z
loop_
_atom_site_type_symbol
_atom_site_label
_atom_site_fract_x
_atom_site_fract_y
_atom_site_fract_z
Si Si1 0.363827 0.658050 0.219189
Si Si2 0.343888 0.667171 0.367101
Si Si3 0.044659 0.432480 0.693975
Si Si4 0.398505 0.179007 0.417437
Si Si5 0.407290 0.936998 0.021779
Si Si6 0.612159 0.033458 0.412399
Si Si7 0.908284 0.663404 0.651121
O O1 0.430737 0.665912 0.250732
O O2 0.187317 0.442458 0.309932
O O3 0.260828 0.937337 0.261380
O O4 0.535377 0.559171 0.075657
O O5 0.434674 0.443441 0.358960
O O6 0.102888 0.607114 0.499195
O O7 0.364189 0.944625 0.389781
O O8 0.197988 0.232386 0.572577
O O9 0.167581 0.536189 0.682133
O O10 0.823272 0.340414 0.839756
O O11 0.997131 0.646205 0.668702
O O12 0.577437 0.114696 0.363048
O O13 0.456449 0.183964 0.038293
O O14 0.481258 0.242812 0.525432
#
# Coordination Sequence:
#
# PCOD9115192 Si02
#       7
#     2   2   2   2   2   2   2
#     4  12  22  37  53  80 116 154 194 227 277 346
#     4  11  22  35  57  81 114 151 189 239 292 330
#     4  10  21  37  60  84 119 152 189 241 292 345
#     4  10  21  37  58  86 112 144 192 245 294 337
#     4  12  24  39  56  83 120 161 195 231 278 351
#     4  10  20  35  58  87 112 142 187 243 303 343
#     4  11  20  34  54  81 113 146 192 234 282 342
#
# _framework density 18.964144999999998
#
# number of rings (size 3 to 8) (size 9 to 14) (size 15 to 20)
#    0.000    1.143    2.857    6.000    0.000    3.429 
#    0.000    0.000    0.000    1.714    0.000    0.000 
#    0.000    0.000    0.000    0.000    0.000    0.000 
#
# Total GULP energy -78178.962234 kJ/mol
# GULP energy per Si atom -5584.211588 kJ/mol
# Density = 1.892098 g / cm^3
# Si number density = 18.964145 Si / 1000 Ang^3
#
#
#
# Elastic Constant Matrix: (Units=GPa)
#
#
# Indices 1 2 3 4 5 6 
#
# 1 121.7288 26.1314 51.7036 0.0000 9.2143 0.0000
# 2 26.1314 72.3207 12.2530 0.0000 3.9897 0.0000
# 3 51.7036 12.2530 59.9903 0.0000 7.3764 0.0000
# 4 0.0000 0.0000 0.0000 10.8325 0.0000 -6.3495
# 5 9.2143 3.9897 7.3764 0.0000 30.7975 0.0000
# 6 0.0000 0.0000 0.0000 -6.3495 0.0000 18.1782
#
#
#
# Elastic Compliance Matrix: (Units=1/GPa)
#
#
# Indices 1 2 3 4 5 6 
#
# 1 0.013602 -0.002996 -0.010982 0.000000 -0.001051 0.000000
# 2 -0.002996 0.015025 -0.000368 0.000000 -0.000962 0.000000
# 3 -0.010982 -0.000368 0.026583 0.000000 -0.003033 0.000000
# 4 0.000000 0.000000 0.000000 0.116081 0.000000 0.040546
# 5 -0.001051 -0.000962 -0.003033 0.000000 0.033636 0.000000
# 6 0.000000 0.000000 0.000000 0.040546 0.000000 0.069173
#
#
# Mechanical properties :
#
#
# Convention : Reuss Voigt Hill
#
# Bulk Modulus (GPa) = 37.71162 48.24621 42.97891
# Shear Modulus (GPa) = 16.04452 22.89177 19.46814
#
# Velocity S-wave (km/s) = 2.91184 3.47812 3.20750
# Velocity P-wave (km/s) = 5.58874 6.45180 6.03571
#
# Compressibility (1/GPa) = 0.02651703
#
# Stress axis : x y z
#
# Youngs Moduli (GPa) = 73.51657 66.55402 37.61837
#
# Poissons Ratio (x) = 0.19941 0.41313
# Poissons Ratio (y) = 0.22027 0.01386
# Poissons Ratio (z) = 0.80737 0.02451
#
# Static dielectric constant tensor:
#      x y z
#    x 1.679380 0.000000 0.024760 
#    y 0.000000 1.663180 0.000000 
#    z 0.024760 0.000000 1.672320 
# 
# From -- ./inp_files/15655.got.cif
#   From: 2010.05.17/outbox.cif.g08.bks.cpg/sg4_8_cif.got.tgz:15655.got - 2010.06.03 18:43:04.
