data_PCOD9115473
_publ_section_title
;
Structure prediction by ZEFSAII (Michael W. Deem and Ramdas Pophale) SiO2 
 PCOD9115473
Probable space group: P 21
;
_chemical_formula_sum "Si O2"
_cell_formula_units_Z 16
_cell_length_a 15.504751
_cell_length_b 11.207226
_cell_length_c 11.110097
_cell_angle_alpha 90.000000
_cell_angle_beta 23.352493
_cell_angle_gamma 90.000000
_cell_volume 765.244037
_symmetry_space_group_name_H-M "P 21"
_symmetry_group_IT_number 4
_symmetry_cell_setting 'monoclinic'
loop_
_space_group_symop_operation_xyz
x,y,z
-x,1/2+y,-z
loop_
_atom_site_type_symbol
_atom_site_label
_atom_site_fract_x
_atom_site_fract_y
_atom_site_fract_z
Si Si1 0.746606 0.183270 0.118867
Si Si2 0.125482 0.814945 0.627456
Si Si3 0.742103 0.412381 0.799661
Si Si4 0.860292 0.552355 0.268930
Si Si5 0.727366 0.650826 0.180034
Si Si6 0.572299 0.160093 0.080697
Si Si7 0.349226 0.577912 0.281200
Si Si8 0.930629 0.434021 0.804990
O O1 0.517910 0.190032 0.481261
O O2 0.695213 0.137768 0.049002
O O3 0.856790 0.312579 0.962633
O O4 0.908610 0.095247 0.978602
O O5 0.166288 0.883437 0.449424
O O6 0.290862 0.702988 0.418902
O O7 0.157248 0.910426 0.692083
O O8 0.886355 0.757040 0.936629
O O9 0.924037 0.415439 0.669665
O O10 0.588763 0.300978 0.034292
O O11 0.588689 0.527797 0.995727
O O12 0.820111 0.599215 0.186962
O O13 0.671400 0.613781 0.590194
O O14 0.757223 0.539371 0.052786
O O15 0.673403 0.100490 0.833214
O O16 0.161994 0.482993 0.553001
#
# Coordination Sequence:
#
# PCOD9115473 Si02
#       8
#     2   2   2   2   2   2   2   2
#     4  10  23  40  64  87 123 174 208 258 312 369
#     4  10  23  41  63  97 126 163 213 260 310 381
#     4  10  20  41  67  89 128 164 200 267 321 372
#     4  11  22  41  66  88 126 168 206 256 320 371
#     4  10  25  43  60  96 127 160 222 264 300 385
#     4   9  20  38  61  96 123 155 214 255 308 385
#     4  10  20  39  63  93 130 158 203 265 319 377
#     4  10  23  41  60  94 123 164 214 261 318 374
#
# _framework density 20.908363000000001
#
# number of rings (size 3 to 8) (size 9 to 14) (size 15 to 20)
#    0.000    2.000    1.250    0.750    5.250    2.000 
#    2.250    2.500    0.000    0.000    0.000    0.000 
#    0.000    0.000    0.000    0.000    0.000    0.000 
#
# Total GULP energy -89390.523424 kJ/mol
# GULP energy per Si atom -5586.907714 kJ/mol
# Density = 2.086077 g / cm^3
# Si number density = 20.908363 Si / 1000 Ang^3
#
#
#
# Elastic Constant Matrix: (Units=GPa)
#
#
# Indices 1 2 3 4 5 6 
#
# 1 45.9639 25.0129 24.7530 0.0000 2.4133 0.0000
# 2 25.0129 76.1284 44.5898 0.0000 -1.6642 0.0000
# 3 24.7530 44.5898 87.3890 0.0000 3.7235 0.0000
# 4 0.0000 0.0000 0.0000 30.0141 0.0000 3.8088
# 5 2.4133 -1.6642 3.7235 0.0000 17.2633 0.0000
# 6 0.0000 0.0000 0.0000 3.8088 0.0000 21.0859
#
#
#
# Elastic Compliance Matrix: (Units=1/GPa)
#
#
# Indices 1 2 3 4 5 6 
#
# 1 0.027936 -0.006722 -0.004328 0.000000 -0.003620 0.000000
# 2 -0.006722 0.020617 -0.008821 0.000000 0.004830 0.000000
# 3 -0.004328 -0.008821 0.017340 0.000000 -0.003985 0.000000
# 4 0.000000 0.000000 0.000000 0.034099 0.000000 -0.006160
# 5 -0.003620 0.004830 -0.003985 0.000000 0.059757 0.000000
# 6 0.000000 0.000000 0.000000 -0.006160 0.000000 0.048538
#
#
# Mechanical properties :
#
#
# Convention : Reuss Voigt Hill
#
# Bulk Modulus (GPa) = 38.24393 44.24365 41.24379
# Shear Modulus (GPa) = 19.47443 21.34772 20.41107
#
# Velocity S-wave (km/s) = 3.05523 3.19880 3.12783
# Velocity P-wave (km/s) = 5.54768 5.90337 5.72829
#
# Compressibility (1/GPa) = 0.02614794
#
# Stress axis : x y z
#
# Youngs Moduli (GPa) = 35.79674 48.50416 57.67038
#
# Poissons Ratio (x) = 0.32607 0.24962
# Poissons Ratio (y) = 0.24064 0.50873
# Poissons Ratio (z) = 0.15494 0.42787
#
# Static dielectric constant tensor:
#      x y z
#    x 1.752880 0.000000 0.019990 
#    y 0.000000 1.741670 0.000000 
#    z 0.019990 0.000000 1.728350 
# 
# From -- ./inp_files/2821.got.cif
#   From: 2010.05.17/outbox.cif.g08.bks.cpg/sg4_2_cif.got.tgz:2821.got - 2010.06.03 18:43:04.
