data_PCOD9115733
_publ_section_title
;
Structure prediction by ZEFSAII (Michael W. Deem and Ramdas Pophale) SiO2 
 PCOD9115733
Probable space group: P 21
;
_chemical_formula_sum "Si O2"
_cell_formula_units_Z 16
_cell_length_a 9.334834
_cell_length_b 10.216178
_cell_length_c 7.446512
_cell_angle_alpha 90.000000
_cell_angle_beta 60.824486
_cell_angle_gamma 90.000000
_cell_volume 620.050552
_symmetry_space_group_name_H-M "P 21"
_symmetry_group_IT_number 4
_symmetry_cell_setting 'monoclinic'
loop_
_space_group_symop_operation_xyz
x,y,z
-x,1/2+y,-z
loop_
_atom_site_type_symbol
_atom_site_label
_atom_site_fract_x
_atom_site_fract_y
_atom_site_fract_z
Si Si1 0.346812 0.706820 0.696910
Si Si2 0.893484 0.018238 0.327190
Si Si3 0.441533 0.290161 0.990949
Si Si4 0.312247 0.272537 0.679481
Si Si5 0.900129 0.411510 0.507805
Si Si6 0.062069 0.035565 0.856543
Si Si7 0.567475 0.546586 0.811712
Si Si8 0.792661 0.221258 0.862130
O O1 0.219905 0.644323 0.636441
O O2 0.503503 0.771754 0.510708
O O3 0.429896 0.583832 0.751865
O O4 0.266762 0.787910 0.910850
O O5 0.972295 0.009946 0.474280
O O6 0.787479 0.888877 0.351272
O O7 0.032121 0.019389 0.086212
O O8 0.336885 0.293441 0.875987
O O9 0.489330 0.440766 0.999216
O O10 0.616020 0.211117 0.872082
O O11 0.358267 0.187974 0.176606
O O12 0.211527 0.136021 0.726281
O O13 0.928304 0.408837 0.278072
O O14 0.716789 0.466145 0.639954
O O15 0.902873 0.294653 0.649506
O O16 0.897280 0.105309 0.882839
#
# Coordination Sequence:
#
# PCOD9115733 Si02
#       8
#     2   2   2   2   2   2   2   2
#     4  10  22  45  67  96 147 175 236 303 351 427
#     4  11  25  47  68 104 140 186 240 295 359 434
#     4  10  22  40  70  99 142 181 239 290 364 420
#     4  12  23  46  70 105 138 190 240 296 368 432
#     4  11  22  45  69 100 139 187 235 284 368 423
#     4  11  24  46  70  98 144 177 236 297 352 430
#     4  10  20  44  65 103 139 185 235 297 354 433
#     4   9  22  45  65  97 135 183 227 292 352 423
#
# _framework density 25.804348000000001
#
# number of rings (size 3 to 8) (size 9 to 14) (size 15 to 20)
#    0.000    1.500    3.750    0.750    1.750    0.000 
#   22.500    0.000    0.000    0.000    0.000    0.000 
#    0.000    0.000    0.000    0.000    0.000    0.000 
#
# Total GULP energy -89343.903141 kJ/mol
# GULP energy per Si atom -5583.993946 kJ/mol
# Density = 2.574562 g / cm^3
# Si number density = 25.804348 Si / 1000 Ang^3
#
#
#
# Elastic Constant Matrix: (Units=GPa)
#
#
# Indices 1 2 3 4 5 6 
#
# 1 105.8395 19.3170 7.6019 0.0000 10.2830 0.0000
# 2 19.3170 87.7948 6.1160 0.0000 -2.3229 0.0000
# 3 7.6019 6.1160 80.6262 0.0000 9.4024 0.0000
# 4 0.0000 0.0000 0.0000 26.8858 0.0000 3.3429
# 5 10.2830 -2.3229 9.4024 0.0000 36.5232 0.0000
# 6 0.0000 0.0000 0.0000 3.3429 0.0000 36.8513
#
#
#
# Elastic Compliance Matrix: (Units=1/GPa)
#
#
# Indices 1 2 3 4 5 6 
#
# 1 0.010179 -0.002285 -0.000449 0.000000 -0.002896 0.000000
# 2 -0.002285 0.011998 -0.000885 0.000000 0.001634 0.000000
# 3 -0.000449 -0.000885 0.012891 0.000000 -0.003249 0.000000
# 4 0.000000 0.000000 0.000000 0.037619 0.000000 -0.003412
# 5 -0.002896 0.001634 -0.003249 0.000000 0.029135 0.000000
# 6 0.000000 0.000000 0.000000 -0.003412 0.000000 0.027446
#
#
# Mechanical properties :
#
#
# Convention : Reuss Voigt Hill
#
# Bulk Modulus (GPa) = 35.93233 37.81447 36.87340
# Shear Modulus (GPa) = 34.29775 36.13376 35.21575
#
# Velocity S-wave (km/s) = 3.64970 3.74611 3.69822
# Velocity P-wave (km/s) = 5.63166 5.77904 5.70582
#
# Compressibility (1/GPa) = 0.02783009
#
# Stress axis : x y z
#
# Youngs Moduli (GPa) = 98.24281 83.34830 77.57217
#
# Poissons Ratio (x) = 0.19045 0.03481
# Poissons Ratio (y) = 0.22448 0.06867
# Poissons Ratio (z) = 0.04408 0.07378
#
# Static dielectric constant tensor:
#      x y z
#    x 1.971360 0.000000 -0.032650 
#    y 0.000000 2.197780 0.000000 
#    z -0.032650 0.000000 2.123600 
# 
# From -- ./inp_files/8181.got.cif
#   From: 2010.05.17/outbox.cif.g08.bks.cpg/sg4_5_cif.got.tgz:8181.got - 2010.06.03 18:43:04.
