data_PCOD9115027
_publ_section_title
;
Structure prediction by ZEFSAII (Michael W. Deem and Ramdas Pophale) SiO2 
 PCOD9115027
Probable space group: P 21
;
_chemical_formula_sum "Si O2"
_cell_formula_units_Z 16
_cell_length_a 10.673372
_cell_length_b 8.513505
_cell_length_c 13.962731
_cell_angle_alpha 90.000000
_cell_angle_beta 149.934723
_cell_angle_gamma 90.000000
_cell_volume 635.632792
_symmetry_space_group_name_H-M "P 21"
_symmetry_group_IT_number 4
_symmetry_cell_setting 'monoclinic'
loop_
_space_group_symop_operation_xyz
x,y,z
-x,1/2+y,-z
loop_
_atom_site_type_symbol
_atom_site_label
_atom_site_fract_x
_atom_site_fract_y
_atom_site_fract_z
Si Si1 0.799241 0.357590 0.245790
Si Si2 0.447899 0.625240 0.678614
Si Si3 0.719954 0.747475 0.030878
Si Si4 0.673400 0.476804 0.460038
Si Si5 0.876638 0.007284 0.686304
Si Si6 0.190716 0.640854 0.155607
Si Si7 0.072456 0.969680 0.174931
Si Si8 0.964720 0.592848 0.487253
O O1 0.532170 0.270527 0.075108
O O2 0.935228 0.378661 0.233819
O O3 0.766429 0.524031 0.279804
O O4 0.998799 0.265940 0.444937
O O5 0.663656 0.635928 0.901133
O O6 0.432848 0.803330 0.629196
O O7 0.383778 0.517377 0.544610
O O8 0.218707 0.579306 0.596134
O O9 0.966921 0.667042 0.237287
O O10 0.811973 0.913169 0.051116
O O11 0.464291 0.604791 0.294689
O O12 0.752323 0.507568 0.620610
O O13 0.910900 0.495197 0.547734
O O14 0.829201 0.019064 0.767502
O O15 0.160984 0.813753 0.177549
O O16 0.984528 0.603522 0.939147
#
# Coordination Sequence:
#
# PCOD9115027 Si02
#       8
#     2   2   2   2   2   2   2   2
#     4  10  21  38  64 100 131 171 217 278 329 400
#     4  10  19  40  66  94 126 169 208 268 335 385
#     4  10  19  39  63  91 127 170 210 267 335 383
#     4  12  22  42  71  97 131 178 218 271 338 388
#     4  10  23  41  63  96 131 172 221 266 330 391
#     4  11  25  44  66  93 136 177 226 272 320 395
#     4  11  25  42  69  95 131 178 223 275 326 390
#     4  10  20  38  66  98 131 165 217 269 333 394
#
# _framework density 25.171766000000002
#
# number of rings (size 3 to 8) (size 9 to 14) (size 15 to 20)
#    0.000    1.500    6.250    0.000    0.000    7.000 
#    0.000    7.500    0.000    0.000    0.000    0.000 
#    0.000    0.000    0.000    0.000    0.000    0.000 
#
# Total GULP energy -89271.320381 kJ/mol
# GULP energy per Si atom -5579.457524 kJ/mol
# Density = 2.511447 g / cm^3
# Si number density = 25.171766 Si / 1000 Ang^3
#
#
#
# Elastic Constant Matrix: (Units=GPa)
#
#
# Indices 1 2 3 4 5 6 
#
# 1 95.8659 13.9707 12.7793 0.0000 -8.9907 0.0000
# 2 13.9707 39.9525 18.6319 0.0000 4.5683 0.0000
# 3 12.7793 18.6319 102.1303 0.0000 -5.8237 0.0000
# 4 0.0000 0.0000 0.0000 33.3364 0.0000 5.4081
# 5 -8.9907 4.5683 -5.8237 0.0000 33.9390 0.0000
# 6 0.0000 0.0000 0.0000 5.4081 0.0000 51.3343
#
#
#
# Elastic Compliance Matrix: (Units=1/GPa)
#
#
# Indices 1 2 3 4 5 6 
#
# 1 0.011432 -0.004181 -0.000467 0.000000 0.003511 0.000000
# 2 -0.004181 0.029611 -0.005220 0.000000 -0.005989 0.000000
# 3 -0.000467 -0.005220 0.010942 0.000000 0.002456 0.000000
# 4 0.000000 0.000000 0.000000 0.030519 0.000000 -0.003215
# 5 0.003511 -0.005989 0.002456 0.000000 0.031622 0.000000
# 6 0.000000 0.000000 0.000000 -0.003215 0.000000 0.019819
#
#
# Mechanical properties :
#
#
# Convention : Reuss Voigt Hill
#
# Bulk Modulus (GPa) = 31.00996 36.52363 33.76679
# Shear Modulus (GPa) = 30.40752 36.55973 33.48362
#
# Velocity S-wave (km/s) = 3.47940 3.81518 3.65116
# Velocity P-wave (km/s) = 5.33739 5.82656 5.58733
#
# Compressibility (1/GPa) = 0.03224771
#
# Stress axis : x y z
#
# Youngs Moduli (GPa) = 87.47259 33.77103 91.38800
#
# Poissons Ratio (x) = 0.14120 0.04272
# Poissons Ratio (y) = 0.36573 0.47708
# Poissons Ratio (z) = 0.04089 0.17630
#
# Static dielectric constant tensor:
#      x y z
#    x 2.025940 0.000000 0.005820 
#    y 0.000000 2.029550 0.000000 
#    z 0.005820 0.000000 1.989520 
# 
# From -- ./inp_files/13915.got.cif
#   From: 2010.05.17/outbox.cif.g08.bks.cpg/sg4_7_cif.got.tgz:13915.got - 2010.06.03 18:43:04.
