data_PCOD9115236
_publ_section_title
;
Structure prediction by ZEFSAII (Michael W. Deem and Ramdas Pophale) SiO2 
 PCOD9115236
Probable space group: P 21
;
_chemical_formula_sum "Si O2"
_cell_formula_units_Z 16
_cell_length_a 12.733736
_cell_length_b 10.019514
_cell_length_c 10.261812
_cell_angle_alpha 90.000000
_cell_angle_beta 32.423689
_cell_angle_gamma 90.000000
_cell_volume 701.994631
_symmetry_space_group_name_H-M "P 21"
_symmetry_group_IT_number 4
_symmetry_cell_setting 'monoclinic'
loop_
_space_group_symop_operation_xyz
x,y,z
-x,1/2+y,-z
loop_
_atom_site_type_symbol
_atom_site_label
_atom_site_fract_x
_atom_site_fract_y
_atom_site_fract_z
Si Si1 0.022142 0.180340 0.180335
Si Si2 0.607786 0.787288 0.688169
Si Si3 0.360724 0.367203 0.731547
Si Si4 0.241063 0.877690 0.204796
Si Si5 0.022621 0.863261 0.179564
Si Si6 0.638877 0.176360 0.269178
Si Si7 0.607232 0.256158 0.688938
Si Si8 0.759538 0.665639 0.794359
O O1 0.080926 0.213068 0.269206
O O2 0.789593 0.202751 0.414251
O O3 0.066594 0.021851 0.110169
O O4 0.156770 0.285430 0.961138
O O5 0.482994 0.677658 0.739890
O O6 0.696854 0.742339 0.732160
O O7 0.790113 0.840679 0.413485
O O8 0.435383 0.886110 0.911088
O O9 0.499667 0.271627 0.500565
O O10 0.335800 0.521754 0.716852
O O11 0.482698 0.366000 0.740470
O O12 0.081718 0.830295 0.268003
O O13 0.303835 0.800878 0.266820
O O14 0.173083 0.021567 0.321958
O O15 0.157352 0.758393 0.960060
O O16 0.434582 0.157467 0.911944
#
# Coordination Sequence:
#
# PCOD9115236 Si02
#       8
#     2   2   2   2   2   2   2   2
#     4  10  21  38  63  92 121 155 194 239 294 355
#     4  10  20  36  59  87 120 159 196 237 291 349
#     4  11  25  43  62  85 116 155 201 251 297 346
#     4   9  18  33  55  88 125 156 190 234 287 350
#     4  10  21  38  63  92 121 155 194 239 294 355
#     4  11  25  43  62  85 116 155 201 251 297 346
#     4  10  20  36  59  87 120 159 196 237 291 349
#     4   9  18  33  55  88 125 156 190 234 287 350
#
# _framework density 22.792196000000001
#
# number of rings (size 3 to 8) (size 9 to 14) (size 15 to 20)
#    0.000    2.000    0.000    3.000    0.000    6.000 
#    0.000    6.250    0.000    0.000    0.000    0.000 
#    0.000    0.000    0.000    0.000    0.000    0.000 
#
# Total GULP energy -89130.249911 kJ/mol
# GULP energy per Si atom -5570.640619 kJ/mol
# Density = 2.274032 g / cm^3
# Si number density = 22.792196 Si / 1000 Ang^3
#
#
#
# Elastic Constant Matrix: (Units=GPa)
#
#
# Indices 1 2 3 4 5 6 
#
# 1 67.1108 30.4185 27.7285 0.0000 -20.0105 0.0000
# 2 30.4185 126.8261 58.5142 0.0000 5.5972 0.0000
# 3 27.7285 58.5142 143.6226 0.0000 -25.6689 0.0000
# 4 0.0000 0.0000 0.0000 1.1444 0.0000 -19.1156
# 5 -20.0105 5.5972 -25.6689 0.0000 31.1476 0.0000
# 6 0.0000 0.0000 0.0000 -19.1156 0.0000 -19.6359
#
#
#
# Elastic Compliance Matrix: (Units=1/GPa)
#
#
# Indices 1 2 3 4 5 6 
#
# 1 0.022378 -0.006770 0.001436 0.000000 0.016777 0.000000
# 2 -0.006770 0.012769 -0.005960 0.000000 -0.011556 0.000000
# 3 0.001436 -0.005960 0.011106 0.000000 0.011146 0.000000
# 4 0.000000 0.000000 0.000000 0.050624 0.000000 -0.049283
# 5 0.016777 -0.011556 0.011146 0.000000 0.054146 0.000000
# 6 0.000000 0.000000 0.000000 -0.049283 0.000000 -0.002950
#
#
# Mechanical properties :
#
#
# Convention : Reuss Voigt Hill
#
# Bulk Modulus (GPa) = 42.25817 63.43131 52.84474
# Shear Modulus (GPa) = 28.00346 17.25780 22.63063
#
# Velocity S-wave (km/s) = 3.50900 2.75468 3.15447
# Velocity P-wave (km/s) = 5.91594 6.16509 6.04180
#
# Compressibility (1/GPa) = 0.02366406
#
# Stress axis : x y z
#
# Youngs Moduli (GPa) = 44.68575 78.31696 90.04293
#
# Poissons Ratio (x) = 0.53024 -0.12934
# Poissons Ratio (y) = 0.30254 0.53669
# Poissons Ratio (z) = -0.06419 0.46680
#
# Static dielectric constant tensor:
#      x y z
#    x 1.958340 0.000000 0.012090 
#    y 0.000000 1.893780 0.000000 
#    z 0.012090 0.000000 1.898260 
# 
# From -- ./inp_files/12623.got.cif
#   From: 2010.05.17/outbox.cif.g08.bks.cpg/sg4_7_cif.got.tgz:12623.got - 2010.06.03 18:43:04.
