data_PCOD9115520
_publ_section_title
;
Structure prediction by ZEFSAII (Michael W. Deem and Ramdas Pophale) SiO2 
 PCOD9115520
Probable space group: P 21
;
_chemical_formula_sum "Si O2"
_cell_formula_units_Z 14
_cell_length_a 11.643534
_cell_length_b 5.001663
_cell_length_c 14.916253
_cell_angle_alpha 90.000000
_cell_angle_beta 137.464810
_cell_angle_gamma 90.000000
_cell_volume 587.263813
_symmetry_space_group_name_H-M "P 21"
_symmetry_group_IT_number 4
_symmetry_cell_setting 'monoclinic'
loop_
_space_group_symop_operation_xyz
x,y,z
-x,1/2+y,-z
loop_
_atom_site_type_symbol
_atom_site_label
_atom_site_fract_x
_atom_site_fract_y
_atom_site_fract_z
Si Si1 0.027492 0.295830 0.630048
Si Si2 0.378896 0.691577 0.329108
Si Si3 0.104596 0.838648 0.033201
Si Si4 0.918499 0.431780 0.185179
Si Si5 0.212562 0.794974 0.651419
Si Si6 0.585106 0.179008 0.081083
Si Si7 0.720181 0.689000 0.613211
O O1 0.048534 0.208196 0.743899
O O2 0.095653 0.577516 0.635551
O O3 0.836764 0.264872 0.480703
O O4 0.147435 0.082506 0.646524
O O5 0.282888 0.761884 0.182163
O O6 0.581954 0.723318 0.454324
O O7 0.302841 0.896220 0.358976
O O8 0.331812 0.397172 0.337586
O O9 0.111472 0.954116 0.937378
O O10 0.008169 0.069096 0.033481
O O11 0.752151 0.292320 0.128920
O O12 0.089455 0.263822 0.302251
O O13 0.393710 0.734483 0.800321
O O14 0.441074 0.371258 0.957792
#
# Coordination Sequence:
#
# PCOD9115520 Si02
#       7
#     2   2   2   2   2   2   2
#     4   9  19  34  62  89 109 153 212 256 302 373
#     4  10  20  40  59  92 125 164 200 264 310 362
#     4  12  23  39  65  96 132 169 209 259 318 386
#     4  11  23  41  67  95 123 178 216 256 322 388
#     4   9  18  38  60  82 117 155 201 264 316 356
#     4  11  24  41  63  91 130 169 213 270 323 377
#     4  10  21  37  66  85 124 162 213 255 309 372
#
# _framework density 23.839371
#
# number of rings (size 3 to 8) (size 9 to 14) (size 15 to 20)
#    0.000    1.714    2.857    1.714    0.000    6.857 
#    2.571    0.000    6.286    0.000    0.000    0.000 
#    0.000    0.000    0.000    0.000    0.000    0.000 
#
# Total GULP energy -78258.425317 kJ/mol
# GULP energy per Si atom -5589.887523 kJ/mol
# Density = 2.378511 g / cm^3
# Si number density = 23.839371 Si / 1000 Ang^3
#
#
#
# Elastic Constant Matrix: (Units=GPa)
#
#
# Indices 1 2 3 4 5 6 
#
# 1 53.2915 5.7239 28.9679 0.0000 6.8284 0.0000
# 2 5.7239 62.1457 2.8931 0.0000 -7.8559 0.0000
# 3 28.9679 2.8931 176.9677 0.0000 -17.4869 0.0000
# 4 0.0000 0.0000 0.0000 28.9462 0.0000 12.5843
# 5 6.8284 -7.8559 -17.4869 0.0000 35.7693 0.0000
# 6 0.0000 0.0000 0.0000 12.5843 0.0000 13.1507
#
#
#
# Elastic Compliance Matrix: (Units=1/GPa)
#
#
# Indices 1 2 3 4 5 6 
#
# 1 0.022280 -0.002731 -0.004289 0.000000 -0.006950 0.000000
# 2 -0.002731 0.016887 0.000619 0.000000 0.004533 0.000000
# 3 -0.004289 0.000619 0.006764 0.000000 0.004261 0.000000
# 4 0.000000 0.000000 0.000000 0.059157 0.000000 -0.056609
# 5 -0.006950 0.004533 0.004261 0.000000 0.032363 0.000000
# 6 0.000000 0.000000 0.000000 -0.056609 0.000000 0.130212
#
#
# Mechanical properties :
#
#
# Convention : Reuss Voigt Hill
#
# Bulk Modulus (GPa) = 30.18571 40.84165 35.51368
# Shear Modulus (GPa) = 17.15217 32.56125 24.85671
#
# Velocity S-wave (km/s) = 2.68524 3.69976 3.23255
# Velocity P-wave (km/s) = 4.72267 5.95149 5.37233
#
# Compressibility (1/GPa) = 0.03312825
#
# Stress axis : x y z
#
# Youngs Moduli (GPa) = 44.88321 59.21743 147.84573
#
# Poissons Ratio (x) = 0.16172 0.63413
# Poissons Ratio (y) = 0.12258 -0.09150
# Poissons Ratio (z) = 0.19251 -0.03665
#
# Static dielectric constant tensor:
#      x y z
#    x 1.919070 0.000000 -0.022080 
#    y 0.000000 1.871600 0.000000 
#    z -0.022080 0.000000 2.054540 
# 
# From -- ./inp_files/13824.got.cif
#   From: 2010.05.17/outbox.cif.g08.bks.cpg/sg4_7_cif.got.tgz:13824.got - 2010.06.03 18:43:04.
