data_PCOD9115441
_publ_section_title
;
Structure prediction by ZEFSAII (Michael W. Deem and Ramdas Pophale) SiO2 
 PCOD9115441
Probable space group: P 21
;
_chemical_formula_sum "Si O2"
_cell_formula_units_Z 14
_cell_length_a 6.817697
_cell_length_b 15.964896
_cell_length_c 7.791128
_cell_angle_alpha 90.000000
_cell_angle_beta 138.968718
_cell_angle_gamma 90.000000
_cell_volume 556.698003
_symmetry_space_group_name_H-M "P 21"
_symmetry_group_IT_number 4
_symmetry_cell_setting 'monoclinic'
loop_
_space_group_symop_operation_xyz
x,y,z
-x,1/2+y,-z
loop_
_atom_site_type_symbol
_atom_site_label
_atom_site_fract_x
_atom_site_fract_y
_atom_site_fract_z
Si Si1 0.211729 0.674990 0.468545
Si Si2 0.042487 0.531872 0.875458
Si Si3 0.252660 0.866736 0.412080
Si Si4 0.676706 0.575134 0.982340
Si Si5 0.655187 0.401252 0.155720
Si Si6 0.682284 0.825317 0.375616
Si Si7 0.588588 0.634253 0.373902
O O1 0.159182 0.774032 0.413310
O O2 0.403234 0.651831 0.426320
O O3 0.907206 0.624584 0.252829
O O4 0.414946 0.638605 0.754691
O O5 0.003428 0.433146 0.807026
O O6 0.857415 0.574176 0.600645
O O7 0.854785 0.547928 0.926842
O O8 0.343686 0.585746 0.098688
O O9 0.419645 0.901455 0.691376
O O10 0.464096 0.855683 0.386215
O O11 0.599101 0.488638 0.022762
O O12 0.007640 0.375208 0.392766
O O13 0.479706 0.339360 0.913511
O O14 0.714706 0.725613 0.412819
#
# Coordination Sequence:
#
# PCOD9115441 Si02
#       7
#     2   2   2   2   2   2   2
#     4   9  21  40  67  93 138 181 221 280 353 404
#     4  10  20  38  69  95 135 177 228 280 343 412
#     4  11  26  46  73 106 138 186 236 290 348 420
#     4  10  20  42  66  96 137 182 221 285 347 406
#     4  12  26  44  73 104 137 183 240 281 353 424
#     4  11  25  47  72  98 146 181 226 300 347 414
#     4   9  20  39  66  98 129 182 224 274 357 406
#
# _framework density 25.148285999999999
#
# number of rings (size 3 to 8) (size 9 to 14) (size 15 to 20)
#    0.000    1.714    1.429    1.714    4.000    8.000 
#    7.714    0.000    0.000    0.000    0.000    0.000 
#    0.000    0.000    0.000    0.000    0.000    0.000 
#
# Total GULP energy -78416.794660 kJ/mol
# GULP energy per Si atom -5601.199619 kJ/mol
# Density = 2.509105 g / cm^3
# Si number density = 25.148286 Si / 1000 Ang^3
#
#
#
# Elastic Constant Matrix: (Units=GPa)
#
#
# Indices 1 2 3 4 5 6 
#
# 1 91.4265 11.6671 22.7978 0.0000 -18.1630 0.0000
# 2 11.6671 139.5027 37.8439 0.0000 6.1912 0.0000
# 3 22.7978 37.8439 165.4398 0.0000 -3.4584 0.0000
# 4 0.0000 0.0000 0.0000 46.5612 0.0000 -6.8677
# 5 -18.1630 6.1912 -3.4584 0.0000 39.1732 0.0000
# 6 0.0000 0.0000 0.0000 -6.8677 0.0000 45.0452
#
#
#
# Elastic Compliance Matrix: (Units=1/GPa)
#
#
# Indices 1 2 3 4 5 6 
#
# 1 0.012567 -0.000932 -0.001396 0.000000 0.005851 0.000000
# 2 -0.000932 0.007785 -0.001690 0.000000 -0.001812 0.000000
# 3 -0.001396 -0.001690 0.006628 0.000000 0.000205 0.000000
# 4 0.000000 0.000000 0.000000 0.021971 0.000000 0.003350
# 5 0.005851 -0.001812 0.000205 0.000000 0.028545 0.000000
# 6 0.000000 0.000000 0.000000 0.003350 0.000000 0.022711
#
#
# Mechanical properties :
#
#
# Convention : Reuss Voigt Hill
#
# Bulk Modulus (GPa) = 52.78933 60.10961 56.44947
# Shear Modulus (GPa) = 43.64587 47.75995 45.70291
#
# Velocity S-wave (km/s) = 4.17050 4.36263 4.26765
# Velocity P-wave (km/s) = 6.65038 7.02358 6.83953
#
# Compressibility (1/GPa) = 0.01894322
#
# Stress axis : x y z
#
# Youngs Moduli (GPa) = 79.57224 128.44877 150.87874
#
# Poissons Ratio (x) = 0.11970 0.21067
# Poissons Ratio (y) = 0.07416 0.25503
# Poissons Ratio (z) = 0.11111 0.21712
#
# Static dielectric constant tensor:
#      x y z
#    x 2.090370 0.000000 -0.004060 
#    y 0.000000 1.971620 0.000000 
#    z -0.004060 0.000000 1.887300 
# 
# From -- ./inp_files/6935.got.cif
#   From: 2010.05.17/outbox.cif.g08.bks.cpg/sg4_4_cif.got.tgz:6935.got - 2010.06.03 18:43:04.
