data_PCOD9115632
_publ_section_title
;
Structure prediction by ZEFSAII (Michael W. Deem and Ramdas Pophale) SiO2 
 PCOD9115632
Probable space group: P 21
;
_chemical_formula_sum "Si O2"
_cell_formula_units_Z 14
_cell_length_a 5.481104
_cell_length_b 12.358580
_cell_length_c 9.388306
_cell_angle_alpha 90.000000
_cell_angle_beta 100.933406
_cell_angle_gamma 90.000000
_cell_volume 624.407689
_symmetry_space_group_name_H-M "P 21"
_symmetry_group_IT_number 4
_symmetry_cell_setting 'monoclinic'
loop_
_space_group_symop_operation_xyz
x,y,z
-x,1/2+y,-z
loop_
_atom_site_type_symbol
_atom_site_label
_atom_site_fract_x
_atom_site_fract_y
_atom_site_fract_z
Si Si1 0.790948 0.615770 0.095156
Si Si2 0.087781 0.622267 0.882913
Si Si3 0.576369 0.266509 0.867211
Si Si4 0.768736 0.119693 0.654720
Si Si5 0.918004 0.253833 0.404275
Si Si6 0.394262 0.383111 0.341124
Si Si7 0.594098 0.941155 0.972055
O O1 0.709652 0.733916 0.135067
O O2 0.575507 0.535291 0.113821
O O3 0.032102 0.579999 0.205782
O O4 0.821825 0.620305 0.929669
O O5 0.103150 0.673018 0.731841
O O6 0.249083 0.700884 0.003652
O O7 0.191572 0.501981 0.918259
O O8 0.634192 0.220781 0.718616
O O9 0.581223 0.385397 0.929722
O O10 0.909638 0.174280 0.538959
O O11 0.614029 0.009854 0.609214
O O12 0.669151 0.329499 0.385879
O O13 0.172173 0.321495 0.402350
O O14 0.333973 0.375771 0.162610
#
# Coordination Sequence:
#
# PCOD9115632 Si02
#       7
#     2   2   2   2   2   2   2
#     4  10  20  41  68  96 140 184 230 293 347 407
#     4  10  22  38  64 105 130 180 231 293 334 416
#     4  10  21  39  68  97 136 179 235 289 341 411
#     4  11  26  46  67 101 142 186 233 289 356 424
#     4  12  29  45  72 105 142 186 235 289 350 430
#     4  12  25  46  74  98 139 194 229 285 363 413
#     4  11  21  39  73 102 135 185 239 288 349 409
#
# _framework density 22.421246
#
# number of rings (size 3 to 8) (size 9 to 14) (size 15 to 20)
#    0.000    1.143    5.714    1.714    4.000    3.429 
#    2.571    0.000    0.000    0.000    0.000    0.000 
#    0.000    0.000    0.000    0.000    0.000    0.000 
#
# Total GULP energy -78005.782253 kJ/mol
# GULP energy per Si atom -5571.841590 kJ/mol
# Density = 2.237021 g / cm^3
# Si number density = 22.421246 Si / 1000 Ang^3
#
#
#
# Elastic Constant Matrix: (Units=GPa)
#
#
# Indices 1 2 3 4 5 6 
#
# 1 66.8787 12.6483 18.7579 0.0000 -26.7498 0.0000
# 2 12.6483 72.9492 39.7410 0.0000 -19.4130 0.0000
# 3 18.7579 39.7410 115.9141 0.0000 -38.3748 0.0000
# 4 0.0000 0.0000 0.0000 35.9102 0.0000 -11.7753
# 5 -26.7498 -19.4130 -38.3748 0.0000 31.6544 0.0000
# 6 0.0000 0.0000 0.0000 -11.7753 0.0000 34.7298
#
#
#
# Elastic Compliance Matrix: (Units=1/GPa)
#
#
# Indices 1 2 3 4 5 6 
#
# 1 0.024053 0.000237 0.004683 0.000000 0.026149 0.000000
# 2 0.000237 0.017467 -0.004033 0.000000 0.006023 0.000000
# 3 0.004683 -0.004033 0.016275 0.000000 0.021215 0.000000
# 4 0.000000 0.000000 0.000000 0.031331 0.000000 0.010623
# 5 0.026149 0.006023 0.021215 0.000000 0.083103 0.000000
# 6 0.000000 0.000000 0.000000 0.010623 0.000000 0.032395
#
#
# Mechanical properties :
#
#
# Convention : Reuss Voigt Hill
#
# Bulk Modulus (GPa) = 16.78677 44.22628 30.50652
# Shear Modulus (GPa) = 22.45114 32.76518 27.60816
#
# Velocity S-wave (km/s) = 3.16782 3.82690 3.51285
# Velocity P-wave (km/s) = 4.56983 6.26856 5.48535
#
# Compressibility (1/GPa) = 0.05957073
#
# Stress axis : x y z
#
# Youngs Moduli (GPa) = 41.57455 57.25095 61.44237
#
# Poissons Ratio (x) = -0.01356 -0.28776
# Poissons Ratio (y) = -0.00985 0.24778
# Poissons Ratio (z) = -0.19471 0.23088
#
# Static dielectric constant tensor:
#      x y z
#    x 1.946160 0.000000 -0.026880 
#    y 0.000000 2.050350 0.000000 
#    z -0.026880 0.000000 1.870460 
# 
# From -- ./inp_files/1190.got.cif
#   From: 2010.05.17/outbox.cif.g08.bks.cpg/sg4_1_cif.got.tgz:1190.got - 2010.06.03 18:43:04.
