data_PCOD9115513
_publ_section_title
;
Structure prediction by ZEFSAII (Michael W. Deem and Ramdas Pophale) SiO2 
 PCOD9115513
Probable space group: P 21
;
_chemical_formula_sum "Si O2"
_cell_formula_units_Z 16
_cell_length_a 8.638744
_cell_length_b 8.436262
_cell_length_c 8.334261
_cell_angle_alpha 90.000000
_cell_angle_beta 95.088262
_cell_angle_gamma 90.000000
_cell_volume 604.996602
_symmetry_space_group_name_H-M "P 21"
_symmetry_group_IT_number 4
_symmetry_cell_setting 'monoclinic'
loop_
_space_group_symop_operation_xyz
x,y,z
-x,1/2+y,-z
loop_
_atom_site_type_symbol
_atom_site_label
_atom_site_fract_x
_atom_site_fract_y
_atom_site_fract_z
Si Si1 0.694638 0.579010 0.986359
Si Si2 0.550248 0.897652 0.856451
Si Si3 0.094264 0.800438 0.731918
Si Si4 0.268920 0.525459 0.856451
Si Si5 0.435393 0.899031 0.291244
Si Si6 0.388742 0.557738 0.439935
Si Si7 0.012959 0.289855 0.903059
Si Si8 0.963755 0.108024 0.575070
O O1 0.579986 0.721355 0.920949
O O2 0.699864 0.456141 0.839746
O O3 0.611418 0.480445 0.116771
O O4 0.850095 0.663738 0.046814
O O5 0.586238 0.911667 0.676492
O O6 0.674626 0.016868 0.954588
O O7 0.250325 0.693929 0.769115
O O8 0.996466 0.698363 0.587905
O O9 0.081688 0.970668 0.643551
O O10 0.048569 0.815064 0.918215
O O11 0.399906 0.412506 0.789924
O O12 0.099720 0.447942 0.850117
O O13 0.410138 0.727175 0.358925
O O14 0.471111 0.031936 0.424729
O O15 0.209513 0.540790 0.475210
O O16 0.940153 0.217461 0.732683
#
# Coordination Sequence:
#
# PCOD9115513 Si02
#       8
#     2   2   2   2   2   2   2   2
#     4  10  22  42  65 106 138 192 245 302 369 443
#     4  10  20  39  70  96 142 187 245 310 368 433
#     4  12  25  47  71 105 149 198 241 301 366 444
#     4  10  22  47  70 101 146 187 248 304 361 445
#     4  11  25  44  71 100 147 187 250 311 373 441
#     4  12  24  46  68 105 140 192 242 311 374 437
#     4  11  24  46  72 107 144 199 242 302 371 441
#     4  12  28  45  73 108 146 194 247 301 370 450
#
# _framework density 26.446431
#
# number of rings (size 3 to 8) (size 9 to 14) (size 15 to 20)
#    0.000    1.000    1.250    6.750    0.000    6.000 
#    6.750    0.000    0.000    0.000    0.000    0.000 
#    0.000    0.000    0.000    0.000    0.000    0.000 
#
# Total GULP energy -89376.396323 kJ/mol
# GULP energy per Si atom -5586.024770 kJ/mol
# Density = 2.638624 g / cm^3
# Si number density = 26.446431 Si / 1000 Ang^3
#
#
#
# Elastic Constant Matrix: (Units=GPa)
#
#
# Indices 1 2 3 4 5 6 
#
# 1 32.7385 11.6249 7.6577 0.0000 8.7159 0.0000
# 2 11.6249 134.6771 43.9090 0.0000 -0.2277 0.0000
# 3 7.6577 43.9090 138.0385 0.0000 16.5270 0.0000
# 4 0.0000 0.0000 0.0000 57.1229 0.0000 7.9972
# 5 8.7159 -0.2277 16.5270 0.0000 28.8131 0.0000
# 6 0.0000 0.0000 0.0000 7.9972 0.0000 38.1471
#
#
#
# Elastic Compliance Matrix: (Units=1/GPa)
#
#
# Indices 1 2 3 4 5 6 
#
# 1 0.034394 -0.003101 0.000351 0.000000 -0.010630 0.000000
# 2 -0.003101 0.008642 -0.002896 0.000000 0.002668 0.000000
# 3 0.000351 -0.002896 0.008763 0.000000 -0.005156 0.000000
# 4 0.000000 0.000000 0.000000 0.018035 0.000000 -0.003781
# 5 -0.010630 0.002668 -0.005156 0.000000 0.040900 0.000000
# 6 0.000000 0.000000 0.000000 -0.003781 0.000000 0.027007
#
#
# Mechanical properties :
#
#
# Convention : Reuss Voigt Hill
#
# Bulk Modulus (GPa) = 24.68727 47.98194 36.33460
# Shear Modulus (GPa) = 30.76225 40.96744 35.86484
#
# Velocity S-wave (km/s) = 3.41426 3.94010 3.68656
# Velocity P-wave (km/s) = 4.98979 6.23551 5.64710
#
# Compressibility (1/GPa) = 0.04050671
#
# Stress axis : x y z
#
# Youngs Moduli (GPa) = 29.07466 115.71909 114.11082
#
# Poissons Ratio (x) = 0.35888 -0.04007
# Poissons Ratio (y) = 0.09017 0.33049
# Poissons Ratio (z) = -0.01021 0.33514
#
# Static dielectric constant tensor:
#      x y z
#    x 2.095100 0.000000 -0.010010 
#    y 0.000000 2.077400 0.000000 
#    z -0.010010 0.000000 2.192520 
# 
# From -- ./inp_files/7562.got.cif
#   From: 2010.05.17/outbox.cif.g08.bks.cpg/sg4_4_cif.got.tgz:7562.got - 2010.06.03 18:43:04.
