data_PCOD9115121
_publ_section_title
;
Structure prediction by ZEFSAII (Michael W. Deem and Ramdas Pophale) SiO2 
 PCOD9115121
Probable space group: P 21
;
_chemical_formula_sum "Si O2"
_cell_formula_units_Z 14
_cell_length_a 9.988358
_cell_length_b 8.609988
_cell_length_c 6.939407
_cell_angle_alpha 90.000000
_cell_angle_beta 119.673154
_cell_angle_gamma 90.000000
_cell_volume 518.526066
_symmetry_space_group_name_H-M "P 21"
_symmetry_group_IT_number 4
_symmetry_cell_setting 'monoclinic'
loop_
_space_group_symop_operation_xyz
x,y,z
-x,1/2+y,-z
loop_
_atom_site_type_symbol
_atom_site_label
_atom_site_fract_x
_atom_site_fract_y
_atom_site_fract_z
Si Si1 0.261891 0.250000 0.348988
Si Si2 0.837143 0.737904 0.168014
Si Si3 0.017506 0.563697 0.744326
Si Si4 0.619362 0.272473 0.684697
Si Si5 0.589170 0.513897 0.975031
Si Si6 0.120502 0.574003 0.266803
Si Si7 0.318777 0.695899 0.859062
O O1 0.446688 0.250867 0.488472
O O2 0.202203 0.416097 0.381228
O O3 0.158734 0.120248 0.384673
O O4 0.208472 0.253421 0.089389
O O5 0.967526 0.607011 0.277817
O O6 0.918557 0.897962 0.281080
O O7 0.678367 0.662015 0.125081
O O8 0.058214 0.563900 0.002668
O O9 0.136133 0.686289 0.733924
O O10 0.644645 0.440034 0.808073
O O11 0.756989 0.216858 0.645007
O O12 0.634886 0.162318 0.883680
O O13 0.617730 0.367542 0.133997
O O14 0.414684 0.565180 0.820581
#
# Coordination Sequence:
#
# PCOD9115121 Si02
#       7
#     2   2   2   2   2   2   2
#     4  10  20  34  58  82 125 138 181 238 291 337
#     4  10  20  32  60  84 112 151 188 222 286 342
#     4   9  18  33  56  83 105 153 186 225 272 347
#     4   9  22  33  58  84 117 144 188 234 294 320
#     4  10  20  35  60  80 111 146 197 231 273 338
#     4   9  19  33  52  86 111 150 181 221 282 348
#     4   9  19  36  58  77 107 146 199 227 272 328
#
# _framework density 26.999604999999999
#
# number of rings (size 3 to 8) (size 9 to 14) (size 15 to 20)
#    0.857    1.714    0.000    1.714    8.000    0.000 
#    0.000    0.000    9.429    0.000    0.000    0.000 
#    0.000    0.000    0.000    0.000    0.000    0.000 
#
# Total GULP energy -78237.891149 kJ/mol
# GULP energy per Si atom -5588.420796 kJ/mol
# Density = 2.693815 g / cm^3
# Si number density = 26.999605 Si / 1000 Ang^3
#
#
#
# Elastic Constant Matrix: (Units=GPa)
#
#
# Indices 1 2 3 4 5 6 
#
# 1 72.0199 1.5696 11.6779 0.0000 18.4478 0.0000
# 2 1.5696 101.0202 15.0476 0.0000 6.2744 0.0000
# 3 11.6779 15.0476 137.7012 0.0000 7.0942 0.0000
# 4 0.0000 0.0000 0.0000 30.5858 0.0000 19.7568
# 5 18.4478 6.2744 7.0942 0.0000 38.3301 0.0000
# 6 0.0000 0.0000 0.0000 19.7568 0.0000 33.6858
#
#
#
# Elastic Compliance Matrix: (Units=1/GPa)
#
#
# Indices 1 2 3 4 5 6 
#
# 1 0.015978 0.000371 -0.001006 0.000000 -0.007564 0.000000
# 2 0.000371 0.010153 -0.001056 0.000000 -0.001645 0.000000
# 3 -0.001006 -0.001056 0.007500 0.000000 -0.000731 0.000000
# 4 0.000000 0.000000 0.000000 0.052636 0.000000 -0.030871
# 5 -0.007564 -0.001645 -0.000731 0.000000 0.030134 0.000000
# 6 0.000000 0.000000 0.000000 -0.030871 0.000000 0.047792
#
#
# Mechanical properties :
#
#
# Convention : Reuss Voigt Hill
#
# Bulk Modulus (GPa) = 33.05831 40.81463 36.93647
# Shear Modulus (GPa) = 28.14396 39.35009 33.74702
#
# Velocity S-wave (km/s) = 3.23210 3.82177 3.53924
# Velocity P-wave (km/s) = 5.11852 5.88423 5.51468
#
# Compressibility (1/GPa) = 0.03024958
#
# Stress axis : x y z
#
# Youngs Moduli (GPa) = 62.58732 98.49550 133.32457
#
# Poissons Ratio (x) = -0.03658 0.13411
# Poissons Ratio (y) = -0.02325 0.14082
# Poissons Ratio (z) = 0.06296 0.10403
#
# Static dielectric constant tensor:
#      x y z
#    x 2.147990 0.000000 -0.095910 
#    y 0.000000 2.112600 0.000000 
#    z -0.095910 0.000000 2.109650 
# 
# From -- ./inp_files/5468.got.cif
#   From: 2010.05.17/outbox.cif.g08.bks.cpg/sg4_3_cif.got.tgz:5468.got - 2010.06.03 18:43:04.
