data_PCOD9115040
_publ_section_title
;
Structure prediction by ZEFSAII (Michael W. Deem and Ramdas Pophale) SiO2 
 PCOD9115040
Probable space group: P 21
;
_chemical_formula_sum "Si O2"
_cell_formula_units_Z 16
_cell_length_a 5.485563
_cell_length_b 4.921151
_cell_length_c 26.980863
_cell_angle_alpha 90.000000
_cell_angle_beta 52.100847
_cell_angle_gamma 90.000000
_cell_volume 574.740785
_symmetry_space_group_name_H-M "P 21"
_symmetry_group_IT_number 4
_symmetry_cell_setting 'monoclinic'
loop_
_space_group_symop_operation_xyz
x,y,z
-x,1/2+y,-z
loop_
_atom_site_type_symbol
_atom_site_label
_atom_site_fract_x
_atom_site_fract_y
_atom_site_fract_z
Si Si1 0.288592 0.402000 0.039026
Si Si2 0.507870 0.648647 0.534736
Si Si3 0.095149 0.058410 0.628130
Si Si4 0.736526 0.728444 0.102942
Si Si5 0.698552 0.966031 0.762342
Si Si6 0.156144 0.013078 0.132439
Si Si7 0.322897 0.418111 0.398641
Si Si8 0.717495 0.168164 0.263201
O O1 0.203636 0.324715 0.107037
O O2 0.975111 0.505152 0.051459
O O3 0.498071 0.407932 0.899905
O O4 0.542627 0.637147 0.003147
O O5 0.503058 0.861923 0.489827
O O6 0.763168 0.736306 0.543118
O O7 0.199215 0.735456 0.605129
O O8 0.837593 0.142873 0.699855
O O9 0.936123 0.097507 0.595308
O O10 0.417923 0.129661 0.613500
O O11 0.509625 0.588268 0.170017
O O12 0.967247 0.898227 0.109332
O O13 0.001997 0.845168 0.749563
O O14 0.483210 0.759899 0.758917
O O15 0.939493 0.949143 0.207520
O O16 0.473081 0.216542 0.338499
#
# Coordination Sequence:
#
# PCOD9115040 Si02
#       8
#     2   2   2   2   2   2   2   2
#     4  12  28  58  82 118 162 212 262 322 384 476
#     4  10  22  42  66  94 138 188 244 296 358 440
#     4   8  18  37  62  97 136 182 235 296 365 434
#     4  12  27  49  77 117 152 202 255 319 387 459
#     4  10  19  39  71  99 146 183 240 304 377 447
#     4  12  27  49  77 117 152 202 255 319 387 459
#     4   8  18  37  62  97 136 182 235 296 365 434
#     4  10  19  39  71  99 146 183 240 304 377 447
#
# _framework density 27.838640999999999
#
# number of rings (size 3 to 8) (size 9 to 14) (size 15 to 20)
#    0.750    1.000    2.500    1.500    0.000    1.000 
#    6.750    0.000    0.000    0.000    0.000    0.000 
#    0.000    0.000    0.000    0.000    0.000    0.000 
#
# Total GULP energy -89205.547475 kJ/mol
# GULP energy per Si atom -5575.346717 kJ/mol
# Density = 2.777528 g / cm^3
# Si number density = 27.838641 Si / 1000 Ang^3
#
#
#
# Elastic Constant Matrix: (Units=GPa)
#
#
# Indices 1 2 3 4 5 6 
#
# 1 181.2676 54.1387 25.7231 0.0000 -21.5255 0.0000
# 2 54.1387 70.3734 13.8092 0.0000 -6.6152 0.0000
# 3 25.7231 13.8092 98.4311 0.0000 -4.3668 0.0000
# 4 0.0000 0.0000 0.0000 41.5370 0.0000 -2.5024
# 5 -21.5255 -6.6152 -4.3668 0.0000 46.5368 0.0000
# 6 0.0000 0.0000 0.0000 -2.5024 0.0000 35.5818
#
#
#
# Elastic Compliance Matrix: (Units=1/GPa)
#
#
# Indices 1 2 3 4 5 6 
#
# 1 0.007594 -0.005375 -0.001113 0.000000 0.002644 0.000000
# 2 -0.005375 0.018585 -0.001201 0.000000 0.000043 0.000000
# 3 -0.001113 -0.001201 0.010633 0.000000 0.000312 0.000000
# 4 0.000000 0.000000 0.000000 0.024177 0.000000 0.001700
# 5 0.002644 0.000043 0.000312 0.000000 0.022747 0.000000
# 6 0.000000 0.000000 0.000000 0.001700 0.000000 0.028224
#
#
# Mechanical properties :
#
#
# Convention : Reuss Voigt Hill
#
# Bulk Modulus (GPa) = 46.65640 59.71268 53.18454
# Shear Modulus (GPa) = 37.17975 41.82453 39.50214
#
# Velocity S-wave (km/s) = 3.65848 3.88027 3.77101
# Velocity P-wave (km/s) = 5.88574 6.44760 6.17306
#
# Compressibility (1/GPa) = 0.02143329
#
# Stress axis : x y z
#
# Youngs Moduli (GPa) = 131.68216 53.80765 94.05040
#
# Poissons Ratio (x) = 0.28923 0.10469
# Poissons Ratio (y) = 0.70781 0.11293
# Poissons Ratio (z) = 0.14658 0.06461
#
# Static dielectric constant tensor:
#      x y z
#    x 2.162110 0.000000 0.010580 
#    y 0.000000 2.325100 0.000000 
#    z 0.010580 0.000000 2.400530 
# 
# From -- ./inp_files/16292.got.cif
#   From: 2010.05.17/outbox.cif.g08.bks.cpg/sg4_9_cif.got.tgz:16292.got - 2010.06.03 18:43:04.
