data_PCOD9115305
_publ_section_title
;
Structure prediction by ZEFSAII (Michael W. Deem and Ramdas Pophale) SiO2 
 PCOD9115305
Probable space group: P 21
;
_chemical_formula_sum "Si O2"
_cell_formula_units_Z 16
_cell_length_a 19.956770
_cell_length_b 8.046732
_cell_length_c 14.280373
_cell_angle_alpha 90.000000
_cell_angle_beta 17.072586
_cell_angle_gamma 90.000000
_cell_volume 673.255970
_symmetry_space_group_name_H-M "P 21"
_symmetry_group_IT_number 4
_symmetry_cell_setting 'monoclinic'
loop_
_space_group_symop_operation_xyz
x,y,z
-x,1/2+y,-z
loop_
_atom_site_type_symbol
_atom_site_label
_atom_site_fract_x
_atom_site_fract_y
_atom_site_fract_z
Si Si1 0.430281 0.056890 0.736339
Si Si2 0.588488 0.903235 0.196862
Si Si3 0.086504 0.040651 0.876030
Si Si4 0.794358 0.039592 0.096496
Si Si5 0.077413 0.935760 0.477481
Si Si6 0.246256 0.359638 0.578600
Si Si7 0.163377 0.231535 0.495099
Si Si8 0.024835 0.549022 0.583274
O O1 0.467456 0.215433 0.754011
O O2 0.578122 0.091170 0.446937
O O3 0.538440 0.899497 0.644332
O O4 0.161403 0.048542 0.084726
O O5 0.352010 0.997137 0.523510
O O6 0.707761 0.905784 0.138928
O O7 0.799569 0.967552 0.853393
O O8 0.083545 0.231665 0.850191
O O9 0.973295 0.968130 0.931921
O O10 0.927024 0.014538 0.179190
O O11 0.916938 0.185034 0.872734
O O12 0.112216 0.738536 0.451585
O O13 0.118810 0.993074 0.316545
O O14 0.200231 0.061642 0.386308
O O15 0.303156 0.285446 0.401293
O O16 0.176683 0.390012 0.408558
#
# Coordination Sequence:
#
# PCOD9115305 Si02
#       8
#     2   2   2   2   2   2   2   2
#     4  10  23  38  59  97 127 165 218 263 327 401
#     4  10  21  38  62  89 127 169 211 269 322 387
#     4  10  20  37  60  88 132 170 200 272 322 387
#     4   9  21  36  60  99 128 164 219 254 325 401
#     4  10  22  41  66  97 121 166 232 268 322 388
#     4  10  22  39  59  92 132 168 213 263 333 396
#     4  10  21  41  65  87 131 168 211 271 322 380
#     4  11  22  40  71  91 128 172 216 280 321 384
#
# _framework density 23.765108000000001
#
# number of rings (size 3 to 8) (size 9 to 14) (size 15 to 20)
#    0.000    2.000    1.250    2.250    7.000    1.000 
#   20.250    0.000   11.000    0.000    0.000    0.000 
#    0.000    0.000    0.000    0.000    0.000    0.000 
#
# Total GULP energy -89071.868896 kJ/mol
# GULP energy per Si atom -5566.991806 kJ/mol
# Density = 2.371102 g / cm^3
# Si number density = 23.765108 Si / 1000 Ang^3
#
#
#
# Elastic Constant Matrix: (Units=GPa)
#
#
# Indices 1 2 3 4 5 6 
#
# 1 85.0551 44.0575 4.7940 0.0000 6.0510 0.0000
# 2 44.0575 112.7889 -12.5763 0.0000 -1.2315 0.0000
# 3 4.7940 -12.5763 45.0545 0.0000 5.9107 0.0000
# 4 0.0000 0.0000 0.0000 22.2768 0.0000 9.4641
# 5 6.0510 -1.2315 5.9107 0.0000 18.1793 0.0000
# 6 0.0000 0.0000 0.0000 9.4641 0.0000 30.8324
#
#
#
# Elastic Compliance Matrix: (Units=1/GPa)
#
#
# Indices 1 2 3 4 5 6 
#
# 1 0.015600 -0.006462 -0.002847 0.000000 -0.004705 0.000000
# 2 -0.006462 0.011829 0.003763 0.000000 0.001729 0.000000
# 3 -0.002847 0.003763 0.024433 0.000000 -0.006742 0.000000
# 4 0.000000 0.000000 0.000000 0.051622 0.000000 -0.015845
# 5 -0.004705 0.001729 -0.006742 0.000000 0.058882 0.000000
# 6 0.000000 0.000000 0.000000 -0.015845 0.000000 0.037297
#
#
# Mechanical properties :
#
#
# Convention : Reuss Voigt Hill
#
# Bulk Modulus (GPa) = 24.52839 35.04990 29.78914
# Shear Modulus (GPa) = 22.28714 28.03258 25.15986
#
# Velocity S-wave (km/s) = 3.06569 3.43821 3.25728
# Velocity P-wave (km/s) = 4.78277 5.52650 5.16803
#
# Compressibility (1/GPa) = 0.04076908
#
# Stress axis : x y z
#
# Youngs Moduli (GPa) = 64.10419 84.53923 40.92832
#
# Poissons Ratio (x) = 0.54632 0.11650
# Poissons Ratio (y) = 0.41426 -0.15400
# Poissons Ratio (z) = 0.18247 -0.31809
#
# Static dielectric constant tensor:
#      x y z
#    x 1.921570 0.000000 0.050880 
#    y 0.000000 2.061770 0.000000 
#    z 0.050880 0.000000 2.062870 
# 
# From -- ./inp_files/9160.got.cif
#   From: 2010.05.17/outbox.cif.g08.bks.cpg/sg4_5_cif.got.tgz:9160.got - 2010.06.03 18:43:04.
