data_PCOD9115635
_publ_section_title
;
Structure prediction by ZEFSAII (Michael W. Deem and Ramdas Pophale) SiO2 
 PCOD9115635
Probable space group: P 21
;
_chemical_formula_sum "Si O2"
_cell_formula_units_Z 16
_cell_length_a 8.627250
_cell_length_b 13.023602
_cell_length_c 7.688304
_cell_angle_alpha 90.000000
_cell_angle_beta 117.833384
_cell_angle_gamma 90.000000
_cell_volume 763.902850
_symmetry_space_group_name_H-M "P 21"
_symmetry_group_IT_number 4
_symmetry_cell_setting 'monoclinic'
loop_
_space_group_symop_operation_xyz
x,y,z
-x,1/2+y,-z
loop_
_atom_site_type_symbol
_atom_site_label
_atom_site_fract_x
_atom_site_fract_y
_atom_site_fract_z
Si Si1 0.040156 0.660500 0.657097
Si Si2 0.427229 0.624242 0.937578
Si Si3 0.343399 0.456049 0.606717
Si Si4 0.681973 0.754532 0.558295
Si Si5 0.273696 0.274527 0.025081
Si Si6 0.405966 0.596549 0.321439
Si Si7 0.947673 0.931480 0.293521
Si Si8 0.084881 0.722404 0.289113
O O1 0.887562 0.737321 0.631120
O O2 0.000268 0.547799 0.717717
O O3 0.240274 0.681425 0.816294
O O4 0.047092 0.664104 0.450252
O O5 0.429545 0.535621 0.789146
O O6 0.583596 0.705341 0.998112
O O7 0.425150 0.576451 0.128152
O O8 0.401845 0.338513 0.615203
O O9 0.359310 0.504510 0.425130
O O10 0.142854 0.443376 0.566185
O O11 0.661117 0.787579 0.746088
O O12 0.585733 0.647715 0.478206
O O13 0.212364 0.380796 0.902512
O O14 0.088108 0.213862 0.920305
O O15 0.253024 0.679273 0.281532
O O16 0.092950 0.843570 0.346792
#
# Coordination Sequence:
#
# PCOD9115635 Si02
#       8
#     2   2   2   2   2   2   2   2
#     4  11  21  41  70  97 142 180 230 293 345 418
#     4  11  23  44  69  97 141 181 231 292 351 409
#     4  11  23  42  68 100 137 177 240 276 358 408
#     4  12  24  43  71 103 142 186 233 291 353 421
#     4  10  22  44  68  98 137 184 230 290 351 411
#     4  12  24  43  72  99 139 188 232 293 350 417
#     4   9  21  40  69  94 142 173 230 279 352 400
#     4  10  20  41  69 100 138 183 230 286 348 416
#
# _framework density 20.945070000000001
#
# number of rings (size 3 to 8) (size 9 to 14) (size 15 to 20)
#    0.750    0.500    5.000    2.250    3.500    1.000 
#    0.000    0.000   16.500    0.000    0.000    0.000 
#    0.000    0.000    0.000    0.000    0.000    0.000 
#
# Total GULP energy -89147.523570 kJ/mol
# GULP energy per Si atom -5571.720223 kJ/mol
# Density = 2.089740 g / cm^3
# Si number density = 20.945070 Si / 1000 Ang^3
#
#
#
# Elastic Constant Matrix: (Units=GPa)
#
#
# Indices 1 2 3 4 5 6 
#
# 1 57.3716 11.0020 21.3457 0.0000 -11.8218 0.0000
# 2 11.0020 81.0102 18.6174 0.0000 -8.9096 0.0000
# 3 21.3457 18.6174 89.9117 0.0000 -22.9355 0.0000
# 4 0.0000 0.0000 0.0000 30.5654 0.0000 -11.7715
# 5 -11.8218 -8.9096 -22.9355 0.0000 41.3729 0.0000
# 6 0.0000 0.0000 0.0000 -11.7715 0.0000 20.6771
#
#
#
# Elastic Compliance Matrix: (Units=1/GPa)
#
#
# Indices 1 2 3 4 5 6 
#
# 1 0.019718 -0.001501 -0.003512 0.000000 0.003364 0.000000
# 2 -0.001501 0.013157 -0.002044 0.000000 0.001272 0.000000
# 3 -0.003512 -0.002044 0.013989 0.000000 0.006311 0.000000
# 4 0.000000 0.000000 0.000000 0.041904 0.000000 0.023856
# 5 0.003364 0.001272 0.006311 0.000000 0.028904 0.000000
# 6 0.000000 0.000000 0.000000 0.023856 0.000000 0.061944
#
#
# Mechanical properties :
#
#
# Convention : Reuss Voigt Hill
#
# Bulk Modulus (GPa) = 30.53371 36.69156 33.61263
# Shear Modulus (GPa) = 24.43219 30.34496 27.38857
#
# Velocity S-wave (km/s) = 3.41910 3.81042 3.62005
# Velocity P-wave (km/s) = 5.49514 6.07578 5.79274
#
# Compressibility (1/GPa) = 0.03275069
#
# Stress axis : x y z
#
# Youngs Moduli (GPa) = 50.71514 76.00239 71.48479
#
# Poissons Ratio (x) = 0.11406 0.25108
# Poissons Ratio (y) = 0.07611 0.14610
# Poissons Ratio (z) = 0.17813 0.15533
#
# Static dielectric constant tensor:
#      x y z
#    x 1.756630 0.000000 -0.010090 
#    y 0.000000 1.806330 0.000000 
#    z -0.010090 0.000000 1.768590 
# 
# From -- ./inp_files/6198.got.cif
#   From: 2010.05.17/outbox.cif.g08.bks.cpg/sg4_4_cif.got.tgz:6198.got - 2010.06.03 18:43:04.
