data_PCOD9115601
_publ_section_title
;
Structure prediction by ZEFSAII (Michael W. Deem and Ramdas Pophale) SiO2 
 PCOD9115601
Probable space group: P 21
;
_chemical_formula_sum "Si O2"
_cell_formula_units_Z 16
_cell_length_a 8.451034
_cell_length_b 13.553508
_cell_length_c 7.361334
_cell_angle_alpha 90.000000
_cell_angle_beta 128.293668
_cell_angle_gamma 90.000000
_cell_volume 661.762124
_symmetry_space_group_name_H-M "P 21"
_symmetry_group_IT_number 4
_symmetry_cell_setting 'monoclinic'
loop_
_space_group_symop_operation_xyz
x,y,z
-x,1/2+y,-z
loop_
_atom_site_type_symbol
_atom_site_label
_atom_site_fract_x
_atom_site_fract_y
_atom_site_fract_z
Si Si1 0.609741 0.763400 0.716859
Si Si2 0.936056 0.627551 0.055983
Si Si3 0.364992 0.574123 0.425822
Si Si4 0.780054 0.890212 0.532374
Si Si5 0.586545 0.251695 0.043725
Si Si6 0.643409 0.567972 0.307776
Si Si7 0.033561 0.209149 0.510920
Si Si8 0.761580 0.439509 0.054429
O O1 0.452230 0.679162 0.546350
O O2 0.636910 0.844646 0.584176
O O3 0.543970 0.787018 0.875246
O O4 0.832479 0.715541 0.878534
O O5 0.962303 0.668052 0.281310
O O6 0.776378 0.536897 0.940736
O O7 0.158060 0.592423 0.166485
O O8 0.309187 0.500757 0.552936
O O9 0.522876 0.531687 0.394546
O O10 0.833330 0.809317 0.417211
O O11 0.004937 0.908174 0.771191
O O12 0.625127 0.342983 0.932771
O O13 0.809573 0.226456 0.279435
O O14 0.485026 0.155316 0.882918
O O15 0.848632 0.623128 0.512172
O O16 0.696729 0.483436 0.203520
#
# Coordination Sequence:
#
# PCOD9115601 Si02
#       8
#     2   2   2   2   2   2   2   2
#     4  12  22  41  65  97 128 167 213 263 319 378
#     4  10  22  41  64  92 135 164 206 270 315 375
#     4  11  24  41  64  96 131 166 216 268 319 371
#     4  10  23  41  66  92 133 168 212 271 314 379
#     4  11  22  38  68  92 123 171 211 255 325 382
#     4  11  22  42  65  92 128 169 209 264 323 379
#     4  10  20  41  62  93 126 169 207 261 314 380
#     4   9  21  41  62  92 128 162 210 258 311 384
#
# _framework density 24.177872000000001
#
# number of rings (size 3 to 8) (size 9 to 14) (size 15 to 20)
#    0.000    1.500    5.000    0.750    3.500    1.000 
#    0.000    0.000    0.000    0.000    0.000    0.000 
#    0.000    0.000    0.000    0.000    0.000    0.000 
#
# Total GULP energy -89404.330234 kJ/mol
# GULP energy per Si atom -5587.770640 kJ/mol
# Density = 2.412284 g / cm^3
# Si number density = 24.177872 Si / 1000 Ang^3
#
#
#
# Elastic Constant Matrix: (Units=GPa)
#
#
# Indices 1 2 3 4 5 6 
#
# 1 114.9817 31.2703 23.1990 0.0000 4.8935 0.0000
# 2 31.2703 110.6671 23.8659 0.0000 2.9474 0.0000
# 3 23.1990 23.8659 68.8609 0.0000 4.8033 0.0000
# 4 0.0000 0.0000 0.0000 30.5418 0.0000 6.0308
# 5 4.8935 2.9474 4.8033 0.0000 25.8453 0.0000
# 6 0.0000 0.0000 0.0000 6.0308 0.0000 41.5030
#
#
#
# Elastic Compliance Matrix: (Units=1/GPa)
#
#
# Indices 1 2 3 4 5 6 
#
# 1 0.009848 -0.002220 -0.002468 0.000000 -0.001153 0.000000
# 2 -0.002220 0.010273 -0.002796 0.000000 -0.000231 0.000000
# 3 -0.002468 -0.002796 0.016481 0.000000 -0.002277 0.000000
# 4 0.000000 0.000000 0.000000 0.033709 0.000000 -0.004898
# 5 -0.001153 -0.000231 -0.002277 0.000000 0.039360 0.000000
# 6 0.000000 0.000000 0.000000 -0.004898 0.000000 0.024806
#
#
# Mechanical properties :
#
#
# Convention : Reuss Voigt Hill
#
# Bulk Modulus (GPa) = 46.22399 50.13113 48.17756
# Shear Modulus (GPa) = 31.91707 33.98965 32.95336
#
# Velocity S-wave (km/s) = 3.63725 3.75349 3.69583
# Velocity P-wave (km/s) = 6.06624 6.29001 6.17914
#
# Compressibility (1/GPa) = 0.02163379
#
# Stress axis : x y z
#
# Youngs Moduli (GPa) = 101.54666 97.34723 60.67431
#
# Poissons Ratio (x) = 0.21608 0.14974
# Poissons Ratio (y) = 0.22540 0.16966
# Poissons Ratio (z) = 0.25061 0.27221
#
# Static dielectric constant tensor:
#      x y z
#    x 1.925970 0.000000 0.016260 
#    y 0.000000 1.951590 0.000000 
#    z 0.016260 0.000000 1.949510 
# 
# From -- ./inp_files/6467.got.cif
#   From: 2010.05.17/outbox.cif.g08.bks.cpg/sg4_4_cif.got.tgz:6467.got - 2010.06.03 18:43:04.
