data_PCOD9115731
_publ_section_title
;
Structure prediction by ZEFSAII (Michael W. Deem and Ramdas Pophale) SiO2 
 PCOD9115731
Probable space group: P 21
;
_chemical_formula_sum "Si O2"
_cell_formula_units_Z 10
_cell_length_a 9.459849
_cell_length_b 7.689961
_cell_length_c 6.226653
_cell_angle_alpha 90.000000
_cell_angle_beta 82.578537
_cell_angle_gamma 90.000000
_cell_volume 449.168746
_symmetry_space_group_name_H-M "P 21"
_symmetry_group_IT_number 4
_symmetry_cell_setting 'monoclinic'
loop_
_space_group_symop_operation_xyz
x,y,z
-x,1/2+y,-z
loop_
_atom_site_type_symbol
_atom_site_label
_atom_site_fract_x
_atom_site_fract_y
_atom_site_fract_z
Si Si1 0.703133 0.732600 0.997182
Si Si2 0.372472 0.937229 0.707287
Si Si3 0.615423 0.042532 0.326317
Si Si4 0.834507 0.902859 0.598422
Si Si5 0.079743 0.109462 0.734298
O O1 0.615028 0.563280 0.087191
O O2 0.864208 0.686395 0.050874
O O3 0.644253 0.892254 0.148259
O O4 0.719131 0.789935 0.751662
O O5 0.391743 0.736901 0.760332
O O6 0.480534 0.994962 0.500557
O O7 0.212478 0.981053 0.656503
O O8 0.750487 0.032206 0.460349
O O9 0.920267 0.767982 0.433697
O O10 0.933887 0.007145 0.742704
#
# Coordination Sequence:
#
# PCOD9115731 Si02
#       5
#     2   2   2   2   2
#     4   9  23  40  61  92 124 161 208 254 307 374
#     4  10  20  44  62  89 131 162 196 266 310 361
#     4  11  20  42  66  88 127 166 204 254 319 365
#     4  11  21  42  63  94 121 167 213 253 308 382
#     4   9  22  38  62  85 131 158 205 259 308 358
#
# _framework density 22.263345999999999
#
# number of rings (size 3 to 8) (size 9 to 14) (size 15 to 20)
#    1.200    0.800    2.000    1.200    0.000    4.800 
#   14.400    0.000    0.000    0.000    0.000    0.000 
#    0.000    0.000    0.000    0.000    0.000    0.000 
#
# Total GULP energy -55822.153409 kJ/mol
# GULP energy per Si atom -5582.215341 kJ/mol
# Density = 2.221267 g / cm^3
# Si number density = 22.263346 Si / 1000 Ang^3
#
#
#
# Elastic Constant Matrix: (Units=GPa)
#
#
# Indices 1 2 3 4 5 6 
#
# 1 79.8337 25.6352 -4.9047 0.0000 2.6214 0.0000
# 2 25.6352 155.2211 10.9401 0.0000 2.3501 0.0000
# 3 -4.9047 10.9401 16.1266 0.0000 2.0515 0.0000
# 4 0.0000 0.0000 0.0000 22.2975 0.0000 -4.4996
# 5 2.6214 2.3501 2.0515 0.0000 18.2813 0.0000
# 6 0.0000 0.0000 0.0000 -4.4996 0.0000 32.1959
#
#
#
# Elastic Compliance Matrix: (Units=1/GPa)
#
#
# Indices 1 2 3 4 5 6 
#
# 1 0.013860 -0.002701 0.006347 0.000000 -0.002353 0.000000
# 2 -0.002701 0.007295 -0.005782 0.000000 0.000098 0.000000
# 3 0.006347 -0.005782 0.068867 0.000000 -0.007895 0.000000
# 4 0.000000 0.000000 0.000000 0.046150 0.000000 0.006450
# 5 -0.002353 0.000098 -0.007895 0.000000 0.055911 0.000000
# 6 0.000000 0.000000 0.000000 0.006450 0.000000 0.031961
#
#
# Mechanical properties :
#
#
# Convention : Reuss Voigt Hill
#
# Bulk Modulus (GPa) = 11.66192 34.94696 23.30444
# Shear Modulus (GPa) = 19.46285 29.18899 24.32592
#
# Velocity S-wave (km/s) = 2.95991 3.62481 3.30910
# Velocity P-wave (km/s) = 4.11473 5.76629 5.00905
#
# Compressibility (1/GPa) = 0.08574919
#
# Stress axis : x y z
#
# Youngs Moduli (GPa) = 72.14757 137.08900 14.52079
#
# Poissons Ratio (x) = 0.37025 -0.09216
# Poissons Ratio (y) = 0.19486 0.08397
# Poissons Ratio (z) = -0.45792 0.79271
#
# Static dielectric constant tensor:
#      x y z
#    x 1.853970 0.000000 0.020680 
#    y 0.000000 1.782440 0.000000 
#    z 0.020680 0.000000 1.769660 
# 
# From -- ./inp_files/938.got.cif
#   From: 2010.05.17/outbox.cif.g08.bks.cpg/sg4_1_cif.got.tgz:938.got - 2010.06.03 18:43:04.
