data_PCOD9115754
_publ_section_title
;
Structure prediction by ZEFSAII (Michael W. Deem and Ramdas Pophale) SiO2 
 PCOD9115754
Probable space group: P 21
;
_chemical_formula_sum "Si O2"
_cell_formula_units_Z 12
_cell_length_a 7.080083
_cell_length_b 11.199546
_cell_length_c 6.656740
_cell_angle_alpha 90.000000
_cell_angle_beta 86.456374
_cell_angle_gamma 90.000000
_cell_volume 526.828434
_symmetry_space_group_name_H-M "P 21"
_symmetry_group_IT_number 4
_symmetry_cell_setting 'monoclinic'
loop_
_space_group_symop_operation_xyz
x,y,z
-x,1/2+y,-z
loop_
_atom_site_type_symbol
_atom_site_label
_atom_site_fract_x
_atom_site_fract_y
_atom_site_fract_z
Si Si1 0.606654 0.445520 0.408062
Si Si2 0.540856 0.224091 0.625009
Si Si3 0.830036 0.545554 0.754934
Si Si4 0.748002 0.736118 0.049861
Si Si5 0.960410 0.150490 0.627626
Si Si6 0.983368 0.428144 0.126767
O O1 0.490648 0.321538 0.452665
O O2 0.521570 0.581407 0.382763
O O3 0.708738 0.465660 0.615382
O O4 0.771929 0.416889 0.234173
O O5 0.443075 0.275825 0.831876
O O6 0.766181 0.218839 0.622781
O O7 0.951587 0.626200 0.594807
O O8 0.703797 0.623488 0.913127
O O9 0.963033 0.476230 0.901141
O O10 0.884456 0.704915 0.231097
O O11 0.876021 0.819177 0.904117
O O12 0.919540 0.023659 0.734227
#
# Coordination Sequence:
#
# PCOD9115754 Si02
#       6
#     2   2   2   2   2   2
#     4  11  25  47  67 105 142 181 234 284 344 408
#     4  12  25  46  70 104 140 180 232 286 342 410
#     4  10  20  45  69  89 142 183 223 283 342 410
#     4  11  23  44  68 101 135 181 228 282 345 412
#     4  10  23  44  66  96 137 180 229 279 350 399
#     4  10  22  44  70  97 138 183 230 282 345 413
#
# _framework density 22.777812999999998
#
# number of rings (size 3 to 8) (size 9 to 14) (size 15 to 20)
#    0.000    1.333    5.000    2.000    2.333    4.000 
#   12.000    0.000    0.000    0.000    0.000    0.000 
#    0.000    0.000    0.000    0.000    0.000    0.000 
#
# Total GULP energy -66882.863802 kJ/mol
# GULP energy per Si atom -5573.571983 kJ/mol
# Density = 2.272597 g / cm^3
# Si number density = 22.777813 Si / 1000 Ang^3
#
#
#
# Elastic Constant Matrix: (Units=GPa)
#
#
# Indices 1 2 3 4 5 6 
#
# 1 57.6677 24.2714 28.1572 0.0000 -12.7788 0.0000
# 2 24.2714 65.3772 36.4076 0.0000 -23.2502 0.0000
# 3 28.1572 36.4076 120.3977 0.0000 -3.7671 0.0000
# 4 0.0000 0.0000 0.0000 19.2958 0.0000 -3.2440
# 5 -12.7788 -23.2502 -3.7671 0.0000 14.8112 0.0000
# 6 0.0000 0.0000 0.0000 -3.2440 0.0000 32.6219
#
#
#
# Elastic Compliance Matrix: (Units=1/GPa)
#
#
# Indices 1 2 3 4 5 6 
#
# 1 0.024254 0.002469 -0.005688 0.000000 0.023355 0.000000
# 2 0.002469 0.047657 -0.012682 0.000000 0.073716 0.000000
# 3 -0.005688 -0.012682 0.012796 0.000000 -0.021561 0.000000
# 4 0.000000 0.000000 0.000000 0.052706 0.000000 0.005241
# 5 0.023355 0.073716 -0.021561 0.000000 0.197900 0.000000
# 6 0.000000 0.000000 0.000000 0.005241 0.000000 0.031175
#
#
# Mechanical properties :
#
#
# Convention : Reuss Voigt Hill
#
# Bulk Modulus (GPa) = 18.90166 46.79055 32.84611
# Shear Modulus (GPa) = 12.02133 23.65286 17.83709
#
# Velocity S-wave (km/s) = 2.29981 3.22594 2.80141
# Velocity P-wave (km/s) = 3.92026 5.87047 4.99153
#
# Compressibility (1/GPa) = 0.05290539
#
# Stress axis : x y z
#
# Youngs Moduli (GPa) = 41.22990 20.98309 78.14640
#
# Poissons Ratio (x) = -0.05181 0.44451
# Poissons Ratio (y) = -0.10180 0.99107
# Poissons Ratio (z) = 0.23452 0.26611
#
# Static dielectric constant tensor:
#      x y z
#    x 1.832480 0.000000 -0.000800 
#    y 0.000000 2.054710 0.000000 
#    z -0.000800 0.000000 1.787050 
# 
# From -- ./inp_files/1251.got.cif
#   From: 2010.05.17/outbox.cif.g08.bks.cpg/sg4_1_cif.got.tgz:1251.got - 2010.06.03 18:43:04.
