data_PCOD9115538
_publ_section_title
;
Structure prediction by ZEFSAII (Michael W. Deem and Ramdas Pophale) SiO2 
 PCOD9115538
Probable space group: P 21
;
_chemical_formula_sum "Si O2"
_cell_formula_units_Z 14
_cell_length_a 13.091871
_cell_length_b 10.088412
_cell_length_c 9.050357
_cell_angle_alpha 90.000000
_cell_angle_beta 147.908772
_cell_angle_gamma 90.000000
_cell_volume 635.045165
_symmetry_space_group_name_H-M "P 21"
_symmetry_group_IT_number 4
_symmetry_cell_setting 'monoclinic'
loop_
_space_group_symop_operation_xyz
x,y,z
-x,1/2+y,-z
loop_
_atom_site_type_symbol
_atom_site_label
_atom_site_fract_x
_atom_site_fract_y
_atom_site_fract_z
Si Si1 0.302206 0.443080 0.658711
Si Si2 0.207289 0.872336 0.228770
Si Si3 0.645784 0.440717 0.276502
Si Si4 0.215562 0.699517 0.715631
Si Si5 0.904709 0.648710 0.877844
Si Si6 0.491743 0.783530 0.318296
Si Si7 0.111635 0.174734 0.465488
O O1 0.252353 0.592792 0.632995
O O2 0.424598 0.414860 0.661142
O O3 0.141221 0.329536 0.466773
O O4 0.437044 0.403865 0.962897
O O5 0.331296 0.917949 0.522426
O O6 0.346877 0.816530 0.273113
O O7 0.100334 0.008139 0.046195
O O8 0.053392 0.764487 0.098016
O O9 0.788388 0.343243 0.363434
O O10 0.695608 0.588999 0.283938
O O11 0.020653 0.659989 0.557301
O O12 0.370670 0.708672 0.040797
O O13 0.685350 0.705442 0.604329
O O14 0.967621 0.615437 0.785243
#
# Coordination Sequence:
#
# PCOD9115538 Si02
#       7
#     2   2   2   2   2   2   2
#     4  10  21  39  65  90 122 166 211 261 316 381
#     4  11  23  44  64  94 135 170 219 262 326 381
#     4  10  22  39  58  94 124 160 211 263 307 380
#     4  11  20  39  66  92 123 163 209 264 317 373
#     4  10  23  42  66  93 128 174 216 267 312 392
#     4  10  23  43  68  91 131 174 207 267 326 379
#     4  10  20  40  63  88 125 165 209 258 322 368
#
# _framework density 22.045676
#
# number of rings (size 3 to 8) (size 9 to 14) (size 15 to 20)
#    0.000    1.714    1.429    4.286    0.000    4.571 
#   12.857    0.000    0.000    0.000    0.000    0.000 
#    0.000    0.000    0.000    0.000    0.000    0.000 
#
# Total GULP energy -78100.040818 kJ/mol
# GULP energy per Si atom -5578.574344 kJ/mol
# Density = 2.199550 g / cm^3
# Si number density = 22.045676 Si / 1000 Ang^3
#
#
#
# Elastic Constant Matrix: (Units=GPa)
#
#
# Indices 1 2 3 4 5 6 
#
# 1 105.2830 48.2998 29.6229 0.0000 17.5646 0.0000
# 2 48.2998 116.9713 22.1176 0.0000 5.8768 0.0000
# 3 29.6229 22.1176 41.5418 0.0000 -1.2978 0.0000
# 4 0.0000 0.0000 0.0000 25.3169 0.0000 -4.2817
# 5 17.5646 5.8768 -1.2978 0.0000 19.9948 0.0000
# 6 0.0000 0.0000 0.0000 -4.2817 0.0000 28.7806
#
#
#
# Elastic Compliance Matrix: (Units=1/GPa)
#
#
# Indices 1 2 3 4 5 6 
#
# 1 0.016600 -0.004260 -0.010006 0.000000 -0.013980 0.000000
# 2 -0.004260 0.010799 -0.002699 0.000000 0.000393 0.000000
# 3 -0.010006 -0.002699 0.033011 0.000000 0.011726 0.000000
# 4 0.000000 0.000000 0.000000 0.040519 0.000000 0.006028
# 5 -0.013980 0.000393 0.011726 0.000000 0.062940 0.000000
# 6 0.000000 0.000000 0.000000 0.006028 0.000000 0.035642
#
#
# Mechanical properties :
#
#
# Convention : Reuss Voigt Hill
#
# Bulk Modulus (GPa) = 37.76594 51.54184 44.65389
# Shear Modulus (GPa) = 20.63830 25.73549 23.18690
#
# Velocity S-wave (km/s) = 3.06299 3.42039 3.24661
# Velocity P-wave (km/s) = 5.44768 6.24732 5.86115
#
# Compressibility (1/GPa) = 0.02647888
#
# Stress axis : x y z
#
# Youngs Moduli (GPa) = 60.23989 92.60218 30.29318
#
# Poissons Ratio (x) = 0.39451 0.30311
# Poissons Ratio (y) = 0.25664 0.08177
# Poissons Ratio (z) = 0.60276 0.24996
#
# Static dielectric constant tensor:
#      x y z
#    x 1.758690 0.000000 0.008560 
#    y 0.000000 1.866850 0.000000 
#    z 0.008560 0.000000 1.891240 
# 
# From -- ./inp_files/7478.got.cif
#   From: 2010.05.17/outbox.cif.g08.bks.cpg/sg4_4_cif.got.tgz:7478.got - 2010.06.03 18:43:04.
