data_PCOD9115558
_publ_section_title
;
Structure prediction by ZEFSAII (Michael W. Deem and Ramdas Pophale) SiO2 
 PCOD9115558
Probable space group: P 21
;
_chemical_formula_sum "Si O2"
_cell_formula_units_Z 14
_cell_length_a 29.359154
_cell_length_b 5.099787
_cell_length_c 9.867654
_cell_angle_alpha 90.000000
_cell_angle_beta 28.144758
_cell_angle_gamma 90.000000
_cell_volume 696.909092
_symmetry_space_group_name_H-M "P 21"
_symmetry_group_IT_number 4
_symmetry_cell_setting 'monoclinic'
loop_
_space_group_symop_operation_xyz
x,y,z
-x,1/2+y,-z
loop_
_atom_site_type_symbol
_atom_site_label
_atom_site_fract_x
_atom_site_fract_y
_atom_site_fract_z
Si Si1 0.154076 0.023480 0.996415
Si Si2 0.226104 0.029347 0.525914
Si Si3 0.617369 0.930817 0.269190
Si Si4 0.192020 0.523574 0.071378
Si Si5 0.094957 0.519771 0.817080
Si Si6 0.027480 0.664128 0.702718
Si Si7 0.605872 0.430470 0.116635
O O1 0.229712 0.080477 0.677183
O O2 0.157211 0.245116 0.103554
O O3 0.050744 0.038649 0.192936
O O4 0.177176 0.741014 0.995562
O O5 0.158886 0.774716 0.678099
O O6 0.168957 0.276870 0.615793
O O7 0.326643 0.985174 0.187974
O O8 0.629710 0.646002 0.169390
O O9 0.508417 0.951984 0.611215
O O10 0.625548 0.145937 0.128518
O O11 0.698999 0.988561 0.164404
O O12 0.128635 0.633684 0.362540
O O13 0.040761 0.539784 0.816237
O O14 0.018502 0.446504 0.136350
#
# Coordination Sequence:
#
# PCOD9115558 Si02
#       7
#     2   2   2   2   2   2   2
#     4  11  25  38  55  82 119 163 204 231 280 361
#     4  11  22  41  61  89 122 157 199 253 304 347
#     4  10  22  38  64  95 118 149 202 246 307 368
#     4  12  24  40  58  83 121 162 195 238 288 356
#     4  11  24  37  63  92 116 152 204 254 302 354
#     4  11  23  40  59  85 119 156 199 248 295 343
#     4  10  20  40  66  92 119 149 191 262 312 347
#
# _framework density 20.088701
#
# number of rings (size 3 to 8) (size 9 to 14) (size 15 to 20)
#    0.000    1.143    0.000    7.714    0.000    5.714 
#    0.000    1.429    0.000    0.000    0.000    0.000 
#    0.000    0.000    0.000    0.000    0.000    0.000 
#
# Total GULP energy -78272.353798 kJ/mol
# GULP energy per Si atom -5590.882414 kJ/mol
# Density = 2.004298 g / cm^3
# Si number density = 20.088701 Si / 1000 Ang^3
#
#
#
# Elastic Constant Matrix: (Units=GPa)
#
#
# Indices 1 2 3 4 5 6 
#
# 1 83.0641 9.3005 9.6831 0.0000 -16.5269 0.0000
# 2 9.3005 82.2271 7.6905 0.0000 -10.1368 0.0000
# 3 9.6831 7.6905 83.3979 0.0000 8.6625 0.0000
# 4 0.0000 0.0000 0.0000 19.0305 0.0000 1.3108
# 5 -16.5269 -10.1368 8.6625 0.0000 21.7750 0.0000
# 6 0.0000 0.0000 0.0000 1.3108 0.0000 32.6728
#
#
#
# Elastic Compliance Matrix: (Units=1/GPa)
#
#
# Indices 1 2 3 4 5 6 
#
# 1 0.014880 0.000153 -0.003048 0.000000 0.012577 0.000000
# 2 0.000153 0.013196 -0.001966 0.000000 0.007041 0.000000
# 3 -0.003048 -0.001966 0.013416 0.000000 -0.008566 0.000000
# 4 0.000000 0.000000 0.000000 0.052693 0.000000 -0.002114
# 5 0.012577 0.007041 -0.008566 0.000000 0.062155 0.000000
# 6 0.000000 0.000000 0.000000 -0.002114 0.000000 0.030691
#
#
# Mechanical properties :
#
#
# Convention : Reuss Voigt Hill
#
# Bulk Modulus (GPa) = 31.47792 33.55973 32.51883
# Shear Modulus (GPa) = 24.11465 29.49666 26.80566
#
# Velocity S-wave (km/s) = 3.46845 3.83602 3.65686
# Velocity P-wave (km/s) = 5.63415 6.03010 5.83549
#
# Compressibility (1/GPa) = 0.03176830
#
# Stress axis : x y z
#
# Youngs Moduli (GPa) = 67.20651 75.78027 74.54006
#
# Poissons Ratio (x) = -0.01156 0.22720
# Poissons Ratio (y) = -0.01025 0.14654
# Poissons Ratio (z) = 0.20485 0.14898
#
# Static dielectric constant tensor:
#      x y z
#    x 1.687890 0.000000 0.014840 
#    y 0.000000 1.736510 0.000000 
#    z 0.014840 0.000000 1.725030 
# 
# From -- ./inp_files/10149.got.cif
#   From: 2010.05.17/outbox.cif.g08.bks.cpg/sg4_6_cif.got.tgz:10149.got - 2010.06.03 18:43:04.
