data_PCOD9115225
_publ_section_title
;
Structure prediction by ZEFSAII (Michael W. Deem and Ramdas Pophale) SiO2 
 PCOD9115225
Probable space group: P 21
;
_chemical_formula_sum "Si O2"
_cell_formula_units_Z 14
_cell_length_a 12.472086
_cell_length_b 4.973972
_cell_length_c 12.812662
_cell_angle_alpha 90.000000
_cell_angle_beta 46.166404
_cell_angle_gamma 90.000000
_cell_volume 573.363975
_symmetry_space_group_name_H-M "P 21"
_symmetry_group_IT_number 4
_symmetry_cell_setting 'monoclinic'
loop_
_space_group_symop_operation_xyz
x,y,z
-x,1/2+y,-z
loop_
_atom_site_type_symbol
_atom_site_label
_atom_site_fract_x
_atom_site_fract_y
_atom_site_fract_z
Si Si1 0.547375 0.051980 0.836058
Si Si2 0.949809 0.758647 0.471585
Si Si3 0.864732 0.293759 0.242863
Si Si4 0.644846 0.055483 0.000965
Si Si5 0.041457 0.791316 0.166723
Si Si6 0.547186 0.192662 0.404399
Si Si7 0.309197 0.907661 0.426901
O O1 0.403548 0.250517 0.944280
O O2 0.633287 0.163158 0.679766
O O3 0.487205 0.751825 0.874487
O O4 0.644334 0.086750 0.875613
O O5 0.791121 0.612917 0.571027
O O6 0.954768 0.040168 0.528051
O O7 0.004868 0.793743 0.315695
O O8 0.723257 0.217757 0.267757
O O9 0.999346 0.083678 0.152619
O O10 0.791810 0.305043 0.408390
O O11 0.928531 0.589587 0.184872
O O12 0.795318 0.165935 0.949150
O O13 0.516279 0.982451 0.519867
O O14 0.448751 0.063532 0.381391
#
# Coordination Sequence:
#
# PCOD9115225 Si02
#       7
#     2   2   2   2   2   2   2
#     4  10  22  37  56  81 113 152 195 228 266 326
#     4  11  22  33  51  84 118 146 180 228 284 338
#     4  10  21  36  59  88 110 142 182 234 291 337
#     4  10  22  38  55  79 113 157 193 227 266 322
#     4  11  21  37  57  79 114 150 186 226 282 338
#     4  10  20  36  57  85 118 144 180 228 284 343
#     4  10  22  37  59  86 116 147 184 231 285 332
#
# _framework density 24.417297000000001
#
# number of rings (size 3 to 8) (size 9 to 14) (size 15 to 20)
#    0.000    1.714    0.000    6.000    0.000   10.286 
#    0.000    0.000    0.000    3.429    0.000    0.000 
#    0.000    0.000    0.000    0.000    0.000    0.000 
#
# Total GULP energy -78435.051594 kJ/mol
# GULP energy per Si atom -5602.503685 kJ/mol
# Density = 2.436172 g / cm^3
# Si number density = 24.417297 Si / 1000 Ang^3
#
#
#
# Elastic Constant Matrix: (Units=GPa)
#
#
# Indices 1 2 3 4 5 6 
#
# 1 92.5303 5.3396 20.7910 0.0000 -26.0776 0.0000
# 2 5.3396 88.6791 -9.9366 0.0000 6.9512 0.0000
# 3 20.7910 -9.9366 38.6933 0.0000 -5.2158 0.0000
# 4 0.0000 0.0000 0.0000 27.5202 0.0000 -7.1875
# 5 -26.0776 6.9512 -5.2158 0.0000 34.2723 0.0000
# 6 0.0000 0.0000 0.0000 -7.1875 0.0000 40.6879
#
#
#
# Elastic Compliance Matrix: (Units=1/GPa)
#
#
# Indices 1 2 3 4 5 6 
#
# 1 0.015942 -0.002726 -0.007715 0.000000 0.011509 0.000000
# 2 -0.002726 0.012205 0.004069 0.000000 -0.003931 0.000000
# 3 -0.007715 0.004069 0.030763 0.000000 -0.002014 0.000000
# 4 0.000000 0.000000 0.000000 0.038094 0.000000 0.006729
# 5 0.011509 -0.003931 -0.002014 0.000000 0.038426 0.000000
# 6 0.000000 0.000000 0.000000 0.006729 0.000000 0.025766
#
#
# Mechanical properties :
#
#
# Convention : Reuss Voigt Hill
#
# Bulk Modulus (GPa) = 21.66085 28.03229 24.84657
# Shear Modulus (GPa) = 26.40921 34.07666 30.24294
#
# Velocity S-wave (km/s) = 3.29230 3.73982 3.52317
# Velocity P-wave (km/s) = 4.83143 5.49124 5.17187
#
# Compressibility (1/GPa) = 0.04616623
#
# Stress axis : x y z
#
# Youngs Moduli (GPa) = 62.72930 81.93458 32.50643
#
# Poissons Ratio (x) = 0.22339 0.25077
# Poissons Ratio (y) = 0.17103 -0.13228
# Poissons Ratio (z) = 0.48393 -0.33342
#
# Static dielectric constant tensor:
#      x y z
#    x 1.954920 0.000000 0.020590 
#    y 0.000000 1.871670 0.000000 
#    z 0.020590 0.000000 1.975420 
# 
# From -- ./inp_files/9454.got.cif
#   From: 2010.05.17/outbox.cif.g08.bks.cpg/sg4_5_cif.got.tgz:9454.got - 2010.06.03 18:43:04.
