data_PCOD9115065
_publ_section_title
;
Structure prediction by ZEFSAII (Michael W. Deem and Ramdas Pophale) SiO2 
 PCOD9115065
Probable space group: P 21
;
_chemical_formula_sum "Si O2"
_cell_formula_units_Z 16
_cell_length_a 8.383786
_cell_length_b 5.073606
_cell_length_c 29.185073
_cell_angle_alpha 90.000000
_cell_angle_beta 29.872097
_cell_angle_gamma 90.000000
_cell_volume 618.307008
_symmetry_space_group_name_H-M "P 21"
_symmetry_group_IT_number 4
_symmetry_cell_setting 'monoclinic'
loop_
_space_group_symop_operation_xyz
x,y,z
-x,1/2+y,-z
loop_
_atom_site_type_symbol
_atom_site_label
_atom_site_fract_x
_atom_site_fract_y
_atom_site_fract_z
Si Si1 0.262422 0.696530 0.606366
Si Si2 0.284333 0.891254 0.208484
Si Si3 0.693928 0.065619 0.960350
Si Si4 0.114770 0.207256 0.770735
Si Si5 0.525271 0.730305 0.678442
Si Si6 0.185448 0.729652 0.966006
Si Si7 0.280128 0.557178 0.288828
Si Si8 0.892518 0.938661 0.449603
O O1 0.607204 0.764446 0.540585
O O2 0.281198 0.591455 0.549271
O O3 0.053243 0.492970 0.687166
O O4 0.030558 0.945762 0.659675
O O5 0.499623 0.137124 0.139896
O O6 0.452826 0.727837 0.207206
O O7 0.182506 0.725419 0.189678
O O8 0.975550 0.126874 0.854668
O O9 0.403995 0.260480 0.017980
O O10 0.767302 0.150420 0.993372
O O11 0.284448 0.489304 0.731712
O O12 0.368999 0.983680 0.693460
O O13 0.887779 0.638085 0.576388
O O14 0.558454 0.817036 0.724184
O O15 0.087926 0.031696 0.984851
O O16 0.149714 0.747592 0.361183
#
# Coordination Sequence:
#
# PCOD9115065 Si02
#       8
#     2   2   2   2   2   2   2   2
#     4  10  21  37  77 105 152 189 248 308 367 439
#     4  11  28  47  73 114 148 201 251 312 379 456
#     4  12  26  50  79 106 146 206 246 305 379 469
#     4  12  27  48  76 106 152 199 258 298 386 453
#     4  11  25  44  73 110 146 195 247 316 356 455
#     4  12  30  50  76 114 156 189 251 329 381 441
#     4  10  22  42  74 104 149 182 251 301 375 425
#     4  10  19  40  68 115 141 191 248 305 367 438
#
# _framework density 25.877113000000001
#
# number of rings (size 3 to 8) (size 9 to 14) (size 15 to 20)
#    0.000    1.000    3.750    1.500    5.250    2.000 
#    0.000    0.000    5.500    0.000    0.000    0.000 
#    0.000    0.000    0.000    0.000    0.000    0.000 
#
# Total GULP energy -89671.935200 kJ/mol
# GULP energy per Si atom -5604.495950 kJ/mol
# Density = 2.581822 g / cm^3
# Si number density = 25.877113 Si / 1000 Ang^3
#
#
#
# Elastic Constant Matrix: (Units=GPa)
#
#
# Indices 1 2 3 4 5 6 
#
# 1 84.6448 13.6506 22.2614 0.0001 -9.6633 -0.0001
# 2 13.6506 116.6416 17.5900 0.0000 -15.6072 0.0000
# 3 22.2614 17.5900 65.9571 -0.0002 -7.1367 0.0003
# 4 0.0001 0.0000 -0.0002 39.7677 -0.0001 -18.2711
# 5 -9.6633 -15.6072 -7.1367 -0.0001 31.7659 0.0001
# 6 -0.0001 0.0000 0.0003 -18.2711 0.0001 48.0901
#
#
#
# Elastic Compliance Matrix: (Units=1/GPa)
#
#
# Indices 1 2 3 4 5 6 
#
# 1 0.013291 -0.000566 -0.004025 0.000000 0.002861 0.000000
# 2 -0.000566 0.009468 -0.001895 0.000000 0.004054 0.000000
# 3 -0.004025 -0.001895 0.017211 0.000000 0.001711 0.000000
# 4 0.000000 0.000000 0.000000 0.030464 0.000000 0.011574
# 5 0.002861 0.004054 0.001711 0.000000 0.034727 0.000000
# 6 0.000000 0.000000 0.000000 0.011574 0.000000 0.025192
#
#
# Mechanical properties :
#
#
# Convention : Reuss Voigt Hill
#
# Bulk Modulus (GPa) = 37.04231 41.58307 39.31269
# Shear Modulus (GPa) = 32.82513 38.17419 35.49966
#
# Velocity S-wave (km/s) = 3.56547 3.84501 3.70787
# Velocity P-wave (km/s) = 5.59427 5.98469 5.79277
#
# Compressibility (1/GPa) = 0.02699616
#
# Stress axis : x y z
#
# Youngs Moduli (GPa) = 75.24153 105.62213 58.10381
#
# Poissons Ratio (x) = 0.05974 0.23389
# Poissons Ratio (y) = 0.04255 0.11013
# Poissons Ratio (z) = 0.30287 0.20020
#
# Static dielectric constant tensor:
#      x y z
#    x 2.015410 0.000000 -0.005140 
#    y 0.000000 2.042890 0.000000 
#    z -0.005140 0.000000 2.070990 
# 
# From -- ./inp_files/16519.got.cif
#   From: 2010.05.17/outbox.cif.g08.bks.cpg/sg4_9_cif.got.tgz:16519.got - 2010.06.03 18:43:04.
