data_PCOD9115519
_publ_section_title
;
Structure prediction by ZEFSAII (Michael W. Deem and Ramdas Pophale) SiO2 
 PCOD9115519
Probable space group: P 21
;
_chemical_formula_sum "Si O2"
_cell_formula_units_Z 16
_cell_length_a 12.108700
_cell_length_b 12.036070
_cell_length_c 14.690944
_cell_angle_alpha 90.000000
_cell_angle_beta 160.448868
_cell_angle_gamma 90.000000
_cell_volume 716.506459
_symmetry_space_group_name_H-M "P 21"
_symmetry_group_IT_number 4
_symmetry_cell_setting 'monoclinic'
loop_
_space_group_symop_operation_xyz
x,y,z
-x,1/2+y,-z
loop_
_atom_site_type_symbol
_atom_site_label
_atom_site_fract_x
_atom_site_fract_y
_atom_site_fract_z
Si Si1 0.772344 0.291270 0.804908
Si Si2 0.511868 0.091897 0.209674
Si Si3 0.289390 0.078012 0.417448
Si Si4 0.326146 0.154759 0.257367
Si Si5 0.705215 0.860198 0.427070
Si Si6 0.139816 0.838492 0.329378
Si Si7 0.824409 0.698838 0.217479
Si Si8 0.701364 0.226543 0.033881
O O1 0.569194 0.173522 0.644640
O O2 0.527512 0.372394 0.665383
O O3 0.925289 0.333989 0.829211
O O4 0.088651 0.254606 0.107299
O O5 0.281273 0.110552 0.120254
O O6 0.826776 0.174438 0.461405
O O7 0.679198 0.972110 0.349810
O O8 0.293831 0.111037 0.951351
O O9 0.289104 0.066824 0.307893
O O10 0.950833 0.130424 0.193579
O O11 0.323201 0.955705 0.487167
O O12 0.661748 0.222832 0.509336
O O13 0.056111 0.821779 0.737463
O O14 0.526536 0.767394 0.226338
O O15 0.858332 0.814033 0.185353
O O16 0.543356 0.696832 0.074905
#
# Coordination Sequence:
#
# PCOD9115519 Si02
#       8
#     2   2   2   2   2   2   2   2
#     4  10  20  40  59  91 125 159 204 262 313 371
#     4  11  23  41  67  93 123 166 209 256 317 372
#     4  10  22  38  61  90 125 166 207 256 319 375
#     4  10  20  40  59  91 125 159 204 262 313 371
#     4  11  23  41  67  93 123 166 209 256 317 372
#     4  10  22  38  61  90 125 166 207 256 319 375
#     4  11  24  44  63  92 130 164 213 264 303 368
#     4  11  24  44  63  92 130 164 213 264 303 368
#
# _framework density 22.330572
#
# number of rings (size 3 to 8) (size 9 to 14) (size 15 to 20)
#    0.000    1.500    2.500    2.250    0.000    4.000 
#    0.000    0.000    0.000    0.000    0.000    0.000 
#    0.000    0.000    0.000    0.000    0.000    0.000 
#
# Total GULP energy -89129.102505 kJ/mol
# GULP energy per Si atom -5570.568907 kJ/mol
# Density = 2.227975 g / cm^3
# Si number density = 22.330572 Si / 1000 Ang^3
#
#
#
# Elastic Constant Matrix: (Units=GPa)
#
#
# Indices 1 2 3 4 5 6 
#
# 1 116.8136 16.4780 15.2550 0.0000 21.9104 0.0000
# 2 16.4780 69.0938 -5.2520 0.0000 3.5024 0.0000
# 3 15.2550 -5.2520 56.3665 0.0000 8.5065 0.0000
# 4 0.0000 0.0000 0.0000 15.3834 0.0000 -2.2166
# 5 21.9104 3.5024 8.5065 0.0000 34.1530 0.0000
# 6 0.0000 0.0000 0.0000 -2.2166 0.0000 16.5823
#
#
#
# Elastic Compliance Matrix: (Units=1/GPa)
#
#
# Indices 1 2 3 4 5 6 
#
# 1 0.010253 -0.002311 -0.002113 0.000000 -0.005815 0.000000
# 2 -0.002311 0.015217 0.002135 0.000000 -0.000610 0.000000
# 3 -0.002113 0.002135 0.019057 0.000000 -0.003610 0.000000
# 4 0.000000 0.000000 0.000000 0.066282 0.000000 0.008860
# 5 -0.005815 -0.000610 -0.003610 0.000000 0.033972 0.000000
# 6 0.000000 0.000000 0.000000 0.008860 0.000000 0.061490
#
#
# Mechanical properties :
#
#
# Convention : Reuss Voigt Hill
#
# Bulk Modulus (GPa) = 25.03111 32.80401 28.91756
# Shear Modulus (GPa) = 22.30505 27.60993 24.95749
#
# Velocity S-wave (km/s) = 3.16390 3.52009 3.34674
# Velocity P-wave (km/s) = 4.95789 5.58958 5.28319
#
# Compressibility (1/GPa) = 0.03995028
#
# Stress axis : x y z
#
# Youngs Moduli (GPa) = 97.53062 65.71395 52.47531
#
# Poissons Ratio (x) = 0.15187 0.11087
# Poissons Ratio (y) = 0.22540 -0.11206
# Poissons Ratio (z) = 0.20606 -0.14033
#
# Static dielectric constant tensor:
#      x y z
#    x 1.885350 0.000000 0.007330 
#    y 0.000000 1.881730 0.000000 
#    z 0.007330 0.000000 1.876990 
# 
# From -- ./inp_files/2714.got.cif
#   From: 2010.05.17/outbox.cif.g08.bks.cpg/sg4_2_cif.got.tgz:2714.got - 2010.06.03 18:43:04.
