data_PCOD9115084
_publ_section_title
;
Structure prediction by ZEFSAII (Michael W. Deem and Ramdas Pophale) SiO2 
 PCOD9115084
Probable space group: P 21
;
_chemical_formula_sum "Si O2"
_cell_formula_units_Z 16
_cell_length_a 16.852422
_cell_length_b 9.344425
_cell_length_c 14.413337
_cell_angle_alpha 90.000000
_cell_angle_beta 19.004538
_cell_angle_gamma 90.000000
_cell_volume 739.130718
_symmetry_space_group_name_H-M "P 21"
_symmetry_group_IT_number 4
_symmetry_cell_setting 'monoclinic'
loop_
_space_group_symop_operation_xyz
x,y,z
-x,1/2+y,-z
loop_
_atom_site_type_symbol
_atom_site_label
_atom_site_fract_x
_atom_site_fract_y
_atom_site_fract_z
Si Si1 0.505041 0.475890 0.694332
Si Si2 0.448309 0.978772 0.647780
Si Si3 0.070708 0.628726 0.191525
Si Si4 0.197043 0.235242 0.696779
Si Si5 0.826652 0.437791 0.872083
Si Si6 0.274111 0.765952 0.679073
Si Si7 0.405245 0.087130 0.197658
Si Si8 0.407202 0.430407 0.190167
O O1 0.617408 0.604536 0.509619
O O2 0.645726 0.336206 0.506605
O O3 0.522975 0.517818 0.782509
O O4 0.219627 0.492824 0.990203
O O5 0.659462 0.883076 0.462583
O O6 0.347082 0.879901 0.677653
O O7 0.572167 0.123244 0.478280
O O8 0.243207 0.004840 0.951679
O O9 0.213147 0.765484 0.073637
O O10 0.941344 0.702101 0.246295
O O11 0.887888 0.576113 0.472542
O O12 0.008669 0.234164 0.989881
O O13 0.116962 0.457498 0.531346
O O14 0.617490 0.484791 0.029768
O O15 0.441880 0.258024 0.148592
O O16 0.529189 0.003396 0.977700
#
# Coordination Sequence:
#
# PCOD9115084 Si02
#       8
#     2   2   2   2   2   2   2   2
#     4  11  22  43  68  96 133 181 227 286 349 417
#     4  12  24  41  62  99 135 178 234 286 349 421
#     4  10  19  41  70  90 132 175 227 272 355 404
#     4  11  20  41  66  91 131 178 232 281 341 420
#     4  11  22  43  69 100 133 186 223 288 345 420
#     4  12  26  39  65  98 135 182 229 289 347 421
#     4  10  24  43  67 100 130 178 225 292 343 425
#     4  11  25  43  73  98 137 180 233 284 357 414
#
# _framework density 21.647051000000001
#
# number of rings (size 3 to 8) (size 9 to 14) (size 15 to 20)
#    0.000    1.000    3.750    3.750    1.750    2.000 
#    2.250    0.000    0.000    0.000    0.000    0.000 
#    0.000    0.000    0.000    0.000    0.000    0.000 
#
# Total GULP energy -89290.628369 kJ/mol
# GULP energy per Si atom -5580.664273 kJ/mol
# Density = 2.159778 g / cm^3
# Si number density = 21.647051 Si / 1000 Ang^3
#
#
#
# Elastic Constant Matrix: (Units=GPa)
#
#
# Indices 1 2 3 4 5 6 
#
# 1 85.8529 15.7365 38.1084 0.0000 8.6421 0.0000
# 2 15.7365 41.7449 21.2792 0.0000 13.0988 0.0000
# 3 38.1084 21.2792 118.9329 0.0000 16.8026 0.0000
# 4 0.0000 0.0000 0.0000 32.3148 0.0000 14.3119
# 5 8.6421 13.0988 16.8026 0.0000 25.0319 0.0000
# 6 0.0000 0.0000 0.0000 14.3119 0.0000 18.2973
#
#
#
# Elastic Compliance Matrix: (Units=1/GPa)
#
#
# Indices 1 2 3 4 5 6 
#
# 1 0.013985 -0.003122 -0.003835 0.000000 -0.000620 0.000000
# 2 -0.003122 0.030599 -0.002612 0.000000 -0.013181 0.000000
# 3 -0.003835 -0.002612 0.010743 0.000000 -0.004520 0.000000
# 4 0.000000 0.000000 0.000000 0.047348 0.000000 -0.037035
# 5 -0.000620 -0.013181 -0.004520 0.000000 0.050095 0.000000
# 6 0.000000 0.000000 0.000000 -0.037035 0.000000 0.083621
#
#
# Mechanical properties :
#
#
# Convention : Reuss Voigt Hill
#
# Bulk Modulus (GPa) = 27.63317 44.08654 35.85985
# Shear Modulus (GPa) = 18.68515 26.55591 22.62053
#
# Velocity S-wave (km/s) = 2.94117 3.50632 3.23611
# Velocity P-wave (km/s) = 4.93224 6.06652 5.52855
#
# Compressibility (1/GPa) = 0.03618840
#
# Stress axis : x y z
#
# Youngs Moduli (GPa) = 71.50656 32.68028 93.08576
#
# Poissons Ratio (x) = 0.10204 0.35696
# Poissons Ratio (y) = 0.22328 0.24315
# Poissons Ratio (z) = 0.27421 0.08536
#
# Static dielectric constant tensor:
#      x y z
#    x 1.856230 0.000000 -0.057290 
#    y 0.000000 1.758510 0.000000 
#    z -0.057290 0.000000 1.864710 
# 
# From -- ./inp_files/13207.got.cif
#   From: 2010.05.17/outbox.cif.g08.bks.cpg/sg4_7_cif.got.tgz:13207.got - 2010.06.03 18:43:04.
