data_PCOD9115561
_publ_section_title
;
Structure prediction by ZEFSAII (Michael W. Deem and Ramdas Pophale) SiO2 
 PCOD9115561
Probable space group: P 21
;
_chemical_formula_sum "Si O2"
_cell_formula_units_Z 10
_cell_length_a 13.926229
_cell_length_b 4.811485
_cell_length_c 7.531205
_cell_angle_alpha 90.000000
_cell_angle_beta 50.502657
_cell_angle_gamma 90.000000
_cell_volume 389.403450
_symmetry_space_group_name_H-M "P 21"
_symmetry_group_IT_number 4
_symmetry_cell_setting 'monoclinic'
loop_
_space_group_symop_operation_xyz
x,y,z
-x,1/2+y,-z
loop_
_atom_site_type_symbol
_atom_site_label
_atom_site_fract_x
_atom_site_fract_y
_atom_site_fract_z
Si Si1 0.184863 0.728080 0.890118
Si Si2 0.797021 0.040283 0.637392
Si Si3 0.459918 0.800537 0.156182
Si Si4 0.681288 0.767889 0.128066
Si Si5 0.925268 0.506982 0.333399
O O1 0.281648 0.474516 0.757402
O O2 0.065114 0.596490 0.128018
O O3 0.256550 0.971452 0.911072
O O4 0.128048 0.862731 0.780894
O O5 0.680229 0.197814 0.686015
O O6 0.904846 0.275619 0.510448
O O7 0.743208 0.915846 0.882930
O O8 0.849134 0.781101 0.468716
O O9 0.530154 0.615562 0.923144
O O10 0.536532 0.756790 0.246444
#
# Coordination Sequence:
#
# PCOD9115561 Si02
#       5
#     2   2   2   2   2
#     4  12  25  44  65  91 132 175 209 257 326 379
#     4  11  23  42  70  98 124 165 218 263 309 378
#     4  10  20  40  66  96 132 164 200 262 332 370
#     4  11  23  42  70  98 124 165 218 263 309 378
#     4  12  25  44  65  91 132 175 209 257 326 379
#
# _framework density 25.680306000000002
#
# number of rings (size 3 to 8) (size 9 to 14) (size 15 to 20)
#    0.000    0.800    0.000   10.800    0.000    3.200 
#    0.000    8.000    0.000    4.800    0.000    0.000 
#    0.000    0.000    0.000    0.000    0.000    0.000 
#
# Total GULP energy -56075.890270 kJ/mol
# GULP energy per Si atom -5607.589027 kJ/mol
# Density = 2.562186 g / cm^3
# Si number density = 25.680306 Si / 1000 Ang^3
#
#
#
# Elastic Constant Matrix: (Units=GPa)
#
#
# Indices 1 2 3 4 5 6 
#
# 1 106.2701 7.8277 1.5902 0.0000 -10.7126 0.0000
# 2 7.8277 133.8761 5.6221 0.0000 -11.4594 0.0000
# 3 1.5902 5.6221 59.1484 0.0000 -10.9740 0.0000
# 4 0.0000 0.0000 0.0000 42.2942 0.0000 -2.6429
# 5 -10.7126 -11.4594 -10.9740 0.0000 20.6951 0.0000
# 6 0.0000 0.0000 0.0000 -2.6429 0.0000 55.7737
#
#
#
# Elastic Compliance Matrix: (Units=1/GPa)
#
#
# Indices 1 2 3 4 5 6 
#
# 1 0.009962 -0.000145 0.000763 0.000000 0.005481 0.000000
# 2 -0.000145 0.007844 0.000056 0.000000 0.004297 0.000000
# 3 0.000763 0.000056 0.018810 0.000000 0.010400 0.000000
# 4 0.000000 0.000000 0.000000 0.023714 0.000000 0.001124
# 5 0.005481 0.004297 0.010400 0.000000 0.059052 0.000000
# 6 0.000000 0.000000 0.000000 0.001124 0.000000 0.017983
#
#
# Mechanical properties :
#
#
# Convention : Reuss Voigt Hill
#
# Bulk Modulus (GPa) = 26.34209 36.59720 31.46964
# Shear Modulus (GPa) = 33.63094 42.70291 38.16692
#
# Velocity S-wave (km/s) = 3.62277 4.08225 3.85935
# Velocity P-wave (km/s) = 5.27060 6.04166 5.66926
#
# Compressibility (1/GPa) = 0.03796206
#
# Stress axis : x y z
#
# Youngs Moduli (GPa) = 100.38401 127.49234 53.16198
#
# Poissons Ratio (x) = 0.01853 -0.04055
# Poissons Ratio (y) = 0.01459 -0.00296
# Poissons Ratio (z) = -0.07658 -0.00710
#
# Static dielectric constant tensor:
#      x y z
#    x 2.072320 0.000000 0.048950 
#    y 0.000000 1.951880 0.000000 
#    z 0.048950 0.000000 2.022530 
# 
# From -- ./inp_files/7015.got.cif
#   From: 2010.05.17/outbox.cif.g08.bks.cpg/sg4_4_cif.got.tgz:7015.got - 2010.06.03 18:43:04.
