data_PCOD9115115
_publ_section_title
;
Structure prediction by ZEFSAII (Michael W. Deem and Ramdas Pophale) SiO2 
 PCOD9115115
Probable space group: P 21
;
_chemical_formula_sum "Si O2"
_cell_formula_units_Z 12
_cell_length_a 12.736529
_cell_length_b 5.122043
_cell_length_c 18.933010
_cell_angle_alpha 90.000000
_cell_angle_beta 22.981787
_cell_angle_gamma 90.000000
_cell_volume 482.243753
_symmetry_space_group_name_H-M "P 21"
_symmetry_group_IT_number 4
_symmetry_cell_setting 'monoclinic'
loop_
_space_group_symop_operation_xyz
x,y,z
-x,1/2+y,-z
loop_
_atom_site_type_symbol
_atom_site_label
_atom_site_fract_x
_atom_site_fract_y
_atom_site_fract_z
Si Si1 0.086513 0.773770 0.138504
Si Si2 0.633030 0.170046 0.207735
Si Si3 0.143670 0.962942 0.583113
Si Si4 0.586002 0.716114 0.903414
Si Si5 0.446806 0.155241 0.578564
Si Si6 0.112176 0.172755 0.020170
O O1 0.971326 0.641881 0.281604
O O2 0.874459 0.661085 0.211981
O O3 0.399927 0.701893 0.949612
O O4 0.079524 0.084367 0.122831
O O5 0.323859 0.140378 0.420753
O O6 0.721739 0.921411 0.107162
O O7 0.713523 0.434255 0.119509
O O8 0.823464 0.167000 0.159869
O O9 0.889901 0.813523 0.707286
O O10 0.359187 0.752194 0.480144
O O11 0.560029 0.442219 0.959568
O O12 0.481585 0.377662 0.497320
#
# Coordination Sequence:
#
# PCOD9115115 Si02
#       6
#     2   2   2   2   2   2
#     4  10  21  40  62  91 120 160 207 254 307 366
#     4  10  22  40  59  87 125 162 199 253 317 371
#     4  10  21  40  62  91 120 160 207 254 307 366
#     4  10  22  38  58  88 126 156 194 256 316 354
#     4  10  20  32  54  86 114 142 194 248 292 344
#     4  10  22  40  59  87 125 162 199 253 317 371
#
# _framework density 24.883683999999999
#
# number of rings (size 3 to 8) (size 9 to 14) (size 15 to 20)
#    0.000    2.000    1.667    1.000    0.000   10.667 
#    3.000    1.667    0.000    0.000    0.000    0.000 
#    0.000    0.000    0.000    0.000    0.000    0.000 
#
# Total GULP energy -67128.293273 kJ/mol
# GULP energy per Si atom -5594.024439 kJ/mol
# Density = 2.482705 g / cm^3
# Si number density = 24.883684 Si / 1000 Ang^3
#
#
#
# Elastic Constant Matrix: (Units=GPa)
#
#
# Indices 1 2 3 4 5 6 
#
# 1 106.1217 34.6989 49.6694 0.0000 -36.7698 0.0000
# 2 34.6989 141.9925 35.2298 0.0000 7.5229 0.0000
# 3 49.6694 35.2298 152.3150 0.0000 -28.4181 0.0000
# 4 0.0000 0.0000 0.0000 38.5694 0.0000 6.2500
# 5 -36.7698 7.5229 -28.4181 0.0000 54.9312 0.0000
# 6 0.0000 0.0000 0.0000 6.2500 0.0000 39.2455
#
#
#
# Elastic Compliance Matrix: (Units=1/GPa)
#
#
# Indices 1 2 3 4 5 6 
#
# 1 0.014865 -0.003552 -0.002301 0.000000 0.009246 0.000000
# 2 -0.003552 0.008550 -0.001640 0.000000 -0.004397 0.000000
# 3 -0.002301 -0.001640 0.008245 0.000000 0.002950 0.000000
# 4 0.000000 0.000000 0.000000 0.026614 0.000000 -0.004238
# 5 0.009246 -0.004397 0.002950 0.000000 0.026522 0.000000
# 6 0.000000 0.000000 0.000000 -0.004238 0.000000 0.026156
#
#
# Mechanical properties :
#
#
# Convention : Reuss Voigt Hill
#
# Bulk Modulus (GPa) = 59.96551 71.06950 65.51751
# Shear Modulus (GPa) = 38.02395 45.27129 41.64762
#
# Velocity S-wave (km/s) = 3.91329 4.26997 4.09552
# Velocity P-wave (km/s) = 6.67601 7.27550 6.98219
#
# Compressibility (1/GPa) = 0.01667625
#
# Stress axis : x y z
#
# Youngs Moduli (GPa) = 67.27168 116.95444 121.28089
#
# Poissons Ratio (x) = 0.41538 0.27905
# Poissons Ratio (y) = 0.23892 0.19888
# Poissons Ratio (z) = 0.15478 0.19178
#
# Static dielectric constant tensor:
#      x y z
#    x 2.033120 0.000000 0.039850 
#    y 0.000000 2.077460 0.000000 
#    z 0.039850 0.000000 2.046540 
# 
# From -- ./inp_files/15780.got.cif
#   From: 2010.05.17/outbox.cif.g08.bks.cpg/sg4_8_cif.got.tgz:15780.got - 2010.06.03 18:43:04.
