data_PCOD9115725
_publ_section_title
;
Structure prediction by ZEFSAII (Michael W. Deem and Ramdas Pophale) SiO2 
 PCOD9115725
Probable space group: P 21
;
_chemical_formula_sum "Si O2"
_cell_formula_units_Z 16
_cell_length_a 23.823328
_cell_length_b 6.270544
_cell_length_c 29.042708
_cell_angle_alpha 90.000000
_cell_angle_beta 11.055637
_cell_angle_gamma 90.000000
_cell_volume 831.969806
_symmetry_space_group_name_H-M "P 21"
_symmetry_group_IT_number 4
_symmetry_cell_setting 'monoclinic'
loop_
_space_group_symop_operation_xyz
x,y,z
-x,1/2+y,-z
loop_
_atom_site_type_symbol
_atom_site_label
_atom_site_fract_x
_atom_site_fract_y
_atom_site_fract_z
Si Si1 0.744538 0.631270 0.766385
Si Si2 0.295862 0.293377 0.099024
Si Si3 0.607678 0.629132 0.399117
Si Si4 0.241925 0.686147 0.609395
Si Si5 0.882117 0.292346 0.859919
Si Si6 0.254404 0.952970 0.509854
Si Si7 0.145083 0.513690 0.026031
Si Si8 0.322943 0.461948 0.257994
O O1 0.738633 0.669683 0.825320
O O2 0.758148 0.840936 0.723830
O O3 0.029959 0.496499 0.522785
O O4 0.447017 0.514366 0.991215
O O5 0.986342 0.316488 0.323631
O O6 0.519547 0.179130 0.884306
O O7 0.485003 0.383426 0.513228
O O8 0.521417 0.622873 0.414905
O O9 0.931136 0.615442 0.159944
O O10 0.331469 0.844438 0.496473
O O11 0.065096 0.496452 0.728321
O O12 0.012884 0.799241 0.828626
O O13 0.837202 0.155446 0.942303
O O14 0.570148 0.340328 0.088143
O O15 0.083203 0.167002 0.661653
O O16 0.539411 0.981118 0.249830
#
# Coordination Sequence:
#
# PCOD9115725 Si02
#       8
#     2   2   2   2   2   2   2   2
#     4  12  26  42  67  91 124 170 218 264 337 398
#     4  12  25  42  63  95 131 165 215 279 330 394
#     4  10  20  43  72 100 143 188 231 288 345 415
#     4  10  22  43  66  95 135 178 216 271 337 399
#     4  11  23  42  67  92 133 171 215 274 335 396
#     4  11  25  42  65  99 133 168 223 279 331 405
#     4  10  24  42  66 100 131 177 225 271 335 408
#     4  12  25  42  66  94 126 173 215 274 332 405
#
# _framework density 19.231466999999999
#
# number of rings (size 3 to 8) (size 9 to 14) (size 15 to 20)
#    0.000    1.000    6.250    0.000    1.750    4.000 
#    2.250    0.000    0.000    0.000    0.000    0.000 
#    0.000    0.000    0.000    0.000    0.000    0.000 
#
# Total GULP energy -89162.050111 kJ/mol
# GULP energy per Si atom -5572.628132 kJ/mol
# Density = 1.918769 g / cm^3
# Si number density = 19.231467 Si / 1000 Ang^3
#
#
#
# Elastic Constant Matrix: (Units=GPa)
#
#
# Indices 1 2 3 4 5 6 
#
# 1 83.9436 10.3844 37.8753 0.0000 -13.5959 0.0000
# 2 10.3844 45.4809 -1.3587 0.0000 -1.4290 0.0000
# 3 37.8753 -1.3587 48.4229 0.0000 8.0545 0.0000
# 4 0.0000 0.0000 0.0000 25.9720 0.0000 -10.3228
# 5 -13.5959 -1.4290 8.0545 0.0000 40.0041 0.0000
# 6 0.0000 0.0000 0.0000 -10.3228 0.0000 35.9805
#
#
#
# Elastic Compliance Matrix: (Units=1/GPa)
#
#
# Indices 1 2 3 4 5 6 
#
# 1 0.024098 -0.005747 -0.021043 0.000000 0.012221 0.000000
# 2 -0.005747 0.023394 0.005522 0.000000 -0.002229 0.000000
# 3 -0.021043 0.005522 0.039753 0.000000 -0.014958 0.000000
# 4 0.000000 0.000000 0.000000 0.043459 0.000000 0.012468
# 5 0.012221 -0.002229 -0.014958 0.000000 0.032083 0.000000
# 6 0.000000 0.000000 0.000000 0.012468 0.000000 0.031370
#
#
# Mechanical properties :
#
#
# Convention : Reuss Voigt Hill
#
# Bulk Modulus (GPa) = 22.36588 30.18328 26.27458
# Shear Modulus (GPa) = 19.87321 29.12108 24.49714
#
# Velocity S-wave (km/s) = 3.21809 3.89555 3.57291
# Velocity P-wave (km/s) = 5.04611 5.99688 5.54192
#
# Compressibility (1/GPa) = 0.04471096
#
# Stress axis : x y z
#
# Youngs Moduli (GPa) = 41.49803 42.74546 25.15503
#
# Poissons Ratio (x) = 0.24565 0.52933
# Poissons Ratio (y) = 0.23848 -0.13891
# Poissons Ratio (z) = 0.87323 -0.23605
#
# Static dielectric constant tensor:
#      x y z
#    x 1.650210 0.000000 -0.010290 
#    y 0.000000 1.749440 0.000000 
#    z -0.010290 0.000000 1.624430 
# 
# From -- ./inp_files/3988.got.cif
#   From: 2010.05.17/outbox.cif.g08.bks.cpg/sg4_2_cif.got.tgz:3988.got - 2010.06.03 18:43:04.
