data_PCOD9115862
_publ_section_title
;
Structure prediction by ZEFSAII (Michael W. Deem and Ramdas Pophale) SiO2 
 PCOD9115862
Probable space group: P 21
;
_chemical_formula_sum "Si O2"
_cell_formula_units_Z 14
_cell_length_a 6.360617
_cell_length_b 10.204425
_cell_length_c 9.868921
_cell_angle_alpha 90.000000
_cell_angle_beta 105.336776
_cell_angle_gamma 90.000000
_cell_volume 617.744925
_symmetry_space_group_name_H-M "P 21"
_symmetry_group_IT_number 4
_symmetry_cell_setting 'monoclinic'
loop_
_space_group_symop_operation_xyz
x,y,z
-x,1/2+y,-z
loop_
_atom_site_type_symbol
_atom_site_label
_atom_site_fract_x
_atom_site_fract_y
_atom_site_fract_z
Si Si1 0.285193 0.166800 0.106882
Si Si2 0.988224 0.486124 0.268274
Si Si3 0.653094 0.806136 0.619174
Si Si4 0.408166 0.163314 0.820992
Si Si5 0.855007 0.046339 0.992024
Si Si6 0.633117 0.070894 0.507457
Si Si7 0.632019 0.955120 0.225813
O O1 0.375940 0.272274 0.227455
O O2 0.401084 0.027534 0.158966
O O3 0.338175 0.198047 0.962626
O O4 0.028047 0.151076 0.076307
O O5 0.092404 0.353242 0.350448
O O6 0.020714 0.474782 0.111043
O O7 0.158590 0.592748 0.360930
O O8 0.752387 0.547036 0.253202
O O9 0.549007 0.681495 0.529452
O O10 0.532712 0.936211 0.548764
O O11 0.649869 0.110444 0.882220
O O12 0.390622 0.302211 0.743509
O O13 0.770417 0.973872 0.112008
O O14 0.717357 0.034391 0.371133
#
# Coordination Sequence:
#
# PCOD9115862 Si02
#       7
#     2   2   2   2   2   2   2
#     4   9  20  39  61  93 126 168 218 262 330 385
#     4   9  21  39  62  92 125 169 216 261 325 390
#     4   9  19  40  65  89 128 172 207 267 314 388
#     4  10  21  37  62  94 129 164 221 271 319 385
#     4  10  21  37  62  91 123 174 210 271 323 378
#     4   9  21  40  64  94 133 168 220 262 324 385
#     4  10  21  38  58  93 130 163 218 272 313 387
#
# _framework density 22.663074999999999
#
# number of rings (size 3 to 8) (size 9 to 14) (size 15 to 20)
#    0.857    1.714    0.000    0.857    2.000    5.714 
#    5.143    1.429    0.000    0.000    0.000    0.000 
#    0.000    0.000    0.000    0.000    0.000    0.000 
#
# Total GULP energy -77970.216529 kJ/mol
# GULP energy per Si atom -5569.301181 kJ/mol
# Density = 2.261149 g / cm^3
# Si number density = 22.663075 Si / 1000 Ang^3
#
#
#
# Elastic Constant Matrix: (Units=GPa)
#
#
# Indices 1 2 3 4 5 6 
#
# 1 64.7889 33.5246 31.6730 0.0000 0.7086 0.0000
# 2 33.5246 88.9024 18.9948 0.0000 6.5491 0.0000
# 3 31.6730 18.9948 101.7072 0.0000 3.9596 0.0000
# 4 0.0000 0.0000 0.0000 40.4975 0.0000 10.7439
# 5 0.7086 6.5491 3.9596 0.0000 16.2311 0.0000
# 6 0.0000 0.0000 0.0000 10.7439 0.0000 15.2834
#
#
#
# Elastic Compliance Matrix: (Units=1/GPa)
#
#
# Indices 1 2 3 4 5 6 
#
# 1 0.021917 -0.007318 -0.005589 0.000000 0.003360 0.000000
# 2 -0.007318 0.014455 -0.000208 0.000000 -0.005462 0.000000
# 3 -0.005589 -0.000208 0.011710 0.000000 -0.002529 0.000000
# 4 0.000000 0.000000 0.000000 0.030354 0.000000 -0.021338
# 5 0.003360 -0.005462 -0.002529 0.000000 0.064284 0.000000
# 6 0.000000 0.000000 0.000000 -0.021338 0.000000 0.080431
#
#
# Mechanical properties :
#
#
# Convention : Reuss Voigt Hill
#
# Bulk Modulus (GPa) = 45.76439 47.08705 46.42572
# Shear Modulus (GPa) = 19.48063 25.81614 22.64839
#
# Velocity S-wave (km/s) = 2.93503 3.37876 3.16468
# Velocity P-wave (km/s) = 5.63233 6.00362 5.82093
#
# Compressibility (1/GPa) = 0.02185105
#
# Stress axis : x y z
#
# Youngs Moduli (GPa) = 45.62645 69.18168 85.39689
#
# Poissons Ratio (x) = 0.50628 0.47731
# Poissons Ratio (y) = 0.33390 0.01776
# Poissons Ratio (z) = 0.25502 0.01439
#
# Static dielectric constant tensor:
#      x y z
#    x 1.865270 0.000000 -0.031980 
#    y 0.000000 1.878890 0.000000 
#    z -0.031980 0.000000 1.873000 
# 
# From -- ./inp_files/2705.got.cif
#   From: 2010.05.17/outbox.cif.g08.bks.cpg/sg4_2_cif.got.tgz:2705.got - 2010.06.03 18:43:04.
