data_PCOD9115470
_publ_section_title
;
Structure prediction by ZEFSAII (Michael W. Deem and Ramdas Pophale) SiO2 
 PCOD9115470
Probable space group: P 21
;
_chemical_formula_sum "Si O2"
_cell_formula_units_Z 14
_cell_length_a 10.918026
_cell_length_b 8.262329
_cell_length_c 9.715378
_cell_angle_alpha 90.000000
_cell_angle_beta 39.241264
_cell_angle_gamma 90.000000
_cell_volume 554.404497
_symmetry_space_group_name_H-M "P 21"
_symmetry_group_IT_number 4
_symmetry_cell_setting 'monoclinic'
loop_
_space_group_symop_operation_xyz
x,y,z
-x,1/2+y,-z
loop_
_atom_site_type_symbol
_atom_site_label
_atom_site_fract_x
_atom_site_fract_y
_atom_site_fract_z
Si Si1 0.617521 0.148120 0.008057
Si Si2 0.733355 0.035670 0.209977
Si Si3 0.890010 0.166087 0.543478
Si Si4 0.230686 0.252242 0.429540
Si Si5 0.077062 0.242968 0.841614
Si Si6 0.579578 0.093863 0.631475
Si Si7 0.199286 0.978719 0.090089
O O1 0.662051 0.078494 0.120090
O O2 0.386511 0.154928 0.203638
O O3 0.756288 0.070098 0.773158
O O4 0.678844 0.337100 0.940028
O O5 0.600147 0.100496 0.449563
O O6 0.941399 0.123315 0.042142
O O7 0.772580 0.847250 0.202189
O O8 0.035866 0.270410 0.510570
O O9 0.719630 0.221788 0.587139
O O10 0.045100 0.078310 0.310999
O O11 0.324907 0.418305 0.407057
O O12 0.172091 0.162908 0.623178
O O13 0.925058 0.370945 0.907988
O O14 0.363151 0.087050 0.875510
#
# Coordination Sequence:
#
# PCOD9115470 Si02
#       7
#     2   2   2   2   2   2   2
#     4  10  22  38  63  91 125 166 216 262 318 382
#     4  10  20  42  64  96 126 170 218 262 326 374
#     4  12  18  38  62  90 120 168 208 254 316 380
#     4  10  20  39  63  87 126 169 206 262 322 373
#     4  10  20  42  66  94 132 172 204 266 328 382
#     4  10  22  38  63  91 125 166 216 262 318 382
#     4  10  20  39  63  87 126 169 206 262 322 373
#
# _framework density 25.252321999999999
#
# number of rings (size 3 to 8) (size 9 to 14) (size 15 to 20)
#    0.000    1.714    5.714    0.857    0.000    1.143 
#    5.143    0.000    0.000    6.857    0.000    0.000 
#    0.000    0.000    0.000    0.000    0.000    0.000 
#
# Total GULP energy -78150.868969 kJ/mol
# GULP energy per Si atom -5582.204926 kJ/mol
# Density = 2.519485 g / cm^3
# Si number density = 25.252322 Si / 1000 Ang^3
#
#
#
# Elastic Constant Matrix: (Units=GPa)
#
#
# Indices 1 2 3 4 5 6 
#
# 1 69.7904 11.0471 49.3213 0.0000 -8.7080 0.0000
# 2 11.0471 36.0831 32.9033 0.0000 5.3928 0.0000
# 3 49.3213 32.9033 242.6500 0.0000 -17.3391 0.0000
# 4 0.0000 0.0000 0.0000 28.9011 0.0000 8.0976
# 5 -8.7080 5.3928 -17.3391 0.0000 49.0481 0.0000
# 6 0.0000 0.0000 0.0000 8.0976 0.0000 38.3400
#
#
#
# Elastic Compliance Matrix: (Units=1/GPa)
#
#
# Indices 1 2 3 4 5 6 
#
# 1 0.017149 -0.002936 -0.002921 0.000000 0.002335 0.000000
# 2 -0.002936 0.033433 -0.004346 0.000000 -0.005734 0.000000
# 3 -0.002921 -0.004346 0.005439 0.000000 0.001882 0.000000
# 4 0.000000 0.000000 0.000000 0.036777 0.000000 -0.007767
# 5 0.002335 -0.005734 0.001882 0.000000 0.022098 0.000000
# 6 0.000000 0.000000 0.000000 -0.007767 0.000000 0.027723
#
#
# Mechanical properties :
#
#
# Convention : Reuss Voigt Hill
#
# Bulk Modulus (GPa) = 28.07856 59.45190 43.76523
# Shear Modulus (GPa) = 28.58837 40.27463 34.43150
#
# Velocity S-wave (km/s) = 3.36833 3.99794 3.69656
# Velocity P-wave (km/s) = 5.12551 6.70116 5.96559
#
# Compressibility (1/GPa) = 0.03561436
#
# Stress axis : x y z
#
# Youngs Moduli (GPa) = 58.31328 29.91059 183.86746
#
# Poissons Ratio (x) = 0.08781 0.53703
# Poissons Ratio (y) = 0.17120 0.79918
# Poissons Ratio (z) = 0.17032 0.13001
#
# Static dielectric constant tensor:
#      x y z
#    x 2.033240 0.000000 0.008420 
#    y 0.000000 2.092610 0.000000 
#    z 0.008420 0.000000 1.991770 
# 
# From -- ./inp_files/8129.got.cif
#   From: 2010.05.17/outbox.cif.g08.bks.cpg/sg4_5_cif.got.tgz:8129.got - 2010.06.03 18:43:04.
