data_PCOD9115859
_publ_section_title
;
Structure prediction by ZEFSAII (Michael W. Deem and Ramdas Pophale) SiO2 
 PCOD9115859
Probable space group: P 21
;
_chemical_formula_sum "Si O2"
_cell_formula_units_Z 14
_cell_length_a 12.957524
_cell_length_b 8.066472
_cell_length_c 5.196441
_cell_angle_alpha 90.000000
_cell_angle_beta 75.391968
_cell_angle_gamma 90.000000
_cell_volume 525.582198
_symmetry_space_group_name_H-M "P 21"
_symmetry_group_IT_number 4
_symmetry_cell_setting 'monoclinic'
loop_
_space_group_symop_operation_xyz
x,y,z
-x,1/2+y,-z
loop_
_atom_site_type_symbol
_atom_site_label
_atom_site_fract_x
_atom_site_fract_y
_atom_site_fract_z
Si Si1 0.874469 0.007710 0.004293
Si Si2 0.492832 0.676228 0.301833
Si Si3 0.905853 0.816500 0.476431
Si Si4 0.700520 0.564497 0.914908
Si Si5 0.567856 0.840934 0.768486
Si Si6 0.883178 0.502493 0.200219
Si Si7 0.161044 0.793198 0.356593
O O1 0.819046 0.146535 0.860890
O O2 0.999226 0.044711 0.966878
O O3 0.881563 0.865746 0.781042
O O4 0.845547 0.929754 0.299599
O O5 0.598557 0.566395 0.169054
O O6 0.505528 0.754275 0.572568
O O7 0.406421 0.531528 0.315280
O O8 0.503042 0.817607 0.077533
O O9 0.877017 0.626358 0.446336
O O10 0.035508 0.833502 0.360721
O O11 0.798714 0.557989 0.047859
O O12 0.670302 0.724355 0.761405
O O13 0.731430 0.402950 0.733115
O O14 0.859628 0.316563 0.320813
#
# Coordination Sequence:
#
# PCOD9115859 Si02
#       7
#     2   2   2   2   2   2   2
#     4  10  22  37  59  87 121 167 212 252 292 343
#     4  10  22  42  71  95 121 158 201 247 311 381
#     4  10  22  37  59  87 121 167 212 252 292 343
#     4  10  22  38  68  90 124 154 208 238 322 352
#     4  10  22  42  71  95 121 158 201 247 311 381
#     4  10  21  37  62  86 123 167 209 246 300 360
#     4  10  21  37  62  86 123 167 209 246 300 360
#
# _framework density 26.637129999999999
#
# number of rings (size 3 to 8) (size 9 to 14) (size 15 to 20)
#    0.857    1.143    1.429    1.714    4.000    2.286 
#    0.000    1.429    0.000    0.000    0.000    0.000 
#    0.000    0.000    0.000    0.000    0.000    0.000 
#
# Total GULP energy -77987.243930 kJ/mol
# GULP energy per Si atom -5570.517424 kJ/mol
# Density = 2.657650 g / cm^3
# Si number density = 26.637130 Si / 1000 Ang^3
#
#
#
# Elastic Constant Matrix: (Units=GPa)
#
#
# Indices 1 2 3 4 5 6 
#
# 1 52.1253 1.3895 32.0228 0.0000 7.6122 0.0000
# 2 1.3895 50.3987 -0.7333 0.0000 18.3999 0.0000
# 3 32.0228 -0.7333 99.0744 0.0000 30.8328 0.0000
# 4 0.0000 0.0000 0.0000 45.0543 0.0000 1.6442
# 5 7.6122 18.3999 30.8328 0.0000 48.6487 0.0000
# 6 0.0000 0.0000 0.0000 1.6442 0.0000 22.7000
#
#
#
# Elastic Compliance Matrix: (Units=1/GPa)
#
#
# Indices 1 2 3 4 5 6 
#
# 1 0.024125 -0.001598 -0.008499 0.000000 0.002216 0.000000
# 2 -0.001598 0.024198 0.004318 0.000000 -0.011638 0.000000
# 3 -0.008499 0.004318 0.016153 0.000000 -0.010540 0.000000
# 4 0.000000 0.000000 0.000000 0.022254 0.000000 -0.001612
# 5 0.002216 -0.011638 -0.010540 0.000000 0.031291 0.000000
# 6 0.000000 0.000000 0.000000 -0.001612 0.000000 0.044170
#
#
# Mechanical properties :
#
#
# Convention : Reuss Voigt Hill
#
# Bulk Modulus (GPa) = 18.89774 29.66183 24.27978
# Shear Modulus (GPa) = 26.12496 34.54190 30.33343
#
# Velocity S-wave (km/s) = 3.13513 3.60496 3.37822
# Velocity P-wave (km/s) = 4.49614 5.33735 4.93470
#
# Compressibility (1/GPa) = 0.05291639
#
# Stress axis : x y z
#
# Youngs Moduli (GPa) = 41.45093 41.32634 61.90893
#
# Poissons Ratio (x) = 0.06603 0.52617
# Poissons Ratio (y) = 0.06623 -0.26729
# Poissons Ratio (z) = 0.35230 -0.17843
#
# Static dielectric constant tensor:
#      x y z
#    x 2.186540 0.000000 -0.141960 
#    y 0.000000 2.288430 0.000000 
#    z -0.141960 0.000000 2.210440 
# 
# From -- ./inp_files/3530.got.cif
#   From: 2010.05.17/outbox.cif.g08.bks.cpg/sg4_2_cif.got.tgz:3530.got - 2010.06.03 18:43:04.
