data_PCOD9115557
_publ_section_title
;
Structure prediction by ZEFSAII (Michael W. Deem and Ramdas Pophale) SiO2 
 PCOD9115557
Probable space group: P 21
;
_chemical_formula_sum "Si O2"
_cell_formula_units_Z 16
_cell_length_a 6.133710
_cell_length_b 12.157754
_cell_length_c 12.323910
_cell_angle_alpha 90.000000
_cell_angle_beta 57.616260
_cell_angle_gamma 90.000000
_cell_volume 776.094228
_symmetry_space_group_name_H-M "P 21"
_symmetry_group_IT_number 4
_symmetry_cell_setting 'monoclinic'
loop_
_space_group_symop_operation_xyz
x,y,z
-x,1/2+y,-z
loop_
_atom_site_type_symbol
_atom_site_label
_atom_site_fract_x
_atom_site_fract_y
_atom_site_fract_z
Si Si1 0.104312 0.703970 0.764030
Si Si2 0.601842 0.770355 0.254700
Si Si3 0.219049 0.157084 0.580090
Si Si4 0.699925 0.114764 0.837079
Si Si5 0.353494 0.369395 0.184722
Si Si6 0.143857 0.740389 0.998638
Si Si7 0.625484 0.848262 0.577540
Si Si8 0.416934 0.495405 0.619695
O O1 0.072857 0.688806 0.901925
O O2 0.356172 0.779251 0.664448
O O3 0.180426 0.581287 0.702205
O O4 0.855209 0.775805 0.793339
O O5 0.598744 0.702396 0.369877
O O6 0.457047 0.696444 0.202274
O O7 0.537857 0.896635 0.306195
O O8 0.891466 0.779839 0.129560
O O9 0.159933 0.264327 0.524485
O O10 0.979738 0.110901 0.707359
O O11 0.336640 0.072670 0.463489
O O12 0.640331 0.987626 0.871446
O O13 0.713499 0.164873 0.952547
O O14 0.643445 0.328347 0.090854
O O15 0.305999 0.392450 0.323943
O O16 0.606339 0.939323 0.491487
#
# Coordination Sequence:
#
# PCOD9115557 Si02
#       8
#     2   2   2   2   2   2   2   2
#     4  10  22  40  63  90 125 167 209 261 319 372
#     4  10  22  40  63  90 125 167 209 261 319 372
#     4   9  20  37  57  91 126 158 206 255 314 381
#     4  11  23  39  64  90 121 167 212 260 316 378
#     4  11  23  39  64  90 121 167 212 260 316 378
#     4  10  24  42  58  90 124 158 216 260 310 376
#     4   9  20  37  57  91 126 158 206 255 314 381
#     4  10  20  40  66  90 128 166 202 264 318 374
#
# _framework density 20.616053999999998
#
# number of rings (size 3 to 8) (size 9 to 14) (size 15 to 20)
#    0.000    2.000    0.000    2.250    0.000   12.000 
#    0.000   11.250    0.000    0.000    0.000    0.000 
#    0.000    0.000    0.000    0.000    0.000    0.000 
#
# Total GULP energy -89079.628821 kJ/mol
# GULP energy per Si atom -5567.476801 kJ/mol
# Density = 2.056913 g / cm^3
# Si number density = 20.616054 Si / 1000 Ang^3
#
#
#
# Elastic Constant Matrix: (Units=GPa)
#
#
# Indices 1 2 3 4 5 6 
#
# 1 29.0719 4.6925 -10.0327 0.0000 6.3689 0.0000
# 2 4.6925 54.4750 -14.1887 0.0000 -3.8052 0.0000
# 3 -10.0327 -14.1887 64.5337 0.0000 11.0609 0.0000
# 4 0.0000 0.0000 0.0000 17.7449 0.0000 0.8006
# 5 6.3689 -3.8052 11.0609 0.0000 21.1538 0.0000
# 6 0.0000 0.0000 0.0000 0.8006 0.0000 10.1658
#
#
#
# Elastic Compliance Matrix: (Units=1/GPa)
#
#
# Indices 1 2 3 4 5 6 
#
# 1 0.041785 -0.002497 0.008986 0.000000 -0.017728 0.000000
# 2 -0.002497 0.019659 0.003514 0.000000 0.002451 0.000000
# 3 0.008986 0.003514 0.019795 0.000000 -0.012423 0.000000
# 4 0.000000 0.000000 0.000000 0.056555 0.000000 -0.004454
# 5 -0.017728 0.002451 -0.012423 0.000000 0.059547 0.000000
# 6 0.000000 0.000000 0.000000 -0.004454 0.000000 0.098720
#
#
# Mechanical properties :
#
#
# Convention : Reuss Voigt Hill
#
# Bulk Modulus (GPa) = 9.87726 12.11367 10.99546
# Shear Modulus (GPa) = 16.13924 20.98686 18.56305
#
# Velocity S-wave (km/s) = 2.80098 3.19405 3.00395
# Velocity P-wave (km/s) = 3.90667 4.41489 4.16853
#
# Compressibility (1/GPa) = 0.10124270
#
# Stress axis : x y z
#
# Youngs Moduli (GPa) = 23.93189 50.86831 50.51870
#
# Poissons Ratio (x) = 0.12704 -0.45394
# Poissons Ratio (y) = 0.05977 -0.17752
# Poissons Ratio (z) = -0.21504 -0.17875
#
# Static dielectric constant tensor:
#      x y z
#    x 1.785990 0.000000 -0.008600 
#    y 0.000000 1.905120 0.000000 
#    z -0.008600 0.000000 1.725310 
# 
# From -- ./inp_files/2719.got.cif
#   From: 2010.05.17/outbox.cif.g08.bks.cpg/sg4_2_cif.got.tgz:2719.got - 2010.06.03 18:43:04.
