data_PCOD9115820
_publ_section_title
;
Structure prediction by ZEFSAII (Michael W. Deem and Ramdas Pophale) SiO2 
 PCOD9115820
Probable space group: P 21
;
_chemical_formula_sum "Si O2"
_cell_formula_units_Z 16
_cell_length_a 14.652433
_cell_length_b 5.218506
_cell_length_c 13.187192
_cell_angle_alpha 90.000000
_cell_angle_beta 137.220828
_cell_angle_gamma 90.000000
_cell_volume 684.840847
_symmetry_space_group_name_H-M "P 21"
_symmetry_group_IT_number 4
_symmetry_cell_setting 'monoclinic'
loop_
_space_group_symop_operation_xyz
x,y,z
-x,1/2+y,-z
loop_
_atom_site_type_symbol
_atom_site_label
_atom_site_fract_x
_atom_site_fract_y
_atom_site_fract_z
Si Si1 0.075446 0.831830 0.591808
Si Si2 0.683884 0.548561 0.847433
Si Si3 0.803259 0.868816 0.763980
Si Si4 0.449421 0.923542 0.079560
Si Si5 0.915093 0.156858 0.035055
Si Si6 0.791629 0.037460 0.127638
Si Si7 0.467723 0.317065 0.532343
Si Si8 0.313315 0.161558 0.787681
O O1 0.112449 0.742640 0.735698
O O2 0.025968 0.572502 0.496920
O O3 0.212391 0.955587 0.659125
O O4 0.718058 0.744245 0.786665
O O5 0.609920 0.630501 0.890027
O O6 0.570260 0.358033 0.708082
O O7 0.823171 0.403667 0.981883
O O8 0.688274 0.904449 0.586130
O O9 0.926816 0.698085 0.827696
O O10 0.877883 0.092560 0.887793
O O11 0.603145 0.844060 0.217664
O O12 0.346907 0.686144 0.007433
O O13 0.425771 0.017864 0.946050
O O14 0.862764 0.964721 0.080102
O O15 0.767205 0.823777 0.193200
O O16 0.523718 0.521658 0.494752
#
# Coordination Sequence:
#
# PCOD9115820 Si02
#       8
#     2   2   2   2   2   2   2   2
#     4  11  23  44  67  91 132 186 217 264 335 396
#     4  10  21  39  59  89 129 169 213 266 322 390
#     4  11  21  38  63  91 130 168 217 269 330 385
#     4  10  21  36  63  96 126 163 222 266 329 382
#     4  11  21  38  63  94 126 171 223 270 323 393
#     4  10  22  39  65  93 132 171 219 276 325 387
#     4  10  21  39  64  87 127 168 204 259 323 379
#     4  11  20  39  66  95 130 174 215 280 325 394
#
# _framework density 23.363092999999999
#
# number of rings (size 3 to 8) (size 9 to 14) (size 15 to 20)
#    0.000    1.500    5.000    0.750    0.000    0.000 
#    2.250    0.000    2.750    0.000    0.000    0.000 
#    0.000    0.000    0.000    0.000    0.000    0.000 
#
# Total GULP energy -89219.279085 kJ/mol
# GULP energy per Si atom -5576.204943 kJ/mol
# Density = 2.330992 g / cm^3
# Si number density = 23.363093 Si / 1000 Ang^3
#
#
#
# Elastic Constant Matrix: (Units=GPa)
#
#
# Indices 1 2 3 4 5 6 
#
# 1 87.7150 12.7635 25.4742 0.0000 14.4704 0.0000
# 2 12.7635 83.1374 20.9947 0.0000 3.6888 0.0000
# 3 25.4742 20.9947 116.1699 0.0000 25.0578 0.0000
# 4 0.0000 0.0000 0.0000 42.5579 0.0000 -0.1727
# 5 14.4704 3.6888 25.0578 0.0000 24.1847 0.0000
# 6 0.0000 0.0000 0.0000 -0.1727 0.0000 21.5361
#
#
#
# Elastic Compliance Matrix: (Units=1/GPa)
#
#
# Indices 1 2 3 4 5 6 
#
# 1 0.013001 -0.001403 -0.001243 0.000000 -0.006277 0.000000
# 2 -0.001403 0.012761 -0.002266 0.000000 0.001241 0.000000
# 3 -0.001243 -0.002266 0.011661 0.000000 -0.010993 0.000000
# 4 0.000000 0.000000 0.000000 0.023498 0.000000 0.000188
# 5 -0.006277 0.001241 -0.010993 0.000000 0.056304 0.000000
# 6 0.000000 0.000000 0.000000 0.000188 0.000000 0.046435
#
#
# Mechanical properties :
#
#
# Convention : Reuss Voigt Hill
#
# Bulk Modulus (GPa) = 36.23528 45.05412 40.64470
# Shear Modulus (GPa) = 27.36922 32.84173 30.10547
#
# Velocity S-wave (km/s) = 3.42639 3.75335 3.59359
# Velocity P-wave (km/s) = 5.58541 6.17330 5.88670
#
# Compressibility (1/GPa) = 0.02759741
#
# Stress axis : x y z
#
# Youngs Moduli (GPa) = 76.91494 78.36400 85.75261
#
# Poissons Ratio (x) = 0.10998 0.10663
# Poissons Ratio (y) = 0.10795 0.19433
# Poissons Ratio (z) = 0.09564 0.17759
#
# Static dielectric constant tensor:
#      x y z
#    x 1.924490 0.000000 -0.023820 
#    y 0.000000 1.984210 0.000000 
#    z -0.023820 0.000000 1.982800 
# 
# From -- ./inp_files/13509.got.cif
#   From: 2010.05.17/outbox.cif.g08.bks.cpg/sg4_7_cif.got.tgz:13509.got - 2010.06.03 18:43:04.
