data_PCOD9115268
_publ_section_title
;
Structure prediction by ZEFSAII (Michael W. Deem and Ramdas Pophale) SiO2 
 PCOD9115268
Probable space group: P 21
;
_chemical_formula_sum "Si O2"
_cell_formula_units_Z 12
_cell_length_a 12.588676
_cell_length_b 5.129020
_cell_length_c 9.052231
_cell_angle_alpha 90.000000
_cell_angle_beta 51.863224
_cell_angle_gamma 90.000000
_cell_volume 459.716649
_symmetry_space_group_name_H-M "P 21"
_symmetry_group_IT_number 4
_symmetry_cell_setting 'monoclinic'
loop_
_space_group_symop_operation_xyz
x,y,z
-x,1/2+y,-z
loop_
_atom_site_type_symbol
_atom_site_label
_atom_site_fract_x
_atom_site_fract_y
_atom_site_fract_z
Si Si1 0.100025 0.091630 0.549678
Si Si2 0.820817 0.105550 0.620808
Si Si3 0.439372 0.506705 0.977703
Si Si4 0.937749 0.691012 0.894200
Si Si5 0.553724 0.172907 0.372669
Si Si6 0.839673 0.176466 0.052961
O O1 0.165181 0.376763 0.514671
O O2 0.974701 0.136894 0.546302
O O3 0.216638 0.898395 0.392214
O O4 0.029241 0.895932 0.725242
O O5 0.717303 0.014851 0.833662
O O6 0.462800 0.600124 0.788009
O O7 0.490887 0.218878 0.973451
O O8 0.032983 0.636383 0.950582
O O9 0.882747 0.403811 0.899967
O O10 0.811122 0.877020 0.034313
O O11 0.467974 0.415065 0.509264
O O12 0.708727 0.271744 0.250051
#
# Coordination Sequence:
#
# PCOD9115268 Si02
#       6
#     2   2   2   2   2   2
#     4  10  20  36  63  94 125 162 210 273 339 409
#     4  10  22  38  60  92 126 167 216 270 338 407
#     4  12  27  47  70  99 140 189 237 289 348 411
#     4  10  20  37  63  94 126 163 210 274 343 406
#     4  12  27  47  72 101 138 188 242 291 342 410
#     4  10  22  39  62  92 127 169 217 273 340 405
#
# _framework density 26.103034000000001
#
# number of rings (size 3 to 8) (size 9 to 14) (size 15 to 20)
#    0.000    1.333    0.000    5.000    0.000    8.000 
#    0.000    0.000    0.000    0.000    0.000    0.000 
#    0.000    0.000    0.000    0.000    0.000    0.000 
#
# Total GULP energy -66905.268745 kJ/mol
# GULP energy per Si atom -5575.439062 kJ/mol
# Density = 2.604362 g / cm^3
# Si number density = 26.103034 Si / 1000 Ang^3
#
#
#
# Elastic Constant Matrix: (Units=GPa)
#
#
# Indices 1 2 3 4 5 6 
#
# 1 26.5138 28.2807 11.4006 0.0000 -13.4762 0.0000
# 2 28.2807 191.2951 32.1711 0.0000 12.1174 0.0000
# 3 11.4006 32.1711 121.1190 0.0000 -0.7452 0.0000
# 4 0.0000 0.0000 0.0000 55.4561 0.0000 0.6397
# 5 -13.4762 12.1174 -0.7452 0.0000 26.2265 0.0000
# 6 0.0000 0.0000 0.0000 0.6397 0.0000 28.5283
#
#
#
# Elastic Compliance Matrix: (Units=1/GPa)
#
#
# Indices 1 2 3 4 5 6 
#
# 1 0.077146 -0.013753 -0.003326 0.000000 0.045901 0.000000
# 2 -0.013753 0.008103 -0.000924 0.000000 -0.010837 0.000000
# 3 -0.003326 -0.000924 0.008809 0.000000 -0.001032 0.000000
# 4 0.000000 0.000000 0.000000 0.018037 0.000000 -0.000404
# 5 0.045901 -0.010837 -0.001032 0.000000 0.066693 0.000000
# 6 0.000000 0.000000 0.000000 -0.000404 0.000000 0.035062
#
#
# Mechanical properties :
#
#
# Convention : Reuss Voigt Hill
#
# Bulk Modulus (GPa) = 17.22650 53.62585 35.42618
# Shear Modulus (GPa) = 18.57310 39.84720 29.21015
#
# Velocity S-wave (km/s) = 2.67035 3.91133 3.34882
# Velocity P-wave (km/s) = 4.01515 6.40207 5.34359
#
# Compressibility (1/GPa) = 0.05805010
#
# Stress axis : x y z
#
# Youngs Moduli (GPa) = 12.96240 123.41588 113.52562
#
# Poissons Ratio (x) = 1.69738 0.37760
# Poissons Ratio (y) = 0.17828 0.10493
# Poissons Ratio (z) = 0.04311 0.11407
#
# Static dielectric constant tensor:
#      x y z
#    x 2.056590 0.000000 0.021670 
#    y 0.000000 2.193460 0.000000 
#    z 0.021670 0.000000 2.222390 
# 
# From -- ./inp_files/8551.got.cif
#   From: 2010.05.17/outbox.cif.g08.bks.cpg/sg4_5_cif.got.tgz:8551.got - 2010.06.03 18:43:04.
