data_PCOD9115758
_publ_section_title
;
Structure prediction by ZEFSAII (Michael W. Deem and Ramdas Pophale) SiO2 
 PCOD9115758
Probable space group: P 21
;
_chemical_formula_sum "Si O2"
_cell_formula_units_Z 16
_cell_length_a 15.013136
_cell_length_b 7.870718
_cell_length_c 6.114083
_cell_angle_alpha 90.000000
_cell_angle_beta 66.993346
_cell_angle_gamma 90.000000
_cell_volume 665.000193
_symmetry_space_group_name_H-M "P 21"
_symmetry_group_IT_number 4
_symmetry_cell_setting 'monoclinic'
loop_
_space_group_symop_operation_xyz
x,y,z
-x,1/2+y,-z
loop_
_atom_site_type_symbol
_atom_site_label
_atom_site_fract_x
_atom_site_fract_y
_atom_site_fract_z
Si Si1 0.163254 0.301290 0.131405
Si Si2 0.824029 0.279270 0.502865
Si Si3 0.693543 0.954619 0.650249
Si Si4 0.361185 0.965836 0.317126
Si Si5 0.001882 0.278467 0.647325
Si Si6 0.942241 0.067202 0.078340
Si Si7 0.458292 0.281734 0.973337
Si Si8 0.324868 0.185900 0.718079
O O1 0.241500 0.387825 0.212725
O O2 0.125460 0.438446 0.992139
O O3 0.076796 0.255800 0.377648
O O4 0.225498 0.158702 0.946901
O O5 0.753780 0.440002 0.603366
O O6 0.895721 0.265549 0.640955
O O7 0.743962 0.131207 0.549860
O O8 0.891189 0.236246 0.227965
O O9 0.700758 0.823868 0.442989
O O10 0.585062 0.940117 0.845684
O O11 0.429002 0.813632 0.171178
O O12 0.365691 0.015940 0.568203
O O13 0.410456 0.124415 0.147193
O O14 0.014673 0.136927 0.823598
O O15 0.019930 0.457078 0.753437
O O16 0.407613 0.268886 0.786631
#
# Coordination Sequence:
#
# PCOD9115758 Si02
#       8
#     2   2   2   2   2   2   2   2
#     4  11  21  48  72  98 146 190 248 302 367 432
#     4  12  25  47  69 109 149 191 249 307 364 443
#     4  10  20  45  75 101 141 192 242 295 370 431
#     4  11  26  48  72 115 146 191 244 304 375 443
#     4  12  26  48  71 107 145 199 254 305 377 433
#     4  12  25  49  69 104 143 200 244 313 368 440
#     4  10  24  47  75 107 147 191 236 305 368 448
#     4  10  23  46  73 109 139 198 241 299 371 442
#
# _framework density 24.060143
#
# number of rings (size 3 to 8) (size 9 to 14) (size 15 to 20)
#    0.000    1.000    3.750    1.500    0.000    4.000 
#   42.750    0.000    0.000    0.000    0.000    0.000 
#    0.000    0.000    0.000    0.000    0.000    0.000 
#
# Total GULP energy -89350.735159 kJ/mol
# GULP energy per Si atom -5584.420947 kJ/mol
# Density = 2.400538 g / cm^3
# Si number density = 24.060143 Si / 1000 Ang^3
#
#
#
# Elastic Constant Matrix: (Units=GPa)
#
#
# Indices 1 2 3 4 5 6 
#
# 1 39.9317 -6.7453 42.9970 0.0000 -16.8748 0.0000
# 2 -6.7453 63.1414 39.7157 0.0000 -12.7142 0.0000
# 3 42.9970 39.7157 150.1091 0.0000 -17.1398 0.0000
# 4 0.0000 0.0000 0.0000 35.8811 0.0000 -4.9166
# 5 -16.8748 -12.7142 -17.1398 0.0000 36.9014 0.0000
# 6 0.0000 0.0000 0.0000 -4.9166 0.0000 30.3742
#
#
#
# Elastic Compliance Matrix: (Units=1/GPa)
#
#
# Indices 1 2 3 4 5 6 
#
# 1 0.067168 0.027708 -0.023204 0.000000 0.029485 0.000000
# 2 0.027708 0.031146 -0.014261 0.000000 0.016778 0.000000
# 3 -0.023204 -0.014261 0.016166 0.000000 -0.008016 0.000000
# 4 0.000000 0.000000 0.000000 0.028502 0.000000 0.004614
# 5 0.029485 0.016778 -0.008016 0.000000 0.042640 0.000000
# 6 0.000000 0.000000 0.000000 0.004614 0.000000 0.033669
#
#
# Mechanical properties :
#
#
# Convention : Reuss Voigt Hill
#
# Bulk Modulus (GPa) = 10.53010 45.01299 27.77155
# Shear Modulus (GPa) = 18.48682 32.44566 25.46624
#
# Velocity S-wave (km/s) = 2.77494 3.67621 3.25690
# Velocity P-wave (km/s) = 3.82794 6.06370 5.07058
#
# Compressibility (1/GPa) = 0.09496584
#
# Stress axis : x y z
#
# Youngs Moduli (GPa) = 14.88796 32.10655 61.85700
#
# Poissons Ratio (x) = -0.88960 1.43532
# Poissons Ratio (y) = -0.41251 0.88217
# Poissons Ratio (z) = 0.34546 0.45789
#
# Static dielectric constant tensor:
#      x y z
#    x 1.914510 0.000000 -0.038360 
#    y 0.000000 2.045250 0.000000 
#    z -0.038360 0.000000 1.951740 
# 
# From -- ./inp_files/3625.got.cif
#   From: 2010.05.17/outbox.cif.g08.bks.cpg/sg4_2_cif.got.tgz:3625.got - 2010.06.03 18:43:04.
