data_PCOD9115050
_publ_section_title
;
Structure prediction by ZEFSAII (Michael W. Deem and Ramdas Pophale) SiO2 
 PCOD9115050
Probable space group: P 21
;
_chemical_formula_sum "Si O2"
_cell_formula_units_Z 16
_cell_length_a 13.255496
_cell_length_b 9.476876
_cell_length_c 8.128243
_cell_angle_alpha 90.000000
_cell_angle_beta 37.990043
_cell_angle_gamma 90.000000
_cell_volume 628.497017
_symmetry_space_group_name_H-M "P 21"
_symmetry_group_IT_number 4
_symmetry_cell_setting 'monoclinic'
loop_
_space_group_symop_operation_xyz
x,y,z
-x,1/2+y,-z
loop_
_atom_site_type_symbol
_atom_site_label
_atom_site_fract_x
_atom_site_fract_y
_atom_site_fract_z
Si Si1 0.504367 0.351790 0.755655
Si Si2 0.897914 0.564416 0.939753
Si Si3 0.180431 0.643902 0.341800
Si Si4 0.177312 0.499721 0.025607
Si Si5 0.912307 0.826562 0.155161
Si Si6 0.217613 0.962320 0.409913
Si Si7 0.642777 0.878785 0.715533
Si Si8 0.419726 0.059965 0.837739
O O1 0.335092 0.407068 0.889631
O O2 0.449434 0.317507 0.012907
O O3 0.537242 0.194034 0.651162
O O4 0.660362 0.453628 0.586479
O O5 0.709233 0.567250 0.141094
O O6 0.002291 0.597823 0.640577
O O7 0.940615 0.410406 0.952004
O O8 0.945000 0.691961 0.001948
O O9 0.202363 0.630742 0.117267
O O10 0.212738 0.800919 0.353419
O O11 0.291452 0.528038 0.294245
O O12 0.977057 0.484905 0.311119
O O13 0.174977 0.450618 0.839702
O O14 0.790642 0.786887 0.458793
O O15 0.309949 0.050708 0.148197
O O16 0.521733 0.917580 0.724486
#
# Coordination Sequence:
#
# PCOD9115050 Si02
#       8
#     2   2   2   2   2   2   2   2
#     4  10  21  40  67  92 125 162 221 268 318 384
#     4  11  23  42  64  91 131 175 222 271 329 394
#     4  10  19  40  64  92 125 160 219 275 317 384
#     4  11  22  40  66  95 122 172 218 263 327 386
#     4  11  24  43  61  95 137 177 210 268 340 397
#     4  11  21  36  68  97 120 163 217 274 321 373
#     4   9  22  39  62  92 132 166 202 277 330 386
#     4  11  20  40  66  94 124 169 217 274 324 384
#
# _framework density 25.457557999999999
#
# number of rings (size 3 to 8) (size 9 to 14) (size 15 to 20)
#    0.000    1.500    5.000    0.000    0.000    2.000 
#    2.250    5.000    0.000    0.000    0.000    0.000 
#    0.000    0.000    0.000    0.000    0.000    0.000 
#
# Total GULP energy -89142.855405 kJ/mol
# GULP energy per Si atom -5571.428463 kJ/mol
# Density = 2.539962 g / cm^3
# Si number density = 25.457558 Si / 1000 Ang^3
#
#
#
# Elastic Constant Matrix: (Units=GPa)
#
#
# Indices 1 2 3 4 5 6 
#
# 1 70.6454 26.7145 1.6983 0.0000 -29.7506 0.0000
# 2 26.7145 46.6343 -13.6977 0.0000 -20.0949 0.0000
# 3 1.6983 -13.6977 64.3938 0.0000 -8.0003 0.0000
# 4 0.0000 0.0000 0.0000 23.8083 0.0000 0.8098
# 5 -29.7506 -20.0949 -8.0003 0.0000 44.6118 0.0000
# 6 0.0000 0.0000 0.0000 0.8098 0.0000 16.9018
#
#
#
# Elastic Compliance Matrix: (Units=1/GPa)
#
#
# Indices 1 2 3 4 5 6 
#
# 1 0.021750 -0.008159 -0.000986 0.000000 0.010653 0.000000
# 2 -0.008159 0.033522 0.008741 0.000000 0.011226 0.000000
# 3 -0.000986 0.008741 0.018228 0.000000 0.006549 0.000000
# 4 0.000000 0.000000 0.000000 0.042071 0.000000 -0.002016
# 5 0.010653 0.011226 0.006549 0.000000 0.035751 0.000000
# 6 0.000000 0.000000 0.000000 -0.002016 0.000000 0.059262
#
#
# Mechanical properties :
#
#
# Convention : Reuss Voigt Hill
#
# Bulk Modulus (GPa) = 13.75647 23.45598 18.60623
# Shear Modulus (GPa) = 21.22034 28.19493 24.70764
#
# Velocity S-wave (km/s) = 2.89027 3.33156 3.11873
# Velocity P-wave (km/s) = 4.06862 4.90233 4.50480
#
# Compressibility (1/GPa) = 0.07269308
#
# Stress axis : x y z
#
# Youngs Moduli (GPa) = 45.97612 29.83123 54.85965
#
# Poissons Ratio (x) = 0.24339 0.05407
# Poissons Ratio (y) = 0.37511 -0.47951
# Poissons Ratio (z) = 0.04531 -0.26074
#
# Static dielectric constant tensor:
#      x y z
#    x 2.075770 0.000000 -0.045390 
#    y 0.000000 1.985980 0.000000 
#    z -0.045390 0.000000 2.099340 
# 
# From -- ./inp_files/5913.got.cif
#   From: 2010.05.17/outbox.cif.g08.bks.cpg/sg4_3_cif.got.tgz:5913.got - 2010.06.03 18:43:04.
