data_PCOD9115198
_publ_section_title
;
Structure prediction by ZEFSAII (Michael W. Deem and Ramdas Pophale) SiO2 
 PCOD9115198
Probable space group: P 21
;
_chemical_formula_sum "Si O2"
_cell_formula_units_Z 16
_cell_length_a 9.232833
_cell_length_b 13.384787
_cell_length_c 11.353984
_cell_angle_alpha 90.000000
_cell_angle_beta 38.332310
_cell_angle_gamma 90.000000
_cell_volume 870.244979
_symmetry_space_group_name_H-M "P 21"
_symmetry_group_IT_number 4
_symmetry_cell_setting 'monoclinic'
loop_
_space_group_symop_operation_xyz
x,y,z
-x,1/2+y,-z
loop_
_atom_site_type_symbol
_atom_site_label
_atom_site_fract_x
_atom_site_fract_y
_atom_site_fract_z
Si Si1 0.782250 0.191210 0.068756
Si Si2 0.004306 0.379369 0.810858
Si Si3 0.254783 0.501748 0.065012
Si Si4 0.561850 0.499968 0.099234
Si Si5 0.530135 0.850766 0.635165
Si Si6 0.696619 0.658460 0.205409
Si Si7 0.290629 0.994619 0.608596
Si Si8 0.359169 0.388184 0.780957
O O1 0.575425 0.241781 0.274379
O O2 0.870478 0.276470 0.921614
O O3 0.020581 0.165945 0.987190
O O4 0.702831 0.095965 0.047083
O O5 0.219895 0.359417 0.586728
O O6 0.120031 0.411187 0.862007
O O7 0.816883 0.461888 0.894327
O O8 0.394148 0.512856 0.096039
O O9 0.976852 0.496789 0.259115
O O10 0.331429 0.407647 0.936499
O O11 0.466167 0.412497 0.245852
O O12 0.593377 0.595970 0.162826
O O13 0.345984 0.908567 0.669341
O O14 0.654644 0.596046 0.353025
O O15 0.598620 0.770988 0.272319
O O16 0.452574 0.961976 0.397120
#
# Coordination Sequence:
#
# PCOD9115198 Si02
#       8
#     2   2   2   2   2   2   2   2
#     4   9  18  33  55  80 107 137 179 230 270 320
#     4   9  18  36  59  80 100 136 184 229 272 316
#     4  11  22  34  51  80 115 149 178 215 274 331
#     4  10  21  36  53  78 116 147 176 219 270 333
#     4   9  18  36  60  81 102 138 186 231 273 317
#     4   9  18  36  58  82 109 143 185 229 275 319
#     4   9  19  36  57  82 108 137 183 234 272 316
#     4  10  20  35  59  81 105 141 185 231 272 316
#
# _framework density 18.385628000000001
#
# number of rings (size 3 to 8) (size 9 to 14) (size 15 to 20)
#    0.000    2.500    0.000    3.750    0.000    7.000 
#    0.000    7.500    0.000    1.500    0.000    0.000 
#    0.000    0.000    0.000    0.000    0.000    0.000 
#
# Total GULP energy -89220.292658 kJ/mol
# GULP energy per Si atom -5576.268291 kJ/mol
# Density = 1.834378 g / cm^3
# Si number density = 18.385628 Si / 1000 Ang^3
#
#
#
# Elastic Constant Matrix: (Units=GPa)
#
#
# Indices 1 2 3 4 5 6 
#
# 1 121.7080 43.6743 41.7424 0.0000 -1.4284 0.0000
# 2 43.6743 83.6376 32.8582 0.0000 -7.9855 0.0000
# 3 41.7424 32.8582 98.9196 0.0000 -3.9922 0.0000
# 4 0.0000 0.0000 0.0000 28.2924 0.0000 -1.2625
# 5 -1.4284 -7.9855 -3.9922 0.0000 16.2306 0.0000
# 6 0.0000 0.0000 0.0000 -1.2625 0.0000 10.1400
#
#
#
# Elastic Compliance Matrix: (Units=1/GPa)
#
#
# Indices 1 2 3 4 5 6 
#
# 1 0.010953 -0.004683 -0.003152 0.000000 -0.002115 0.000000
# 2 -0.004683 0.016296 -0.003161 0.000000 0.006828 0.000000
# 3 -0.003152 -0.003161 0.012540 0.000000 0.001252 0.000000
# 4 0.000000 0.000000 0.000000 0.035543 0.000000 0.004425
# 5 -0.002115 0.006828 0.001252 0.000000 0.065093 0.000000
# 6 0.000000 0.000000 0.000000 0.004425 0.000000 0.099170
#
#
# Mechanical properties :
#
#
# Convention : Reuss Voigt Hill
#
# Bulk Modulus (GPa) = 56.19176 60.09055 58.14116
# Shear Modulus (GPa) = 18.69028 23.33196 21.01112
#
# Velocity S-wave (km/s) = 3.19183 3.56621 3.38420
# Velocity P-wave (km/s) = 6.64928 7.05064 6.85290
#
# Compressibility (1/GPa) = 0.01779620
#
# Stress axis : x y z
#
# Youngs Moduli (GPa) = 91.29827 61.36590 79.74640
#
# Poissons Ratio (x) = 0.28740 0.25134
# Poissons Ratio (y) = 0.42758 0.25209
# Poissons Ratio (z) = 0.28775 0.19398
#
# Static dielectric constant tensor:
#      x y z
#    x 1.602630 0.000000 0.000180 
#    y 0.000000 1.672190 0.000000 
#    z 0.000180 0.000000 1.672850 
# 
# From -- ./inp_files/8313.got.cif
#   From: 2010.05.17/outbox.cif.g08.bks.cpg/sg4_5_cif.got.tgz:8313.got - 2010.06.03 18:43:04.
