data_PCOD9115438
_publ_section_title
;
Structure prediction by ZEFSAII (Michael W. Deem and Ramdas Pophale) SiO2 
 PCOD9115438
Probable space group: P 21
;
_chemical_formula_sum "Si O2"
_cell_formula_units_Z 16
_cell_length_a 11.039656
_cell_length_b 8.549286
_cell_length_c 7.718978
_cell_angle_alpha 90.000000
_cell_angle_beta 64.753125
_cell_angle_gamma 90.000000
_cell_volume 658.936241
_symmetry_space_group_name_H-M "P 21"
_symmetry_group_IT_number 4
_symmetry_cell_setting 'monoclinic'
loop_
_space_group_symop_operation_xyz
x,y,z
-x,1/2+y,-z
loop_
_atom_site_type_symbol
_atom_site_label
_atom_site_fract_x
_atom_site_fract_y
_atom_site_fract_z
Si Si1 0.546589 0.895740 0.944204
Si Si2 0.606695 0.591849 0.735475
Si Si3 0.074775 0.392762 0.759270
Si Si4 0.509659 0.764031 0.453781
Si Si5 0.057358 0.023171 0.833771
Si Si6 0.119594 0.900553 0.437873
Si Si7 0.267806 0.586599 0.416200
Si Si8 0.354085 0.002565 0.769171
O O1 0.592014 0.718284 0.898680
O O2 0.412309 0.925899 0.908564
O O3 0.659966 0.004240 0.789487
O O4 0.501140 0.956244 0.158828
O O5 0.566917 0.698479 0.600120
O O6 0.750837 0.513097 0.632733
O O7 0.958086 0.430295 0.691635
O O8 0.070123 0.207976 0.794861
O O9 0.204516 0.456939 0.580503
O O10 0.050483 0.481098 0.954655
O O11 0.378493 0.679604 0.457364
O O12 0.447388 0.926771 0.560426
O O13 0.623518 0.689531 0.258843
O O14 0.035408 0.939992 0.662192
O O15 0.200843 0.964873 0.821682
O O16 0.164237 0.719744 0.420141
#
# Coordination Sequence:
#
# PCOD9115438 Si02
#       8
#     2   2   2   2   2   2   2   2
#     4  10  23  38  65 102 140 173 227 289 356 432
#     4  11  21  41  65 104 138 178 226 286 364 427
#     4  12  29  47  71 102 140 193 250 290 352 419
#     4  10  20  38  68  97 135 168 219 277 360 422
#     4  12  25  48  72 101 145 189 244 296 351 420
#     4  12  24  48  74 100 141 188 237 305 351 422
#     4  11  23  45  66 101 138 180 233 290 355 422
#     4  10  21  39  67  95 131 175 218 285 351 416
#
# _framework density 24.281559000000001
#
# number of rings (size 3 to 8) (size 9 to 14) (size 15 to 20)
#    0.000    1.000    2.500    3.750    3.500    2.000 
#    4.500    0.000    0.000    0.000    0.000    0.000 
#    0.000    0.000    0.000    0.000    0.000    0.000 
#
# Total GULP energy -89511.857962 kJ/mol
# GULP energy per Si atom -5594.491123 kJ/mol
# Density = 2.422629 g / cm^3
# Si number density = 24.281559 Si / 1000 Ang^3
#
#
#
# Elastic Constant Matrix: (Units=GPa)
#
#
# Indices 1 2 3 4 5 6 
#
# 1 30.6497 3.6439 8.1347 0.0000 0.9589 0.0000
# 2 3.6439 77.9092 -14.1506 0.0000 -6.4187 0.0000
# 3 8.1347 -14.1506 91.3254 0.0000 -1.3504 0.0000
# 4 0.0000 0.0000 0.0000 45.5374 0.0000 -1.6634
# 5 0.9589 -6.4187 -1.3504 0.0000 22.4600 0.0000
# 6 0.0000 0.0000 0.0000 -1.6634 0.0000 32.7423
#
#
#
# Elastic Compliance Matrix: (Units=1/GPa)
#
#
# Indices 1 2 3 4 5 6 
#
# 1 0.033895 -0.002400 -0.003426 0.000000 -0.002339 0.000000
# 2 -0.002400 0.013728 0.002403 0.000000 0.004170 0.000000
# 3 -0.003426 0.002403 0.011650 0.000000 0.001533 0.000000
# 4 0.000000 0.000000 0.000000 0.022001 0.000000 0.001118
# 5 -0.002339 0.004170 0.001533 0.000000 0.045907 0.000000
# 6 0.000000 0.000000 0.000000 0.001118 0.000000 0.030598
#
#
# Mechanical properties :
#
#
# Convention : Reuss Voigt Hill
#
# Bulk Modulus (GPa) = 19.07467 21.68225 20.37846
# Shear Modulus (GPa) = 27.45740 33.63170 30.54455
#
# Velocity S-wave (km/s) = 3.36637 3.72569 3.55058
# Velocity P-wave (km/s) = 4.79402 5.23991 5.02191
#
# Compressibility (1/GPa) = 0.05242554
#
# Stress axis : x y z
#
# Youngs Moduli (GPa) = 29.50330 72.84572 85.83750
#
# Poissons Ratio (x) = 0.17484 0.29404
# Poissons Ratio (y) = 0.07081 -0.20623
# Poissons Ratio (z) = 0.10107 -0.17501
#
# Static dielectric constant tensor:
#      x y z
#    x 1.940810 0.000000 0.015570 
#    y 0.000000 2.030310 0.000000 
#    z 0.015570 0.000000 1.973660 
# 
# From -- ./inp_files/7670.got.cif
#   From: 2010.05.17/outbox.cif.g08.bks.cpg/sg4_4_cif.got.tgz:7670.got - 2010.06.03 18:43:04.
