data_PCOD9115578
_publ_section_title
;
Structure prediction by ZEFSAII (Michael W. Deem and Ramdas Pophale) SiO2 
 PCOD9115578
Probable space group: P 21
;
_chemical_formula_sum "Si O2"
_cell_formula_units_Z 16
_cell_length_a 8.642179
_cell_length_b 9.944448
_cell_length_c 8.863587
_cell_angle_alpha 90.000000
_cell_angle_beta 120.626858
_cell_angle_gamma 90.000000
_cell_volume 655.489890
_symmetry_space_group_name_H-M "P 21"
_symmetry_group_IT_number 4
_symmetry_cell_setting 'monoclinic'
loop_
_space_group_symop_operation_xyz
x,y,z
-x,1/2+y,-z
loop_
_atom_site_type_symbol
_atom_site_label
_atom_site_fract_x
_atom_site_fract_y
_atom_site_fract_z
Si Si1 0.335955 0.592390 0.135783
Si Si2 0.818904 0.424292 0.275591
Si Si3 0.525689 0.586940 0.957067
Si Si4 0.114813 0.261203 0.309945
Si Si5 0.376035 0.481219 0.585241
Si Si6 0.328120 0.004316 0.494641
Si Si7 0.097748 0.653819 0.295925
Si Si8 0.186998 0.307640 0.996790
O O1 0.507028 0.571349 0.330125
O O2 0.171260 0.633360 0.160531
O O3 0.274944 0.452329 0.031491
O O4 0.415267 0.667435 0.030519
O O5 0.769174 0.416178 0.426942
O O6 0.918176 0.289804 0.275178
O O7 0.961530 0.542988 0.300208
O O8 0.645997 0.475253 0.100936
O O9 0.410251 0.510999 0.774920
O O10 0.663184 0.691724 0.948105
O O11 0.248896 0.359010 0.470737
O O12 0.186088 0.112760 0.368358
O O13 0.121810 0.299763 0.138145
O O14 0.566250 0.448316 0.597367
O O15 0.279195 0.618760 0.477501
O O16 0.969712 0.781924 0.204059
#
# Coordination Sequence:
#
# PCOD9115578 Si02
#       8
#     2   2   2   2   2   2   2   2
#     4  10  21  44  67  94 131 167 223 272 317 396
#     4   9  20  41  62  95 131 164 213 268 324 393
#     4  10  22  39  69  98 126 168 225 266 319 395
#     4  11  21  42  68  89 133 177 209 274 333 376
#     4  10  20  41  64  98 129 162 227 272 311 391
#     4  10  20  40  69  91 127 171 218 270 315 387
#     4   9  20  40  62  92 128 168 209 270 322 386
#     4  11  20  41  69  89 131 179 206 270 339 378
#
# _framework density 24.409223000000001
#
# number of rings (size 3 to 8) (size 9 to 14) (size 15 to 20)
#    0.000    2.000    5.000    0.000    0.000    3.000 
#   13.500    3.750    8.250    0.000    0.000    0.000 
#    0.000    0.000    0.000    0.000    0.000    0.000 
#
# Total GULP energy -89339.668648 kJ/mol
# GULP energy per Si atom -5583.729290 kJ/mol
# Density = 2.435367 g / cm^3
# Si number density = 24.409223 Si / 1000 Ang^3
#
#
#
# Elastic Constant Matrix: (Units=GPa)
#
#
# Indices 1 2 3 4 5 6 
#
# 1 104.8625 4.3076 15.1838 0.0000 -10.0672 0.0000
# 2 4.3076 28.9029 -3.1888 0.0000 19.8773 0.0000
# 3 15.1838 -3.1888 67.0550 0.0000 -11.6437 0.0000
# 4 0.0000 0.0000 0.0000 31.6016 0.0000 12.8544
# 5 -10.0672 19.8773 -11.6437 0.0000 33.2903 0.0000
# 6 0.0000 0.0000 0.0000 12.8544 0.0000 35.9033
#
#
#
# Elastic Compliance Matrix: (Units=1/GPa)
#
#
# Indices 1 2 3 4 5 6 
#
# 1 0.010621 -0.006080 -0.001603 0.000000 0.006281 0.000000
# 2 -0.006080 0.062970 -0.002637 0.000000 -0.040359 0.000000
# 3 -0.001603 -0.002637 0.016332 0.000000 0.006802 0.000000
# 4 0.000000 0.000000 0.000000 0.037038 0.000000 -0.013261
# 5 0.006281 -0.040359 0.006802 0.000000 0.058415 0.000000
# 6 0.000000 0.000000 0.000000 -0.013261 0.000000 0.032600
#
#
# Mechanical properties :
#
#
# Convention : Reuss Voigt Hill
#
# Bulk Modulus (GPa) = 14.43357 25.93621 20.18489
# Shear Modulus (GPa) = 19.10503 32.46023 25.78263
#
# Velocity S-wave (km/s) = 2.80071 3.65065 3.25355
# Velocity P-wave (km/s) = 4.04779 5.33088 4.73302
#
# Compressibility (1/GPa) = 0.06928293
#
# Stress axis : x y z
#
# Youngs Moduli (GPa) = 94.15108 15.88060 61.22974
#
# Poissons Ratio (x) = 0.09655 0.09818
# Poissons Ratio (y) = 0.57239 0.16147
# Poissons Ratio (z) = 0.15097 0.04188
#
# Static dielectric constant tensor:
#      x y z
#    x 1.989920 0.000000 0.007910 
#    y 0.000000 1.992530 0.000000 
#    z 0.007910 0.000000 1.905240 
# 
# From -- ./inp_files/6191.got.cif
#   From: 2010.05.17/outbox.cif.g08.bks.cpg/sg4_4_cif.got.tgz:6191.got - 2010.06.03 18:43:04.
