data_PCOD9115991
_publ_section_title
;
Structure prediction by ZEFSAII (Michael W. Deem and Ramdas Pophale) SiO2 
 PCOD9115991
Probable space group: P 21
;
_chemical_formula_sum "Si O2"
_cell_formula_units_Z 14
_cell_length_a 11.926007
_cell_length_b 7.632048
_cell_length_c 8.966066
_cell_angle_alpha 90.000000
_cell_angle_beta 53.866318
_cell_angle_gamma 90.000000
_cell_volume 659.109727
_symmetry_space_group_name_H-M "P 21"
_symmetry_group_IT_number 4
_symmetry_cell_setting 'monoclinic'
loop_
_space_group_symop_operation_xyz
x,y,z
-x,1/2+y,-z
loop_
_atom_site_type_symbol
_atom_site_label
_atom_site_fract_x
_atom_site_fract_y
_atom_site_fract_z
Si Si1 0.112028 0.583340 0.451897
Si Si2 0.420955 0.905075 0.696861
Si Si3 0.180578 0.969321 0.434703
Si Si4 0.272922 0.299249 0.522481
Si Si5 0.667344 0.986625 0.935358
Si Si6 0.633541 0.041448 0.309230
Si Si7 0.619264 0.581350 0.968481
O O1 0.142647 0.770357 0.502381
O O2 0.182170 0.428878 0.491634
O O3 0.190370 0.573528 0.230790
O O4 0.951400 0.548777 0.549447
O O5 0.563956 0.816900 0.649906
O O6 0.486874 0.020460 0.512907
O O7 0.330277 0.746531 0.703388
O O8 0.355335 0.009910 0.884685
O O9 0.219218 0.103960 0.536217
O O10 0.306554 0.969605 0.217946
O O11 0.273588 0.393034 0.683764
O O12 0.670929 0.778600 0.908785
O O13 0.632192 0.010536 0.135564
O O14 0.544474 0.070981 0.934619
#
# Coordination Sequence:
#
# PCOD9115991 Si02
#       7
#     2   2   2   2   2   2   2
#     4  12  23  43  70  94 128 174 225 279 326 391
#     4  10  21  39  60  98 131 174 213 272 332 390
#     4  12  23  41  72  94 129 170 225 277 329 386
#     4  10  23  43  60  98 130 169 219 264 334 392
#     4  12  22  39  63 101 130 171 222 276 332 392
#     4  10  22  37  62  92 140 165 219 261 342 396
#     4  12  22  38  65  99 132 167 227 279 325 387
#
# _framework density 21.240772
#
# number of rings (size 3 to 8) (size 9 to 14) (size 15 to 20)
#    0.857    0.000    4.286    4.286    0.000    1.143 
#    0.000    0.000    6.286    0.000    0.000    0.000 
#    0.000    0.000    0.000    0.000    0.000    0.000 
#
# Total GULP energy -78162.084505 kJ/mol
# GULP energy per Si atom -5583.006036 kJ/mol
# Density = 2.119243 g / cm^3
# Si number density = 21.240772 Si / 1000 Ang^3
#
#
#
# Elastic Constant Matrix: (Units=GPa)
#
#
# Indices 1 2 3 4 5 6 
#
# 1 56.2754 20.9740 11.2947 0.0000 -1.2717 0.0000
# 2 20.9740 137.4581 11.5309 0.0000 12.5658 0.0000
# 3 11.2947 11.5309 57.4549 0.0000 23.2947 0.0000
# 4 0.0000 0.0000 0.0000 33.7279 0.0000 4.2825
# 5 -1.2717 12.5658 23.2947 0.0000 35.9237 0.0000
# 6 0.0000 0.0000 0.0000 4.2825 0.0000 35.1089
#
#
#
# Elastic Compliance Matrix: (Units=1/GPa)
#
#
# Indices 1 2 3 4 5 6 
#
# 1 0.020156 -0.003104 -0.005520 0.000000 0.005379 0.000000
# 2 -0.003104 0.008009 0.000249 0.000000 -0.003072 0.000000
# 3 -0.005520 0.000249 0.025173 0.000000 -0.016606 0.000000
# 4 0.000000 0.000000 0.000000 0.030115 0.000000 -0.003673
# 5 0.005379 -0.003072 -0.016606 0.000000 0.039870 0.000000
# 6 0.000000 0.000000 0.000000 -0.003673 0.000000 0.028931
#
#
# Mechanical properties :
#
#
# Convention : Reuss Voigt Hill
#
# Bulk Modulus (GPa) = 27.33270 37.64306 32.48788
# Shear Modulus (GPa) = 27.59369 34.77803 31.18586
#
# Velocity S-wave (km/s) = 3.60820 4.05078 3.83588
# Velocity P-wave (km/s) = 5.50044 6.29595 5.91159
#
# Compressibility (1/GPa) = 0.03658621
#
# Stress axis : x y z
#
# Youngs Moduli (GPa) = 49.61261 124.86570 39.72522
#
# Poissons Ratio (x) = 0.38760 0.21929
# Poissons Ratio (y) = 0.15401 -0.00988
# Poissons Ratio (z) = 0.27387 -0.03105
#
# Static dielectric constant tensor:
#      x y z
#    x 1.763000 0.000000 0.034210 
#    y 0.000000 1.831350 0.000000 
#    z 0.034210 0.000000 1.780010 
# 
# From -- ./inp_files/7798.got.cif
#   From: 2010.05.17/outbox.cif.g08.bks.cpg/sg4_4_cif.got.tgz:7798.got - 2010.06.03 18:43:04.
