data_PCOD9115031
_publ_section_title
;
Structure prediction by ZEFSAII (Michael W. Deem and Ramdas Pophale) SiO2 
 PCOD9115031
Probable space group: P 21
;
_chemical_formula_sum "Si O2"
_cell_formula_units_Z 16
_cell_length_a 10.378762
_cell_length_b 8.472516
_cell_length_c 13.492720
_cell_angle_alpha 90.000000
_cell_angle_beta 146.634456
_cell_angle_gamma 90.000000
_cell_volume 652.534142
_symmetry_space_group_name_H-M "P 21"
_symmetry_group_IT_number 4
_symmetry_cell_setting 'monoclinic'
loop_
_space_group_symop_operation_xyz
x,y,z
-x,1/2+y,-z
loop_
_atom_site_type_symbol
_atom_site_label
_atom_site_fract_x
_atom_site_fract_y
_atom_site_fract_z
Si Si1 0.595582 0.788460 0.204216
Si Si2 0.755852 0.521491 0.808146
Si Si3 0.554599 0.478504 0.305192
Si Si4 0.731435 0.986311 0.465775
Si Si5 0.964632 0.315088 0.653779
Si Si6 0.165525 0.922531 0.840113
Si Si7 0.298816 0.226167 0.024127
Si Si8 0.866049 0.849486 0.834747
O O1 0.548482 0.648325 0.250886
O O2 0.829527 0.782165 0.291649
O O3 0.633183 0.945065 0.294694
O O4 0.365960 0.797513 0.988128
O O5 0.501856 0.450634 0.619655
O O6 0.834198 0.664230 0.788118
O O7 0.740939 0.634163 0.898069
O O8 0.932139 0.385254 0.953825
O O9 0.806392 0.458469 0.517158
O O10 0.359308 0.437112 0.263245
O O11 0.500737 0.350832 0.182187
O O12 0.791418 0.165484 0.532569
O O13 0.987587 0.905559 0.635617
O O14 0.082259 0.325072 0.837408
O O15 0.971653 0.924101 0.803290
O O16 0.305116 0.087020 0.945550
#
# Coordination Sequence:
#
# PCOD9115031 Si02
#       8
#     2   2   2   2   2   2   2   2
#     4  12  24  40  63  93 132 161 214 267 312 370
#     4  10  19  40  66  88 130 165 201 263 317 377
#     4  11  23  41  61  96 129 160 216 263 312 374
#     4  11  22  45  61  93 129 169 211 251 326 381
#     4  11  23  41  66  91 121 176 211 259 317 378
#     4  10  22  42  64  93 122 167 209 258 322 381
#     4   9  20  40  65  85 125 163 209 253 313 376
#     4  10  19  39  64  91 124 161 205 258 315 371
#
# _framework density 24.51979
#
# number of rings (size 3 to 8) (size 9 to 14) (size 15 to 20)
#    0.000    1.500    5.000    1.500    0.000    4.000 
#    6.750    0.000    0.000    0.000    0.000    0.000 
#    0.000    0.000    0.000    0.000    0.000    0.000 
#
# Total GULP energy -89187.056145 kJ/mol
# GULP energy per Si atom -5574.191009 kJ/mol
# Density = 2.446398 g / cm^3
# Si number density = 24.519790 Si / 1000 Ang^3
#
#
#
# Elastic Constant Matrix: (Units=GPa)
#
#
# Indices 1 2 3 4 5 6 
#
# 1 59.1154 8.7285 11.2931 0.0000 20.0079 0.0000
# 2 8.7285 27.1507 19.6646 0.0000 4.7852 0.0000
# 3 11.2931 19.6646 163.8381 0.0000 18.1933 0.0000
# 4 0.0000 0.0000 0.0000 44.2579 0.0000 4.8674
# 5 20.0079 4.7852 18.1933 0.0000 34.4353 0.0000
# 6 0.0000 0.0000 0.0000 4.8674 0.0000 25.3080
#
#
#
# Elastic Compliance Matrix: (Units=1/GPa)
#
#
# Indices 1 2 3 4 5 6 
#
# 1 0.021699 -0.005180 0.000474 0.000000 -0.012138 0.000000
# 2 -0.005180 0.041917 -0.004633 0.000000 -0.000368 0.000000
# 3 0.000474 -0.004633 0.006997 0.000000 -0.003328 0.000000
# 4 0.000000 0.000000 0.000000 0.023083 0.000000 -0.004439
# 5 -0.012138 -0.000368 -0.003328 0.000000 0.037902 0.000000
# 6 0.000000 0.000000 0.000000 -0.004439 0.000000 0.040367
#
#
# Mechanical properties :
#
#
# Convention : Reuss Voigt Hill
#
# Bulk Modulus (GPa) = 19.25511 36.60850 27.93181
# Shear Modulus (GPa) = 24.04381 34.82809 29.43595
#
# Velocity S-wave (km/s) = 3.13483 3.77292 3.46858
# Velocity P-wave (km/s) = 4.57961 5.82602 5.24000
#
# Compressibility (1/GPa) = 0.05193427
#
# Stress axis : x y z
#
# Youngs Moduli (GPa) = 46.08611 23.85657 142.92688
#
# Poissons Ratio (x) = 0.12357 -0.06773
# Poissons Ratio (y) = 0.23871 0.66222
# Poissons Ratio (z) = -0.02184 0.11053
#
# Static dielectric constant tensor:
#      x y z
#    x 2.038130 0.000000 -0.006980 
#    y 0.000000 2.024500 0.000000 
#    z -0.006980 0.000000 2.009260 
# 
# From -- ./inp_files/13973.got.cif
#   From: 2010.05.17/outbox.cif.g08.bks.cpg/sg4_7_cif.got.tgz:13973.got - 2010.06.03 18:43:04.
