data_PCOD9115387
_publ_section_title
;
Structure prediction by ZEFSAII (Michael W. Deem and Ramdas Pophale) SiO2 
 PCOD9115387
Probable space group: P 21
;
_chemical_formula_sum "Si O2"
_cell_formula_units_Z 16
_cell_length_a 8.256192
_cell_length_b 13.929510
_cell_length_c 9.682584
_cell_angle_alpha 90.000000
_cell_angle_beta 43.235605
_cell_angle_gamma 90.000000
_cell_volume 762.776757
_symmetry_space_group_name_H-M "P 21"
_symmetry_group_IT_number 4
_symmetry_cell_setting 'monoclinic'
loop_
_space_group_symop_operation_xyz
x,y,z
-x,1/2+y,-z
loop_
_atom_site_type_symbol
_atom_site_label
_atom_site_fract_x
_atom_site_fract_y
_atom_site_fract_z
Si Si1 0.785730 0.933390 0.295803
Si Si2 0.924088 0.530783 0.642736
Si Si3 0.863801 0.063461 0.784756
Si Si4 0.264505 0.931471 0.873473
Si Si5 0.565513 0.699717 0.890078
Si Si6 0.610429 0.567299 0.424087
Si Si7 0.484539 0.902493 0.042036
Si Si8 0.546119 0.763898 0.585550
O O1 0.741396 0.827990 0.385775
O O2 0.898200 0.994870 0.350741
O O3 0.547049 0.987058 0.400740
O O4 0.984609 0.934554 0.057507
O O5 0.763627 0.619383 0.795091
O O6 0.072699 0.559327 0.416644
O O7 0.732598 0.444927 0.732613
O O8 0.119479 0.070766 0.694936
O O9 0.713355 0.968909 0.915165
O O10 0.690776 0.149835 0.935863
O O11 0.377274 0.916973 0.953797
O O12 0.337925 0.840487 0.736089
O O13 0.372487 0.027357 0.741226
O O14 0.558731 0.791446 0.995068
O O15 0.608610 0.731323 0.703192
O O16 0.498118 0.669795 0.526257
#
# Coordination Sequence:
#
# PCOD9115387 Si02
#       8
#     2   2   2   2   2   2   2   2
#     4  10  23  42  64  85 123 162 200 246 300 363
#     4  10  20  38  62  88 115 157 200 247 295 357
#     4  11  22  35  64  91 121 153 196 258 298 351
#     4   9  21  40  64  84 119 163 200 244 298 355
#     4  10  21  37  62  93 113 158 209 242 300 355
#     4  11  23  36  62  94 120 154 200 250 300 363
#     4   9  21  40  62  84 119 157 203 245 295 363
#     4  10  21  38  62  91 114 160 206 238 296 367
#
# _framework density 20.975991
#
# number of rings (size 3 to 8) (size 9 to 14) (size 15 to 20)
#    0.000    2.000    1.250    2.250    7.000    1.000 
#    4.500    0.000   22.000    0.000    0.000    0.000 
#    0.000    0.000    0.000    0.000    0.000    0.000 
#
# Total GULP energy -89279.795297 kJ/mol
# GULP energy per Si atom -5579.987206 kJ/mol
# Density = 2.092825 g / cm^3
# Si number density = 20.975991 Si / 1000 Ang^3
#
#
#
# Elastic Constant Matrix: (Units=GPa)
#
#
# Indices 1 2 3 4 5 6 
#
# 1 23.8260 17.7052 14.8471 0.0000 -11.1878 0.0000
# 2 17.7052 57.9836 -23.1580 0.0000 38.4287 0.0000
# 3 14.8471 -23.1580 56.9777 0.0000 22.2898 0.0000
# 4 0.0000 0.0000 0.0000 24.2900 0.0000 3.5670
# 5 -11.1878 38.4287 22.2898 0.0000 2.8010 0.0000
# 6 0.0000 0.0000 0.0000 3.5670 0.0000 27.3715
#
#
#
# Elastic Compliance Matrix: (Units=1/GPa)
#
#
# Indices 1 2 3 4 5 6 
#
# 1 0.025487 0.006682 0.003733 0.000000 -0.019576 0.000000
# 2 0.006682 0.004080 -0.005382 0.000000 0.013545 0.000000
# 3 0.003733 -0.005382 0.009619 0.000000 0.012197 0.000000
# 4 0.000000 0.000000 0.000000 0.041973 0.000000 -0.005470
# 5 -0.019576 0.013545 0.012197 0.000000 -0.004068 0.000000
# 6 0.000000 0.000000 0.000000 -0.005470 0.000000 0.037247
#
#
# Mechanical properties :
#
#
# Convention : Reuss Voigt Hill
#
# Bulk Modulus (GPa) = 20.30376 17.50844 18.90610
# Shear Modulus (GPa) = 41.42844 19.51869 30.47356
#
# Velocity S-wave (km/s) = 4.44896 3.05376 3.81567
# Velocity P-wave (km/s) = 6.00763 4.56059 5.33341
#
# Compressibility (1/GPa) = 0.04925196
#
# Stress axis : x y z
#
# Youngs Moduli (GPa) = 39.23500 245.11567 103.95954
#
# Poissons Ratio (x) = -1.63789 -0.38803
# Poissons Ratio (y) = -0.26217 0.55949
# Poissons Ratio (z) = -0.14645 1.31915
#
# Static dielectric constant tensor:
#      x y z
#    x 1.773060 0.000000 0.018220 
#    y 0.000000 1.763600 0.000000 
#    z 0.018220 0.000000 1.774130 
# 
# From -- ./inp_files/11336.got.cif
#   From: 2010.05.17/outbox.cif.g08.bks.cpg/sg4_6_cif.got.tgz:11336.got - 2010.06.03 18:43:04.
