data_PCOD9115502
_publ_section_title
;
Structure prediction by ZEFSAII (Michael W. Deem and Ramdas Pophale) SiO2 
 PCOD9115502
Probable space group: P 21
;
_chemical_formula_sum "Si O2"
_cell_formula_units_Z 14
_cell_length_a 4.954781
_cell_length_b 8.246644
_cell_length_c 17.071926
_cell_angle_alpha 90.000000
_cell_angle_beta 112.004760
_cell_angle_gamma 90.000000
_cell_volume 646.748621
_symmetry_space_group_name_H-M "P 21"
_symmetry_group_IT_number 4
_symmetry_cell_setting 'monoclinic'
loop_
_space_group_symop_operation_xyz
x,y,z
-x,1/2+y,-z
loop_
_atom_site_type_symbol
_atom_site_label
_atom_site_fract_x
_atom_site_fract_y
_atom_site_fract_z
Si Si1 0.507008 0.352510 0.568818
Si Si2 0.136512 0.162769 0.422918
Si Si3 0.823160 0.961651 0.823240
Si Si4 0.755883 0.217342 0.934886
Si Si5 0.939935 0.655644 0.407214
Si Si6 0.303245 0.031791 0.992808
Si Si7 0.211624 0.874150 0.720728
O O1 0.333134 0.319662 0.468266
O O2 0.657740 0.523780 0.586832
O O3 0.278707 0.308643 0.611051
O O4 0.759492 0.216163 0.595901
O O5 0.021068 0.111416 0.496432
O O6 0.897676 0.215078 0.335260
O O7 0.727596 0.140744 0.844468
O O8 0.528081 0.859392 0.793676
O O9 0.090461 0.929458 0.911507
O O10 0.971522 0.936314 0.756037
O O11 0.571988 0.101330 0.973296
O O12 0.096407 0.184096 0.991057
O O13 0.647771 0.400746 0.933929
O O14 0.782076 0.512854 0.344781
#
# Coordination Sequence:
#
# PCOD9115502 Si02
#       7
#     2   2   2   2   2   2   2
#     4  10  22  37  57  87 114 144 234 249 310 354
#     4  10  24  36  64  87 115 167 214 268 301 367
#     4  10  23  39  62  99 118 164 201 241 323 375
#     4  10  20  39  67  97 125 156 202 249 284 389
#     4  10  23  37  59  88 112 166 212 261 299 371
#     4  10  20  39  68  96 123 159 204 242 296 373
#     4  12  22  39  65  82 131 160 205 262 313 355
#
# _framework density 21.646740000000001
#
# number of rings (size 3 to 8) (size 9 to 14) (size 15 to 20)
#    1.714    0.000    1.429    3.429    6.000    0.000 
#    0.000    0.000   12.571    0.000    0.000    0.000 
#    0.000    0.000    0.000    0.000    0.000    0.000 
#
# Total GULP energy -78003.351980 kJ/mol
# GULP energy per Si atom -5571.667999 kJ/mol
# Density = 2.159747 g / cm^3
# Si number density = 21.646740 Si / 1000 Ang^3
#
#
#
# Elastic Constant Matrix: (Units=GPa)
#
#
# Indices 1 2 3 4 5 6 
#
# 1 98.7592 -8.0779 -2.0104 0.0000 -6.1866 0.0000
# 2 -8.0779 40.7706 -9.7430 0.0000 -7.5318 0.0000
# 3 -2.0104 -9.7430 11.4315 0.0000 -0.3660 0.0000
# 4 0.0000 0.0000 0.0000 17.7594 0.0000 1.5885
# 5 -6.1866 -7.5318 -0.3660 0.0000 35.9733 0.0000
# 6 0.0000 0.0000 0.0000 1.5885 0.0000 27.2816
#
#
#
# Elastic Compliance Matrix: (Units=1/GPa)
#
#
# Indices 1 2 3 4 5 6 
#
# 1 0.010721 0.003888 0.005286 0.000000 0.002712 0.000000
# 2 0.003888 0.033924 0.029856 0.000000 0.008075 0.000000
# 3 0.005286 0.029856 0.114120 0.000000 0.008321 0.000000
# 4 0.000000 0.000000 0.000000 0.056603 0.000000 -0.003296
# 5 0.002712 0.008075 0.008321 0.000000 0.030040 0.000000
# 6 0.000000 0.000000 0.000000 -0.003296 0.000000 0.036847
#
#
# Mechanical properties :
#
#
# Convention : Reuss Voigt Hill
#
# Bulk Modulus (GPa) = 4.22249 12.36651 8.29450
# Shear Modulus (GPa) = 17.65938 27.58903 22.62420
#
# Velocity S-wave (km/s) = 2.85932 3.57390 3.23639
# Velocity P-wave (km/s) = 3.58550 4.77029 4.21968
#
# Compressibility (1/GPa) = 0.23682698
#
# Stress axis : x y z
#
# Youngs Moduli (GPa) = 93.27337 29.47727 8.76273
#
# Poissons Ratio (x) = -0.11462 -0.04632
# Poissons Ratio (y) = -0.36269 -0.26162
# Poissons Ratio (z) = -0.49308 -0.88007
#
# Static dielectric constant tensor:
#      x y z
#    x 1.801310 0.000000 0.010300 
#    y 0.000000 1.820710 0.000000 
#    z 0.010300 0.000000 1.833380 
# 
# From -- ./inp_files/14683.got.cif
#   From: 2010.05.17/outbox.cif.g08.bks.cpg/sg4_8_cif.got.tgz:14683.got - 2010.06.03 18:43:04.
