data_PCOD9115288
_publ_section_title
;
Structure prediction by ZEFSAII (Michael W. Deem and Ramdas Pophale) SiO2 
 PCOD9115288
Probable space group: P 21
;
_chemical_formula_sum "Si O2"
_cell_formula_units_Z 16
_cell_length_a 11.083840
_cell_length_b 5.424764
_cell_length_c 13.515294
_cell_angle_alpha 90.000000
_cell_angle_beta 88.687554
_cell_angle_gamma 90.000000
_cell_volume 812.423815
_symmetry_space_group_name_H-M "P 21"
_symmetry_group_IT_number 4
_symmetry_cell_setting 'monoclinic'
loop_
_space_group_symop_operation_xyz
x,y,z
-x,1/2+y,-z
loop_
_atom_site_type_symbol
_atom_site_label
_atom_site_fract_x
_atom_site_fract_y
_atom_site_fract_z
Si Si1 0.744710 0.875000 0.386997
Si Si2 0.386120 0.693378 0.125251
Si Si3 0.000983 0.032785 0.435166
Si Si4 0.575160 0.211912 0.490441
Si Si5 0.665720 0.684595 0.184442
Si Si6 0.639428 0.186515 0.106709
Si Si7 0.624389 0.695200 0.791702
Si Si8 0.266323 0.062774 0.408375
O O1 0.702816 0.709746 0.297041
O O2 0.738413 0.719906 0.489627
O O3 0.880356 0.974973 0.376579
O O4 0.651795 0.103360 0.398122
O O5 0.520363 0.686658 0.170661
O O6 0.324325 0.443393 0.162089
O O7 0.324899 0.942582 0.163554
O O8 0.398562 0.695553 0.006991
O O9 0.014875 0.796729 0.509278
O O10 0.128405 0.044083 0.376661
O O11 0.504133 0.471809 0.477382
O O12 0.674740 0.297425 0.568775
O O13 0.709188 0.432547 0.134979
O O14 0.706794 0.933980 0.129442
O O15 0.516455 0.188347 0.174203
O O16 0.649589 0.685933 0.675207
#
# Coordination Sequence:
#
# PCOD9115288 Si02
#       8
#     2   2   2   2   2   2   2   2
#     4  11  25  41  60  88 126 169 215 256 304 363
#     4  10  20  37  55  82 121 160 194 240 309 382
#     4  10  22  42  64  78 114 174 224 258 294 342
#     4  12  26  36  56  82 132 166 198 250 322 364
#     4  10  21  31  57  82 113 155 197 242 299 356
#     4  10  20  37  55  82 121 160 194 240 309 382
#     4  10  21  31  57  82 113 155 197 242 299 356
#     4  11  25  41  60  88 126 169 215 256 304 363
#
# _framework density 19.694154999999999
#
# number of rings (size 3 to 8) (size 9 to 14) (size 15 to 20)
#    0.000    1.500    2.500    3.750    7.000    2.000 
#    0.000    0.000    0.000    0.000    0.000    5.250 
#    0.000    0.000    0.000    0.000    0.000    0.000 
#
# Total GULP energy -89236.608662 kJ/mol
# GULP energy per Si atom -5577.288041 kJ/mol
# Density = 1.964933 g / cm^3
# Si number density = 19.694155 Si / 1000 Ang^3
#
#
#
# Elastic Constant Matrix: (Units=GPa)
#
#
# Indices 1 2 3 4 5 6 
#
# 1 47.5613 -0.8941 4.0983 0.0000 1.7367 0.0000
# 2 -0.8941 162.8164 16.6664 0.0000 0.3130 0.0000
# 3 4.0983 16.6664 89.1373 0.0000 15.0456 0.0000
# 4 0.0000 0.0000 0.0000 29.7197 0.0000 5.8388
# 5 1.7367 0.3130 15.0456 0.0000 7.2700 0.0000
# 6 0.0000 0.0000 0.0000 5.8388 0.0000 16.2362
#
#
#
# Elastic Compliance Matrix: (Units=1/GPa)
#
#
# Indices 1 2 3 4 5 6 
#
# 1 0.021216 0.000148 -0.000225 0.000000 -0.004608 0.000000
# 2 0.000148 0.006315 -0.001745 0.000000 0.003305 0.000000
# 3 -0.000225 -0.001745 0.017726 0.000000 -0.036555 0.000000
# 4 0.000000 0.000000 0.000000 0.036206 0.000000 -0.013020
# 5 -0.004608 0.003305 -0.036555 0.000000 0.214163 0.000000
# 6 0.000000 0.000000 0.000000 -0.013020 0.000000 0.066273
#
#
# Mechanical properties :
#
#
# Convention : Reuss Voigt Hill
#
# Bulk Modulus (GPa) = 24.03161 37.69512 30.86336
# Shear Modulus (GPa) = 13.17824 29.28812 21.23318
#
# Velocity S-wave (km/s) = 2.58959 3.86054 3.28708
# Velocity P-wave (km/s) = 4.60111 6.24928 5.48743
#
# Compressibility (1/GPa) = 0.04161187
#
# Stress axis : x y z
#
# Youngs Moduli (GPa) = 47.13423 158.35273 56.41580
#
# Poissons Ratio (x) = -0.02351 0.01271
# Poissons Ratio (y) = -0.00700 0.09847
# Poissons Ratio (z) = 0.01062 0.27639
#
# Static dielectric constant tensor:
#      x y z
#    x 1.703020 0.000000 0.018890 
#    y 0.000000 1.831270 0.000000 
#    z 0.018890 0.000000 1.714830 
# 
# From -- ./inp_files/11688.got.cif
#   From: 2010.05.17/outbox.cif.g08.bks.cpg/sg4_6_cif.got.tgz:11688.got - 2010.06.03 18:43:04.
