data_PCOD9115767
_publ_section_title
;
Structure prediction by ZEFSAII (Michael W. Deem and Ramdas Pophale) SiO2 
 PCOD9115767
Probable space group: P 21
;
_chemical_formula_sum "Si O2"
_cell_formula_units_Z 16
_cell_length_a 8.163237
_cell_length_b 5.847513
_cell_length_c 17.754289
_cell_angle_alpha 90.000000
_cell_angle_beta 119.921372
_cell_angle_gamma 90.000000
_cell_volume 734.532587
_symmetry_space_group_name_H-M "P 21"
_symmetry_group_IT_number 4
_symmetry_cell_setting 'monoclinic'
loop_
_space_group_symop_operation_xyz
x,y,z
-x,1/2+y,-z
loop_
_atom_site_type_symbol
_atom_site_label
_atom_site_fract_x
_atom_site_fract_y
_atom_site_fract_z
Si Si1 0.017094 0.752210 0.379202
Si Si2 0.332901 0.975608 0.213856
Si Si3 0.392462 0.751516 0.384906
Si Si4 0.468140 0.492481 0.032282
Si Si5 0.970811 0.978119 0.031660
Si Si6 0.796589 0.981197 0.466633
Si Si7 0.451449 0.869019 0.656880
Si Si8 0.351650 0.169347 0.777079
O O1 0.866805 0.746830 0.276564
O O2 0.224805 0.832072 0.400130
O O3 0.072370 0.511178 0.430811
O O4 0.914705 0.883842 0.423848
O O5 0.326874 0.819236 0.286111
O O6 0.491773 0.870608 0.194151
O O7 0.410575 0.212388 0.262711
O O8 0.129597 0.993007 0.131676
O O9 0.431181 0.482867 0.384010
O O10 0.603182 0.850261 0.442766
O O11 0.589896 0.521657 0.137256
O O12 0.491589 0.741201 0.995464
O O13 0.246556 0.481062 0.996788
O O14 0.997959 0.221631 0.994733
O O15 0.713454 0.220747 0.417474
O O16 0.369749 0.040383 0.700757
#
# Coordination Sequence:
#
# PCOD9115767 Si02
#       8
#     2   2   2   2   2   2   2   2
#     4  12  25  44  74  97 144 189 236 292 372 432
#     4  10  22  44  72  99 139 183 243 304 358 449
#     4  10  25  44  65 105 137 185 238 304 349 446
#     4  12  29  47  71 109 157 188 247 322 370 447
#     4  12  25  45  76 107 139 205 250 298 388 452
#     4  11  25  45  65 106 140 187 239 292 362 438
#     4  10  20  46  72  93 144 177 239 303 357 426
#     4  11  23  47  69 102 140 190 234 299 372 436
#
# _framework density 21.782558999999999
#
# number of rings (size 3 to 8) (size 9 to 14) (size 15 to 20)
#    0.000    1.000    5.000    2.250    7.000    1.000 
#    6.750    0.000    0.000    0.000    0.000    0.000 
#    0.000    0.000    0.000    0.000    0.000    0.000 
#
# Total GULP energy -89199.960086 kJ/mol
# GULP energy per Si atom -5574.997505 kJ/mol
# Density = 2.173298 g / cm^3
# Si number density = 21.782559 Si / 1000 Ang^3
#
#
#
# Elastic Constant Matrix: (Units=GPa)
#
#
# Indices 1 2 3 4 5 6 
#
# 1 164.8684 44.8076 31.0247 0.0000 19.0467 0.0000
# 2 44.8076 80.2035 7.4358 0.0000 -0.9253 0.0000
# 3 31.0247 7.4358 97.5386 0.0000 26.0560 0.0000
# 4 0.0000 0.0000 0.0000 10.8630 0.0000 -9.6284
# 5 19.0467 -0.9253 26.0560 0.0000 37.4553 0.0000
# 6 0.0000 0.0000 0.0000 -9.6284 0.0000 24.5338
#
#
#
# Elastic Compliance Matrix: (Units=1/GPa)
#
#
# Indices 1 2 3 4 5 6 
#
# 1 0.007850 -0.004300 -0.001320 0.000000 -0.003180 0.000000
# 2 -0.004300 0.014956 -0.000559 0.000000 0.002945 0.000000
# 3 -0.001320 -0.000559 0.012945 0.000000 -0.008348 0.000000
# 4 0.000000 0.000000 0.000000 0.141158 0.000000 0.055398
# 5 -0.003180 0.002945 -0.008348 0.000000 0.034196 0.000000
# 6 0.000000 0.000000 0.000000 0.055398 0.000000 0.062501
#
#
# Mechanical properties :
#
#
# Convention : Reuss Voigt Hill
#
# Bulk Modulus (GPa) = 42.74674 56.57187 49.65931
# Shear Modulus (GPa) = 17.02062 31.85990 24.44026
#
# Velocity S-wave (km/s) = 2.79836 3.82859 3.35328
# Velocity P-wave (km/s) = 5.48708 6.75068 6.15141
#
# Compressibility (1/GPa) = 0.02339360
#
# Stress axis : x y z
#
# Youngs Moduli (GPa) = 127.39321 66.86149 77.25162
#
# Poissons Ratio (x) = 0.28749 0.10194
# Poissons Ratio (y) = 0.54776 0.04320
# Poissons Ratio (z) = 0.16810 0.03739
#
# Static dielectric constant tensor:
#      x y z
#    x 1.822730 0.000000 -0.024810 
#    y 0.000000 1.958600 0.000000 
#    z -0.024810 0.000000 1.804120 
# 
# From -- ./inp_files/14806.got.cif
#   From: 2010.05.17/outbox.cif.g08.bks.cpg/sg4_8_cif.got.tgz:14806.got - 2010.06.03 18:43:04.
