data_PCOD9115392
_publ_section_title
;
Structure prediction by ZEFSAII (Michael W. Deem and Ramdas Pophale) SiO2 
 PCOD9115392
Probable space group: P 21
;
_chemical_formula_sum "Si O2"
_cell_formula_units_Z 14
_cell_length_a 5.280844
_cell_length_b 10.601907
_cell_length_c 10.935333
_cell_angle_alpha 90.000000
_cell_angle_beta 62.900351
_cell_angle_gamma 90.000000
_cell_volume 545.022635
_symmetry_space_group_name_H-M "P 21"
_symmetry_group_IT_number 4
_symmetry_cell_setting 'monoclinic'
loop_
_space_group_symop_operation_xyz
x,y,z
-x,1/2+y,-z
loop_
_atom_site_type_symbol
_atom_site_label
_atom_site_fract_x
_atom_site_fract_y
_atom_site_fract_z
Si Si1 0.977116 0.513890 0.638361
Si Si2 0.619178 0.098565 0.256327
Si Si3 0.359957 0.324348 0.443052
Si Si4 0.632173 0.223874 0.871163
Si Si5 0.377698 0.012320 0.801472
Si Si6 0.015452 0.803382 0.975655
Si Si7 0.355888 0.715644 0.406536
O O1 0.160603 0.511077 0.721961
O O2 0.071259 0.397892 0.532676
O O3 0.122482 0.633345 0.531961
O O4 0.647689 0.530238 0.747385
O O5 0.432815 0.180835 0.393987
O O6 0.815780 0.197678 0.141074
O O7 0.466372 0.399278 0.301419
O O8 0.537377 0.327768 0.530490
O O9 0.733983 0.248485 0.711419
O O10 0.553628 0.074657 0.873941
O O11 0.855341 0.271356 0.920058
O O12 0.320228 0.283384 0.960657
O O13 0.099537 0.944292 0.914267
O O14 0.381422 0.119808 0.693579
#
# Coordination Sequence:
#
# PCOD9115392 Si02
#       7
#     2   2   2   2   2   2   2
#     4  10  20  38  62  94 125 157 205 274 320 374
#     4  10  22  38  62  89 123 165 216 254 311 387
#     4   9  18  40  67  90 127 163 207 265 338 364
#     4  10  23  41  65  94 129 165 221 255 305 392
#     4   8  20  42  65  96 126 174 206 270 317 373
#     4  11  22  44  64  87 128 180 207 257 312 371
#     4   8  19  41  61  98 124 160 212 265 315 387
#
# _framework density 25.687007999999999
#
# number of rings (size 3 to 8) (size 9 to 14) (size 15 to 20)
#    0.857    1.714    0.000    0.857    0.000    5.714 
#    7.714    8.571    0.000    0.000    0.000    0.000 
#    0.000    0.000    0.000    0.000    0.000    0.000 
#
# Total GULP energy -78010.399350 kJ/mol
# GULP energy per Si atom -5572.171382 kJ/mol
# Density = 2.562854 g / cm^3
# Si number density = 25.687008 Si / 1000 Ang^3
#
#
#
# Elastic Constant Matrix: (Units=GPa)
#
#
# Indices 1 2 3 4 5 6 
#
# 1 104.9754 14.5416 20.4119 0.0000 -10.9168 0.0000
# 2 14.5416 39.0791 23.4462 0.0000 -8.2949 0.0000
# 3 20.4119 23.4462 59.4772 0.0000 -12.0718 0.0000
# 4 0.0000 0.0000 0.0000 -107.4410 0.0000 -72.2712
# 5 -10.9168 -8.2949 -12.0718 0.0000 21.7077 0.0000
# 6 0.0000 0.0000 0.0000 -72.2712 0.0000 -14.3364
#
#
#
# Elastic Compliance Matrix: (Units=1/GPa)
#
#
# Indices 1 2 3 4 5 6 
#
# 1 0.010566 -0.001901 -0.002193 0.000000 0.003368 0.000000
# 2 -0.001901 0.034604 -0.011835 0.000000 0.005685 0.000000
# 3 -0.002193 -0.011835 0.023773 0.000000 0.007595 0.000000
# 4 0.000000 0.000000 0.000000 0.003893 0.000000 -0.019624
# 5 0.003368 0.005685 0.007595 0.000000 0.054156 0.000000
# 6 0.000000 0.000000 0.000000 -0.019624 0.000000 0.029174
#
#
# Mechanical properties :
#
#
# Convention : Reuss Voigt Hill
#
# Bulk Modulus (GPa) = 26.96535 35.59235 31.27885
# Shear Modulus (GPa) = 24.95203 -10.33848 7.30678
#
# Velocity S-wave (km/s) = 3.12009 -2.00836 1.68841
# Velocity P-wave (km/s) = 4.84772 2.91688 4.00054
#
# Compressibility (1/GPa) = 0.03708463
#
# Stress axis : x y z
#
# Youngs Moduli (GPa) = 94.64265 28.89863 42.06522
#
# Poissons Ratio (x) = 0.05494 0.09226
# Poissons Ratio (y) = 0.17992 0.49783
# Poissons Ratio (z) = 0.20758 0.34200
#
# Static dielectric constant tensor:
#      x y z
#    x 2.328990 0.000000 0.193430 
#    y 0.000000 2.132190 0.000000 
#    z 0.193430 0.000000 2.199660 
# 
# From -- ./inp_files/10491.got.cif
#   From: 2010.05.17/outbox.cif.g08.bks.cpg/sg4_6_cif.got.tgz:10491.got - 2010.06.03 18:43:04.
