data_PCOD9115833
_publ_section_title
;
Structure prediction by ZEFSAII (Michael W. Deem and Ramdas Pophale) SiO2 
 PCOD9115833
Probable space group: P 21
;
_chemical_formula_sum "Si O2"
_cell_formula_units_Z 14
_cell_length_a 8.814270
_cell_length_b 12.354803
_cell_length_c 9.220058
_cell_angle_alpha 90.000000
_cell_angle_beta 51.758904
_cell_angle_gamma 90.000000
_cell_volume 788.594939
_symmetry_space_group_name_H-M "P 21"
_symmetry_group_IT_number 4
_symmetry_cell_setting 'monoclinic'
loop_
_space_group_symop_operation_xyz
x,y,z
-x,1/2+y,-z
loop_
_atom_site_type_symbol
_atom_site_label
_atom_site_fract_x
_atom_site_fract_y
_atom_site_fract_z
Si Si1 0.171451 0.803880 0.046448
Si Si2 0.396142 0.934116 0.149564
Si Si3 0.734122 0.083578 0.837392
Si Si4 0.174810 0.039388 0.540703
Si Si5 0.263802 0.257570 0.640955
Si Si6 0.437839 0.719635 0.313062
Si Si7 0.667268 0.345279 0.365380
O O1 0.233395 0.816894 0.843765
O O2 0.279300 0.893610 0.078925
O O3 0.233803 0.687270 0.076053
O O4 0.940850 0.810441 0.203617
O O5 0.453282 0.826967 0.205700
O O6 0.260670 0.003378 0.336383
O O7 0.584251 0.001123 0.995950
O O8 0.644309 0.127331 0.740107
O O9 0.943728 0.033112 0.684661
O O10 0.233136 0.162101 0.543849
O O11 0.263354 0.957890 0.607989
O O12 0.357179 0.202576 0.729744
O O13 0.433346 0.338862 0.490248
O O14 0.298973 0.753968 0.529513
#
# Coordination Sequence:
#
# PCOD9115833 Si02
#       7
#     2   2   2   2   2   2   2
#     4  10  21  37  59  85 112 151 187 230 290 325
#     4  10  21  38  57  84 115 147 190 230 280 341
#     4  10  21  39  57  83 117 149 188 234 276 345
#     4  10  21  37  58  83 113 154 188 229 287 332
#     4   9  20  39  59  79 119 143 190 238 271 336
#     4   8  20  40  55  81 118 144 182 238 280 321
#     4   9  20  36  59  83 112 146 189 233 280 332
#
# _framework density 17.753094000000001
#
# number of rings (size 3 to 8) (size 9 to 14) (size 15 to 20)
#    0.857    1.714    0.000    0.857    4.000    1.143 
#    2.571    2.857    0.000    0.000    0.000    0.000 
#    0.000    0.000    0.000    0.000    0.000    0.000 
#
# Total GULP energy -77984.990291 kJ/mol
# GULP energy per Si atom -5570.356449 kJ/mol
# Density = 1.771269 g / cm^3
# Si number density = 17.753094 Si / 1000 Ang^3
#
#
#
# Elastic Constant Matrix: (Units=GPa)
#
#
# Indices 1 2 3 4 5 6 
#
# 1 74.5500 42.7092 49.3886 0.0000 -21.0439 0.0000
# 2 42.7092 45.6509 52.7288 0.0000 -16.2769 0.0000
# 3 49.3886 52.7288 113.6960 0.0000 -12.6123 0.0000
# 4 0.0000 0.0000 0.0000 14.2711 0.0000 -8.1241
# 5 -21.0439 -16.2769 -12.6123 0.0000 39.8362 0.0000
# 6 0.0000 0.0000 0.0000 -8.1241 0.0000 25.5265
#
#
#
# Elastic Compliance Matrix: (Units=1/GPa)
#
#
# Indices 1 2 3 4 5 6 
#
# 1 0.029784 -0.025266 -0.000643 0.000000 0.005207 0.000000
# 2 -0.025266 0.075876 -0.023065 0.000000 0.010353 0.000000
# 3 -0.000643 -0.023065 0.019369 0.000000 -0.003632 0.000000
# 4 0.000000 0.000000 0.000000 0.085576 0.000000 0.027236
# 5 0.005207 0.010353 -0.003632 0.000000 0.030934 0.000000
# 6 0.000000 0.000000 0.000000 0.027236 0.000000 0.047843
#
#
# Mechanical properties :
#
#
# Convention : Reuss Voigt Hill
#
# Bulk Modulus (GPa) = 36.92654 58.17224 47.54939
# Shear Modulus (GPa) = 12.61491 21.86478 17.23985
#
# Velocity S-wave (km/s) = 2.66855 3.51323 3.11961
# Velocity P-wave (km/s) = 5.50819 7.02108 6.31014
#
# Compressibility (1/GPa) = 0.02708079
#
# Stress axis : x y z
#
# Youngs Moduli (GPa) = 33.57499 13.17945 51.62975
#
# Poissons Ratio (x) = 0.33299 0.03319
# Poissons Ratio (y) = 0.84830 1.19085
# Poissons Ratio (z) = 0.02158 0.30399
#
# Static dielectric constant tensor:
#      x y z
#    x 1.610120 0.000000 0.012960 
#    y 0.000000 1.599080 0.000000 
#    z 0.012960 0.000000 1.577840 
# 
# From -- ./inp_files/6176.got.cif
#   From: 2010.05.17/outbox.cif.g08.bks.cpg/sg4_4_cif.got.tgz:6176.got - 2010.06.03 18:43:04.
