data_PCOD9115483
_publ_section_title
;
Structure prediction by ZEFSAII (Michael W. Deem and Ramdas Pophale) SiO2 
 PCOD9115483
Probable space group: P 21
;
_chemical_formula_sum "Si O2"
_cell_formula_units_Z 12
_cell_length_a 8.012423
_cell_length_b 7.909301
_cell_length_c 10.090889
_cell_angle_alpha 90.000000
_cell_angle_beta 46.685448
_cell_angle_gamma 90.000000
_cell_volume 465.289472
_symmetry_space_group_name_H-M "P 21"
_symmetry_group_IT_number 4
_symmetry_cell_setting 'monoclinic'
loop_
_space_group_symop_operation_xyz
x,y,z
-x,1/2+y,-z
loop_
_atom_site_type_symbol
_atom_site_label
_atom_site_fract_x
_atom_site_fract_y
_atom_site_fract_z
Si Si1 0.543692 0.787100 0.263451
Si Si2 0.618593 0.777136 0.497276
Si Si3 0.664219 0.117890 0.881999
Si Si4 0.791710 0.072889 0.232996
Si Si5 0.900701 0.503477 0.477346
Si Si6 0.188660 0.982862 0.176073
O O1 0.643977 0.691547 0.336366
O O2 0.458229 0.680823 0.187503
O O3 0.724293 0.944060 0.150693
O O4 0.302610 0.872913 0.443760
O O5 0.689929 0.962902 0.413154
O O6 0.364759 0.738007 0.690048
O O7 0.791827 0.684496 0.500021
O O8 0.777235 0.286089 0.882277
O O9 0.864385 0.988977 0.731701
O O10 0.444223 0.043934 0.073075
O O11 0.054777 0.081508 0.132798
O O12 0.936890 0.498520 0.614467
#
# Coordination Sequence:
#
# PCOD9115483 Si02
#       6
#     2   2   2   2   2   2
#     4   8  19  36  62  86 117 161 203 249 297 360
#     4   9  17  36  63  86 117 157 202 251 299 357
#     4  11  22  41  60  92 128 158 207 250 306 366
#     4   9  18  37  59  88 117 153 207 246 300 360
#     4  10  20  39  65  85 123 161 203 253 299 363
#     4  11  24  39  63  93 124 162 204 251 309 364
#
# _framework density 25.790398
#
# number of rings (size 3 to 8) (size 9 to 14) (size 15 to 20)
#    1.000    1.333    1.667    1.000    0.000    4.000 
#    3.000   10.000    0.000    0.000    0.000    0.000 
#    0.000    0.000    0.000    0.000    0.000    0.000 
#
# Total GULP energy -66899.381626 kJ/mol
# GULP energy per Si atom -5574.948469 kJ/mol
# Density = 2.573170 g / cm^3
# Si number density = 25.790398 Si / 1000 Ang^3
#
#
#
# Elastic Constant Matrix: (Units=GPa)
#
#
# Indices 1 2 3 4 5 6 
#
# 1 124.1202 -6.0227 15.2768 0.0000 -21.0959 0.0000
# 2 -6.0227 44.9027 8.2990 0.0000 -4.8479 0.0000
# 3 15.2768 8.2990 55.6837 0.0000 -25.5665 0.0000
# 4 0.0000 0.0000 0.0000 24.6735 0.0000 -5.9817
# 5 -21.0959 -4.8479 -25.5665 0.0000 39.4161 0.0000
# 6 0.0000 0.0000 0.0000 -5.9817 0.0000 22.3218
#
#
#
# Elastic Compliance Matrix: (Units=1/GPa)
#
#
# Indices 1 2 3 4 5 6 
#
# 1 0.009011 0.001823 -0.000608 0.000000 0.004653 0.000000
# 2 0.001823 0.023291 -0.003145 0.000000 0.001801 0.000000
# 3 -0.000608 -0.003145 0.026014 0.000000 0.016162 0.000000
# 4 0.000000 0.000000 0.000000 0.043345 0.000000 0.011615
# 5 0.004653 0.001801 0.016162 0.000000 0.038565 0.000000
# 6 0.000000 0.000000 0.000000 0.011615 0.000000 0.047912
#
#
# Mechanical properties :
#
#
# Convention : Reuss Voigt Hill
#
# Bulk Modulus (GPa) = 18.36283 28.86809 23.61546
# Shear Modulus (GPa) = 23.79269 31.09251 27.44260
#
# Velocity S-wave (km/s) = 3.04063 3.47592 3.26554
# Velocity P-wave (km/s) = 4.41166 5.22752 4.83682
#
# Compressibility (1/GPa) = 0.05445783
#
# Stress axis : x y z
#
# Youngs Moduli (GPa) = 110.97840 42.93590 38.44022
#
# Poissons Ratio (x) = -0.07828 0.02335
# Poissons Ratio (y) = -0.20234 0.12088
# Poissons Ratio (z) = 0.06742 0.13502
#
# Static dielectric constant tensor:
#      x y z
#    x 2.033150 0.000000 -0.014610 
#    y 0.000000 2.095620 0.000000 
#    z -0.014610 0.000000 2.087880 
# 
# From -- ./inp_files/4585.got.cif
#   From: 2010.05.17/outbox.cif.g08.bks.cpg/sg4_3_cif.got.tgz:4585.got - 2010.06.03 18:43:04.
