data_PCOD9115129
_publ_section_title
;
Structure prediction by ZEFSAII (Michael W. Deem and Ramdas Pophale) SiO2 
 PCOD9115129
Probable space group: P 21
;
_chemical_formula_sum "Si O2"
_cell_formula_units_Z 16
_cell_length_a 10.142034
_cell_length_b 8.519495
_cell_length_c 11.064818
_cell_angle_alpha 90.000000
_cell_angle_beta 113.104556
_cell_angle_gamma 90.000000
_cell_volume 879.370744
_symmetry_space_group_name_H-M "P 21"
_symmetry_group_IT_number 4
_symmetry_cell_setting 'monoclinic'
loop_
_space_group_symop_operation_xyz
x,y,z
-x,1/2+y,-z
loop_
_atom_site_type_symbol
_atom_site_label
_atom_site_fract_x
_atom_site_fract_y
_atom_site_fract_z
Si Si1 0.135787 0.347620 0.249215
Si Si2 0.316275 0.226227 0.520083
Si Si3 0.258451 0.680735 0.223590
Si Si4 0.458910 0.842991 0.933265
Si Si5 0.438185 0.183599 0.806124
Si Si6 0.407360 0.933276 0.405795
Si Si7 0.181095 0.847400 0.960911
Si Si8 0.332105 0.132668 0.150921
O O1 0.177544 0.278836 0.395361
O O2 0.201932 0.519233 0.253668
O O3 0.216076 0.236568 0.180799
O O4 0.968595 0.357290 0.159986
O O5 0.315096 0.219453 0.664583
O O6 0.442706 0.345279 0.522939
O O7 0.366306 0.054578 0.494147
O O8 0.416915 0.670373 0.221477
O O9 0.281831 0.807001 0.337736
O O10 0.165761 0.745771 0.078169
O O11 0.302995 0.777580 0.916001
O O12 0.552359 0.741955 0.873747
O O13 0.433567 0.017958 0.874374
O O14 0.544636 0.823004 0.090633
O O15 0.411266 0.030323 0.281892
O O16 0.248508 0.012646 0.032294
#
# Coordination Sequence:
#
# PCOD9115129 Si02
#       8
#     2   2   2   2   2   2   2   2
#     4  11  20  35  58  84 119 152 176 231 296 337
#     4  10  20  33  54  83 119 146 184 231 288 336
#     4   9  18  34  54  84 112 141 190 237 272 326
#     4  11  20  36  59  81 109 145 193 240 274 320
#     4  10  20  34  56  82 108 144 191 236 271 329
#     4   9  19  32  54  85 112 141 190 239 273 329
#     4  10  21  35  55  87 119 143 190 233 281 342
#     4  10  20  35  58  86 108 148 192 233 281 325
#
# _framework density 18.194828000000001
#
# number of rings (size 3 to 8) (size 9 to 14) (size 15 to 20)
#    0.000    2.000    2.500    3.000    1.750    0.000 
#    0.000    0.000    2.750    0.000    0.000    0.000 
#    0.000    0.000    0.000    0.000    0.000    0.000 
#
# Total GULP energy -89201.515614 kJ/mol
# GULP energy per Si atom -5575.094726 kJ/mol
# Density = 1.815342 g / cm^3
# Si number density = 18.194828 Si / 1000 Ang^3
#
#
#
# Elastic Constant Matrix: (Units=GPa)
#
#
# Indices 1 2 3 4 5 6 
#
# 1 41.2218 11.5499 26.2137 0.0000 -0.2677 0.0000
# 2 11.5499 77.3214 35.6718 0.0000 -3.7319 0.0000
# 3 26.2137 35.6718 115.2744 0.0000 7.0471 0.0000
# 4 0.0000 0.0000 0.0000 23.4002 0.0000 -5.0119
# 5 -0.2677 -3.7319 7.0471 0.0000 19.6734 0.0000
# 6 0.0000 0.0000 0.0000 -5.0119 0.0000 15.7299
#
#
#
# Elastic Compliance Matrix: (Units=1/GPa)
#
#
# Indices 1 2 3 4 5 6 
#
# 1 0.028611 -0.001271 -0.006259 0.000000 0.002390 0.000000
# 2 -0.001271 0.015569 -0.004814 0.000000 0.004660 0.000000
# 3 -0.006259 -0.004814 0.011910 0.000000 -0.005264 0.000000
# 4 0.000000 0.000000 0.000000 0.045864 0.000000 0.014613
# 5 0.002390 0.004660 -0.005264 0.000000 0.053632 0.000000
# 6 0.000000 0.000000 0.000000 0.014613 0.000000 0.068229
#
#
# Mechanical properties :
#
#
# Convention : Reuss Voigt Hill
#
# Bulk Modulus (GPa) = 31.84497 42.29868 37.07182
# Shear Modulus (GPa) = 19.30731 22.45286 20.88008
#
# Velocity S-wave (km/s) = 3.26105 3.51668 3.39128
# Velocity P-wave (km/s) = 5.63201 6.30773 5.97942
#
# Compressibility (1/GPa) = 0.03140214
#
# Stress axis : x y z
#
# Youngs Moduli (GPa) = 34.95178 64.23225 83.96537
#
# Poissons Ratio (x) = 0.08163 0.52554
# Poissons Ratio (y) = 0.04442 0.40418
# Poissons Ratio (z) = 0.21876 0.30919
#
# Static dielectric constant tensor:
#      x y z
#    x 1.606100 0.000000 -0.015470 
#    y 0.000000 1.669090 0.000000 
#    z -0.015470 0.000000 1.680330 
# 
# From -- ./inp_files/7647.got.cif
#   From: 2010.05.17/outbox.cif.g08.bks.cpg/sg4_4_cif.got.tgz:7647.got - 2010.06.03 18:43:04.
