data_PCOD9115840
_publ_section_title
;
Structure prediction by ZEFSAII (Michael W. Deem and Ramdas Pophale) SiO2 
 PCOD9115840
Probable space group: P 21
;
_chemical_formula_sum "Si O2"
_cell_formula_units_Z 14
_cell_length_a 7.226706
_cell_length_b 7.313321
_cell_length_c 11.557671
_cell_angle_alpha 90.000000
_cell_angle_beta 110.315793
_cell_angle_gamma 90.000000
_cell_volume 572.838848
_symmetry_space_group_name_H-M "P 21"
_symmetry_group_IT_number 4
_symmetry_cell_setting 'monoclinic'
loop_
_space_group_symop_operation_xyz
x,y,z
-x,1/2+y,-z
loop_
_atom_site_type_symbol
_atom_site_label
_atom_site_fract_x
_atom_site_fract_y
_atom_site_fract_z
Si Si1 0.602371 0.074970 0.674231
Si Si2 0.277824 0.246422 0.960691
Si Si3 0.820374 0.604574 0.731221
Si Si4 0.555262 0.233335 0.222810
Si Si5 0.045234 0.450039 0.101527
Si Si6 0.847300 0.915442 0.286514
Si Si7 0.707346 0.825665 0.487852
O O1 0.792176 0.074335 0.797942
O O2 0.486350 0.257890 0.621782
O O3 0.462079 0.921495 0.707636
O O4 0.667131 0.996349 0.562659
O O5 0.290186 0.298321 0.829301
O O6 0.160426 0.055013 0.947491
O O7 0.483006 0.254839 0.074801
O O8 0.140021 0.392258 0.000073
O O9 0.620739 0.610350 0.760397
O O10 0.768153 0.672629 0.591872
O O11 0.947094 0.427557 0.735306
O O12 0.950079 0.762342 0.823595
O O13 0.751781 0.117280 0.275623
O O14 0.864261 0.847953 0.420352
#
# Coordination Sequence:
#
# PCOD9115840 Si02
#       7
#     2   2   2   2   2   2   2
#     4   9  20  39  61  84 115 155 193 234 287 342
#     4  10  21  37  59  87 116 152 193 236 288 340
#     4   9  22  42  59  82 118 154 192 238 284 339
#     4   9  22  42  59  82 118 154 192 238 284 339
#     4   9  20  39  61  84 115 155 193 234 287 342
#     4  12  24  36  60  92 116 150 194 236 288 342
#     4  10  21  37  59  87 116 152 193 236 288 340
#
# _framework density 24.439685000000001
#
# number of rings (size 3 to 8) (size 9 to 14) (size 15 to 20)
#    0.000    2.857    0.000    3.429    0.000   11.429 
#    0.000    0.000    0.000    0.000    0.000    0.000 
#    0.000    0.000    0.000    0.000    0.000    0.000 
#
# Total GULP energy -78233.948261 kJ/mol
# GULP energy per Si atom -5588.139162 kJ/mol
# Density = 2.438406 g / cm^3
# Si number density = 24.439685 Si / 1000 Ang^3
#
#
#
# Elastic Constant Matrix: (Units=GPa)
#
#
# Indices 1 2 3 4 5 6 
#
# 1 44.4632 9.9480 6.9147 0.0000 -10.1348 0.0000
# 2 9.9480 42.2101 11.5729 0.0000 -2.7803 0.0000
# 3 6.9147 11.5729 120.3111 0.0000 -11.6501 0.0000
# 4 0.0000 0.0000 0.0000 12.5085 0.0000 1.5460
# 5 -10.1348 -2.7803 -11.6501 0.0000 19.9638 0.0000
# 6 0.0000 0.0000 0.0000 1.5460 0.0000 27.4091
#
#
#
# Elastic Compliance Matrix: (Units=1/GPa)
#
#
# Indices 1 2 3 4 5 6 
#
# 1 0.026620 -0.005492 0.000247 0.000000 0.012893 0.000000
# 2 -0.005492 0.025553 -0.002192 0.000000 -0.000508 0.000000
# 3 0.000247 -0.002192 0.009000 0.000000 0.005072 0.000000
# 4 0.000000 0.000000 0.000000 0.080507 0.000000 -0.004541
# 5 0.012893 -0.000508 0.005072 0.000000 0.059525 0.000000
# 6 0.000000 0.000000 0.000000 -0.004541 0.000000 0.036740
#
#
# Mechanical properties :
#
#
# Convention : Reuss Voigt Hill
#
# Bulk Modulus (GPa) = 21.59905 29.31728 25.45817
# Shear Modulus (GPa) = 18.63927 23.87951 21.25939
#
# Velocity S-wave (km/s) = 2.76463 3.12922 2.95256
# Velocity P-wave (km/s) = 4.36438 5.00778 4.69711
#
# Compressibility (1/GPa) = 0.04629833
#
# Stress axis : x y z
#
# Youngs Moduli (GPa) = 37.56619 39.13468 111.11690
#
# Poissons Ratio (x) = 0.21493 -0.02743
# Poissons Ratio (y) = 0.20632 0.24352
# Poissons Ratio (z) = -0.00927 0.08576
#
# Static dielectric constant tensor:
#      x y z
#    x 1.996790 0.000000 0.013700 
#    y 0.000000 1.983720 0.000000 
#    z 0.013700 0.000000 1.912370 
# 
# From -- ./inp_files/10882.got.cif
#   From: 2010.05.17/outbox.cif.g08.bks.cpg/sg4_6_cif.got.tgz:10882.got - 2010.06.03 18:43:04.
