data_PCOD9115223
_publ_section_title
;
Structure prediction by ZEFSAII (Michael W. Deem and Ramdas Pophale) SiO2 
 PCOD9115223
Probable space group: P 21
;
_chemical_formula_sum "Si O2"
_cell_formula_units_Z 14
_cell_length_a 15.705531
_cell_length_b 5.338750
_cell_length_c 25.942674
_cell_angle_alpha 90.000000
_cell_angle_beta 18.426213
_cell_angle_gamma 90.000000
_cell_volume 687.556271
_symmetry_space_group_name_H-M "P 21"
_symmetry_group_IT_number 4
_symmetry_cell_setting 'monoclinic'
loop_
_space_group_symop_operation_xyz
x,y,z
-x,1/2+y,-z
loop_
_atom_site_type_symbol
_atom_site_label
_atom_site_fract_x
_atom_site_fract_y
_atom_site_fract_z
Si Si1 0.551236 0.137280 0.889128
Si Si2 0.098760 0.048130 0.212930
Si Si3 0.828655 0.396143 0.283650
Si Si4 0.646157 0.648182 0.489768
Si Si5 0.922867 0.370268 0.410875
Si Si6 0.625236 0.135466 0.059693
Si Si7 0.084251 0.115700 0.422996
O O1 0.484858 0.426122 0.917530
O O2 0.425008 0.926777 0.923512
O O3 0.415401 0.041605 0.019907
O O4 0.866205 0.094248 0.701144
O O5 0.981239 0.177162 0.228189
O O6 0.042180 0.216136 0.294526
O O7 0.926467 0.800515 0.321925
O O8 0.646935 0.503672 0.434777
O O9 0.619911 0.313456 0.360015
O O10 0.057487 0.572113 0.126473
O O11 0.661759 0.488007 0.533226
O O12 0.941124 0.201775 0.451339
O O13 0.408898 0.086626 0.229385
O O14 0.027723 0.352011 0.492606
#
# Coordination Sequence:
#
# PCOD9115223 Si02
#       7
#     2   2   2   2   2   2   2
#     4  10  21  36  56  89 131 162 200 240 313 383
#     4  10  21  32  55  83 129 165 199 243 286 379
#     4  10  20  36  55  90 130 174 211 230 296 370
#     4  11  20  35  55  89 134 174 204 241 287 382
#     4  10  25  34  58  90 122 166 206 259 326 370
#     4  10  21  39  63  90 121 165 205 260 309 382
#     4  11  24  44  66  91 121 158 215 283 339 378
#
# _framework density 20.361968999999998
#
# number of rings (size 3 to 8) (size 9 to 14) (size 15 to 20)
#    0.000    1.714    2.857    1.714    8.000    1.143 
#    0.000    0.000    0.000    0.000    3.714    0.000 
#    0.000    0.000    0.000    0.000    0.000    0.000 
#
# Total GULP energy -77938.554149 kJ/mol
# GULP energy per Si atom -5567.039582 kJ/mol
# Density = 2.031562 g / cm^3
# Si number density = 20.361969 Si / 1000 Ang^3
#
#
#
# Elastic Constant Matrix: (Units=GPa)
#
#
# Indices 1 2 3 4 5 6 
#
# 1 66.1171 17.5762 33.5508 0.0000 -1.6017 0.0000
# 2 17.5762 44.3643 10.7554 0.0000 -7.5016 0.0000
# 3 33.5508 10.7554 73.0761 0.0000 0.2880 0.0000
# 4 0.0000 0.0000 0.0000 42.3025 0.0000 2.0887
# 5 -1.6017 -7.5016 0.2880 0.0000 18.6351 0.0000
# 6 0.0000 0.0000 0.0000 2.0887 0.0000 35.8840
#
#
#
# Elastic Compliance Matrix: (Units=1/GPa)
#
#
# Indices 1 2 3 4 5 6 
#
# 1 0.021292 -0.006397 -0.008832 0.000000 -0.000609 0.000000
# 2 -0.006397 0.027094 -0.001091 0.000000 0.010374 0.000000
# 3 -0.008832 -0.001091 0.017906 0.000000 -0.001475 0.000000
# 4 0.000000 0.000000 0.000000 0.023707 0.000000 -0.001380
# 5 -0.000609 0.010374 -0.001475 0.000000 0.057808 0.000000
# 6 0.000000 0.000000 0.000000 -0.001380 0.000000 0.027948
#
#
# Mechanical properties :
#
#
# Convention : Reuss Voigt Hill
#
# Bulk Modulus (GPa) = 29.71709 34.14692 31.93200
# Shear Modulus (GPa) = 22.76729 27.47599 25.12164
#
# Velocity S-wave (km/s) = 3.34747 3.67737 3.51629
# Velocity P-wave (km/s) = 5.43754 5.90230 5.67468
#
# Compressibility (1/GPa) = 0.03365067
#
# Stress axis : x y z
#
# Youngs Moduli (GPa) = 46.96553 36.90884 55.84821
#
# Poissons Ratio (x) = 0.23612 0.49324
# Poissons Ratio (y) = 0.30045 0.06095
# Poissons Ratio (z) = 0.41479 0.04028
#
# Static dielectric constant tensor:
#      x y z
#    x 1.790960 0.000000 -0.043620 
#    y 0.000000 1.830400 0.000000 
#    z -0.043620 0.000000 1.788700 
# 
# From -- ./inp_files/10684.got.cif
#   From: 2010.05.17/outbox.cif.g08.bks.cpg/sg4_6_cif.got.tgz:10684.got - 2010.06.03 18:43:04.
