data_PCOD9115655
_publ_section_title
;
Structure prediction by ZEFSAII (Michael W. Deem and Ramdas Pophale) SiO2 
 PCOD9115655
Probable space group: P 21
;
_chemical_formula_sum "Si O2"
_cell_formula_units_Z 16
_cell_length_a 8.032827
_cell_length_b 9.353018
_cell_length_c 16.354724
_cell_angle_alpha 90.000000
_cell_angle_beta 39.525300
_cell_angle_gamma 90.000000
_cell_volume 781.999473
_symmetry_space_group_name_H-M "P 21"
_symmetry_group_IT_number 4
_symmetry_cell_setting 'monoclinic'
loop_
_space_group_symop_operation_xyz
x,y,z
-x,1/2+y,-z
loop_
_atom_site_type_symbol
_atom_site_label
_atom_site_fract_x
_atom_site_fract_y
_atom_site_fract_z
Si Si1 0.256605 0.218290 0.344012
Si Si2 0.934193 0.135728 0.928795
Si Si3 0.176368 0.851573 0.894277
Si Si4 0.013370 0.713758 0.788929
Si Si5 0.392050 0.151778 0.476461
Si Si6 0.650114 0.513783 0.837857
Si Si7 0.008032 0.934962 0.653713
Si Si8 0.927334 0.222382 0.743494
O O1 0.520302 0.307194 0.224081
O O2 0.280466 0.166014 0.426894
O O3 0.242989 0.087031 0.285928
O O4 0.032074 0.331655 0.407516
O O5 0.971239 0.172613 0.819882
O O6 0.932869 0.282387 0.981233
O O7 0.651148 0.058329 0.043548
O O8 0.128304 0.017832 0.893878
O O9 0.044147 0.765644 0.869180
O O10 0.300401 0.672031 0.645925
O O11 0.930161 0.844632 0.762498
O O12 0.808106 0.588757 0.851725
O O13 0.214605 0.259439 0.597650
O O14 0.301036 0.997970 0.545515
O O15 0.720618 0.348171 0.814431
O O16 0.847944 0.082978 0.720162
#
# Coordination Sequence:
#
# PCOD9115655 Si02
#       8
#     2   2   2   2   2   2   2   2
#     4   9  20  41  60  89 118 165 194 245 316 358
#     4  11  24  42  60  92 120 163 205 250 307 356
#     4  10  22  40  62  85 122 158 206 249 304 361
#     4  10  20  42  62  85 121 163 194 252 310 362
#     4   9  21  35  65  87 123 147 203 246 301 361
#     4  10  24  38  65  87 122 158 206 247 302 360
#     4   9  20  37  61  86 120 159 193 245 304 363
#     4  10  23  37  61  93 116 151 207 250 292 365
#
# _framework density 20.460372
#
# number of rings (size 3 to 8) (size 9 to 14) (size 15 to 20)
#    0.750    1.500    1.250    0.000    7.000    2.000 
#    0.000    0.000    0.000    0.000    0.000    0.000 
#    0.000    0.000    0.000    0.000    0.000    0.000 
#
# Total GULP energy -89166.990345 kJ/mol
# GULP energy per Si atom -5572.936897 kJ/mol
# Density = 2.041380 g / cm^3
# Si number density = 20.460372 Si / 1000 Ang^3
#
#
#
# Elastic Constant Matrix: (Units=GPa)
#
#
# Indices 1 2 3 4 5 6 
#
# 1 37.2206 15.4834 -0.2895 0.0000 -0.5885 0.0000
# 2 15.4834 74.5833 -1.1382 0.0000 6.4000 0.0000
# 3 -0.2895 -1.1382 39.9888 0.0000 16.0860 0.0000
# 4 0.0000 0.0000 0.0000 15.1633 0.0000 -3.3384
# 5 -0.5885 6.4000 16.0860 0.0000 19.7535 0.0000
# 6 0.0000 0.0000 0.0000 -3.3384 0.0000 31.2608
#
#
#
# Elastic Compliance Matrix: (Units=1/GPa)
#
#
# Indices 1 2 3 4 5 6 
#
# 1 0.029654 -0.006564 -0.001759 0.000000 0.004443 0.000000
# 2 -0.006564 0.015536 0.003715 0.000000 -0.008254 0.000000
# 3 -0.001759 0.003715 0.038079 0.000000 -0.032265 0.000000
# 4 0.000000 0.000000 0.000000 0.067536 0.000000 0.007212
# 5 0.004443 -0.008254 -0.032265 0.000000 0.079705 0.000000
# 6 0.000000 0.000000 0.000000 0.007212 0.000000 0.032759
#
#
# Mechanical properties :
#
#
# Convention : Reuss Voigt Hill
#
# Bulk Modulus (GPa) = 13.50411 19.98935 16.74673
# Shear Modulus (GPa) = 16.82534 22.41799 19.62167
#
# Velocity S-wave (km/s) = 2.87075 3.31369 3.10015
# Velocity P-wave (km/s) = 4.19556 4.94285 4.58446
#
# Compressibility (1/GPa) = 0.07405155
#
# Stress axis : x y z
#
# Youngs Moduli (GPa) = 33.72216 64.36855 26.26109
#
# Poissons Ratio (x) = 0.42253 0.04620
# Poissons Ratio (y) = 0.22136 -0.09756
# Poissons Ratio (z) = 0.05933 -0.23913
#
# Static dielectric constant tensor:
#      x y z
#    x 1.728760 0.000000 -0.013050 
#    y 0.000000 1.746990 0.000000 
#    z -0.013050 0.000000 1.745510 
# 
# From -- ./inp_files/14876.got.cif
#   From: 2010.05.17/outbox.cif.g08.bks.cpg/sg4_8_cif.got.tgz:14876.got - 2010.06.03 18:43:04.
