data_PCOD9115918
_publ_section_title
;
Structure prediction by ZEFSAII (Michael W. Deem and Ramdas Pophale) SiO2 
 PCOD9115918
Probable space group: P 21
;
_chemical_formula_sum "Si O2"
_cell_formula_units_Z 16
_cell_length_a 8.781739
_cell_length_b 9.120989
_cell_length_c 12.575897
_cell_angle_alpha 90.000000
_cell_angle_beta 142.440263
_cell_angle_gamma 90.000000
_cell_volume 614.041917
_symmetry_space_group_name_H-M "P 21"
_symmetry_group_IT_number 4
_symmetry_cell_setting 'monoclinic'
loop_
_space_group_symop_operation_xyz
x,y,z
-x,1/2+y,-z
loop_
_atom_site_type_symbol
_atom_site_label
_atom_site_fract_x
_atom_site_fract_y
_atom_site_fract_z
Si Si1 0.740959 0.767420 0.264071
Si Si2 0.500643 0.542584 0.497857
Si Si3 0.978920 0.773824 0.987782
Si Si4 0.753758 0.433344 0.281339
Si Si5 0.835806 0.276779 0.121816
Si Si6 0.504361 0.786589 0.347072
Si Si7 0.440642 0.771986 0.623702
Si Si8 0.176943 0.444005 0.891206
O O1 0.832960 0.602144 0.338347
O O2 0.679293 0.832089 0.345748
O O3 0.879506 0.864880 0.252147
O O4 0.462771 0.763823 0.057649
O O5 0.623392 0.671120 0.493955
O O6 0.575011 0.429367 0.632014
O O7 0.333216 0.654775 0.479117
O O8 0.473550 0.418796 0.390956
O O9 0.252464 0.703251 0.163434
O O10 0.927928 0.860496 0.066218
O O11 0.053163 0.857446 0.919760
O O12 0.706434 0.704918 0.813430
O O13 0.897693 0.357193 0.264448
O O14 0.726077 0.329385 0.369593
O O15 0.471230 0.447929 0.079737
O O16 0.920576 0.108862 0.163568
#
# Coordination Sequence:
#
# PCOD9115918 Si02
#       8
#     2   2   2   2   2   2   2   2
#     4   9  17  34  54  81 116 153 188 232 289 352
#     4  10  22  38  58  86 118 158 198 230 294 360
#     4  10  22  36  62  92 118 144 196 254 294 328
#     4   9  17  34  54  81 116 153 188 232 289 352
#     4   9  19  32  53  86 118 144 188 244 293 336
#     4  10  21  38  62  87 115 157 196 244 287 348
#     4  10  21  38  62  87 115 157 196 244 287 348
#     4   9  19  32  53  86 118 144 188 244 293 336
#
# _framework density 26.056851000000002
#
# number of rings (size 3 to 8) (size 9 to 14) (size 15 to 20)
#    0.000    2.500    1.250    0.000    5.250    1.000 
#    4.500    0.000    0.000    9.000    0.000    0.000 
#    0.000    0.000    0.000    0.000    0.000    0.000 
#
# Total GULP energy -89137.407902 kJ/mol
# GULP energy per Si atom -5571.087994 kJ/mol
# Density = 2.599754 g / cm^3
# Si number density = 26.056851 Si / 1000 Ang^3
#
#
#
# Elastic Constant Matrix: (Units=GPa)
#
#
# Indices 1 2 3 4 5 6 
#
# 1 106.4100 22.1690 59.2393 0.0000 -40.0253 0.0000
# 2 22.1690 83.8274 39.5586 0.0000 -20.5559 0.0000
# 3 59.2393 39.5586 100.1281 0.0000 -31.4080 0.0000
# 4 0.0000 0.0000 0.0000 36.2966 0.0000 -7.2640
# 5 -40.0253 -20.5559 -31.4080 0.0000 53.7288 0.0000
# 6 0.0000 0.0000 0.0000 -7.2640 0.0000 18.5491
#
#
#
# Elastic Compliance Matrix: (Units=1/GPa)
#
#
# Indices 1 2 3 4 5 6 
#
# 1 0.016536 0.001294 -0.007684 0.000000 0.008322 0.000000
# 2 0.001294 0.015097 -0.005652 0.000000 0.003435 0.000000
# 3 -0.007684 -0.005652 0.017502 0.000000 0.002344 0.000000
# 4 0.000000 0.000000 0.000000 0.029894 0.000000 0.011707
# 5 0.008322 0.003435 0.002344 0.000000 0.027496 0.000000
# 6 0.000000 0.000000 0.000000 0.011707 0.000000 0.058495
#
#
# Mechanical properties :
#
#
# Convention : Reuss Voigt Hill
#
# Bulk Modulus (GPa) = 39.92113 59.14435 49.53274
# Shear Modulus (GPa) = 25.32231 33.00814 29.16523
#
# Velocity S-wave (km/s) = 3.12077 3.56304 3.34921
# Velocity P-wave (km/s) = 5.32350 6.29877 5.83156
#
# Compressibility (1/GPa) = 0.02504939
#
# Stress axis : x y z
#
# Youngs Moduli (GPa) = 60.47422 66.23879 57.13705
#
# Poissons Ratio (x) = -0.08569 0.43904
# Poissons Ratio (y) = -0.07823 0.32295
# Poissons Ratio (z) = 0.46469 0.37440
#
# Static dielectric constant tensor:
#      x y z
#    x 2.086970 0.000000 0.100270 
#    y 0.000000 1.997890 0.000000 
#    z 0.100270 0.000000 2.139620 
# 
# From -- ./inp_files/11053.got.cif
#   From: 2010.05.17/outbox.cif.g08.bks.cpg/sg4_6_cif.got.tgz:11053.got - 2010.06.03 18:43:04.
