data_PCOD9115295
_publ_section_title
;
Structure prediction by ZEFSAII (Michael W. Deem and Ramdas Pophale) SiO2 
 PCOD9115295
Probable space group: P 21
;
_chemical_formula_sum "Si O2"
_cell_formula_units_Z 14
_cell_length_a 5.072745
_cell_length_b 9.023616
_cell_length_c 12.120015
_cell_angle_alpha 90.000000
_cell_angle_beta 78.759966
_cell_angle_gamma 90.000000
_cell_volume 544.146391
_symmetry_space_group_name_H-M "P 21"
_symmetry_group_IT_number 4
_symmetry_cell_setting 'monoclinic'
loop_
_space_group_symop_operation_xyz
x,y,z
-x,1/2+y,-z
loop_
_atom_site_type_symbol
_atom_site_label
_atom_site_fract_x
_atom_site_fract_y
_atom_site_fract_z
Si Si1 0.781106 0.468950 0.436423
Si Si2 0.965572 0.722717 0.710545
Si Si3 0.231578 0.292050 0.503180
Si Si4 0.927745 0.045995 0.951262
Si Si5 0.698098 0.742707 0.951934
Si Si6 0.267290 0.801947 0.152956
Si Si7 0.279234 0.487934 0.799639
O O1 0.494844 0.393074 0.484602
O O2 0.772976 0.646328 0.419380
O O3 0.899978 0.384079 0.318973
O O4 0.981539 0.406323 0.516289
O O5 0.804406 0.707768 0.610703
O O6 0.208248 0.609253 0.714012
O O7 0.745881 0.694756 0.823386
O O8 0.923175 0.872555 0.936054
O O9 0.807910 0.129524 0.854855
O O10 0.742018 0.065333 0.077301
O O11 0.202606 0.121315 0.968116
O O12 0.436577 0.818011 0.024652
O O13 0.466901 0.878246 0.224135
O O14 0.986389 0.884860 0.180042
#
# Coordination Sequence:
#
# PCOD9115295 Si02
#       7
#     2   2   2   2   2   2   2
#     4  10  22  43  74 103 129 173 217 273 353 415
#     4   9  24  41  70  94 130 169 222 265 333 399
#     4  10  22  43  75 102 135 169 219 275 351 422
#     4  10  20  37  58  85 121 173 214 263 308 364
#     4  10  22  38  63  87 129 174 222 262 316 375
#     4  11  21  36  57  89 125 173 214 265 306 370
#     4  10  23  36  61  88 125 169 222 253 319 373
#
# _framework density 25.728370000000002
#
# number of rings (size 3 to 8) (size 9 to 14) (size 15 to 20)
#    0.857    1.143    2.857    0.857   10.000    1.143 
#    0.000    1.429    6.286    0.000    0.000    0.000 
#    0.000    0.000    0.000    0.000    0.000    0.000 
#
# Total GULP energy -78069.150484 kJ/mol
# GULP energy per Si atom -5576.367892 kJ/mol
# Density = 2.566981 g / cm^3
# Si number density = 25.728370 Si / 1000 Ang^3
#
#
#
# Elastic Constant Matrix: (Units=GPa)
#
#
# Indices 1 2 3 4 5 6 
#
# 1 134.6086 29.1778 7.8179 0.0000 -11.4124 0.0000
# 2 29.1778 108.8916 -8.0545 0.0000 -4.7377 0.0000
# 3 7.8179 -8.0545 44.5667 0.0000 1.5287 0.0000
# 4 0.0000 0.0000 0.0000 36.5345 0.0000 2.1696
# 5 -11.4124 -4.7377 1.5287 0.0000 20.3587 0.0000
# 6 0.0000 0.0000 0.0000 2.1696 0.0000 36.8199
#
#
#
# Elastic Compliance Matrix: (Units=1/GPa)
#
#
# Indices 1 2 3 4 5 6 
#
# 1 0.008393 -0.002210 -0.002021 0.000000 0.004343 0.000000
# 2 -0.002210 0.009975 0.002159 0.000000 0.000921 0.000000
# 3 -0.002021 0.002159 0.023264 0.000000 -0.002377 0.000000
# 4 0.000000 0.000000 0.000000 0.027468 0.000000 -0.001619
# 5 0.004343 0.000921 -0.002377 0.000000 0.051946 0.000000
# 6 0.000000 0.000000 0.000000 -0.001619 0.000000 0.027255
#
#
# Mechanical properties :
#
#
# Convention : Reuss Voigt Hill
#
# Bulk Modulus (GPa) = 26.67352 38.43881 32.55616
# Shear Modulus (GPa) = 30.31388 36.01767 33.16578
#
# Velocity S-wave (km/s) = 3.43626 3.74561 3.59426
# Velocity P-wave (km/s) = 5.11211 5.80334 5.46866
#
# Compressibility (1/GPa) = 0.03749037
#
# Stress axis : x y z
#
# Youngs Moduli (GPa) = 119.14083 100.24819 42.98401
#
# Poissons Ratio (x) = 0.22151 0.08686
# Poissons Ratio (y) = 0.26325 -0.09280
# Poissons Ratio (z) = 0.24074 -0.21642
#
# Static dielectric constant tensor:
#      x y z
#    x 2.094210 0.000000 0.034290 
#    y 0.000000 2.055080 0.000000 
#    z 0.034290 0.000000 2.111940 
# 
# From -- ./inp_files/13213.got.cif
#   From: 2010.05.17/outbox.cif.g08.bks.cpg/sg4_7_cif.got.tgz:13213.got - 2010.06.03 18:43:04.
