data_PCOD9115962
_publ_section_title
;
Structure prediction by ZEFSAII (Michael W. Deem and Ramdas Pophale) SiO2 
 PCOD9115962
Probable space group: P 21
;
_chemical_formula_sum "Si O2"
_cell_formula_units_Z 16
_cell_length_a 23.125079
_cell_length_b 4.946937
_cell_length_c 16.188829
_cell_angle_alpha 90.000000
_cell_angle_beta 158.501895
_cell_angle_gamma 90.000000
_cell_volume 678.693995
_symmetry_space_group_name_H-M "P 21"
_symmetry_group_IT_number 4
_symmetry_cell_setting 'monoclinic'
loop_
_space_group_symop_operation_xyz
x,y,z
-x,1/2+y,-z
loop_
_atom_site_type_symbol
_atom_site_label
_atom_site_fract_x
_atom_site_fract_y
_atom_site_fract_z
Si Si1 0.443843 0.747980 0.221454
Si Si2 0.114075 0.972784 0.746523
Si Si3 0.105674 0.093574 0.233713
Si Si4 0.094190 0.972952 0.524192
Si Si5 0.573287 0.270522 0.309287
Si Si6 0.410306 0.813726 0.854135
Si Si7 0.429454 0.979167 0.442923
Si Si8 0.925693 0.596482 0.007170
O O1 0.439246 0.493258 0.152163
O O2 0.516320 0.612858 0.399203
O O3 0.550449 0.999635 0.332062
O O4 0.270622 0.874452 0.000133
O O5 0.143714 0.950688 0.686763
O O6 0.969166 0.773463 0.573935
O O7 0.052927 0.271424 0.683931
O O8 0.269730 0.946359 0.466718
O O9 0.087876 0.101818 0.110773
O O10 0.972473 0.896760 0.094139
O O11 0.067081 0.390096 0.215480
O O12 0.238141 0.891064 0.657587
O O13 0.579689 0.187873 0.223177
O O14 0.489580 0.588580 0.016463
O O15 0.512846 0.172713 0.486828
O O16 0.242248 0.999860 0.184234
#
# Coordination Sequence:
#
# PCOD9115962 Si02
#       8
#     2   2   2   2   2   2   2   2
#     4  12  25  44  70  97 132 172 239 275 328 412
#     4  10  21  40  66  91 127 179 213 262 323 385
#     4  10  21  38  67  94 122 171 214 281 322 400
#     4  10  21  40  64  94 132 167 217 261 323 403
#     4  12  24  42  70 100 132 175 228 283 332 397
#     4  12  25  43  67 101 140 175 218 277 345 392
#     4  12  26  45  67  96 136 177 224 285 343 405
#     4  10  21  40  65  91 127 164 221 268 342 396
#
# _framework density 23.57469
#
# number of rings (size 3 to 8) (size 9 to 14) (size 15 to 20)
#    0.000    1.000    1.250    6.000    3.500    2.000 
#    6.750    0.000    0.000    0.000    0.000    0.000 
#    0.000    0.000    0.000    0.000    0.000    0.000 
#
# Total GULP energy -89574.671149 kJ/mol
# GULP energy per Si atom -5598.416947 kJ/mol
# Density = 2.352103 g / cm^3
# Si number density = 23.574690 Si / 1000 Ang^3
#
#
#
# Elastic Constant Matrix: (Units=GPa)
#
#
# Indices 1 2 3 4 5 6 
#
# 1 65.0299 -0.9044 3.9403 0.0000 3.0204 0.0000
# 2 -0.9044 64.5731 -13.9616 0.0000 -8.5958 0.0000
# 3 3.9403 -13.9616 57.0540 0.0000 10.9745 0.0000
# 4 0.0000 0.0000 0.0000 23.2608 0.0000 8.7107
# 5 3.0204 -8.5958 10.9745 0.0000 20.8453 0.0000
# 6 0.0000 0.0000 0.0000 8.7107 0.0000 33.5956
#
#
#
# Elastic Compliance Matrix: (Units=1/GPa)
#
#
# Indices 1 2 3 4 5 6 
#
# 1 0.015510 -0.000202 -0.000748 0.000000 -0.001937 0.000000
# 2 -0.000202 0.016868 0.003113 0.000000 0.005346 0.000000
# 3 -0.000748 0.003113 0.020109 0.000000 -0.009195 0.000000
# 4 0.000000 0.000000 0.000000 0.047614 0.000000 -0.012345
# 5 -0.001937 0.005346 -0.009195 0.000000 0.055298 0.000000
# 6 0.000000 0.000000 0.000000 -0.012345 0.000000 0.032967
#
#
# Mechanical properties :
#
#
# Convention : Reuss Voigt Hill
#
# Bulk Modulus (GPa) = 17.60135 18.31172 17.95654
# Shear Modulus (GPa) = 24.63312 28.71253 26.67282
#
# Velocity S-wave (km/s) = 3.23599 3.49368 3.36730
# Velocity P-wave (km/s) = 4.63083 4.90498 4.76988
#
# Compressibility (1/GPa) = 0.05681383
#
# Stress axis : x y z
#
# Youngs Moduli (GPa) = 64.47446 59.28277 49.72785
#
# Poissons Ratio (x) = 0.01200 0.03720
# Poissons Ratio (y) = 0.01305 -0.15483
# Poissons Ratio (z) = 0.04823 -0.18458
#
# Static dielectric constant tensor:
#      x y z
#    x 1.919740 0.000000 -0.006030 
#    y 0.000000 1.841930 0.000000 
#    z -0.006030 0.000000 1.880840 
# 
# From -- ./inp_files/14415.got.cif
#   From: 2010.05.17/outbox.cif.g08.bks.cpg/sg4_8_cif.got.tgz:14415.got - 2010.06.03 18:43:04.
