data_PCOD9115430
_publ_section_title
;
Structure prediction by ZEFSAII (Michael W. Deem and Ramdas Pophale) SiO2 
 PCOD9115430
Probable space group: P 21
;
_chemical_formula_sum "Si O2"
_cell_formula_units_Z 16
_cell_length_a 8.954281
_cell_length_b 5.226143
_cell_length_c 27.183165
_cell_angle_alpha 90.000000
_cell_angle_beta 147.290321
_cell_angle_gamma 90.000000
_cell_volume 687.405941
_symmetry_space_group_name_H-M "P 21"
_symmetry_group_IT_number 4
_symmetry_cell_setting 'monoclinic'
loop_
_space_group_symop_operation_xyz
x,y,z
-x,1/2+y,-z
loop_
_atom_site_type_symbol
_atom_site_label
_atom_site_fract_x
_atom_site_fract_y
_atom_site_fract_z
Si Si1 0.288666 0.243820 0.981046
Si Si2 0.583025 0.609973 0.142389
Si Si3 0.836610 0.005753 0.141972
Si Si4 0.894940 0.154363 0.405133
Si Si5 0.667062 0.618513 0.558380
Si Si6 0.348718 0.154933 0.618984
Si Si7 0.832660 0.867438 0.705268
Si Si8 0.076351 0.479684 0.047079
O O1 0.096706 0.309012 0.881809
O O2 0.113299 0.025171 0.958895
O O3 0.390816 0.453201 0.049914
O O4 0.588917 0.155927 0.046337
O O5 0.683135 0.874321 0.145938
O O6 0.384277 0.597157 0.134241
O O7 0.871512 0.470290 0.230728
O O8 0.083942 0.175931 0.228253
O O9 0.736697 0.420799 0.369025
O O10 0.054495 0.125117 0.397449
O O11 0.697165 0.917914 0.364635
O O12 0.133583 0.153337 0.513450
O O13 0.538463 0.334612 0.521057
O O14 0.701789 0.712955 0.623960
O O15 0.639279 0.087236 0.673792
O O16 0.069576 0.181983 0.031335
#
# Coordination Sequence:
#
# PCOD9115430 Si02
#       8
#     2   2   2   2   2   2   2   2
#     4  10  20  38  66  96 127 181 238 272 339 422
#     4  10  22  40  64  96 139 175 228 289 351 411
#     4  11  21  39  66  99 135 180 231 291 343 421
#     4  10  22  42  73 102 135 186 239 284 346 436
#     4  12  26  46  77 108 140 193 243 292 358 442
#     4  10  22  43  69 103 140 181 233 292 355 419
#     4  11  27  42  71 104 144 182 235 302 364 415
#     4  10  20  38  66  96 128 178 227 280 336 410
#
# _framework density 23.275911000000001
#
# number of rings (size 3 to 8) (size 9 to 14) (size 15 to 20)
#    0.000    1.500    3.750    0.750    7.000    0.000 
#    0.000    2.500    0.000    0.000    0.000    0.000 
#    0.000    0.000    0.000    0.000    0.000    0.000 
#
# Total GULP energy -89326.957567 kJ/mol
# GULP energy per Si atom -5582.934848 kJ/mol
# Density = 2.322293 g / cm^3
# Si number density = 23.275911 Si / 1000 Ang^3
#
#
#
# Elastic Constant Matrix: (Units=GPa)
#
#
# Indices 1 2 3 4 5 6 
#
# 1 68.4636 -1.6468 8.9907 0.0000 17.0300 0.0000
# 2 -1.6468 72.7868 5.4141 0.0000 6.2552 0.0000
# 3 8.9907 5.4141 53.4251 0.0000 8.4353 0.0000
# 4 0.0000 0.0000 0.0000 22.7217 0.0000 11.1199
# 5 17.0300 6.2552 8.4353 0.0000 31.6000 0.0000
# 6 0.0000 0.0000 0.0000 11.1199 0.0000 35.0607
#
#
#
# Elastic Compliance Matrix: (Units=1/GPa)
#
#
# Indices 1 2 3 4 5 6 
#
# 1 0.017094 0.001281 -0.001578 0.000000 -0.009045 0.000000
# 2 0.001281 0.014126 -0.001145 0.000000 -0.003181 0.000000
# 3 -0.001578 -0.001145 0.019762 0.000000 -0.004198 0.000000
# 4 0.000000 0.000000 0.000000 0.052097 0.000000 -0.016523
# 5 -0.009045 -0.003181 -0.004198 0.000000 0.038270 0.000000
# 6 0.000000 0.000000 0.000000 -0.016523 0.000000 0.033762
#
#
# Mechanical properties :
#
#
# Convention : Reuss Voigt Hill
#
# Bulk Modulus (GPa) = 20.79048 24.46573 22.62811
# Shear Modulus (GPa) = 25.76922 30.00431 27.88677
#
# Velocity S-wave (km/s) = 3.33095 3.59426 3.46511
# Velocity P-wave (km/s) = 4.87291 5.26867 5.07465
#
# Compressibility (1/GPa) = 0.04809893
#
# Stress axis : x y z
#
# Youngs Moduli (GPa) = 58.49915 70.78992 50.60146
#
# Poissons Ratio (x) = -0.09072 0.07987
# Poissons Ratio (y) = -0.07496 0.05794
# Poissons Ratio (z) = 0.09234 0.08105
#
# Static dielectric constant tensor:
#      x y z
#    x 2.010280 0.000000 0.009240 
#    y 0.000000 1.965570 0.000000 
#    z 0.009240 0.000000 1.886670 
# 
# From -- ./inp_files/16331.got.cif
#   From: 2010.05.17/outbox.cif.g08.bks.cpg/sg4_9_cif.got.tgz:16331.got - 2010.06.03 18:43:04.
