data_PCOD9115246
_publ_section_title
;
Structure prediction by ZEFSAII (Michael W. Deem and Ramdas Pophale) SiO2 
 PCOD9115246
Probable space group: P 21
;
_chemical_formula_sum "Si O2"
_cell_formula_units_Z 16
_cell_length_a 5.244557
_cell_length_b 8.355762
_cell_length_c 13.402377
_cell_angle_alpha 90.000000
_cell_angle_beta 96.991567
_cell_angle_gamma 90.000000
_cell_volume 582.955300
_symmetry_space_group_name_H-M "P 21"
_symmetry_group_IT_number 4
_symmetry_cell_setting 'monoclinic'
loop_
_space_group_symop_operation_xyz
x,y,z
-x,1/2+y,-z
loop_
_atom_site_type_symbol
_atom_site_label
_atom_site_fract_x
_atom_site_fract_y
_atom_site_fract_z
Si Si1 0.974534 0.622630 0.386344
Si Si2 0.950329 0.316438 0.250113
Si Si3 0.662711 0.402466 0.521840
Si Si4 0.496296 0.964520 0.897798
Si Si5 0.529960 0.687306 0.653093
Si Si6 0.912396 0.739088 0.009356
Si Si7 0.619822 0.756400 0.210702
Si Si8 0.707412 0.472727 0.908648
O O1 0.020463 0.483882 0.307413
O O2 0.858177 0.522280 0.472915
O O3 0.768295 0.735212 0.319719
O O4 0.196755 0.745262 0.427463
O O5 0.762876 0.373834 0.150941
O O6 0.741013 0.218009 0.305458
O O7 0.218214 0.218307 0.266198
O O8 0.543035 0.518907 0.597738
O O9 0.467950 0.327331 0.431998
O O10 0.543940 0.093979 0.813874
O O11 0.733395 0.851449 0.932362
O O12 0.446976 0.042013 0.004489
O O13 0.799935 0.745259 0.119179
O O14 0.191415 0.804504 0.047174
O O15 0.947031 0.588018 0.935685
O O16 0.463133 0.921100 0.191162
#
# Coordination Sequence:
#
# PCOD9115246 Si02
#       8
#     2   2   2   2   2   2   2   2
#     4  10  22  44  71  97 136 177 230 289 350 420
#     4  10  23  43  67 104 134 180 228 284 345 420
#     4  11  23  44  72 100 135 185 231 295 361 423
#     4   9  20  38  63  86 129 171 216 262 334 395
#     4  11  24  42  67  97 136 173 232 285 351 414
#     4  10  20  36  60  93 127 174 213 266 330 391
#     4   9  20  41  60  92 124 172 218 271 327 405
#     4  10  20  36  60  89 129 168 218 268 324 396
#
# _framework density 27.446359000000001
#
# number of rings (size 3 to 8) (size 9 to 14) (size 15 to 20)
#    0.000    2.000    0.000    3.000    1.750    4.000 
#   18.000    0.000    0.000    0.000    0.000    0.000 
#    0.000    0.000    0.000    0.000    0.000    0.000 
#
# Total GULP energy -89405.040893 kJ/mol
# GULP energy per Si atom -5587.815056 kJ/mol
# Density = 2.738389 g / cm^3
# Si number density = 27.446359 Si / 1000 Ang^3
#
#
#
# Elastic Constant Matrix: (Units=GPa)
#
#
# Indices 1 2 3 4 5 6 
#
# 1 86.7589 42.8323 37.3470 0.0000 12.2920 0.0000
# 2 42.8323 85.6474 24.6475 0.0000 14.6063 0.0000
# 3 37.3470 24.6475 115.1074 0.0000 23.5714 0.0000
# 4 0.0000 0.0000 0.0000 49.4291 0.0000 27.3229
# 5 12.2920 14.6063 23.5714 0.0000 47.4290 0.0000
# 6 0.0000 0.0000 0.0000 27.3229 0.0000 36.2559
#
#
#
# Elastic Compliance Matrix: (Units=1/GPa)
#
#
# Indices 1 2 3 4 5 6 
#
# 1 0.016796 -0.007256 -0.003854 0.000000 -0.000203 0.000000
# 2 -0.007256 0.015918 -0.000485 0.000000 -0.002781 0.000000
# 3 -0.003854 -0.000485 0.010918 0.000000 -0.004278 0.000000
# 4 0.000000 0.000000 0.000000 0.034676 0.000000 -0.026132
# 5 -0.000203 -0.002781 -0.004278 0.000000 0.024119 0.000000
# 6 0.000000 0.000000 0.000000 -0.026132 0.000000 0.047275
#
#
# Mechanical properties :
#
#
# Convention : Reuss Voigt Hill
#
# Bulk Modulus (GPa) = 48.91881 55.24080 52.07980
# Shear Modulus (GPa) = 27.82291 38.80191 33.31241
#
# Velocity S-wave (km/s) = 3.18735 3.76405 3.48764
# Velocity P-wave (km/s) = 5.60426 6.24990 5.93586
#
# Compressibility (1/GPa) = 0.02044204
#
# Stress axis : x y z
#
# Youngs Moduli (GPa) = 59.53655 62.82083 91.59249
#
# Poissons Ratio (x) = 0.45583 0.35303
# Poissons Ratio (y) = 0.43200 0.04441
# Poissons Ratio (z) = 0.22948 0.03046
#
# Static dielectric constant tensor:
#      x y z
#    x 2.463710 0.000000 -0.010510 
#    y 0.000000 2.973780 0.000000 
#    z -0.010510 0.000000 2.105670 
# 
# From -- ./inp_files/14703.got.cif
#   From: 2010.05.17/outbox.cif.g08.bks.cpg/sg4_8_cif.got.tgz:14703.got - 2010.06.03 18:43:04.
