data_PCOD9115865
_publ_section_title
;
Structure prediction by ZEFSAII (Michael W. Deem and Ramdas Pophale) SiO2 
 PCOD9115865
Probable space group: P 21
;
_chemical_formula_sum "Si O2"
_cell_formula_units_Z 12
_cell_length_a 10.182836
_cell_length_b 9.920233
_cell_length_c 10.182582
_cell_angle_alpha 90.000000
_cell_angle_beta 153.281215
_cell_angle_gamma 90.000000
_cell_volume 462.472924
_symmetry_space_group_name_H-M "P 21"
_symmetry_group_IT_number 4
_symmetry_cell_setting 'monoclinic'
loop_
_space_group_symop_operation_xyz
x,y,z
-x,1/2+y,-z
loop_
_atom_site_type_symbol
_atom_site_label
_atom_site_fract_x
_atom_site_fract_y
_atom_site_fract_z
Si Si1 0.911250 0.683900 0.935043
Si Si2 0.435089 0.514077 0.411244
Si Si3 0.345489 0.849001 0.154552
Si Si4 0.326610 0.080236 0.641746
Si Si5 0.695600 0.099028 0.195619
Si Si6 0.141702 0.117791 0.826611
O O1 0.101880 0.547781 0.083192
O O2 0.066148 0.783970 0.975322
O O3 0.928403 0.704003 0.106222
O O4 0.583195 0.650195 0.601849
O O5 0.475367 0.413996 0.566133
O O6 0.606247 0.494007 0.428374
O O7 0.517628 0.726200 0.240568
O O8 0.259442 0.971830 0.982417
O O9 0.988282 0.112144 0.367592
O O10 0.491931 0.011967 0.913008
O O11 0.867546 0.085889 0.488281
O O12 0.412955 0.186064 0.991926
#
# Coordination Sequence:
#
# PCOD9115865 Si02
#       6
#     2   2   2   2   2   2
#     4  10  21  37  62  95 125 155 208 268 304 359
#     4  10  21  37  62  95 125 155 208 268 304 359
#     4  10  22  40  70  92 122 170 210 256 324 374
#     4  10  21  40  63  93 126 166 210 253 314 370
#     4  10  22  40  60  82 128 170 202 258 300 368
#     4  10  21  40  63  93 126 166 210 253 314 370
#
# _framework density 25.947465000000001
#
# number of rings (size 3 to 8) (size 9 to 14) (size 15 to 20)
#    0.000    2.000    0.000    4.000    0.000   12.000 
#    0.000    6.667    0.000    8.000    0.000    0.000 
#    0.000    0.000    0.000    0.000    0.000    0.000 
#
# Total GULP energy -66879.608592 kJ/mol
# GULP energy per Si atom -5573.300716 kJ/mol
# Density = 2.588841 g / cm^3
# Si number density = 25.947465 Si / 1000 Ang^3
#
#
#
# Elastic Constant Matrix: (Units=GPa)
#
#
# Indices 1 2 3 4 5 6 
#
# 1 178.3665 -1.5852 46.5835 0.0000 -4.5046 0.0000
# 2 -1.5852 72.8479 5.7684 0.0000 1.3387 0.0000
# 3 46.5835 5.7684 160.8791 0.0000 1.3364 0.0000
# 4 0.0000 0.0000 0.0000 18.1316 0.0000 0.4241
# 5 -4.5046 1.3387 1.3364 0.0000 54.5393 0.0000
# 6 0.0000 0.0000 0.0000 0.4241 0.0000 15.7675
#
#
#
# Elastic Compliance Matrix: (Units=1/GPa)
#
#
# Indices 1 2 3 4 5 6 
#
# 1 0.006086 0.000263 -0.001776 0.000000 0.000540 0.000000
# 2 0.000263 0.013783 -0.000568 0.000000 -0.000303 0.000000
# 3 -0.001776 -0.000568 0.006753 0.000000 -0.000298 0.000000
# 4 0.000000 0.000000 0.000000 0.055187 0.000000 -0.001484
# 5 0.000540 -0.000303 -0.000298 0.000000 0.018395 0.000000
# 6 0.000000 0.000000 0.000000 -0.001484 0.000000 0.063461
#
#
# Mechanical properties :
#
#
# Convention : Reuss Voigt Hill
#
# Bulk Modulus (GPa) = 44.52193 57.06967 50.79580
# Shear Modulus (GPa) = 28.52011 41.77613 35.14812
#
# Velocity S-wave (km/s) = 3.31894 4.01687 3.68447
# Velocity P-wave (km/s) = 5.64649 6.59967 6.14160
#
# Compressibility (1/GPa) = 0.02246084
#
# Stress axis : x y z
#
# Youngs Moduli (GPa) = 164.30340 72.55059 148.08212
#
# Poissons Ratio (x) = -0.01909 0.26303
# Poissons Ratio (y) = -0.04324 0.08410
# Poissons Ratio (z) = 0.29184 0.04120
#
# Static dielectric constant tensor:
#      x y z
#    x 2.129320 0.000000 -0.023570 
#    y 0.000000 2.183410 0.000000 
#    z -0.023570 0.000000 1.999870 
# 
# From -- ./inp_files/12218.got.cif
#   From: 2010.05.17/outbox.cif.g08.bks.cpg/sg4_7_cif.got.tgz:12218.got - 2010.06.03 18:43:04.
