data_PCOD9115461
_publ_section_title
;
Structure prediction by ZEFSAII (Michael W. Deem and Ramdas Pophale) SiO2 
 PCOD9115461
Probable space group: P 21
;
_chemical_formula_sum "Si O2"
_cell_formula_units_Z 16
_cell_length_a 6.777156
_cell_length_b 5.266575
_cell_length_c 19.711956
_cell_angle_alpha 90.000000
_cell_angle_beta 121.933686
_cell_angle_gamma 90.000000
_cell_volume 597.089794
_symmetry_space_group_name_H-M "P 21"
_symmetry_group_IT_number 4
_symmetry_cell_setting 'monoclinic'
loop_
_space_group_symop_operation_xyz
x,y,z
-x,1/2+y,-z
loop_
_atom_site_type_symbol
_atom_site_label
_atom_site_fract_x
_atom_site_fract_y
_atom_site_fract_z
Si Si1 0.635350 0.405800 0.592927
Si Si2 0.325727 0.596714 0.044020
Si Si3 0.025079 0.943613 0.764384
Si Si4 0.318644 0.978537 0.693590
Si Si5 0.330473 0.919147 0.541988
Si Si6 0.811671 0.211611 0.843196
Si Si7 0.653830 0.595575 0.731629
Si Si8 0.369390 0.597386 0.896535
O O1 0.442788 0.636060 0.566216
O O2 0.796208 0.441990 0.555306
O O3 0.715478 0.391704 0.685369
O O4 0.520452 0.134345 0.561620
O O5 0.144351 0.637311 0.071745
O O6 0.440423 0.321873 0.074030
O O7 0.509155 0.826572 0.091355
O O8 0.268619 0.612715 0.954641
O O9 0.119435 0.041479 0.710742
O O10 0.178567 0.693642 0.809175
O O11 0.766767 0.835545 0.715002
O O12 0.013310 0.109916 0.830527
O O13 0.242324 0.008996 0.600472
O O14 0.397904 0.681649 0.705378
O O15 0.552963 0.109237 0.770206
O O16 0.778427 0.508666 0.822445
#
# Coordination Sequence:
#
# PCOD9115461 Si02
#       8
#     2   2   2   2   2   2   2   2
#     4   9  17  33  58  87 120 151 211 244 296 360
#     4  10  22  42  68  88 123 163 204 246 309 357
#     4  11  24  38  61  94 122 159 207 251 302 364
#     4  10  20  39  62  85 124 159 209 245 306 358
#     4   9  17  32  60  88 111 165 201 246 298 360
#     4  11  22  38  62  91 121 163 199 255 301 361
#     4  10  22  37  60  89 122 164 200 256 301 359
#     4  10  22  43  65  92 121 164 201 251 301 369
#
# _framework density 26.796643
#
# number of rings (size 3 to 8) (size 9 to 14) (size 15 to 20)
#    0.000    2.000    2.500    0.750    3.500    1.000 
#    2.250    0.000    2.750    0.000    0.000    0.000 
#    0.000    0.000    0.000    0.000    0.000    0.000 
#
# Total GULP energy -89145.069007 kJ/mol
# GULP energy per Si atom -5571.566813 kJ/mol
# Density = 2.673565 g / cm^3
# Si number density = 26.796643 Si / 1000 Ang^3
#
#
#
# Elastic Constant Matrix: (Units=GPa)
#
#
# Indices 1 2 3 4 5 6 
#
# 1 103.4724 19.3909 54.6879 0.0000 -58.9656 0.0000
# 2 19.3909 89.0569 9.7397 0.0000 -4.8169 0.0000
# 3 54.6879 9.7397 116.9393 0.0000 -57.4211 0.0000
# 4 0.0000 0.0000 0.0000 159.5435 0.0000 -16.4381
# 5 -58.9656 -4.8169 -57.4211 0.0000 55.0972 0.0000
# 6 0.0000 0.0000 0.0000 -16.4381 0.0000 25.7326
#
#
#
# Elastic Compliance Matrix: (Units=1/GPa)
#
#
# Indices 1 2 3 4 5 6 
#
# 1 0.026965 -0.004521 0.003569 0.000000 0.032182 0.000000
# 2 -0.004521 0.012090 -0.001535 0.000000 -0.005381 0.000000
# 3 0.003569 -0.001535 0.018064 0.000000 0.022511 0.000000
# 4 0.000000 0.000000 0.000000 0.006709 0.000000 0.004286
# 5 0.032182 -0.005381 0.022511 0.000000 0.075581 0.000000
# 6 0.000000 0.000000 0.000000 0.004286 0.000000 0.041599
#
#
# Mechanical properties :
#
#
# Convention : Reuss Voigt Hill
#
# Bulk Modulus (GPa) = 19.17747 53.01171 36.09459
# Shear Modulus (GPa) = 24.58628 63.11802 43.85215
#
# Velocity S-wave (km/s) = 3.03233 4.85856 4.04973
# Velocity P-wave (km/s) = 4.40821 7.16240 5.94694
#
# Compressibility (1/GPa) = 0.05214451
#
# Stress axis : x y z
#
# Youngs Moduli (GPa) = 37.08481 82.71321 55.35871
#
# Poissons Ratio (x) = 0.37394 -0.19755
# Poissons Ratio (y) = 0.16766 0.08498
# Poissons Ratio (z) = -0.13234 0.12697
#
# Static dielectric constant tensor:
#      x y z
#    x 2.108810 0.000000 0.023510 
#    y 0.000000 2.201810 0.000000 
#    z 0.023510 0.000000 2.196100 
# 
# From -- ./inp_files/4176.got.cif
#   From: 2010.05.17/outbox.cif.g08.bks.cpg/sg4_3_cif.got.tgz:4176.got - 2010.06.03 18:43:04.
