data_PCOD9115229
_publ_section_title
;
Structure prediction by ZEFSAII (Michael W. Deem and Ramdas Pophale) SiO2 
 PCOD9115229
Probable space group: P 21
;
_chemical_formula_sum "Si O2"
_cell_formula_units_Z 14
_cell_length_a 17.079906
_cell_length_b 5.414866
_cell_length_c 5.428109
_cell_angle_alpha 90.000000
_cell_angle_beta 103.071886
_cell_angle_gamma 90.000000
_cell_volume 489.012010
_symmetry_space_group_name_H-M "P 21"
_symmetry_group_IT_number 4
_symmetry_cell_setting 'monoclinic'
loop_
_space_group_symop_operation_xyz
x,y,z
-x,1/2+y,-z
loop_
_atom_site_type_symbol
_atom_site_label
_atom_site_fract_x
_atom_site_fract_y
_atom_site_fract_z
Si Si1 0.604076 0.463340 0.851704
Si Si2 0.883652 0.099520 0.296264
Si Si3 0.743552 0.158104 0.885654
Si Si4 0.970097 0.673433 0.864664
Si Si5 0.317147 0.401881 0.654824
Si Si6 0.457042 0.718042 0.691963
Si Si7 0.176824 0.096727 0.504298
O O1 0.698987 0.421670 0.889801
O O2 0.553242 0.711286 0.781490
O O3 0.568925 0.310934 0.594091
O O4 0.577224 0.371963 0.102342
O O5 0.858032 0.827070 0.361894
O O6 0.978948 0.117471 0.346024
O O7 0.848816 0.326357 0.429142
O O8 0.837697 0.151082 0.005463
O O9 0.721126 0.052360 0.603587
O O10 0.706851 0.002551 0.091158
O O11 0.874626 0.644471 0.778228
O O12 0.996038 0.950046 0.947202
O O13 0.411423 0.454151 0.694654
O O14 0.272354 0.141600 0.583844
#
# Coordination Sequence:
#
# PCOD9115229 Si02
#       7
#     2   2   2   2   2   2   2
#     4  10  20  36  58  87 124 165 212 266 325 388
#     4  11  23  42  65  93 130 174 221 272 331 394
#     4   9  20  39  61  88 127 171 217 270 328 390
#     4  12  24  40  64  96 132 174 222 274 332 394
#     4   9  20  39  61  88 127 171 217 270 328 390
#     4  10  20  36  58  87 124 165 212 266 325 388
#     4  11  23  42  65  93 130 174 221 272 331 394
#
# _framework density 28.629152999999999
#
# number of rings (size 3 to 8) (size 9 to 14) (size 15 to 20)
#    0.000    1.714    0.000    4.286    0.000    3.429 
#    0.000    7.143    0.000    0.000    0.000    0.000 
#    0.000    0.000    0.000    0.000    0.000    0.000 
#
# Total GULP energy -78329.047037 kJ/mol
# GULP energy per Si atom -5594.931931 kJ/mol
# Density = 2.856399 g / cm^3
# Si number density = 28.629153 Si / 1000 Ang^3
#
#
#
# Elastic Constant Matrix: (Units=GPa)
#
#
# Indices 1 2 3 4 5 6 
#
# 1 77.4382 44.8699 57.6469 0.0000 3.8461 0.0000
# 2 44.8699 80.2199 71.2158 0.0000 -19.4629 0.0000
# 3 57.6469 71.2158 143.2976 0.0000 -2.5816 0.0000
# 4 0.0000 0.0000 0.0000 68.0977 0.0000 -8.1218
# 5 3.8461 -19.4629 -2.5816 0.0000 51.7413 0.0000
# 6 0.0000 0.0000 0.0000 -8.1218 0.0000 50.9343
#
#
#
# Elastic Compliance Matrix: (Units=1/GPa)
#
#
# Indices 1 2 3 4 5 6 
#
# 1 0.022020 -0.010278 -0.003853 0.000000 -0.005695 0.000000
# 2 -0.010278 0.030816 -0.010967 0.000000 0.011808 0.000000
# 3 -0.003853 -0.010967 0.013923 0.000000 -0.003144 0.000000
# 4 0.000000 0.000000 0.000000 0.014969 0.000000 0.002387
# 5 -0.005695 0.011808 -0.003144 0.000000 0.024035 0.000000
# 6 0.000000 0.000000 0.000000 0.002387 0.000000 0.020014
#
#
# Mechanical properties :
#
#
# Convention : Reuss Voigt Hill
#
# Bulk Modulus (GPa) = 60.38034 72.04676 66.21355
# Shear Modulus (GPa) = 27.54917 42.63620 35.09268
#
# Velocity S-wave (km/s) = 3.10542 3.86328 3.50489
# Velocity P-wave (km/s) = 5.83048 6.71714 6.28946
#
# Compressibility (1/GPa) = 0.01656168
#
# Stress axis : x y z
#
# Youngs Moduli (GPa) = 45.41344 32.45094 71.82596
#
# Poissons Ratio (x) = 0.33352 0.27676
# Poissons Ratio (y) = 0.46674 0.78775
# Poissons Ratio (z) = 0.17499 0.35591
#
# Static dielectric constant tensor:
#      x y z
#    x 2.216780 0.000000 -0.009760 
#    y 0.000000 2.284270 0.000000 
#    z -0.009760 0.000000 2.245180 
# 
# From -- ./inp_files/3885.got.cif
#   From: 2010.05.17/outbox.cif.g08.bks.cpg/sg4_2_cif.got.tgz:3885.got - 2010.06.03 18:43:04.
