data_PCOD9115933
_publ_section_title
;
Structure prediction by ZEFSAII (Michael W. Deem and Ramdas Pophale) SiO2 
 PCOD9115933
Probable space group: P 21
;
_chemical_formula_sum "Si O2"
_cell_formula_units_Z 16
_cell_length_a 11.005100
_cell_length_b 11.870378
_cell_length_c 9.277425
_cell_angle_alpha 90.000000
_cell_angle_beta 43.609708
_cell_angle_gamma 90.000000
_cell_volume 835.935587
_symmetry_space_group_name_H-M "P 21"
_symmetry_group_IT_number 4
_symmetry_cell_setting 'monoclinic'
loop_
_space_group_symop_operation_xyz
x,y,z
-x,1/2+y,-z
loop_
_atom_site_type_symbol
_atom_site_label
_atom_site_fract_x
_atom_site_fract_y
_atom_site_fract_z
Si Si1 0.734071 0.735680 0.529607
Si Si2 0.071868 0.595980 0.267741
Si Si3 0.326243 0.750117 0.872466
Si Si4 0.140031 0.966411 0.032347
Si Si5 0.667940 0.107482 0.401416
Si Si6 0.862501 0.984799 0.488514
Si Si7 0.281918 0.194962 0.794416
Si Si8 0.163441 0.429144 0.932428
O O1 0.526608 0.712570 0.730447
O O2 0.773566 0.861934 0.550368
O O3 0.760777 0.725905 0.334268
O O4 0.878009 0.647245 0.463858
O O5 0.143843 0.538015 0.349453
O O6 0.194382 0.697092 0.102429
O O7 0.084509 0.503409 0.129440
O O8 0.306902 0.884495 0.884688
O O9 0.268963 0.703811 0.763906
O O10 0.172230 0.091469 0.949244
O O11 0.060626 0.967766 0.260133
O O12 0.991820 0.916444 0.052063
O O13 0.480764 0.149758 0.618048
O O14 0.779911 0.070976 0.442856
O O15 0.681744 0.998420 0.283698
O O16 0.240384 0.309605 0.914129
#
# Coordination Sequence:
#
# PCOD9115933 Si02
#       8
#     2   2   2   2   2   2   2   2
#     4  11  21  43  66  91 127 172 205 271 323 371
#     4  11  23  45  61  91 135 172 206 264 315 393
#     4  10  22  42  69  92 128 164 216 267 323 368
#     4  11  21  37  67  94 120 168 210 265 321 374
#     4   9  21  38  65  94 123 159 213 269 313 371
#     4  11  23  40  63  91 134 169 213 254 322 384
#     4  11  20  37  68  95 122 157 223 275 313 371
#     4  10  21  38  63  94 123 165 214 261 324 376
#
# _framework density 19.140229999999999
#
# number of rings (size 3 to 8) (size 9 to 14) (size 15 to 20)
#    0.000    1.500    5.000    0.750    5.250    1.000 
#    6.750    0.000    0.000    0.000    0.000    0.000 
#    0.000    0.000    0.000    0.000    0.000    0.000 
#
# Total GULP energy -89215.172066 kJ/mol
# GULP energy per Si atom -5575.948254 kJ/mol
# Density = 1.909667 g / cm^3
# Si number density = 19.140230 Si / 1000 Ang^3
#
#
#
# Elastic Constant Matrix: (Units=GPa)
#
#
# Indices 1 2 3 4 5 6 
#
# 1 51.2125 24.0894 28.7737 0.0000 6.2911 0.0000
# 2 24.0894 102.9083 35.3711 0.0000 -19.2495 0.0000
# 3 28.7737 35.3711 64.5165 0.0000 -6.2252 0.0000
# 4 0.0000 0.0000 0.0000 24.3875 0.0000 -5.5674
# 5 6.2911 -19.2495 -6.2252 0.0000 25.4884 0.0000
# 6 0.0000 0.0000 0.0000 -5.5674 0.0000 25.5312
#
#
#
# Elastic Compliance Matrix: (Units=1/GPa)
#
#
# Indices 1 2 3 4 5 6 
#
# 1 0.030888 -0.005924 -0.011978 0.000000 -0.015023 0.000000
# 2 -0.005924 0.014753 -0.004332 0.000000 0.011546 0.000000
# 3 -0.011978 -0.004332 0.023746 0.000000 0.005484 0.000000
# 4 0.000000 0.000000 0.000000 0.043153 0.000000 0.009410
# 5 -0.015023 0.011546 0.005484 0.000000 0.053000 0.000000
# 6 0.000000 0.000000 0.000000 0.009410 0.000000 0.041220
#
#
# Mechanical properties :
#
#
# Convention : Reuss Voigt Hill
#
# Bulk Modulus (GPa) = 40.12883 43.90065 42.01474
# Shear Modulus (GPa) = 19.26534 23.77496 21.52015
#
# Velocity S-wave (km/s) = 3.17604 3.52823 3.35676
# Velocity P-wave (km/s) = 5.87033 6.29158 6.08461
#
# Compressibility (1/GPa) = 0.02491974
#
# Stress axis : x y z
#
# Youngs Moduli (GPa) = 32.37514 67.78387 42.11216
#
# Poissons Ratio (x) = 0.40153 0.50440
# Poissons Ratio (y) = 0.19178 0.18244
# Poissons Ratio (z) = 0.38778 0.29366
#
# Static dielectric constant tensor:
#      x y z
#    x 1.671140 0.000000 -0.032550 
#    y 0.000000 1.692310 0.000000 
#    z -0.032550 0.000000 1.684050 
# 
# From -- ./inp_files/5904.got.cif
#   From: 2010.05.17/outbox.cif.g08.bks.cpg/sg4_3_cif.got.tgz:5904.got - 2010.06.03 18:43:04.
