data_PCOD9115174
_publ_section_title
;
Structure prediction by ZEFSAII (Michael W. Deem and Ramdas Pophale) SiO2 
 PCOD9115174
Probable space group: P 21
;
_chemical_formula_sum "Si O2"
_cell_formula_units_Z 16
_cell_length_a 12.631672
_cell_length_b 5.427363
_cell_length_c 19.973247
_cell_angle_alpha 90.000000
_cell_angle_beta 149.590491
_cell_angle_gamma 90.000000
_cell_volume 693.107673
_symmetry_space_group_name_H-M "P 21"
_symmetry_group_IT_number 4
_symmetry_cell_setting 'monoclinic'
loop_
_space_group_symop_operation_xyz
x,y,z
-x,1/2+y,-z
loop_
_atom_site_type_symbol
_atom_site_label
_atom_site_fract_x
_atom_site_fract_y
_atom_site_fract_z
Si Si1 0.959660 0.533560 0.383997
Si Si2 0.160071 0.602900 0.354064
Si Si3 0.083924 0.093264 0.903916
Si Si4 0.388823 0.096349 0.178749
Si Si5 0.475706 0.396490 0.418537
Si Si6 0.920180 0.042549 0.398232
Si Si7 0.419194 0.097794 0.660014
Si Si8 0.144538 0.091674 0.172829
O O1 0.105147 0.519623 0.398601
O O2 0.823281 0.289418 0.316032
O O3 0.081527 0.542943 0.522077
O O4 0.842704 0.793351 0.322729
O O5 0.330738 0.459085 0.402160
O O6 0.284352 0.858811 0.430164
O O7 0.953664 0.602203 0.196196
O O8 0.960089 0.338185 0.861265
O O9 0.311006 0.101710 0.060441
O O10 0.985088 0.834354 0.875849
O O11 0.500933 0.350939 0.259512
O O12 0.183782 0.089791 0.114980
O O13 0.508426 0.844887 0.263279
O O14 0.479253 0.586047 0.358707
O O15 0.372575 0.150861 0.329784
O O16 0.169137 0.066923 0.517843
#
# Coordination Sequence:
#
# PCOD9115174 Si02
#       8
#     2   2   2   2   2   2   2   2
#     4  10  22  38  62  84 118 149 191 237 294 349
#     4  11  22  36  56  88 125 159 182 238 289 377
#     4  11  22  36  53  78 117 155 198 226 286 344
#     4  11  21  35  57  81 108 155 196 248 275 328
#     4  10  22  33  56  89 122 159 188 229 307 356
#     4  10  21  40  60  88 110 149 196 245 289 341
#     4  11  22  37  60  83 116 146 199 243 287 329
#     4  10  20  35  52  77 112 158 196 238 271 338
#
# _framework density 23.084436
#
# number of rings (size 3 to 8) (size 9 to 14) (size 15 to 20)
#    0.000    1.500    1.250    5.250    3.500    2.000 
#    0.000    0.000    0.000    1.500    0.000    0.000 
#    0.000    0.000    0.000    0.000    0.000    0.000 
#
# Total GULP energy -89372.391636 kJ/mol
# GULP energy per Si atom -5585.774477 kJ/mol
# Density = 2.303189 g / cm^3
# Si number density = 23.084436 Si / 1000 Ang^3
#
#
#
# Elastic Constant Matrix: (Units=GPa)
#
#
# Indices 1 2 3 4 5 6 
#
# 1 139.7997 30.2099 31.8433 0.0000 -25.7859 0.0000
# 2 30.2099 179.5669 41.3350 0.0000 -2.7139 0.0000
# 3 31.8433 41.3350 77.4549 0.0000 -22.7475 0.0000
# 4 0.0000 0.0000 0.0000 25.0708 0.0000 -1.2185
# 5 -25.7859 -2.7139 -22.7475 0.0000 23.8294 0.0000
# 6 0.0000 0.0000 0.0000 -1.2185 0.0000 25.1639
#
#
#
# Elastic Compliance Matrix: (Units=1/GPa)
#
#
# Indices 1 2 3 4 5 6 
#
# 1 0.009284 -0.001356 -0.000261 0.000000 0.009643 0.000000
# 2 -0.001356 0.006763 -0.004525 0.000000 -0.005017 0.000000
# 3 -0.000261 -0.004525 0.021119 0.000000 0.019362 0.000000
# 4 0.000000 0.000000 0.000000 0.039981 0.000000 0.001936
# 5 0.009643 -0.005017 0.019362 0.000000 0.070311 0.000000
# 6 0.000000 0.000000 0.000000 0.001936 0.000000 0.039833
#
#
# Mechanical properties :
#
#
# Convention : Reuss Voigt Hill
#
# Bulk Modulus (GPa) = 40.18998 67.06645 53.62821
# Shear Modulus (GPa) = 24.05344 34.37505 29.21424
#
# Velocity S-wave (km/s) = 3.23147 3.86307 3.56130
# Velocity P-wave (km/s) = 5.60098 7.00097 6.33974
#
# Compressibility (1/GPa) = 0.02488182
#
# Stress axis : x y z
#
# Youngs Moduli (GPa) = 107.70967 147.86599 47.34968
#
# Poissons Ratio (x) = 0.20051 0.01238
# Poissons Ratio (y) = 0.14606 0.21425
# Poissons Ratio (z) = 0.02815 0.66908
#
# Static dielectric constant tensor:
#      x y z
#    x 1.882240 0.000000 -0.001100 
#    y 0.000000 1.965060 0.000000 
#    z -0.001100 0.000000 1.930140 
# 
# From -- ./inp_files/12406.got.cif
#   From: 2010.05.17/outbox.cif.g08.bks.cpg/sg4_7_cif.got.tgz:12406.got - 2010.06.03 18:43:04.
