data_PCOD9115078
_publ_section_title
;
Structure prediction by ZEFSAII (Michael W. Deem and Ramdas Pophale) SiO2 
 PCOD9115078
Probable space group: P 21
;
_chemical_formula_sum "Si O2"
_cell_formula_units_Z 16
_cell_length_a 6.622570
_cell_length_b 12.769557
_cell_length_c 10.284203
_cell_angle_alpha 90.000000
_cell_angle_beta 117.151736
_cell_angle_gamma 90.000000
_cell_volume 773.866360
_symmetry_space_group_name_H-M "P 21"
_symmetry_group_IT_number 4
_symmetry_cell_setting 'monoclinic'
loop_
_space_group_symop_operation_xyz
x,y,z
-x,1/2+y,-z
loop_
_atom_site_type_symbol
_atom_site_label
_atom_site_fract_x
_atom_site_fract_y
_atom_site_fract_z
Si Si1 0.175792 0.899120 0.735776
Si Si2 0.707724 0.977449 0.248790
Si Si3 0.243413 0.059659 0.995890
Si Si4 0.719615 0.754673 0.601148
Si Si5 0.165864 0.043295 0.476328
Si Si6 0.023526 0.410921 0.918272
Si Si7 0.392906 0.880814 0.352958
Si Si8 0.638893 0.766384 0.867057
O O1 0.195287 0.971164 0.611846
O O2 0.388848 0.817385 0.809230
O O3 0.939172 0.832782 0.664450
O O4 0.195041 0.984735 0.858512
O O5 0.489937 0.031667 0.125003
O O6 0.826186 0.918546 0.165700
O O7 0.615673 0.904988 0.335518
O O8 0.899343 0.050580 0.364961
O O9 0.062041 0.021570 0.050352
O O10 0.271019 0.184590 0.997139
O O11 0.749646 0.661375 0.506579
O O12 0.481581 0.807247 0.491761
O O13 0.678416 0.716239 0.736736
O O14 0.289689 0.981589 0.395171
O O15 0.798883 0.348208 0.807206
O O16 0.179746 0.359695 0.071940
#
# Coordination Sequence:
#
# PCOD9115078 Si02
#       8
#     2   2   2   2   2   2   2   2
#     4  12  25  47  70 102 138 174 229 285 326 408
#     4  10  19  41  66  90 136 176 215 277 332 386
#     4  11  24  43  68 101 136 178 225 281 335 397
#     4  12  24  45  70  99 137 183 225 274 346 396
#     4  11  24  43  68 101 136 178 225 281 335 397
#     4  10  22  42  65  97 137 174 225 279 328 404
#     4  10  22  42  65  97 137 174 225 279 328 404
#     4  12  24  45  70  99 137 183 225 274 346 396
#
# _framework density 20.675405999999999
#
# number of rings (size 3 to 8) (size 9 to 14) (size 15 to 20)
#    0.000    1.000    5.000    3.000    0.000    1.000 
#    4.500    0.000    0.000    0.000    0.000    0.000 
#    0.000    0.000    0.000    0.000    0.000    0.000 
#
# Total GULP energy -89155.847601 kJ/mol
# GULP energy per Si atom -5572.240475 kJ/mol
# Density = 2.062835 g / cm^3
# Si number density = 20.675406 Si / 1000 Ang^3
#
#
#
# Elastic Constant Matrix: (Units=GPa)
#
#
# Indices 1 2 3 4 5 6 
#
# 1 70.1604 5.4780 8.4316 0.0000 -12.3432 0.0000
# 2 5.4780 47.2372 1.9213 0.0000 -2.9419 0.0000
# 3 8.4316 1.9213 45.1299 0.0000 -3.6705 0.0000
# 4 0.0000 0.0000 0.0000 31.9180 0.0000 -4.4779
# 5 -12.3432 -2.9419 -3.6705 0.0000 42.0838 0.0000
# 6 0.0000 0.0000 0.0000 -4.4779 0.0000 18.7126
#
#
#
# Elastic Compliance Matrix: (Units=1/GPa)
#
#
# Indices 1 2 3 4 5 6 
#
# 1 0.015401 -0.001424 -0.002475 0.000000 0.004202 0.000000
# 2 -0.001424 0.021422 -0.000562 0.000000 0.001031 0.000000
# 3 -0.002475 -0.000562 0.022744 0.000000 0.001218 0.000000
# 4 0.000000 0.000000 0.000000 0.032419 0.000000 0.007758
# 5 0.004202 0.001031 0.001218 0.000000 0.025173 0.000000
# 6 0.000000 0.000000 0.000000 0.007758 0.000000 0.055296
#
#
# Mechanical properties :
#
#
# Convention : Reuss Voigt Hill
#
# Bulk Modulus (GPa) = 19.74536 21.57659 20.66098
# Shear Modulus (GPa) = 25.21973 28.32265 26.77119
#
# Velocity S-wave (km/s) = 3.49634 3.70519 3.60228
# Velocity P-wave (km/s) = 5.08627 5.36313 5.22653
#
# Compressibility (1/GPa) = 0.05064482
#
# Stress axis : x y z
#
# Youngs Moduli (GPa) = 64.93156 46.68118 43.96822
#
# Poissons Ratio (x) = 0.06646 0.10882
# Poissons Ratio (y) = 0.09244 0.02472
# Poissons Ratio (z) = 0.16070 0.02624
#
# Static dielectric constant tensor:
#      x y z
#    x 1.744880 0.000000 -0.003740 
#    y 0.000000 1.817500 0.000000 
#    z -0.003740 0.000000 1.765920 
# 
# From -- ./inp_files/1448.got.cif
#   From: 2010.05.17/outbox.cif.g08.bks.cpg/sg4_1_cif.got.tgz:1448.got - 2010.06.03 18:43:04.
