data_PCOD9115439
_publ_section_title
;
Structure prediction by ZEFSAII (Michael W. Deem and Ramdas Pophale) SiO2 
 PCOD9115439
Probable space group: P 21
;
_chemical_formula_sum "Si O2"
_cell_formula_units_Z 14
_cell_length_a 11.310756
_cell_length_b 7.627547
_cell_length_c 8.786523
_cell_angle_alpha 90.000000
_cell_angle_beta 44.478019
_cell_angle_gamma 90.000000
_cell_volume 531.111573
_symmetry_space_group_name_H-M "P 21"
_symmetry_group_IT_number 4
_symmetry_cell_setting 'monoclinic'
loop_
_space_group_symop_operation_xyz
x,y,z
-x,1/2+y,-z
loop_
_atom_site_type_symbol
_atom_site_label
_atom_site_fract_x
_atom_site_fract_y
_atom_site_fract_z
Si Si1 0.846898 0.217410 0.090300
Si Si2 0.806258 0.470374 0.573131
Si Si3 0.783601 0.603279 0.283236
Si Si4 0.628009 0.322482 0.029034
Si Si5 0.252869 0.320532 0.259676
Si Si6 0.593427 0.717376 0.181380
Si Si7 0.199916 0.641680 0.535964
O O1 0.818542 0.417060 0.170849
O O2 0.829919 0.099440 0.258769
O O3 0.715106 0.199250 0.073400
O O4 0.035172 0.190838 0.857788
O O5 0.711832 0.554273 0.513070
O O6 0.731708 0.356751 0.780305
O O7 0.861555 0.650539 0.601633
O O8 0.914106 0.314918 0.395183
O O9 0.666013 0.722690 0.285179
O O10 0.441683 0.272608 0.147910
O O11 0.621666 0.517483 0.102412
O O12 0.194618 0.484799 0.417671
O O13 0.303501 0.334642 0.034688
O O14 0.391102 0.720969 0.362930
#
# Coordination Sequence:
#
# PCOD9115439 Si02
#       7
#     2   2   2   2   2   2   2
#     4  10  23  43  63  93 136 174 222 276 328 403
#     4  10  21  39  63  95 130 165 216 276 328 389
#     4  10  23  43  63  94 133 174 222 274 330 401
#     4   9  19  39  64  93 131 167 216 275 328 390
#     4  10  20  38  68  98 127 168 215 273 334 399
#     4   9  19  39  66  94 132 166 217 274 326 395
#     4  10  21  39  65  99 129 168 216 274 332 391
#
# _framework density 26.359812000000002
#
# number of rings (size 3 to 8) (size 9 to 14) (size 15 to 20)
#    0.000    2.286    1.429    0.000    4.000    0.000 
#    5.143    8.571    3.143    0.000    0.000    0.000 
#    0.000    0.000    0.000    0.000    0.000    0.000 
#
# Total GULP energy -78076.196208 kJ/mol
# GULP energy per Si atom -5576.871158 kJ/mol
# Density = 2.629982 g / cm^3
# Si number density = 26.359812 Si / 1000 Ang^3
#
#
#
# Elastic Constant Matrix: (Units=GPa)
#
#
# Indices 1 2 3 4 5 6 
#
# 1 83.4487 47.4589 29.1083 0.0000 10.1092 0.0000
# 2 47.4589 118.9403 53.9686 0.0000 15.4978 0.0000
# 3 29.1083 53.9686 94.2497 0.0000 27.1766 0.0000
# 4 0.0000 0.0000 0.0000 47.0337 0.0000 12.8248
# 5 10.1092 15.4978 27.1766 0.0000 38.1806 0.0000
# 6 0.0000 0.0000 0.0000 12.8248 0.0000 33.4960
#
#
#
# Elastic Compliance Matrix: (Units=1/GPa)
#
#
# Indices 1 2 3 4 5 6 
#
# 1 0.015726 -0.005501 -0.001447 0.000000 -0.000901 0.000000
# 2 -0.005501 0.013283 -0.006005 0.000000 0.000339 0.000000
# 3 -0.001447 -0.006005 0.017216 0.000000 -0.009433 0.000000
# 4 0.000000 0.000000 0.000000 0.023740 0.000000 -0.009089
# 5 -0.000901 0.000339 -0.009433 0.000000 0.033007 0.000000
# 6 0.000000 0.000000 0.000000 -0.009089 0.000000 0.033334
#
#
# Mechanical properties :
#
#
# Convention : Reuss Voigt Hill
#
# Bulk Modulus (GPa) = 49.21600 61.96780 55.59190
# Shear Modulus (GPa) = 29.58865 34.81560 32.20213
#
# Velocity S-wave (km/s) = 3.35399 3.63820 3.49898
# Velocity P-wave (km/s) = 5.80607 6.41936 6.12040
#
# Compressibility (1/GPa) = 0.02031860
#
# Stress axis : x y z
#
# Youngs Moduli (GPa) = 63.59005 75.28431 58.08687
#
# Poissons Ratio (x) = 0.41412 0.08406
# Poissons Ratio (y) = 0.34979 0.34881
# Poissons Ratio (z) = 0.09203 0.45207
#
# Static dielectric constant tensor:
#      x y z
#    x 2.232590 0.000000 0.014050 
#    y 0.000000 2.127840 0.000000 
#    z 0.014050 0.000000 2.074620 
# 
# From -- ./inp_files/5797.got.cif
#   From: 2010.05.17/outbox.cif.g08.bks.cpg/sg4_3_cif.got.tgz:5797.got - 2010.06.03 18:43:04.
