data_PCOD9115182
_publ_section_title
;
Structure prediction by ZEFSAII (Michael W. Deem and Ramdas Pophale) SiO2 
 PCOD9115182
Probable space group: P 21
;
_chemical_formula_sum "Si O2"
_cell_formula_units_Z 16
_cell_length_a 14.026994
_cell_length_b 5.059257
_cell_length_c 13.475845
_cell_angle_alpha 90.000000
_cell_angle_beta 117.962159
_cell_angle_gamma 90.000000
_cell_volume 844.684792
_symmetry_space_group_name_H-M "P 21"
_symmetry_group_IT_number 4
_symmetry_cell_setting 'monoclinic'
loop_
_space_group_symop_operation_xyz
x,y,z
-x,1/2+y,-z
loop_
_atom_site_type_symbol
_atom_site_label
_atom_site_fract_x
_atom_site_fract_y
_atom_site_fract_z
Si Si1 0.755017 0.731710 0.085978
Si Si2 0.527976 0.975976 0.949233
Si Si3 0.861250 0.383212 0.972927
Si Si4 0.790476 0.038421 0.398336
Si Si5 0.118386 0.382713 0.138106
Si Si6 0.939306 0.032455 0.282019
Si Si7 0.325050 0.052302 0.736933
Si Si8 0.085857 0.534308 0.337020
O O1 0.848691 0.942644 0.158725
O O2 0.722377 0.598186 0.175096
O O3 0.649568 0.880642 0.994302
O O4 0.794949 0.509525 0.030119
O O5 0.450336 0.988868 0.816374
O O6 0.476687 0.758641 0.999021
O O7 0.848276 0.589596 0.875805
O O8 0.837485 0.092670 0.920354
O O9 0.987693 0.393555 0.064787
O O10 0.885801 0.995154 0.363986
O O11 0.699285 0.822131 0.331553
O O12 0.839101 0.009249 0.530665
O O13 0.739521 0.321223 0.348516
O O14 0.143623 0.467850 0.261935
O O15 0.036058 0.826783 0.312967
O O16 0.986633 0.325686 0.297025
#
# Coordination Sequence:
#
# PCOD9115182 Si02
#       8
#     2   2   2   2   2   2   2   2
#     4  10  21  35  59  81 113 148 173 217 281 330
#     4  10  20  35  55  82 112 143 176 220 274 333
#     4  10  21  35  52  75 105 145 179 218 267 312
#     4  11  22  35  53  76 108 147 183 219 262 320
#     4  10  22  35  50  73 107 144 184 223 254 307
#     4  11  21  32  52  78 109 141 182 217 260 328
#     4  10  21  37  53  82 111 138 178 225 266 326
#     4  12  22  36  52  75 107 150 183 223 262 306
#
# _framework density 18.941976
#
# number of rings (size 3 to 8) (size 9 to 14) (size 15 to 20)
#    0.000    1.500    1.250    6.000    3.500    4.000 
#    0.000    0.000    0.000    0.000    0.000    3.500 
#    0.000    0.000    0.000    0.000    0.000    0.000 
#
# Total GULP energy -89469.395014 kJ/mol
# GULP energy per Si atom -5591.837188 kJ/mol
# Density = 1.889886 g / cm^3
# Si number density = 18.941976 Si / 1000 Ang^3
#
#
#
# Elastic Constant Matrix: (Units=GPa)
#
#
# Indices 1 2 3 4 5 6 
#
# 1 33.2555 -3.9185 31.5881 0.0000 6.6374 0.0000
# 2 -3.9185 57.7146 4.1443 0.0000 -0.3419 0.0000
# 3 31.5881 4.1443 90.5163 0.0000 -7.2394 0.0000
# 4 0.0000 0.0000 0.0000 4.8251 0.0000 9.0002
# 5 6.6374 -0.3419 -7.2394 0.0000 19.1162 0.0000
# 6 0.0000 0.0000 0.0000 9.0002 0.0000 21.1391
#
#
#
# Elastic Compliance Matrix: (Units=1/GPa)
#
#
# Indices 1 2 3 4 5 6 
#
# 1 0.058131 0.005416 -0.022832 0.000000 -0.028733 0.000000
# 2 0.005416 0.017888 -0.002922 0.000000 -0.002667 0.000000
# 3 -0.022832 -0.002922 0.020397 0.000000 0.015600 0.000000
# 4 0.000000 0.000000 0.000000 1.006873 0.000000 -0.428688
# 5 -0.028733 -0.002667 0.015600 0.000000 0.068148 0.000000
# 6 0.000000 0.000000 0.000000 -0.428688 0.000000 0.229824
#
#
# Mechanical properties :
#
#
# Convention : Reuss Voigt Hill
#
# Bulk Modulus (GPa) = 17.94076 27.23491 22.58783
# Shear Modulus (GPa) = 3.42344 18.99426 11.20885
#
# Velocity S-wave (km/s) = 1.34583 3.17007 2.43522
# Velocity P-wave (km/s) = 3.45065 5.27337 4.45620
#
# Compressibility (1/GPa) = 0.05573900
#
# Stress axis : x y z
#
# Youngs Moduli (GPa) = 17.20260 55.90210 49.02649
#
# Poissons Ratio (x) = -0.30277 1.11939
# Poissons Ratio (y) = -0.09317 0.14328
# Poissons Ratio (z) = 0.39278 0.16337
#
# Static dielectric constant tensor:
#      x y z
#    x 1.663040 0.000000 -0.010550 
#    y 0.000000 1.668370 0.000000 
#    z -0.010550 0.000000 1.663170 
# 
# From -- ./inp_files/12444.got.cif
#   From: 2010.05.17/outbox.cif.g08.bks.cpg/sg4_7_cif.got.tgz:12444.got - 2010.06.03 18:43:04.
