data_PCOD9115902
_publ_section_title
;
Structure prediction by ZEFSAII (Michael W. Deem and Ramdas Pophale) SiO2 
 PCOD9115902
Probable space group: P 21
;
_chemical_formula_sum "Si O2"
_cell_formula_units_Z 16
_cell_length_a 6.103104
_cell_length_b 7.852037
_cell_length_c 12.510919
_cell_angle_alpha 90.000000
_cell_angle_beta 73.729161
_cell_angle_gamma 90.000000
_cell_volume 575.532741
_symmetry_space_group_name_H-M "P 21"
_symmetry_group_IT_number 4
_symmetry_cell_setting 'monoclinic'
loop_
_space_group_symop_operation_xyz
x,y,z
-x,1/2+y,-z
loop_
_atom_site_type_symbol
_atom_site_label
_atom_site_fract_x
_atom_site_fract_y
_atom_site_fract_z
Si Si1 0.816286 0.142930 0.757213
Si Si2 0.138866 0.964388 0.563530
Si Si3 0.441350 0.384227 0.842755
Si Si4 0.972905 0.694017 0.052920
Si Si5 0.437634 0.277505 0.502514
Si Si6 0.319786 0.225298 0.270002
Si Si7 0.629224 0.398209 0.059104
Si Si8 0.061305 0.487981 0.644357
O O1 0.561779 0.215813 0.775570
O O2 0.951453 0.316764 0.707925
O O3 0.889054 0.110241 0.868798
O O4 0.930379 0.995894 0.671394
O O5 0.290015 0.795132 0.534297
O O6 0.040807 0.997859 0.460937
O O7 0.326904 0.107539 0.565943
O O8 0.171319 0.356848 0.884728
O O9 0.528951 0.553059 0.772999
O O10 0.531213 0.386952 0.952905
O O11 0.773466 0.571671 0.041360
O O12 0.171299 0.758964 0.949338
O O13 0.364765 0.277016 0.387488
O O14 0.322337 0.430181 0.587764
O O15 0.431985 0.360281 0.171915
O O16 0.063615 0.149046 0.283290
#
# Coordination Sequence:
#
# PCOD9115902 Si02
#       8
#     2   2   2   2   2   2   2   2
#     4   9  21  38  60  91 123 165 210 255 321 378
#     4  10  21  38  60  91 125 163 213 267 318 380
#     4  10  22  42  64  92 131 170 211 264 319 379
#     4  11  23  41  66  93 132 169 211 270 318 382
#     4  10  22  39  62  91 126 167 213 264 324 382
#     4  10  21  41  65  92 126 168 215 261 319 382
#     4  11  23  41  65  97 130 169 217 263 321 385
#     4   9  21  40  60  89 129 165 208 264 318 380
#
# _framework density 27.800329000000001
#
# number of rings (size 3 to 8) (size 9 to 14) (size 15 to 20)
#    0.000    2.000    0.000    2.250    0.000   12.000 
#    0.000   11.250    0.000    0.000    0.000    0.000 
#    0.000    0.000    0.000    0.000    0.000    0.000 
#
# Total GULP energy -89591.384290 kJ/mol
# GULP energy per Si atom -5599.461518 kJ/mol
# Density = 2.773705 g / cm^3
# Si number density = 27.800329 Si / 1000 Ang^3
#
#
#
# Elastic Constant Matrix: (Units=GPa)
#
#
# Indices 1 2 3 4 5 6 
#
# 1 105.6482 9.9218 36.2071 0.0000 -33.9122 0.0000
# 2 9.9218 96.6055 7.8245 0.0000 -8.7093 0.0000
# 3 36.2071 7.8245 102.2329 0.0000 -42.8245 0.0000
# 4 0.0000 0.0000 0.0000 45.9538 0.0000 -13.8915
# 5 -33.9122 -8.7093 -42.8245 0.0000 61.8454 0.0000
# 6 0.0000 0.0000 0.0000 -13.8915 0.0000 57.5561
#
#
#
# Elastic Compliance Matrix: (Units=1/GPa)
#
#
# Indices 1 2 3 4 5 6 
#
# 1 0.011824 -0.000599 -0.002058 0.000000 0.004974 0.000000
# 2 -0.000599 0.010520 -0.000155 0.000000 0.001046 0.000000
# 3 -0.002058 -0.000155 0.014143 0.000000 0.008643 0.000000
# 4 0.000000 0.000000 0.000000 0.023474 0.000000 0.005665
# 5 0.004974 0.001046 0.008643 0.000000 0.025028 0.000000
# 6 0.000000 0.000000 0.000000 0.005665 0.000000 0.018742
#
#
# Mechanical properties :
#
#
# Convention : Reuss Voigt Hill
#
# Bulk Modulus (GPa) = 32.40294 45.82147 39.11220
# Shear Modulus (GPa) = 41.79151 49.77326 45.78239
#
# Velocity S-wave (km/s) = 3.88141 4.23588 4.06252
# Velocity P-wave (km/s) = 5.63632 6.35938 6.00874
#
# Compressibility (1/GPa) = 0.03086140
#
# Stress axis : x y z
#
# Youngs Moduli (GPa) = 84.57705 95.05943 70.70790
#
# Poissons Ratio (x) = 0.05696 0.14553
# Poissons Ratio (y) = 0.05068 0.01095
# Poissons Ratio (z) = 0.17407 0.01473
#
# Static dielectric constant tensor:
#      x y z
#    x 2.075830 0.000000 -0.081970 
#    y 0.000000 2.323390 0.000000 
#    z -0.081970 0.000000 2.127080 
# 
# From -- ./inp_files/13211.got.cif
#   From: 2010.05.17/outbox.cif.g08.bks.cpg/sg4_7_cif.got.tgz:13211.got - 2010.06.03 18:43:04.
