data_PCOD9115363
_publ_section_title
;
Structure prediction by ZEFSAII (Michael W. Deem and Ramdas Pophale) SiO2 
 PCOD9115363
Probable space group: P 21
;
_chemical_formula_sum "Si O2"
_cell_formula_units_Z 16
_cell_length_a 11.537204
_cell_length_b 5.670120
_cell_length_c 11.275935
_cell_angle_alpha 90.000000
_cell_angle_beta 91.701396
_cell_angle_gamma 90.000000
_cell_volume 737.316375
_symmetry_space_group_name_H-M "P 21"
_symmetry_group_IT_number 4
_symmetry_cell_setting 'monoclinic'
loop_
_space_group_symop_operation_xyz
x,y,z
-x,1/2+y,-z
loop_
_atom_site_type_symbol
_atom_site_label
_atom_site_fract_x
_atom_site_fract_y
_atom_site_fract_z
Si Si1 0.935087 0.894200 0.018824
Si Si2 0.299082 0.748027 0.761863
Si Si3 0.078623 0.289447 0.335468
Si Si4 0.104677 0.127306 0.756879
Si Si5 0.137750 0.492576 0.573125
Si Si6 0.762299 0.641752 0.858352
Si Si7 0.529017 0.891337 0.842173
Si Si8 0.344889 0.747283 0.016395
O O1 0.909194 0.845542 0.155955
O O2 0.820275 0.852083 0.936781
O O3 0.008804 0.652745 0.990767
O O4 0.213769 0.964746 0.788117
O O5 0.427584 0.852750 0.744209
O O6 0.242842 0.610071 0.650522
O O7 0.311291 0.616134 0.890516
O O8 0.145910 0.449416 0.433494
O O9 0.163413 0.130505 0.259077
O O10 0.008120 0.463954 0.246664
O O11 0.977598 0.141961 0.398243
O O12 0.121745 0.233701 0.627965
O O13 0.758341 0.413484 0.941576
O O14 0.627933 0.696480 0.830870
O O15 0.605257 0.121877 0.865685
O O16 0.454671 0.887008 0.962565
#
# Coordination Sequence:
#
# PCOD9115363 Si02
#       8
#     2   2   2   2   2   2   2   2
#     4  12  26  40  60 101 148 175 221 292 370 438
#     4   9  22  38  64  99 126 182 229 272 349 431
#     4  11  24  44  62 101 126 185 236 285 350 414
#     4  11  22  38  65  92 133 178 224 285 347 433
#     4  11  23  43  70  87 138 179 239 287 343 422
#     4  12  24  38  66 100 139 175 228 285 359 428
#     4  10  21  39  63  96 138 173 220 269 361 430
#     4  10  20  38  60  96 138 175 211 279 355 440
#
# _framework density 21.700319
#
# number of rings (size 3 to 8) (size 9 to 14) (size 15 to 20)
#    0.750    0.500    5.000    0.750    5.250    2.000 
#    0.000    0.000    2.750    0.000    0.000    0.000 
#    0.000    0.000    0.000    0.000    0.000    0.000 
#
# Total GULP energy -89180.053663 kJ/mol
# GULP energy per Si atom -5573.753354 kJ/mol
# Density = 2.165093 g / cm^3
# Si number density = 21.700319 Si / 1000 Ang^3
#
#
#
# Elastic Constant Matrix: (Units=GPa)
#
#
# Indices 1 2 3 4 5 6 
#
# 1 116.4467 32.0960 47.5776 0.0000 29.5421 0.0000
# 2 32.0960 55.3945 7.6763 0.0000 11.6600 0.0000
# 3 47.5776 7.6763 79.9058 0.0000 21.4888 0.0000
# 4 0.0000 0.0000 0.0000 35.8903 0.0000 -0.8322
# 5 29.5421 11.6600 21.4888 0.0000 30.0234 0.0000
# 6 0.0000 0.0000 0.0000 -0.8322 0.0000 35.3626
#
#
#
# Elastic Compliance Matrix: (Units=1/GPa)
#
#
# Indices 1 2 3 4 5 6 
#
# 1 0.014714 -0.006046 -0.006090 0.000000 -0.007771 0.000000
# 2 -0.006046 0.022146 0.002706 0.000000 -0.004589 0.000000
# 3 -0.006090 0.002706 0.018021 0.000000 -0.007956 0.000000
# 4 0.000000 0.000000 0.000000 0.027878 0.000000 0.000656
# 5 -0.007771 -0.004589 -0.007956 0.000000 0.048431 0.000000
# 6 0.000000 0.000000 0.000000 0.000656 0.000000 0.028294
#
#
# Mechanical properties :
#
#
# Convention : Reuss Voigt Hill
#
# Bulk Modulus (GPa) = 27.76123 47.38296 37.57210
# Shear Modulus (GPa) = 26.26746 31.21505 28.74125
#
# Velocity S-wave (km/s) = 3.48295 3.79682 3.64326
# Velocity P-wave (km/s) = 5.38473 6.41121 5.92026
#
# Compressibility (1/GPa) = 0.03602145
#
# Stress axis : x y z
#
# Youngs Moduli (GPa) = 67.96343 45.15460 55.49158
#
# Poissons Ratio (x) = 0.27299 0.33796
# Poissons Ratio (y) = 0.41088 -0.15018
# Poissons Ratio (z) = 0.41392 -0.12220
#
# Static dielectric constant tensor:
#      x y z
#    x 1.847400 0.000000 0.022630 
#    y 0.000000 1.859920 0.000000 
#    z 0.022630 0.000000 1.786460 
# 
# From -- ./inp_files/11721.got.cif
#   From: 2010.05.17/outbox.cif.g08.bks.cpg/sg4_6_cif.got.tgz:11721.got - 2010.06.03 18:43:04.
