data_PCOD9115867
_publ_section_title
;
Structure prediction by ZEFSAII (Michael W. Deem and Ramdas Pophale) SiO2 
 PCOD9115867
Probable space group: P 21
;
_chemical_formula_sum "Si O2"
_cell_formula_units_Z 16
_cell_length_a 22.761040
_cell_length_b 7.775770
_cell_length_c 9.628235
_cell_angle_alpha 90.000000
_cell_angle_beta 28.586362
_cell_angle_gamma 90.000000
_cell_volume 815.358447
_symmetry_space_group_name_H-M "P 21"
_symmetry_group_IT_number 4
_symmetry_cell_setting 'monoclinic'
loop_
_space_group_symop_operation_xyz
x,y,z
-x,1/2+y,-z
loop_
_atom_site_type_symbol
_atom_site_label
_atom_site_fract_x
_atom_site_fract_y
_atom_site_fract_z
Si Si1 0.752202 0.958150 0.607088
Si Si2 0.817349 0.604031 0.777091
Si Si3 0.011509 0.271586 0.774338
Si Si4 0.349777 0.606130 0.732342
Si Si5 0.185255 0.473219 0.820835
Si Si6 0.907599 0.605229 0.888856
Si Si7 0.173511 0.738148 0.335867
Si Si8 0.581602 0.817664 0.197045
O O1 0.870282 0.828496 0.379062
O O2 0.729764 0.977123 0.491606
O O3 0.791327 0.138410 0.596999
O O4 0.638930 0.894320 0.936278
O O5 0.834350 0.560233 0.902058
O O6 0.838138 0.441696 0.634438
O O7 0.920640 0.741243 0.515222
O O8 0.683975 0.679628 0.029318
O O9 0.922576 0.436535 0.951578
O O10 0.928392 0.103964 0.974288
O O11 0.257482 0.533942 0.807967
O O12 0.450276 0.730536 0.456940
O O13 0.416922 0.456099 0.681164
O O14 0.271835 0.700740 0.012727
O O15 0.142991 0.277371 0.935166
O O16 0.045215 0.655511 0.557926
#
# Coordination Sequence:
#
# PCOD9115867 Si02
#       8
#     2   2   2   2   2   2   2   2
#     4   9  24  42  59  93 134 168 215 256 323 393
#     4  11  18  36  61  92 124 163 211 267 319 368
#     4  10  23  34  60  93 130 170 204 253 322 390
#     4  11  22  41  67  93 117 168 220 272 323 373
#     4  12  23  41  64  93 133 171 211 260 324 395
#     4  11  21  35  60  98 132 160 209 265 321 383
#     4  10  21  37  63  92 126 165 204 267 322 380
#     4  10  22  42  62  88 122 161 216 274 312 374
#
# _framework density 19.623272
#
# number of rings (size 3 to 8) (size 9 to 14) (size 15 to 20)
#    0.000    1.500    2.500    3.750    3.500    0.000 
#    2.250    3.750    0.000    0.000    0.000    0.000 
#    0.000    0.000    0.000    0.000    0.000    0.000 
#
# Total GULP energy -89288.762354 kJ/mol
# GULP energy per Si atom -5580.547647 kJ/mol
# Density = 1.957861 g / cm^3
# Si number density = 19.623272 Si / 1000 Ang^3
#
#
#
# Elastic Constant Matrix: (Units=GPa)
#
#
# Indices 1 2 3 4 5 6 
#
# 1 19.3024 10.0623 17.7041 0.0000 5.6836 0.0000
# 2 10.0623 99.8308 26.0554 0.0000 -5.6842 0.0000
# 3 17.7041 26.0554 69.3761 0.0000 4.8176 0.0000
# 4 0.0000 0.0000 0.0000 27.0932 0.0000 -8.5502
# 5 5.6836 -5.6842 4.8176 0.0000 5.8548 0.0000
# 6 0.0000 0.0000 0.0000 -8.5502 0.0000 10.7236
#
#
#
# Elastic Compliance Matrix: (Units=1/GPa)
#
#
# Indices 1 2 3 4 5 6 
#
# 1 0.099304 -0.011761 -0.014252 0.000000 -0.096092 0.000000
# 2 -0.011761 0.013913 -0.004194 0.000000 0.028376 0.000000
# 3 -0.014252 -0.004194 0.020097 0.000000 -0.006774 0.000000
# 4 0.000000 0.000000 0.000000 0.049319 0.000000 0.039323
# 5 -0.096092 0.028376 -0.006774 0.000000 0.297208 0.000000
# 6 0.000000 0.000000 0.000000 0.039323 0.000000 0.124606
#
#
# Mechanical properties :
#
#
# Convention : Reuss Voigt Hill
#
# Bulk Modulus (GPa) = 13.71747 32.90586 23.31166
# Shear Modulus (GPa) = 7.25521 17.71349 12.48435
#
# Velocity S-wave (km/s) = 1.92491 3.00772 2.52504
# Velocity P-wave (km/s) = 3.45629 5.37280 4.51735
#
# Compressibility (1/GPa) = 0.07289975
#
# Stress axis : x y z
#
# Youngs Moduli (GPa) = 10.07009 71.87641 49.75933
#
# Poissons Ratio (x) = 0.84533 0.70915
# Poissons Ratio (y) = 0.11843 0.20871
# Poissons Ratio (z) = 0.14351 0.30148
#
# Static dielectric constant tensor:
#      x y z
#    x 1.675710 0.000000 -0.004830 
#    y 0.000000 1.754840 0.000000 
#    z -0.004830 0.000000 1.672150 
# 
# From -- ./inp_files/9184.got.cif
#   From: 2010.05.17/outbox.cif.g08.bks.cpg/sg4_5_cif.got.tgz:9184.got - 2010.06.03 18:43:04.
