data_PCOD9115766
_publ_section_title
;
Structure prediction by ZEFSAII (Michael W. Deem and Ramdas Pophale) SiO2 
 PCOD9115766
Probable space group: P 21
;
_chemical_formula_sum "Si O2"
_cell_formula_units_Z 16
_cell_length_a 28.440013
_cell_length_b 5.787416
_cell_length_c 22.012396
_cell_angle_alpha 90.000000
_cell_angle_beta 11.696139
_cell_angle_gamma 90.000000
_cell_volume 734.482086
_symmetry_space_group_name_H-M "P 21"
_symmetry_group_IT_number 4
_symmetry_cell_setting 'monoclinic'
loop_
_space_group_symop_operation_xyz
x,y,z
-x,1/2+y,-z
loop_
_atom_site_type_symbol
_atom_site_label
_atom_site_fract_x
_atom_site_fract_y
_atom_site_fract_z
Si Si1 0.258414 0.026020 0.779406
Si Si2 0.576624 0.296233 0.304428
Si Si3 0.363689 0.026127 0.178613
Si Si4 0.932143 0.713928 0.338870
Si Si5 0.094448 0.920514 0.746740
Si Si6 0.393310 0.531748 0.318492
Si Si7 0.117188 0.011533 0.364894
Si Si8 0.785562 0.806639 0.334509
O O1 0.472716 0.059900 0.463473
O O2 0.347952 0.935705 0.730928
O O3 0.127211 0.265782 0.959199
O O4 0.048217 0.891012 0.012866
O O5 0.360666 0.387519 0.537864
O O6 0.805654 0.270393 0.973324
O O7 0.220833 0.063518 0.421680
O O8 0.185010 0.012000 0.349513
O O9 0.501860 0.275036 0.993264
O O10 0.969487 0.594380 0.226225
O O11 0.781103 0.938520 0.512894
O O12 0.303926 0.777856 0.452760
O O13 0.185502 0.033163 0.693537
O O14 0.356145 0.381044 0.426023
O O15 0.647982 0.522217 0.971096
O O16 0.992019 0.258165 0.510540
#
# Coordination Sequence:
#
# PCOD9115766 Si02
#       8
#     2   2   2   2   2   2   2   2
#     4  11  25  46  64 104 142 186 234 303 366 431
#     4  12  25  44  72 102 142 187 245 295 362 455
#     4  12  26  47  76 107 143 200 250 305 378 456
#     4  11  23  44  71 104 137 185 243 302 365 438
#     4  10  20  46  72  93 140 186 231 299 377 419
#     4  10  22  47  71  97 146 187 232 310 374 436
#     4  12  28  46  71 111 152 198 246 314 384 454
#     4  10  25  44  69 102 138 187 237 302 364 441
#
# _framework density 21.784054999999999
#
# number of rings (size 3 to 8) (size 9 to 14) (size 15 to 20)
#    0.000    1.000    5.000    2.250    7.000    0.000 
#    9.000    0.000    0.000    0.000    0.000    0.000 
#    0.000    0.000    0.000    0.000    0.000    0.000 
#
# Total GULP energy -89228.311896 kJ/mol
# GULP energy per Si atom -5576.769494 kJ/mol
# Density = 2.173447 g / cm^3
# Si number density = 21.784055 Si / 1000 Ang^3
#
#
#
# Elastic Constant Matrix: (Units=GPa)
#
#
# Indices 1 2 3 4 5 6 
#
# 1 100.0794 21.2928 36.4146 0.0000 -22.3175 0.0000
# 2 21.2928 103.2008 53.9790 0.0000 -16.4725 0.0000
# 3 36.4146 53.9790 156.3103 0.0000 -0.4788 0.0000
# 4 0.0000 0.0000 0.0000 11.3696 0.0000 -6.3852
# 5 -22.3175 -16.4725 -0.4788 0.0000 44.1859 0.0000
# 6 0.0000 0.0000 0.0000 -6.3852 0.0000 24.3283
#
#
#
# Elastic Compliance Matrix: (Units=1/GPa)
#
#
# Indices 1 2 3 4 5 6 
#
# 1 0.012433 -0.000083 -0.002849 0.000000 0.006218 0.000000
# 2 -0.000083 0.012733 -0.004363 0.000000 0.004658 0.000000
# 3 -0.002849 -0.004363 0.008559 0.000000 -0.002973 0.000000
# 4 0.000000 0.000000 0.000000 0.103159 0.000000 0.027075
# 5 0.006218 0.004658 -0.002973 0.000000 0.027476 0.000000
# 6 0.000000 0.000000 0.000000 0.027075 0.000000 0.048211
#
#
# Mechanical properties :
#
#
# Convention : Reuss Voigt Hill
#
# Bulk Modulus (GPa) = 52.26155 64.77370 58.51763
# Shear Modulus (GPa) = 21.40974 32.50369 26.95672
#
# Velocity S-wave (km/s) = 3.13839 3.86694 3.52156
# Velocity P-wave (km/s) = 6.09717 7.05242 6.59212
#
# Compressibility (1/GPa) = 0.01913453
#
# Stress axis : x y z
#
# Youngs Moduli (GPa) = 80.43252 78.53824 116.83698
#
# Poissons Ratio (x) = 0.00649 0.33284
# Poissons Ratio (y) = 0.00665 0.50981
# Poissons Ratio (z) = 0.22914 0.34270
#
# Static dielectric constant tensor:
#      x y z
#    x 1.798280 0.000000 -0.001020 
#    y 0.000000 1.931700 0.000000 
#    z -0.001020 0.000000 1.824340 
# 
# From -- ./inp_files/16249.got.cif
#   From: 2010.05.17/outbox.cif.g08.bks.cpg/sg4_9_cif.got.tgz:16249.got - 2010.06.03 18:43:04.
